158

Mg 5.57800 54.15600 40.87900
C  5.74900 50.65600 40.97900
C  8.71100 54.18600 39.52300
C  5.19100 57.40600 40.55900
C  2.30400 53.86500 42.17500
N  7.05800 52.57000 40.28000
C  6.96000 51.20400 40.47700
C  8.17100 50.49500 39.90400
C  9.25100 51.67600 39.80000
C  8.26700 52.87600 39.80400
C  10.20100 51.71600 41.09600
C  7.95000 49.71300 38.57100
C  7.04800 50.25600 37.39400
H  6.35100 49.22800 36.46900
N  6.68000 55.56200 40.10200
C  7.96300 55.39200 39.61000
C  8.62200 56.61500 39.36500
C  7.66300 57.68900 39.59300
C  6.44300 56.96900 40.14300
C  10.06400 56.86200 38.88600
C  7.82200 59.20700 39.27500
O  8.82500 59.64000 38.77700
C  6.76100 60.27800 39.44800
N  3.84700 55.48700 41.20500
C  3.98200 56.76500 41.00200
C  2.75300 57.53000 41.58600
C  1.71700 56.35200 41.87500
C  2.68400 55.16700 41.84600
C  2.89700 58.47500 42.80800
C  0.45700 56.36400 40.99600
C  -0.84700 56.48200 41.80200
N  4.31200 52.63300 41.40800
C  3.00200 52.61800 41.95200
C  2.57200 51.30000 42.27800
C  3.67600 50.57200 41.90100
C  4.66600 51.35400 41.38600
C  1.34600 50.84600 43.04800
C  4.17400 49.20300 41.97600
O  3.58500 48.20300 42.40200
C  5.49100 49.15800 41.35700
C  5.42200 48.24900 40.30100
O  4.82200 48.44000 39.24000
O  6.14500 47.19400 40.59300
C  6.15900 46.12400 39.61600
H  9.72400 54.24300 39.12100
H  5.12000 58.49300 40.48500
H  1.28900 53.69000 42.53800
H  8.57300 49.75400 40.59400
H  9.90800 51.64600 38.93100
H  10.25700 50.77600 41.64500
H  9.83800 52.51600 41.74200
H  11.23000 51.92300 40.80400
H  7.74900 48.65400 38.73300
H  8.89600 49.66500 38.03100
H  7.66700 50.95400 36.83000
H  6.26600 50.83400 37.88600
H  10.15700 56.98000 37.80600
H  10.82800 56.20200 39.29600
H  10.22000 57.85900 39.29800
H  5.86500 59.83300 39.01500
H  7.21800 61.14400 38.97000
H  6.61400 60.46200 40.51200
H  2.39800 58.19200 40.79600
H  1.29500 56.48300 42.87100
H  2.07400 59.18100 42.69900
H  3.87400 58.93200 42.96600
H  2.50400 58.01700 43.71600
H  0.44900 55.42400 40.44500
H  0.61500 57.16900 40.27900
H  -0.76900 56.86400 42.82000
H  -1.25500 55.47200 41.76800
H  -1.48400 57.04400 41.11900
H  0.54100 51.57400 43.14500
H  1.64400 50.74100 44.09100
H  0.90200 49.95200 42.61000
H  6.26700 48.87700 42.07000
H  5.17200 45.65900 39.62200
H  6.93800 45.39600 39.84300
H  6.42800 46.40300 38.59800
Mg 10.07500 47.83200 26.40600
C  7.95500 48.05600 29.21400
C  12.57700 49.27100 28.25300
C  11.89100 47.50200 23.76900
C  7.09800 47.00000 24.53000
N  10.29900 48.47600 28.47100
C  9.30400 48.41000 29.50000
C  9.86100 48.91600 30.86700
C  11.12600 49.66400 30.38500
C  11.38100 49.12100 28.93700
C  11.13600 51.18800 30.58600
C  10.09200 47.83400 31.87900
C  9.44400 48.05300 33.25700
H  9.46300 46.94100 34.35900
N  11.99200 48.24700 26.07800
C  12.89300 48.83300 26.90800
C  14.22700 48.88100 26.32500
C  14.10600 48.32300 25.07800
C  12.59800 47.99500 24.90000
C  15.46000 49.43300 27.14600
C  15.11800 48.13300 23.92900
O  14.84600 47.45400 22.95400
C  16.50000 48.80200 23.89200
N  9.53700 47.35900 24.34100
C  10.54500 47.27600 23.44500
C  10.04300 47.01200 21.99000
C  8.50200 46.65200 22.28600
C  8.30000 47.00100 23.75800
C  10.20400 48.23200 21.06500
C  8.13800 45.18700 21.98000
C  8.69300 44.12100 22.95200
N  8.01200 47.62500 26.75800
C  6.93100 47.31500 25.94900
C  5.65100 47.30300 26.68000
C  6.05500 47.49900 27.98200
C  7.45800 47.71100 27.96200
C  4.20800 47.13200 26.19400
C  5.55300 47.69900 29.29100
O  4.40600 47.86300 29.67800
C  6.85200 47.89400 30.14000
C  6.96800 46.58100 30.93700
O  7.42800 45.52500 30.44800
O  6.45100 46.68800 32.20600
C  6.00100 45.48200 32.86400
H  13.27400 49.78200 28.92000
H  12.48000 47.29100 22.87500
H  6.15400 46.69300 24.07600
H  9.08800 49.64900 31.09700
H  11.97900 49.38800 31.00600
H  10.12000 51.58200 30.56100
H  11.86600 51.70900 29.96600
H  11.46500 51.46000 31.58900
H  11.16500 47.75300 32.05500
H  9.82300 46.86800 31.45100
H  8.46900 48.53900 33.27500
H  10.10600 48.80100 33.69400
H  15.23400 49.39200 28.21200
H  15.54000 50.48600 26.87800
H  16.30000 48.80200 26.85500
H  16.33700 49.87900 23.90900
H  17.06500 48.46300 23.02400
H  17.08200 48.58900 24.78900
H  10.58500 46.14600 21.61000
H  7.83900 47.25000 21.66000
H  9.26100 48.49900 20.58900
H  11.03100 48.10800 20.36600
H  10.34200 49.03100 21.79400
H  8.59500 45.06500 20.99800
H  7.06700 45.03700 21.83900
H  9.26500 44.52800 23.78600
H  9.39600 43.46900 22.43400
H  7.91800 43.46400 23.34600
H  3.81400 46.42300 26.92300
H  4.12200 46.81900 25.15400
H  3.70300 48.07800 26.38600
H  6.60300 48.66000 30.87500
H  6.25600 45.36100 33.91700
H  6.29200 44.60600 32.28300
H  4.91800 45.40900 32.77200

