158

Mg 28.16600 56.05300 40.60500
C  25.77900 53.60400 39.83700
C  30.69300 54.04900 39.38400
C  30.19300 58.78200 40.30000
C  25.41800 58.28900 41.18600
N  28.20000 54.14200 39.53500
C  27.12800 53.29000 39.50700
C  27.55100 51.91900 38.97800
C  29.10100 51.93300 39.15700
C  29.38400 53.42200 39.37200
C  29.62600 51.05700 40.27700
C  26.99200 51.59600 37.57500
C  26.66300 52.76300 36.67000
H  27.37000 52.85400 35.28000
N  30.20000 56.30000 40.06500
C  31.06400 55.36400 39.65900
C  32.44300 56.00700 39.59500
C  32.26300 57.31800 39.97300
C  30.82400 57.50400 40.16300
C  33.69600 55.29600 39.08300
C  33.42100 58.34400 40.10100
O  34.56000 57.93500 39.89000
C  33.27100 59.82600 40.42500
N  27.79100 58.17600 40.62800
C  28.83700 59.06300 40.48200
C  28.30100 60.49600 40.43400
C  26.80500 60.35100 40.72200
C  26.65500 58.83500 40.87000
C  29.07300 61.43000 41.40800
C  25.85300 61.06700 39.75300
C  24.61100 61.82100 40.33600
N  26.02200 55.94200 40.72600
C  25.00500 56.93300 40.98500
C  23.67700 56.32100 41.06700
C  23.95200 54.99800 40.61300
C  25.35800 54.79800 40.40500
C  22.34400 56.97100 41.33200
C  23.38700 53.63300 40.28500
O  22.28000 53.16600 40.37800
C  24.52800 52.69200 39.78400
C  24.49500 51.41200 40.49500
O  24.28600 50.27100 40.02600
O  25.02500 51.60000 41.75100
C  25.19000 50.38100 42.50800
H  31.55500 53.47700 39.03500
H  30.86200 59.64600 40.30500
H  24.60200 58.98900 41.37600
H  27.21100 51.21600 39.73900
H  29.61300 51.57700 38.26200
H  28.92600 51.05000 41.11200
H  30.57500 51.49500 40.58400
H  29.84500 50.02200 40.01500
H  26.13100 50.93300 37.65800
H  27.84300 50.99500 37.25500
H  27.00700 53.74400 36.99800
H  25.63200 52.85400 36.32900
H  33.89500 55.59400 38.05300
H  33.43500 54.24200 39.17000
H  34.61600 55.44800 39.64900
H  32.74500 60.00200 41.36300
H  32.82700 60.32000 39.56100
H  34.29200 60.17600 40.57300
H  28.41900 60.75400 39.38100
H  26.52900 60.71500 41.71100
H  29.74300 62.04300 40.80600
H  29.65900 60.87100 42.13800
H  28.36700 62.09300 41.90900
H  25.41400 60.37700 39.03200
H  26.47600 61.77900 39.21200
H  24.82400 62.89000 40.36100
H  24.48900 61.35500 41.31400
H  23.66100 61.61900 39.84100
H  21.89900 57.05700 40.34000
H  22.33100 57.91800 41.87100
H  21.79900 56.27100 41.96600
H  24.28500 52.49900 38.73900
H  25.77200 50.66700 43.38400
H  25.78400 49.63100 41.98400
H  24.27900 49.98400 42.95500
Mg 35.66100 48.22100 25.29500
C  36.22400 46.44900 28.33900
C  34.43500 50.86300 27.26100
C  35.08400 49.96400 22.48100
C  36.70900 45.36600 23.55800
N  35.22800 48.49200 27.47800
C  35.60600 47.69500 28.58000
C  35.26300 48.36900 29.89100
C  34.44300 49.63400 29.44600
C  34.71800 49.67600 27.95000
C  32.92500 49.61200 29.86700
C  36.55100 48.71400 30.72400
C  36.53500 48.24600 32.18000
H  35.15600 48.14700 32.92500
N  34.92700 50.10200 24.95100
C  34.59700 51.07700 25.87100
C  34.29700 52.29800 25.18800
C  34.45100 52.10000 23.77800
C  34.86500 50.64500 23.68600
C  34.03200 53.52000 25.98800
C  34.37000 53.06500 22.71600
O  34.70200 52.85300 21.56400
C  33.78700 54.51100 22.90000
N  35.89600 47.73100 23.38300
C  35.53100 48.62800 22.39000
C  35.44200 47.87100 21.01100
C  35.93200 46.42300 21.33000
C  36.21300 46.53600 22.79800
C  33.95000 47.93500 20.34400
C  37.12700 45.82600 20.47600
C  36.66600 44.96600 19.29200
N  36.46500 46.39400 25.80100
C  36.83000 45.34300 24.96000
C  37.22400 44.17400 25.80900
C  36.95500 44.61500 27.11400
C  36.56700 45.93400 27.05700
C  37.81500 42.88200 25.33200
C  36.84100 44.12600 28.47300
O  37.10500 43.05400 29.03500
C  36.42000 45.35500 29.27500
C  35.26200 44.96500 30.09500
O  34.08200 44.97800 29.77400
O  35.71300 44.43300 31.30400
C  34.76700 43.77500 32.22500
H  34.04900 51.61400 27.95400
H  34.67900 50.44600 21.58900
H  36.99000 44.46700 23.00500
H  34.59500 47.64200 30.35300
H  34.95200 50.49200 29.88400
H  32.24800 49.68000 29.01500
H  32.82300 50.38400 30.62900
H  32.68500 48.66700 30.35500
H  36.70600 49.79000 30.64800
H  37.44500 48.28600 30.27100
H  37.25100 48.92300 32.64600
H  37.02700 47.27400 32.21600
H  34.95500 53.95400 26.37300
H  33.41500 53.18500 26.82200
H  33.46300 54.27600 25.44600
H  33.66900 55.15400 22.02800
H  34.48500 54.99800 23.58200
H  32.90200 54.52100 23.53600
H  36.19400 48.27900 20.33500
H  35.10700 45.71700 21.24600
H  33.71500 46.87900 20.21000
H  33.95400 48.59600 19.47800
H  33.41400 48.41200 21.16500
H  37.72300 45.21600 21.15500
H  37.75800 46.57600 19.99800
H  35.58700 45.01500 19.14300
H  36.88500 43.90800 19.43600
H  37.05000 45.44000 18.38900
H  37.91700 42.99200 24.25300
H  37.13000 42.09300 25.64300
H  38.66500 42.70800 25.99100
H  37.29500 45.65800 29.85000
H  33.93700 44.42000 32.51300
H  35.28600 43.38600 33.10100
H  34.42900 42.88800 31.69000

