158

Mg 17.47400 -2.16600 27.18200
C  16.47800 -0.06700 29.76300
C  19.33400 -3.95800 29.41300
C  18.59700 -4.00400 24.56700
C  15.64500 -0.08900 24.97900
N  17.93300 -1.87500 29.28300
C  17.32800 -1.06300 30.19100
C  17.82100 -1.27200 31.56300
C  18.88400 -2.37900 31.37500
C  18.79000 -2.77300 29.91100
C  20.39500 -2.03500 31.70500
C  16.73700 -1.55800 32.67500
C  16.66800 -0.64500 33.95400
H  18.03700 -0.07400 34.39100
N  18.75800 -3.76600 26.99600
C  19.38000 -4.39700 28.00800
C  20.09200 -5.52700 27.55000
C  19.91300 -5.66300 26.11500
C  19.14300 -4.38800 25.77600
C  20.94500 -6.41700 28.41200
C  20.18100 -6.80500 25.13100
O  19.76500 -6.75100 23.96600
C  20.97100 -7.99500 25.54300
N  17.32200 -2.00300 25.04900
C  17.84000 -2.88300 24.21300
C  17.62000 -2.51500 22.77700
C  16.64500 -1.27900 22.89600
C  16.47100 -1.08500 24.41000
C  18.92900 -2.25800 21.92100
C  15.30300 -1.54800 22.13300
C  14.54000 -0.42100 21.56700
N  16.24000 -0.47100 27.26000
C  15.49600 0.17700 26.31800
C  14.61500 1.08500 26.98400
C  15.00800 1.09400 28.36100
C  15.93700 0.08500 28.46100
C  13.59500 1.96100 26.24300
C  14.79300 1.69300 29.64900
O  14.05000 2.65700 29.90300
C  15.72500 0.93200 30.62400
C  16.52000 1.92400 31.24200
O  17.56300 2.34500 30.71300
O  15.87400 2.42600 32.36100
C  16.56000 3.45800 33.18300
H  19.91400 -4.50300 30.16100
H  18.84900 -4.52600 23.64100
H  14.96900 0.51500 24.37000
H  18.26100 -0.31400 31.83900
H  18.55500 -3.26500 31.91800
H  20.83600 -2.87900 32.23500
H  20.51900 -1.19800 32.39200
H  21.02800 -1.85300 30.83700
H  17.02200 -2.53100 33.07700
H  15.71600 -1.48600 32.30200
H  16.32900 -1.23700 34.80400
H  15.92900 0.14400 33.81300
H  21.16200 -7.44900 28.13900
H  20.53600 -6.55000 29.41300
H  21.90900 -5.91900 28.51900
H  22.01200 -7.81200 25.81100
H  21.06800 -8.68200 24.70200
H  20.42100 -8.60400 26.26100
H  17.16900 -3.44700 22.43600
H  17.23000 -0.42400 22.55900
H  19.69200 -1.74700 22.50700
H  18.75900 -1.57200 21.09100
H  19.31500 -3.18700 21.50200
H  14.65300 -2.12700 22.79000
H  15.49200 -2.22700 21.30200
H  13.52700 -0.32700 21.95900
H  14.58400 -0.49800 20.48000
H  15.14800 0.48100 21.63200
H  12.82200 2.29000 26.93700
H  13.11700 1.39600 25.44300
H  13.93100 2.87000 25.74500
H  15.15000 0.46500 31.42300
H  16.20900 4.48900 33.14000
H  17.62300 3.39600 32.94700
H  16.31700 3.10300 34.18500
Mg 41.70500 42.28800 27.51100
C  40.67900 44.73500 29.87900
C  42.05500 39.96000 29.93700
C  42.90800 40.32500 25.27800
C  41.63800 45.00600 25.17400
N  41.52200 42.39900 29.66900
C  40.93800 43.44700 30.36400
C  40.70900 42.93100 31.80600
C  41.23700 41.49800 31.86400
C  41.69900 41.28000 30.39800
C  42.29800 41.18200 32.89300
C  39.19800 43.07700 32.39800
C  38.78200 42.29600 33.66800
H  38.20000 43.05100 34.81600
N  42.38000 40.36400 27.60300
C  42.50100 39.48200 28.74500
C  42.93400 38.21600 28.29400
C  43.18100 38.29700 26.88700
C  42.86500 39.68100 26.52600
C  43.15600 37.09300 29.18500
C  43.77800 37.31600 25.91400
O  44.30000 37.60300 24.81500
C  43.89900 35.91000 26.26200
N  42.39000 42.71200 25.65100
C  42.60600 41.56600 24.91400
C  42.84200 42.00500 23.44200
C  42.23200 43.35700 23.37900
C  41.99400 43.70300 24.80900
C  44.26700 41.84000 22.94800
C  40.90000 43.48200 22.45700
C  39.83100 42.45800 22.66400
N  41.25800 44.48600 27.46900
C  41.24400 45.36100 26.47900
C  40.68600 46.62500 26.93300
C  40.47200 46.42500 28.23300
C  40.86800 45.11200 28.53800
C  40.21700 47.67000 25.97900
C  40.02400 47.13700 29.41400
O  39.62000 48.30000 29.51100
C  40.08100 46.01600 30.59900
C  40.88500 46.51100 31.64400
O  41.96500 46.99100 31.40700
O  40.25400 46.47600 32.91800
C  40.97600 46.72800 34.10900
H  42.03200 39.34900 30.84100
H  43.43000 39.82600 24.45800
H  41.53500 45.78700 24.41800
H  41.19800 43.58900 32.52500
H  40.38200 40.83500 31.99800
H  43.20600 40.68900 32.54400
H  42.12500 40.43100 33.66400
H  42.66000 42.09100 33.37400
H  38.50400 42.86200 31.58600
H  39.11200 44.10400 32.75400
H  39.61500 41.72700 34.08100
H  38.03700 41.55400 33.37700
H  43.21000 37.37300 30.23700
H  44.17800 36.75200 29.01900
H  42.36700 36.38100 28.94100
H  42.84600 35.63100 26.27100
H  44.45600 35.89400 27.19900
H  44.42900 35.27800 25.55000
H  42.33100 41.30200 22.78400
H  43.00800 44.02400 23.00200
H  44.21800 41.41600 21.94500
H  44.95000 41.26000 23.56800
H  44.66200 42.82400 22.69400
H  41.10600 43.45500 21.38700
H  40.27800 44.36500 22.60600
H  39.12900 42.89800 23.37200
H  40.19000 41.50500 23.05200
H  39.27200 42.31000 21.74000
H  39.59800 48.38700 26.51900
H  39.61700 47.21000 25.19300
H  41.10800 48.12700 25.54900
H  39.08600 45.97800 31.04200
H  41.49500 45.80900 34.37900
H  40.29900 47.17200 34.83800
H  41.71500 47.49900 33.89000

