158

Mg 48.42300 15.62600 28.32300
C  46.54000 15.52300 31.30100
C  50.70600 17.60300 30.07200
C  50.01800 15.98700 25.30600
C  45.79500 14.06800 26.64400
N  48.62000 16.43400 30.42400
C  47.67900 16.24100 31.50500
C  48.29000 16.90000 32.78800
C  49.44600 17.77400 32.25100
C  49.58000 17.30700 30.79300
C  49.26600 19.31100 32.43800
C  48.73100 15.80300 33.85200
C  48.06500 15.75500 35.22000
H  47.85300 17.16500 35.81000
N  50.15700 16.56800 27.79600
C  50.94200 17.33700 28.64400
C  52.03500 17.77100 27.88300
C  51.84600 17.49900 26.49100
C  50.58700 16.67300 26.48900
C  53.11600 18.52300 28.53400
C  52.73000 17.91100 25.25000
O  52.50000 17.58700 24.06800
C  53.90300 18.83100 25.43100
N  47.97200 15.08600 26.24100
C  48.86500 15.24000 25.26900
C  48.44700 14.56800 23.93200
C  46.99100 13.99500 24.29200
C  46.89200 14.37800 25.78600
C  48.32800 15.51000 22.65500
C  46.80600 12.49700 24.19800
C  47.54300 11.61300 25.22000
N  46.60300 14.92700 28.79800
C  45.61300 14.31000 28.02800
C  44.44100 13.97600 28.79500
C  44.77000 14.49900 30.06500
C  46.08500 15.06300 30.04200
C  43.25400 13.23000 28.34200
C  44.29500 14.51800 31.41300
O  43.24200 14.05800 31.85800
C  45.36500 15.23000 32.26100
C  44.86600 16.52600 32.80500
O  44.55500 17.51000 32.20100
O  44.66400 16.34900 34.16800
C  43.77300 17.39000 34.73300
H  51.47000 18.17600 30.60300
H  50.48400 16.10000 24.32500
H  44.94100 13.56600 26.18700
H  47.49800 17.56900 33.12700
H  50.32800 17.45200 32.80500
H  48.48300 19.69300 33.09300
H  49.21100 19.84700 31.49000
H  50.19100 19.67900 32.88200
H  49.81000 15.84500 34.00000
H  48.60300 14.83100 33.37400
H  48.67200 15.16600 35.90800
H  47.11500 15.27400 34.98600
H  52.96100 19.59600 28.41300
H  54.04400 18.36000 27.98600
H  53.29900 18.22300 29.56600
H  53.69800 19.82500 25.83000
H  54.44400 18.84300 24.48600
H  54.60300 18.37600 26.13100
H  49.23400 13.85600 23.68500
H  46.10100 14.34300 23.76800
H  47.27100 15.56800 22.39900
H  48.93100 15.11000 21.84000
H  48.56000 16.55200 22.87500
H  47.14700 12.24400 23.19400
H  45.75800 12.23200 24.06100
H  48.03000 10.76000 24.74800
H  46.77600 11.26100 25.91000
H  48.28400 12.15000 25.81300
H  42.36900 13.37500 28.96100
H  43.58400 12.19200 28.30900
H  43.09100 13.57700 27.32200
H  45.77300 14.58200 33.03700
H  44.43200 18.25400 34.82000
H  43.53000 16.95500 35.70200
H  42.86700 17.49400 34.13600
Mg -5.93200 25.22900 26.23100
C  -4.88900 26.82300 29.12000
C  -7.68600 23.03100 28.16100
C  -6.83500 23.68800 23.35000
C  -3.98300 27.52100 24.37400
N  -6.26400 25.06100 28.39400
C  -5.79400 25.85500 29.36900
C  -6.38100 25.43000 30.70200
C  -7.14200 24.10200 30.37900
C  -7.07300 24.06700 28.93800
C  -6.47800 22.93700 31.24100
C  -7.29900 26.51200 31.27200
C  -7.04900 27.05000 32.64800
H  -6.66000 26.08300 33.70600
N  -6.99400 23.52600 25.77500
C  -7.67100 22.78100 26.70000
C  -8.49800 21.78700 25.98000
C  -8.12700 21.92200 24.55000
C  -7.33600 23.08600 24.50000
C  -9.49900 20.89400 26.69200
C  -8.57700 21.09400 23.43300
O  -8.15900 21.18200 22.29100
C  -9.64300 20.19600 23.65900
N  -5.43400 25.55500 24.19000
C  -5.94200 24.79200 23.17600
C  -5.51700 25.22500 21.85800
C  -4.75400 26.48900 22.12400
C  -4.73100 26.58900 23.62500
C  -4.62700 24.08600 21.14900
C  -5.33400 27.73700 21.51000
C  -5.30300 27.66400 20.01500
N  -4.59900 26.76600 26.58400
C  -3.88200 27.60200 25.77700
C  -3.12800 28.57100 26.54500
C  -3.48100 28.27200 27.86500
C  -4.31800 27.12100 27.86100
C  -2.39100 29.73100 26.12500
C  -3.30400 28.79800 29.21100
O  -2.73100 29.75000 29.72600
C  -4.23000 27.78600 30.11400
C  -3.53400 27.09100 31.23500
O  -2.97900 25.97700 31.09600
O  -3.53900 27.84300 32.36900
C  -2.49400 27.42800 33.33800
H  -8.26200 22.42600 28.86400
H  -7.03900 23.21200 22.38900
H  -3.37700 28.14000 23.70800
H  -5.53600 25.25300 31.36800
H  -8.16400 24.07800 30.75700
H  -7.12600 22.64700 32.06800
H  -5.49600 23.20400 31.63300
H  -6.44100 21.96400 30.75100
H  -8.34300 26.20200 31.22600
H  -7.17200 27.42900 30.69700
H  -8.04400 27.44900 32.84700
H  -6.32600 27.86600 32.65200
H  -9.14900 19.86300 26.74200
H  -10.39400 20.98600 26.07700
H  -9.64600 21.30800 27.68900
H  -9.32600 19.64100 24.54100
H  -9.74400 19.54300 22.79200
H  -10.58700 20.70900 23.84300
H  -6.41300 25.30700 21.24400
H  -3.71800 26.38100 21.80500
H  -4.53600 23.23700 21.82600
H  -3.59400 24.41700 21.04200
H  -4.99400 23.89800 20.14000
H  -4.72500 28.60800 21.75200
H  -6.30200 27.98000 21.94900
H  -6.30500 27.56900 19.59600
H  -4.72600 26.82100 19.63600
H  -4.79200 28.53200 19.59900
H  -1.37400 29.52100 25.79400
H  -2.40800 30.54500 26.84900
H  -2.88700 30.16100 25.25500
H  -5.03000 28.45800 30.42500
H  -2.65000 27.87800 34.31900
H  -1.54400 27.89300 33.07700
H  -2.35800 26.35000 33.41800

