158

Mg 1.93800 -0.97500 43.87800
C  5.34400 -0.10600 43.03400
C  0.86600 1.41600 41.92900
C  -1.13600 -2.57200 44.00700
C  3.39300 -4.04000 45.17600
N  3.05300 0.43900 42.56200
C  4.38500 0.70500 42.41100
C  4.57500 1.92900 41.56700
C  3.17800 2.49400 41.37900
C  2.29300 1.39400 42.06900
C  2.87600 3.99600 41.70400
C  5.28300 1.60200 40.23000
C  6.69000 2.23500 39.96900
H  6.81200 2.96900 38.62400
N  0.08200 -0.48700 43.19900
C  -0.14000 0.55800 42.41800
C  -1.54500 0.68800 42.35900
C  -2.15500 -0.48200 42.89200
C  -1.06100 -1.24600 43.39300
C  -2.13400 1.83500 41.68800
C  -3.64900 -0.74700 42.98900
O  -4.37500 0.11900 42.53500
C  -4.26000 -1.92000 43.67100
N  1.26700 -3.09900 44.48100
C  -0.04800 -3.42100 44.53700
C  -0.22900 -4.86700 45.18200
C  1.25300 -5.14500 45.77500
C  2.01000 -4.04300 45.08100
C  -1.37200 -4.93000 46.27300
C  1.85100 -6.60500 45.62600
C  2.31700 -7.34800 46.86400
N  3.97700 -1.82200 44.24400
C  4.32200 -3.07900 44.79200
C  5.79600 -3.02900 45.07700
C  6.28500 -1.87800 44.34600
C  5.10700 -1.20700 43.84300
C  6.56700 -4.11500 45.72300
C  7.43100 -1.12700 43.88500
O  8.66200 -1.28400 44.11500
C  6.87600 0.08100 43.06900
C  7.45000 1.28500 43.73400
O  7.01900 1.85800 44.78600
O  8.47200 1.85900 42.96600
C  8.84100 3.24300 43.16000
H  0.54900 2.28500 41.34800
H  -2.11600 -3.01400 44.19400
H  3.68100 -4.89400 45.79300
H  5.05800 2.75500 42.08700
H  2.79500 2.37300 40.36600
H  2.18400 4.21600 42.51700
H  2.50900 4.43600 40.77600
H  3.74900 4.54900 42.04900
H  4.62900 1.96500 39.43700
H  5.34500 0.51400 40.22300
H  7.36500 1.38000 40.00100
H  6.85900 2.91900 40.80100
H  -1.41000 2.65000 41.67200
H  -2.91900 2.26500 42.31000
H  -2.31800 1.71300 40.62100
H  -3.66800 -1.99300 44.58300
H  -4.07200 -2.75800 43.00000
H  -5.33300 -1.74200 43.74400
H  -0.55600 -5.67400 44.52700
H  1.38100 -4.80500 46.80200
H  -0.93800 -5.32800 47.19000
H  -2.08900 -5.69400 45.97500
H  -1.86900 -3.96200 46.34100
H  2.60800 -6.63900 44.84300
H  1.06900 -7.24000 45.20800
H  2.45200 -6.61700 47.66100
H  3.25000 -7.87200 46.65600
H  1.64700 -8.08600 47.30600
H  6.22100 -4.18200 46.75500
H  7.63700 -3.93900 45.61300
H  6.37000 -5.00900 45.13300
H  7.32700 0.00200 42.08000
H  7.99200 3.79700 42.76000
H  9.73700 3.40800 42.56200
H  9.18000 3.51200 44.16000
Mg 8.57800 3.56100 27.75600
C  10.07100 2.18200 30.65900
C  6.72500 5.61100 29.69000
C  7.29700 4.95300 24.97500
C  10.08700 1.05700 25.86600
N  8.46000 3.89200 29.95800
C  9.23300 3.27100 30.94400
C  8.87100 3.86700 32.34100
C  7.62200 4.71400 31.94300
C  7.58600 4.78000 30.39300
C  6.37700 4.11500 32.61000
C  10.06200 4.73600 33.01300
C  10.88900 4.05600 34.02500
H  11.32900 4.77700 35.30700
N  7.24200 5.07200 27.39300
C  6.55400 5.83800 28.33700
C  5.78000 6.75400 27.67400
C  5.83600 6.51600 26.26000
C  6.78000 5.46600 26.15200
C  4.90700 7.71400 28.43300
C  5.01400 7.12900 25.12800
O  5.16000 6.84200 23.96000
C  4.00000 8.19500 25.47600
N  8.68400 3.08800 25.80600
C  8.16700 3.85500 24.81500
C  8.48300 3.45400 23.42400
C  9.32800 2.12300 23.67700
C  9.45100 2.12600 25.16100
C  7.22700 3.10900 22.65200
C  10.79100 2.11000 23.01800
C  11.18100 0.81500 22.25500
N  9.69400 1.90500 28.16300
C  10.28400 0.99700 27.24800
C  11.16900 0.08900 27.97000
C  11.10300 0.52800 29.35800
C  10.19700 1.60900 29.38600
C  12.05100 -0.99300 27.37500
C  11.69900 0.39200 30.64300
O  12.55500 -0.37200 31.05500
C  11.02700 1.47600 31.52200
C  10.50500 0.87400 32.79600
O  9.34000 0.62800 33.04900
O  11.50800 0.80600 33.68500
C  11.06500 0.30800 35.07600
H  6.22100 6.24500 30.42300
H  6.79100 5.40100 24.11700
H  10.74600 0.34700 25.36200
H  8.69200 2.98600 32.95700
H  7.59700 5.73100 32.33500
H  5.91700 4.92000 33.18400
H  6.55600 3.27200 33.27700
H  5.74900 3.69200 31.82600
H  9.69000 5.67000 33.43300
H  10.74400 5.01100 32.20900
H  11.76800 3.62000 33.55000
H  10.36400 3.15700 34.34900
H  5.22300 8.73900 28.23900
H  5.04900 7.61200 29.50900
H  3.84600 7.51400 28.28700
H  4.39900 9.03400 26.04700
H  3.16900 7.71400 25.99000
H  3.60000 8.61400 24.55300
H  9.05600 4.24300 22.93800
H  8.70900 1.26000 23.43000
H  6.31700 3.44400 23.14900
H  7.06500 2.06000 22.40100
H  7.20800 3.60500 21.68100
H  11.41500 2.19900 23.90700
H  10.90200 2.94200 22.32300
H  12.24200 0.68400 22.46700
H  11.17300 0.97900 21.17800
H  10.79000 -0.16400 22.53300
H  12.85100 -1.22000 28.08000
H  12.65800 -0.68800 26.52300
H  11.51600 -1.91800 27.16000
H  11.79300 2.23900 31.66500
H  10.20400 0.90800 35.37100
H  11.77900 0.29300 35.89900
H  10.77800 -0.73900 34.96900

