158

Mg 0.96200 7.31700 27.06800
C  1.31000 9.78800 29.49600
C  1.29300 5.02100 29.49900
C  0.79400 4.95500 24.55200
C  1.18400 9.74700 24.56700
N  1.31600 7.39000 29.29000
C  1.24700 8.50400 30.05400
C  1.11400 8.10300 31.61200
C  1.43600 6.61000 31.56300
C  1.33800 6.30300 30.03400
C  2.67900 6.00800 32.27200
C  -0.38000 8.44900 32.03500
C  -0.68800 8.58900 33.54000
H  0.39600 8.57600 34.59100
N  1.10700 5.30300 26.97700
C  1.17600 4.56900 28.13100
C  1.14300 3.23100 27.72600
C  1.16600 3.07700 26.33900
C  1.02800 4.47400 25.90700
C  1.30800 2.18200 28.73000
C  1.22100 1.90200 25.37000
O  1.31400 2.06600 24.16500
C  1.26500 0.46700 25.85600
N  1.08300 7.36300 24.83000
C  0.84300 6.25100 24.03700
C  0.41500 6.66700 22.63800
C  0.63100 8.21800 22.56900
C  0.97300 8.47000 24.03100
C  1.09800 5.82300 21.56000
C  -0.56300 9.02200 22.00200
C  -0.26000 10.46300 21.53100
N  1.18900 9.31100 27.00200
C  1.34800 10.13400 25.90700
C  1.55100 11.46500 26.38000
C  1.61100 11.36400 27.80800
C  1.38800 10.04300 28.09100
C  1.83000 12.64800 25.48700
C  1.85200 12.14900 28.97300
O  2.03100 13.34500 29.13100
C  1.57200 11.12700 30.13900
C  2.76700 11.14000 31.02100
O  3.92900 10.88400 30.69400
O  2.30700 11.38500 32.31800
C  3.31300 11.62600 33.43000
H  1.28500 4.26400 30.28600
H  0.70400 4.30500 23.68000
H  1.21500 10.52100 23.79600
H  1.84400 8.61000 32.24300
H  0.67000 6.04900 32.09800
H  2.48100 5.25200 33.03200
H  3.31900 6.76500 32.72600
H  3.28800 5.62500 31.45300
H  -0.92700 7.60300 31.62000
H  -0.67300 9.31900 31.44800
H  -1.40600 7.79400 33.74300
H  -1.22200 9.54000 33.56100
H  1.82700 1.31200 28.32700
H  0.40000 1.95400 29.28800
H  2.01800 2.48400 29.49900
H  2.29900 0.39700 26.19400
H  1.04200 -0.21700 25.03800
H  0.53200 0.46300 26.66300
H  -0.64700 6.42100 22.64000
H  1.35200 8.54000 21.81700
H  0.39400 5.12600 21.10600
H  1.88900 5.19500 21.97100
H  1.45900 6.56000 20.84300
H  -1.19100 9.19300 22.87600
H  -1.18000 8.40400 21.35000
H  -0.77700 10.64200 20.58800
H  0.80300 10.62200 21.34900
H  -0.65300 11.22200 22.20800
H  0.87300 12.87400 25.01800
H  2.50800 12.35900 24.68400
H  2.19200 13.54400 25.99100
H  0.70400 11.49900 30.68300
H  3.21200 10.74900 34.06900
H  3.14200 12.48500 34.07900
H  4.32500 11.65900 33.02500
Mg 26.64500 50.09700 26.91600
C  24.43100 51.38100 29.17700
C  28.85200 49.30800 29.33200
C  28.58500 48.88300 24.48700
C  24.48100 51.45000 24.39500
N  26.60900 50.33000 29.04600
C  25.51500 50.72700 29.80200
C  25.82600 50.49900 31.30700
C  27.36000 50.06100 31.31000
C  27.68000 50.03600 29.81000
C  28.32600 50.83100 32.22000
C  24.76100 49.51700 31.97200
C  24.24500 49.89300 33.34800
H  24.12000 48.80200 34.38200
N  28.46600 49.10100 26.93500
C  29.27000 48.89300 28.06300
C  30.44900 48.19000 27.65200
C  30.24600 47.92100 26.22500
C  29.07500 48.65700 25.80900
C  31.63100 47.92700 28.66300
C  31.17900 47.10100 25.30800
O  31.02200 47.03100 24.12400
C  32.34500 46.30400 26.02400
N  26.58200 50.26900 24.69700
C  27.53000 49.60200 23.96100
C  27.23900 49.70800 22.40500
C  25.76100 50.36000 22.45800
C  25.54200 50.69500 23.92700
C  28.32800 50.46300 21.55900
C  24.69600 49.46600 21.77900
C  23.69400 48.65900 22.61600
N  24.84100 51.38200 26.76100
C  24.09300 51.85700 25.69400
C  22.83100 52.49500 26.15400
C  22.97200 52.37400 27.55700
C  24.10800 51.64000 27.80400
C  21.75200 53.14600 25.36300
C  22.31800 52.66000 28.83600
O  21.25100 53.29300 29.00000
C  23.31400 52.11100 29.97100
C  23.83000 53.32800 30.69500
O  24.89900 53.86200 30.59400
O  22.94800 53.63200 31.68500
C  23.42100 54.68100 32.66800
H  29.49900 48.87000 30.09600
H  29.10500 48.39600 23.65900
H  23.81000 51.81900 23.61700
H  25.72900 51.46300 31.80500
H  27.36700 49.06900 31.76300
H  29.17100 51.19200 31.63400
H  28.60400 50.22900 33.08400
H  27.97800 51.69800 32.78100
H  25.16500 48.50700 31.90200
H  23.90000 49.61600 31.31200
H  23.27300 50.36800 33.22100
H  24.87900 50.69800 33.71800
H  32.44000 47.23800 28.42100
H  31.20500 47.66400 29.63100
H  32.07700 48.89500 28.88800
H  31.92300 45.73500 26.85300
H  33.02200 47.05400 26.43400
H  32.79100 45.57300 25.35100
H  27.27700 48.69800 21.99600
H  25.81300 51.30100 21.91000
H  29.05200 50.78600 22.30800
H  27.92800 51.33600 21.04300
H  28.93300 49.84900 20.89200
H  25.10000 48.85200 20.97400
H  24.06000 50.22100 21.31700
H  22.81900 49.30000 22.51300
H  24.01200 48.60300 23.65700
H  23.57100 47.66500 22.18700
H  21.20300 52.31200 24.92600
H  22.30200 53.76600 24.65500
H  21.15500 53.72800 26.06500
H  22.66000 51.52000 30.61200
H  23.93800 55.46700 32.11700
H  24.27400 54.39300 33.28300
H  22.64500 55.00100 33.36300

