158

Mg -1.72300 17.74700 26.55900
C  -2.32000 15.53100 29.23400
C  -2.38600 20.37800 28.70300
C  -1.91500 19.71800 23.78200
C  -1.80800 14.93400 24.42800
N  -2.47900 17.93900 28.74700
C  -2.34200 16.89600 29.66100
C  -2.51500 17.40500 31.11800
C  -2.73500 18.96600 30.90800
C  -2.49000 19.15700 29.38000
C  -3.95000 19.62600 31.61000
C  -1.30800 16.98200 32.10600
C  -1.01400 17.76100 33.36000
H  -0.48700 17.06100 34.54500
N  -2.00200 19.77900 26.31200
C  -2.15200 20.68500 27.36900
C  -2.05800 22.04900 26.75700
C  -1.87000 21.87200 25.37900
C  -1.97300 20.38700 25.08500
C  -1.87400 23.37700 27.56100
C  -1.50100 22.88900 24.26000
O  -1.39000 22.56900 23.06000
C  -1.21800 24.28700 24.51200
N  -1.73900 17.37800 24.38700
C  -1.83300 18.39100 23.42800
C  -1.98000 17.80400 22.01400
C  -1.80800 16.22400 22.27300
C  -1.87200 16.20600 23.76900
C  -3.23400 18.30000 21.21000
C  -0.56600 15.54700 21.61500
C  0.74300 16.23800 21.80100
N  -1.98100 15.66000 26.80100
C  -1.93100 14.66200 25.85300
C  -2.11700 13.37700 26.49300
C  -2.22400 13.69700 27.86200
C  -2.16300 15.08300 27.96100
C  -2.28600 12.13000 25.79500
C  -2.37700 13.08700 29.05600
O  -2.39900 11.93300 29.40600
C  -2.45200 14.28600 30.04500
C  -1.23400 14.08300 30.85800
O  -0.12400 14.39300 30.47600
O  -1.58300 13.36300 31.93400
C  -0.38100 12.84300 32.75500
H  -2.59600 21.23900 29.34200
H  -2.03000 20.49200 23.02000
H  -1.85700 14.14000 23.68000
H  -3.37000 16.81000 31.43700
H  -1.77400 19.41100 31.16400
H  -4.54300 20.31100 31.00500
H  -3.66400 20.28400 32.43000
H  -4.66300 18.91200 32.02300
H  -0.42800 16.94900 31.46300
H  -1.48100 15.96200 32.45000
H  -1.79000 18.47600 33.62900
H  -0.12500 18.32800 33.08500
H  -0.84500 23.72900 27.63700
H  -2.45400 23.33100 28.48300
H  -2.36500 24.20900 27.05700
H  -2.15400 24.61600 24.96400
H  -1.01000 24.97100 23.69000
H  -0.44400 24.40100 25.27200
H  -1.08400 18.16200 21.50600
H  -2.69500 15.72700 21.87900
H  -3.95600 17.48700 21.12000
H  -3.00100 18.51300 20.16700
H  -3.54900 19.23100 21.68100
H  -0.74800 15.38300 20.55300
H  -0.51800 14.52000 21.97600
H  1.30400 16.50800 20.90600
H  1.26800 15.48500 22.38800
H  0.68000 17.02100 22.55600
H  -3.25600 12.09300 25.30000
H  -2.26600 11.27900 26.47600
H  -1.37400 12.00800 25.21000
H  -3.31500 14.13600 30.69400
H  -0.29200 11.76600 32.90000
H  -0.61500 13.22500 33.74800
H  0.57000 13.30500 32.48800
Mg 29.65500 58.02700 40.63300
C  26.91200 56.34500 39.26300
C  31.71600 55.59200 39.21900
C  32.32600 60.16600 40.71800
C  27.51400 60.85200 41.54900
N  29.31200 56.22600 39.27700
C  28.13800 55.70400 38.82300
C  28.32300 54.34600 38.13300
C  29.83600 54.15700 38.25000
C  30.36200 55.37300 38.99900
C  30.38800 52.84900 38.87500
C  27.67700 54.01900 36.68400
C  27.50400 55.23000 35.65700
H  28.02300 55.15700 34.20400
N  31.74400 57.80000 40.32700
C  32.41600 56.68800 39.79000
C  33.77400 56.90100 39.87200
C  34.00500 58.28500 40.17100
C  32.64100 58.84400 40.38600
C  34.90500 55.91200 39.53700
C  35.39700 59.05000 40.09600
O  36.43700 58.44000 39.76200
C  35.52100 60.49300 40.23300
N  29.93000 60.17900 41.27500
C  31.14500 60.77800 41.14600
C  31.06600 62.29400 41.54400
C  29.52000 62.49400 41.77500
C  28.90100 61.05100 41.60400
C  32.05600 62.82600 42.67700
C  28.79600 63.63600 40.98300
C  28.18200 64.80600 41.72200
N  27.64300 58.47300 40.59500
C  26.93800 59.58000 41.10400
C  25.51300 59.32200 40.87900
C  25.46200 58.09000 40.21100
C  26.79100 57.63400 40.01200
C  24.35500 60.20400 41.22800
C  24.63300 57.07200 39.54400
O  23.41900 57.14200 39.36500
C  25.46300 55.94200 38.88100
C  25.10900 54.63400 39.46800
O  25.53500 54.20400 40.53700
O  24.15600 53.96100 38.73900
C  23.35500 52.82900 39.34100
H  32.29400 54.69600 38.98300
H  33.13900 60.87900 40.56400
H  26.86500 61.67300 41.86200
H  27.85400 53.56100 38.72600
H  30.16100 54.26300 37.21500
H  29.52100 52.21300 39.05500
H  30.94000 52.96900 39.80800
H  31.04300 52.44900 38.10200
H  26.67800 53.59500 36.78200
H  28.32400 53.24800 36.26600
H  27.91000 56.10200 36.16900
H  26.43100 55.42300 35.66400
H  35.49600 56.36500 38.74100
H  34.49400 55.01700 39.06900
H  35.45000 55.53100 40.40000
H  36.56700 60.76400 40.37100
H  34.95200 60.77600 41.11900
H  35.08400 61.00800 39.37700
H  31.34700 62.85300 40.65100
H  29.30300 62.75100 42.81200
H  32.53500 61.88800 42.95800
H  31.60200 63.11000 43.62700
H  32.82700 63.53600 42.37800
H  28.10200 63.20700 40.26000
H  29.56900 64.14200 40.40600
H  28.48200 65.83100 41.50400
H  28.45700 64.76100 42.77600
H  27.10300 64.86100 41.57400
H  24.26000 60.59100 42.24300
H  23.40300 59.68200 41.13200
H  24.38600 61.11900 40.63700
H  25.40600 56.02600 37.79500
H  23.73700 52.56600 40.32700
H  23.50900 51.93900 38.73000
H  22.30400 53.09100 39.46400

