158

Mg 42.10900 41.25000 26.89500
C  41.55900 43.57500 29.46000
C  43.20600 39.09100 29.27700
C  42.91000 39.16500 24.48400
C  41.22500 43.67100 24.54500
N  42.30200 41.35300 29.04800
C  41.88800 42.29100 29.89800
C  42.02600 41.92000 31.38500
C  42.60800 40.46400 31.34500
C  42.73000 40.30300 29.81800
C  43.85800 40.22100 32.18900
C  40.59900 41.90200 32.01500
C  40.49800 42.78100 33.27300
H  39.66600 42.02800 34.36500
N  43.05000 39.45700 26.90600
C  43.31700 38.59100 27.96500
C  43.73800 37.33300 27.54100
C  43.65000 37.27900 26.13700
C  43.15100 38.64200 25.76400
C  44.25300 36.22600 28.46900
C  43.97000 36.19800 25.16100
O  43.84100 36.30400 23.94100
C  44.42600 34.79700 25.68200
N  42.31600 41.44900 24.77900
C  42.48000 40.36400 23.98800
C  42.13900 40.56600 22.49300
C  41.44500 41.99800 22.57100
C  41.72200 42.43700 24.03900
C  43.38100 40.66800 21.58100
C  39.87600 42.07700 22.25800
C  38.89300 40.96100 22.55800
N  41.57400 43.29800 26.89600
C  41.17900 44.12000 25.85900
C  40.71200 45.38600 26.45500
C  40.89500 45.18900 27.78800
C  41.32400 43.92900 28.08900
C  40.26600 46.61100 25.80800
C  40.73900 45.90500 29.11500
O  40.42300 47.01200 29.45800
C  41.11400 44.83500 30.17700
C  42.20100 45.36700 31.06700
O  43.41200 45.29100 30.77700
O  41.62200 45.85000 32.18100
C  42.62600 46.39300 33.17200
H  43.38700 38.31100 30.02000
H  43.19900 38.48400 23.68000
H  40.68400 44.24600 23.79100
H  42.79700 42.55000 31.82800
H  41.78700 39.78600 31.58000
H  43.75400 39.14600 32.33600
H  43.86300 40.79600 33.11500
H  44.71900 40.59500 31.63500
H  40.30000 40.91800 32.37700
H  39.83600 42.03500 31.24800
H  39.97300 43.70800 33.04400
H  41.48600 43.11800 33.58500
H  44.39400 36.65500 29.46100
H  45.20700 35.96700 28.01000
H  43.50400 35.43700 28.41400
H  43.49800 34.59800 26.21800
H  45.34200 34.99300 26.23900
H  44.52800 34.14600 24.81300
H  41.42600 39.88500 22.02900
H  41.90700 42.68300 21.86100
H  44.27900 40.78200 22.18900
H  43.38100 41.55200 20.94200
H  43.38900 39.76800 20.96600
H  39.78000 42.42700 21.23000
H  39.44300 42.91000 22.81100
H  39.35900 40.34500 23.32700
H  38.68900 40.35000 21.67900
H  38.01700 41.40800 23.02800
H  39.98100 47.23300 26.65600
H  39.49500 46.31600 25.09600
H  41.08200 47.07200 25.25100
H  40.30900 44.68500 30.89700
H  42.91900 45.50500 33.73300
H  41.97900 47.01200 33.79300
H  43.48900 46.93200 32.77900
Mg -5.41800 26.20600 26.01500
C  -3.89600 27.51000 28.91200
C  -7.07000 24.02800 27.92800
C  -6.54900 24.65300 23.26100
C  -3.32500 28.28200 24.08400
N  -5.34400 25.75700 28.14700
C  -4.75100 26.46900 29.14800
C  -5.24100 26.03200 30.57200
C  -6.05500 24.75100 30.20700
C  -6.19700 24.83700 28.67200
C  -5.31600 23.48800 30.82800
C  -6.11500 27.12500 31.29600
C  -6.16500 26.99400 32.82700
H  -5.54100 25.79700 33.46500
N  -6.80600 24.71700 25.59200
C  -7.39400 23.95500 26.50700
C  -8.28000 22.92000 25.90300
C  -8.08200 23.07800 24.52100
C  -7.13000 24.15100 24.40500
C  -9.14700 22.00600 26.72200
C  -8.66600 22.35700 23.31900
O  -8.29900 22.45800 22.15900
C  -9.78500 21.40200 23.65500
N  -4.95300 26.39100 23.97300
C  -5.57200 25.64000 23.07100
C  -5.13800 26.10300 21.66900
C  -4.12000 27.27200 21.87100
C  -4.17000 27.42800 23.38300
C  -4.72000 25.06500 20.63500
C  -4.49600 28.54700 21.14500
C  -4.21100 28.59700 19.65600
N  -3.93900 27.58300 26.33500
C  -3.13100 28.26000 25.43100
C  -2.19700 29.16800 26.22300
C  -2.46300 28.86300 27.59100
C  -3.54000 27.90800 27.60100
C  -1.33000 30.22400 25.66400
C  -2.12800 29.16300 28.95100
O  -1.26300 29.87200 29.43300
C  -3.03500 28.26800 29.88600
C  -2.17000 27.38800 30.79700
O  -1.86600 26.22500 30.58000
O  -1.96500 27.93400 31.98900
C  -1.28400 27.16700 33.02300
H  -7.44300 23.25100 28.59900
H  -6.98200 24.31200 22.31900
H  -2.75700 29.03200 23.52900
H  -4.39200 25.78100 31.20700
H  -7.05300 24.73000 30.64400
H  -4.33200 23.75600 31.21300
H  -5.08700 22.78200 30.02900
H  -5.95300 22.99500 31.56200
H  -7.14800 26.83500 31.10200
H  -5.88000 28.10600 30.88500
H  -7.22000 27.09900 33.08000
H  -5.68500 27.89700 33.20400
H  -10.10400 21.96900 26.20200
H  -9.29400 22.39900 27.72800
H  -8.75000 20.99300 26.65900
H  -10.57000 21.96600 24.16000
H  -9.45600 20.54300 24.23900
H  -10.14800 20.95100 22.73100
H  -6.01600 26.58600 21.23900
H  -3.16700 26.84000 21.56400
H  -3.66200 25.13100 20.38100
H  -5.24300 25.10200 19.67900
H  -4.92500 24.08000 21.05400
H  -3.84400 29.29700 21.59400
H  -5.56300 28.72600 21.28000
H  -5.03700 28.60200 18.94500
H  -3.62100 27.74200 19.32400
H  -3.65800 29.53500 19.60200
H  -2.04500 31.04200 25.74600
H  -0.99100 29.93100 24.67000
H  -0.35800 30.43700 26.11000
H  -3.68300 28.87200 30.52200
H  -0.21500 27.11200 32.82000
H  -1.77000 26.21600 33.23900
H  -1.39600 27.82500 33.88500

