158

Mg 53.61200 23.70000 44.74200
C  51.10500 25.81700 43.75700
C  52.01700 21.10800 43.05800
C  56.48600 21.69000 45.14300
C  55.45700 26.38500 45.79100
N  51.98000 23.56200 43.34600
C  51.02600 24.56200 43.13800
C  50.14100 24.17000 41.98900
C  50.07600 22.61900 42.08500
C  51.39700 22.35900 42.91800
C  48.85500 21.98900 42.81500
C  50.71500 24.60800 40.57400
C  49.71100 24.51500 39.43800
H  50.15600 25.02900 38.04600
N  54.15000 21.65300 44.39400
C  53.31600 20.77100 43.60600
C  54.00800 19.52500 43.52900
C  55.26900 19.63300 44.26400
C  55.32900 21.03100 44.65600
C  53.36700 18.21100 42.84400
C  56.30000 18.46400 44.36000
O  56.07600 17.41300 43.88100
C  57.49400 18.54600 45.25600
N  55.71200 23.98600 45.47100
C  56.69000 23.05700 45.48000
C  58.04700 23.68800 45.88800
C  57.67400 25.23300 46.06400
C  56.19100 25.21500 45.71200
C  58.63800 22.98100 47.09200
C  58.47200 26.14600 45.02700
C  60.02800 25.97700 44.71100
N  53.29200 25.59000 45.02300
C  54.11100 26.57800 45.48600
C  53.30500 27.84400 45.60100
C  52.12500 27.57600 45.03300
C  52.20000 26.21400 44.59600
C  53.78300 29.02800 46.35200
C  50.88800 28.10700 44.58900
O  50.42300 29.21400 44.76300
C  50.15400 26.94500 43.75800
C  49.69300 27.38100 42.39500
O  50.38200 27.89100 41.53900
O  48.34500 27.19600 42.40000
C  47.73800 27.73700 41.18400
H  51.47800 20.28300 42.59000
H  57.40300 21.09800 45.17300
H  56.05500 27.25400 46.07400
H  49.12000 24.53600 42.09200
H  50.15900 22.19200 41.08500
H  48.04400 22.69000 43.01000
H  49.32500 21.61100 43.72300
H  48.42400 21.15900 42.25700
H  51.55800 23.95400 40.35000
H  51.06600 25.64000 40.57600
H  49.02100 25.32700 39.66400
H  49.07000 23.63700 39.51800
H  52.75200 17.65800 43.55400
H  54.07700 17.63800 42.24800
H  52.62900 18.52700 42.10600
H  57.55600 19.20000 46.12600
H  58.28200 18.60300 44.50600
H  57.73900 17.56300 45.65900
H  58.65500 23.66000 44.98400
H  57.85200 25.66200 47.05100
H  58.43100 21.91200 47.13700
H  58.33600 23.41800 48.04400
H  59.71600 23.14200 47.11100
H  58.31500 27.16400 45.38300
H  57.92900 26.11200 44.08300
H  60.72400 26.80800 44.83000
H  60.13300 25.71200 43.65900
H  60.41700 25.08500 45.20200
H  54.83900 29.25400 46.20700
H  53.60100 28.85100 47.41200
H  53.23000 29.90200 46.00700
H  49.32700 26.62600 44.39100
H  47.84800 28.82100 41.17300
H  46.76300 27.30800 41.41500
H  48.13400 27.27800 40.27700
Mg 0.08500 44.06900 25.13900
C  2.14200 44.01100 28.10700
C  -2.45000 42.98600 27.13200
C  -1.70700 44.24600 22.42700
C  2.95300 44.71200 23.27000
N  -0.08000 43.48800 27.39900
C  0.86500 43.66800 28.41200
C  0.22100 43.34200 29.82600
C  -1.13600 42.67800 29.36500
C  -1.23900 43.13800 27.87100
C  -1.34900 41.16900 29.53700
C  -0.05600 44.66600 30.55500
C  0.06000 44.62400 32.04600
H  -0.29200 43.30200 32.75200
N  -1.77600 43.72700 24.84300
C  -2.71300 43.35100 25.75800
C  -3.98400 43.20500 25.08700
C  -3.83100 43.55900 23.71900
C  -2.43800 43.97700 23.63500
C  -5.25200 42.93200 25.85300
C  -4.85100 43.60200 22.50900
O  -4.49100 43.97500 21.39800
C  -6.31200 43.26000 22.69800
N  0.65200 44.02200 22.96000
C  -0.37600 44.36800 22.09200
C  0.17000 44.96000 20.73400
C  1.69300 45.29600 21.17500
C  1.73100 44.66400 22.59000
C  0.12800 43.95500 19.55900
C  2.10900 46.76800 21.10900
C  1.37000 47.73200 22.05900
N  2.11700 44.23700 25.50600
C  3.13100 44.49000 24.67900
C  4.39200 44.47900 25.35300
C  4.02600 44.36000 26.71400
C  2.58800 44.20300 26.74300
C  5.85200 44.69100 24.75500
C  4.53900 44.29700 28.03700
O  5.73200 44.23000 28.31600
C  3.28900 44.08500 28.99400
C  3.58100 42.90200 29.88900
O  3.67000 41.74100 29.44400
O  3.63200 43.27500 31.20700
C  3.87800 42.13700 32.15000
H  -3.21700 42.68100 27.84700
H  -2.29900 44.55600 21.56300
H  3.78100 45.06500 22.65300
H  0.79700 42.67500 30.46700
H  -1.93500 43.19900 29.89300
H  -0.58300 40.87500 30.25500
H  -1.10500 40.63500 28.61900
H  -2.28400 40.86300 30.00500
H  -1.05000 45.05200 30.33100
H  0.65900 45.42600 30.23900
H  -0.44300 45.46000 32.53200
H  1.11900 44.74400 32.27500
H  -5.48800 43.88500 26.32600
H  -4.89300 42.26700 26.63800
H  -5.96300 42.47100 25.16800
H  -6.74400 43.67300 23.61000
H  -6.23400 42.17400 22.75400
H  -6.98400 43.63300 21.92500
H  -0.45500 45.84100 20.58800
H  2.37000 44.71800 20.54600
H  -0.58600 44.32000 18.82100
H  -0.18400 42.99100 19.96100
H  1.00100 43.93100 18.90700
H  1.72700 47.00800 20.11700
H  3.19800 46.81500 21.11500
H  1.97800 48.23900 22.80800
H  0.74600 47.01800 22.59700
H  0.65100 48.35500 21.52600
H  5.82700 45.43300 23.95700
H  6.37400 43.78400 24.45000
H  6.45500 45.07300 25.57800
H  3.18800 44.95900 29.63600
H  2.87000 41.81200 32.41100
H  4.49700 42.45400 32.99000
H  4.43800 41.29500 31.74300

