158

Mg 1.35300 -2.77500 45.06800
C  4.34700 -1.18900 43.76100
C  -0.28500 -0.33700 43.38400
C  -1.28900 -4.38800 45.89300
C  3.44100 -5.39500 46.20000
N  2.00300 -1.07500 43.57100
C  3.23000 -0.55900 43.31900
C  3.20400 0.69000 42.50400
C  1.76700 1.13000 42.79500
C  1.09500 -0.20700 43.21600
C  1.53900 2.33300 43.80600
C  3.67300 0.49800 41.06800
C  4.77400 1.53800 40.59600
H  6.27100 0.97300 40.38600
N  -0.53800 -2.49500 44.62700
C  -1.00900 -1.45700 43.89300
C  -2.42900 -1.62100 43.70100
C  -2.78700 -2.79800 44.39700
C  -1.53000 -3.27800 45.04700
C  -3.26200 -0.76900 42.86800
C  -4.16100 -3.55200 44.39600
O  -5.07900 -2.98500 43.80100
C  -4.40700 -4.72800 45.25100
N  1.15300 -4.67000 45.97400
C  -0.11000 -5.10500 46.29000
C  -0.00700 -6.42900 47.13800
C  1.55000 -6.71800 47.11100
C  2.09600 -5.58900 46.32100
C  -0.68400 -6.44500 48.59200
C  1.90900 -8.15200 46.53000
C  2.46400 -9.29100 47.53500
N  3.45300 -3.20300 45.10500
C  4.13200 -4.32400 45.58000
C  5.57000 -4.13300 45.41500
C  5.67300 -2.89400 44.75500
C  4.35500 -2.39100 44.52700
C  6.64200 -5.12800 45.69400
C  6.58200 -1.86600 44.27100
O  7.80100 -1.90500 44.18900
C  5.70900 -0.70300 43.68600
C  5.98300 0.54600 44.47100
O  5.26200 1.13300 45.24700
O  7.19500 1.05700 44.03600
C  7.59500 2.32400 44.56900
H  -0.81300 0.53800 42.99800
H  -2.20000 -4.87600 46.24800
H  4.17500 -6.11400 46.57100
H  3.76000 1.51000 42.95800
H  1.33000 1.35200 41.82100
H  1.16900 3.10900 43.13600
H  2.42400 2.76100 44.27500
H  0.84400 2.04300 44.59400
H  2.82000 0.49300 40.38900
H  4.11400 -0.49400 40.96800
H  4.74300 2.28500 41.39000
H  4.42100 2.04700 39.70000
H  -3.87900 -1.34500 42.17900
H  -2.65800 -0.17200 42.18500
H  -3.85600 -0.19600 43.58000
H  -3.76100 -5.58300 45.05000
H  -5.41600 -5.10800 45.09100
H  -4.17200 -4.41200 46.26700
H  -0.41200 -7.19600 46.47800
H  1.79600 -6.66500 48.17100
H  -0.35600 -7.29500 49.19000
H  -1.76400 -6.51700 48.45700
H  -0.44600 -5.49500 49.07000
H  2.72700 -7.98000 45.83000
H  1.04600 -8.61400 46.05200
H  2.64000 -8.89200 48.53400
H  3.34400 -9.80200 47.14400
H  1.61400 -9.92700 47.78200
H  7.59500 -4.66300 45.44400
H  6.38200 -5.97600 45.06100
H  6.72000 -5.46500 46.72700
H  6.18200 -0.56900 42.71300
H  8.00900 2.29700 45.57700
H  6.76000 3.02500 44.55600
H  8.33600 2.62600 43.82900
Mg -1.88600 34.34900 27.46500
C  -3.95300 32.70300 29.71100
C  -0.72100 36.32100 29.97700
C  -0.64400 36.62500 25.13600
C  -3.79900 32.89500 24.84100
N  -2.35100 34.49600 29.60900
C  -3.18600 33.66700 30.31800
C  -3.03900 33.91800 31.85900
C  -2.03300 35.14600 31.98100
C  -1.72600 35.40600 30.39000
C  -2.62500 36.36400 32.71800
C  -2.47500 32.61100 32.53500
C  -3.17900 32.14100 33.86000
H  -2.34700 32.05400 35.12400
N  -0.67300 36.08000 27.52500
C  -0.24200 36.64200 28.68300
C  0.76600 37.56500 28.41800
C  0.85000 37.75000 26.97100
C  -0.19300 36.79400 26.47900
C  1.66500 38.14300 29.49300
C  1.82900 38.51400 26.11900
O  1.79300 38.51800 24.90200
C  2.88900 39.30900 26.75200
N  -2.35200 34.77500 25.34600
C  -1.58000 35.68800 24.65600
C  -1.90400 35.63100 23.11500
C  -2.55900 34.18600 22.99600
C  -2.90700 33.90300 24.46100
C  -2.89900 36.78600 22.75000
C  -1.69600 32.98800 22.50000
C  -0.37100 32.74300 23.22600
N  -3.39000 32.94600 27.29200
C  -4.06300 32.47700 26.15400
C  -5.06800 31.49000 26.56400
C  -4.99400 31.50100 27.95700
C  -4.04200 32.45800 28.32600
C  -5.83500 30.57500 25.68900
C  -5.53100 30.92200 29.15800
O  -6.37400 30.09300 29.36700
C  -4.85200 31.65500 30.34500
C  -5.83800 32.36500 31.20700
O  -6.37600 33.41800 30.85800
O  -5.91600 31.78200 32.49700
C  -7.11400 32.25600 33.20000
H  -0.36700 36.95600 30.79200
H  -0.14900 37.32900 24.46400
H  -4.35800 32.38100 24.05700
H  -4.04000 34.14300 32.22600
H  -1.06300 34.80400 32.34100
H  -1.88500 37.16000 32.80300
H  -2.68900 36.20800 33.79500
H  -3.51000 36.79000 32.24500
H  -1.40500 32.67500 32.73100
H  -2.62700 31.79600 31.82800
H  -3.64500 31.15900 33.77700
H  -3.87300 32.94100 34.11800
H  1.73600 37.42600 30.31200
H  1.08700 38.92600 29.98400
H  2.67300 38.49800 29.27700
H  2.44200 39.90200 27.54900
H  3.49600 39.92100 26.08400
H  3.57300 38.64300 27.27800
H  -1.00500 35.74200 22.51000
H  -3.52100 34.24800 22.48800
H  -3.09500 37.33300 23.67200
H  -3.91000 36.57200 22.40000
H  -2.49200 37.31200 21.88600
H  -1.57800 33.08000 21.42100
H  -2.13500 31.99100 22.52500
H  -0.00600 31.71900 23.14700
H  -0.27900 33.09300 24.25500
H  0.39100 33.35700 22.74800
H  -6.87700 30.89600 25.71200
H  -5.71400 29.57300 26.09900
H  -5.51900 30.54700 24.64700
H  -4.29600 30.88200 30.87700
H  -7.07500 33.30200 33.50400
H  -6.97300 31.68400 34.11700
H  -8.03400 32.16200 32.62200

