158

Mg 16.62600 -2.15100 27.83400
C  15.53700 -0.05600 30.52800
C  18.60600 -3.87500 29.89000
C  18.04100 -3.70500 25.10400
C  14.86200 -0.08200 25.65200
N  16.87200 -1.97700 30.01100
C  16.32500 -1.14400 30.87600
C  17.02700 -1.34500 32.30000
C  17.96500 -2.52000 32.03600
C  17.85400 -2.84200 30.52600
C  19.45900 -2.25500 32.58300
C  15.93900 -1.54900 33.36300
C  16.03300 -0.70500 34.64200
H  17.35400 0.07700 34.88500
N  18.02000 -3.70500 27.52000
C  18.73900 -4.26800 28.54000
C  19.49500 -5.42000 27.99900
C  19.29500 -5.38300 26.60000
C  18.37700 -4.19300 26.33600
C  20.27400 -6.35900 28.88000
C  19.96600 -6.31000 25.53300
O  19.80600 -6.09300 24.33300
C  21.02600 -7.38800 26.01500
N  16.73300 -1.70600 25.60200
C  17.28200 -2.60800 24.69700
C  16.96300 -2.14300 23.28800
C  15.70400 -1.23200 23.51400
C  15.74900 -1.00200 24.99600
C  18.11300 -1.20300 22.79100
C  14.40000 -1.91400 23.05200
C  13.93600 -1.45700 21.63800
N  15.37500 -0.51100 28.01100
C  14.77900 0.29400 26.99900
C  13.93400 1.31600 27.56500
C  14.25800 1.23200 28.94100
C  15.09300 0.08000 29.20000
C  13.07200 2.27100 26.81000
C  14.05300 1.87400 30.19900
O  13.38200 2.92100 30.39700
C  14.89600 1.11100 31.30000
C  15.72700 2.09300 32.05900
O  16.77900 2.49000 31.66800
O  15.10700 2.50500 33.23400
C  15.59400 3.78500 33.75000
H  19.23800 -4.43000 30.58700
H  18.23900 -4.43900 24.32000
H  14.18400 0.38700 24.93500
H  17.59600 -0.44100 32.51900
H  17.55100 -3.37900 32.56500
H  19.93700 -1.48400 31.97800
H  19.84100 -3.26900 32.70400
H  19.29900 -1.71000 33.51300
H  15.89400 -2.62100 33.55500
H  14.93900 -1.31700 32.99800
H  15.72500 -1.36900 35.45000
H  15.28100 0.07900 34.55200
H  21.32200 -6.07100 28.95300
H  20.14800 -7.37600 28.50700
H  19.80800 -6.37200 29.86500
H  21.42300 -7.79500 25.08500
H  20.44200 -8.12000 26.57400
H  21.71700 -6.83600 26.65100
H  16.78700 -3.02300 22.66900
H  15.91200 -0.25900 23.06800
H  19.07300 -1.33300 23.29300
H  17.97300 -0.15200 23.04300
H  18.42900 -1.16400 21.74900
H  13.59500 -1.64200 23.73500
H  14.45200 -2.99700 23.16900
H  14.47700 -0.53700 21.41700
H  12.84900 -1.38800 21.61600
H  14.17400 -2.22700 20.90300
H  13.40900 3.18100 27.30700
H  12.03000 2.07600 27.06200
H  13.21400 2.37600 25.73500
H  14.08100 0.90100 31.99300
H  15.91400 4.42800 32.93100
H  16.34700 3.54900 34.50200
H  14.71600 4.24400 34.20600
Mg 47.28000 17.26100 28.26500
C  45.43600 16.82000 31.36500
C  49.58900 18.99400 30.14800
C  48.97000 17.74500 25.36300
C  44.62000 15.84400 26.61900
N  47.49000 17.68600 30.53800
C  46.68600 17.44900 31.55000
C  47.17100 18.08400 32.89200
C  48.32800 18.95900 32.38600
C  48.44200 18.62200 30.93200
C  48.08000 20.46800 32.54600
C  47.74600 16.93500 33.86800
C  47.42800 17.28900 35.33300
H  47.31600 18.75200 35.76500
N  49.01400 18.31500 27.80800
C  49.85300 18.90200 28.74900
C  51.06900 19.32200 28.05600
C  50.91700 18.95700 26.64800
C  49.60000 18.34200 26.53000
C  52.30200 19.83500 28.79100
C  51.83900 19.14300 25.46000
O  51.49000 18.82700 24.35000
C  53.20900 19.68200 25.63400
N  46.81300 16.92700 26.27900
C  47.66200 17.15800 25.27200
C  46.94100 16.96000 23.92200
C  45.63500 16.13700 24.28500
C  45.66200 16.31600 25.80500
C  46.78700 18.22200 23.07700
C  45.72600 14.56900 23.91100
C  45.05100 14.19600 22.59900
N  45.43600 16.44700 28.77500
C  44.52600 15.86100 27.98300
C  43.47400 15.38100 28.77400
C  43.81200 15.66700 30.18000
C  44.97700 16.42300 30.05000
C  42.24700 14.63300 28.21300
C  43.38800 15.56400 31.52600
O  42.42300 14.96500 31.97800
C  44.44500 16.33300 32.37000
C  43.83400 17.43300 33.12700
O  43.30600 18.47200 32.68700
O  43.80100 16.98600 34.39500
C  43.22800 17.95600 35.32200
H  50.29600 19.58200 30.73700
H  49.45100 17.89000 24.39300
H  43.75000 15.35900 26.17000
H  46.38300 18.58100 33.45800
H  49.24300 18.80600 32.95900
H  47.22500 20.63800 33.20100
H  47.84500 20.86700 31.55900
H  48.94400 20.92400 33.02800
H  48.83100 16.99300 33.78400
H  47.29900 16.02200 33.47400
H  48.28700 16.89000 35.87400
H  46.52300 16.74900 35.61300
H  52.11900 20.90100 28.92900
H  53.25200 19.64500 28.29100
H  52.34800 19.39900 29.78900
H  53.68000 19.82400 24.66100
H  53.96700 18.99300 26.00600
H  53.27700 20.64600 26.13700
H  47.58200 16.40700 23.23500
H  44.74000 16.62500 23.90000
H  47.45900 18.10500 22.22600
H  46.99600 19.16700 23.57700
H  45.73000 18.35100 22.84400
H  45.58500 13.84300 24.71100
H  46.79500 14.53300 23.69800
H  45.79700 13.80700 21.90600
H  44.57000 15.08900 22.19700
H  44.23400 13.49000 22.74500
H  41.58200 14.54000 29.07100
H  42.41000 13.64900 27.77400
H  41.69900 15.18800 27.45200
H  44.89800 15.58800 33.02500
H  43.58500 18.96000 35.09200
H  43.50500 17.77600 36.36100
H  42.13900 18.00400 35.31800

