158

Mg 42.60800 42.24000 25.82200
C  41.33300 44.35900 28.26300
C  43.81500 40.23500 28.24000
C  43.60700 40.06400 23.44100
C  41.57500 44.50300 23.44600
N  42.39100 42.23400 28.02300
C  41.91200 43.21500 28.86300
C  42.07600 42.94900 30.31200
C  43.00200 41.60700 30.30100
C  43.15900 41.35100 28.74700
C  44.39400 41.75800 30.96300
C  40.77400 42.74000 31.16800
C  40.83500 43.43400 32.55300
H  39.60700 43.58400 33.44900
N  43.63600 40.39900 25.81900
C  43.95500 39.73600 26.97500
C  44.49500 38.44800 26.57500
C  44.57300 38.39600 25.17200
C  43.92500 39.59300 24.73000
C  44.96600 37.38100 27.64800
C  45.31300 37.44700 24.31200
O  45.35900 37.64900 23.08500
C  46.08700 36.30900 24.83600
N  42.63000 42.25800 23.75200
C  43.16500 41.32000 22.92500
C  43.18300 41.82400 21.46500
C  42.36300 43.09100 21.51700
C  42.15600 43.34500 22.97500
C  44.58500 42.00800 20.82000
C  41.07800 42.88100 20.69000
C  40.52000 44.18800 19.96300
N  41.53200 44.02800 25.78000
C  41.17400 44.85100 24.75400
C  40.55300 46.08100 25.21200
C  40.59000 45.89700 26.65300
C  41.19400 44.66600 26.87200
C  40.00600 47.21100 24.42800
C  40.25200 46.46400 27.96900
O  39.70600 47.52100 28.24300
C  40.67600 45.52900 29.05700
C  41.74700 46.13000 29.82300
O  42.85200 46.29900 29.38600
O  41.28300 46.54000 31.02200
C  42.32600 47.10100 31.88100
H  44.24600 39.58000 29.00000
H  43.99100 39.45000 22.62400
H  41.19000 45.23500 22.73300
H  42.68200 43.73500 30.76300
H  42.56500 40.72600 30.77100
H  44.63000 41.07800 31.78100
H  44.55100 42.69000 31.50400
H  45.21500 41.76000 30.24600
H  40.71800 41.67000 31.36500
H  39.95100 43.05300 30.52600
H  41.49300 44.30200 32.52100
H  41.53300 42.82400 33.12600
H  44.32500 37.59400 28.50400
H  46.01000 37.56000 27.90600
H  44.84500 36.33500 27.36600
H  46.59600 35.74100 24.05800
H  45.45000 35.63000 25.40300
H  46.81200 36.74100 25.52600
H  42.72400 40.95900 20.98700
H  42.92100 44.00300 21.30200
H  44.76600 43.06400 20.62000
H  44.57000 41.44000 19.88900
H  45.27600 41.53700 21.51900
H  40.34400 42.51200 21.40600
H  41.34100 42.14600 19.93000
H  39.49600 44.44700 20.23000
H  40.56600 43.95900 18.89900
H  41.12400 45.07600 20.15100
H  39.54400 47.96700 25.06300
H  39.27700 46.83900 23.70900
H  40.80200 47.73400 23.89900
H  39.88700 45.19000 29.72800
H  43.04400 46.34400 32.19800
H  41.90400 47.64300 32.72700
H  42.86900 47.78300 31.22600
Mg 17.31800 52.84600 26.77400
C  19.41600 51.26800 28.92400
C  15.06300 53.11800 29.25600
C  15.09300 54.25600 24.55100
C  19.40500 52.12800 24.20800
N  17.28600 52.31300 28.85000
C  18.31000 51.81400 29.59700
C  17.99500 51.85000 31.09100
C  16.42200 51.85900 31.02100
C  16.21200 52.52300 29.63100
C  15.74700 50.41000 31.19800
C  18.70800 53.07700 31.74700
C  18.29700 53.32900 33.13300
H  17.41400 52.28700 33.87300
N  15.38200 53.80100 26.92400
C  14.64300 53.80400 28.06400
C  13.37500 54.51900 27.75400
C  13.38000 54.84000 26.40600
C  14.63600 54.27600 25.85700
C  12.40200 54.83300 28.90300
C  12.26600 55.51900 25.67100
O  12.38100 55.89800 24.51900
C  10.97900 55.72700 26.32600
N  17.19800 52.99200 24.67900
C  16.25800 53.74600 23.99300
C  16.67100 53.94900 22.50100
C  18.22800 53.57900 22.54800
C  18.29700 52.82500 23.87400
C  15.84800 53.04000 21.56500
C  19.21400 54.79400 22.48200
C  20.23000 54.64700 21.30300
N  19.09400 51.85800 26.50300
C  19.81700 51.63000 25.42200
C  21.04800 50.89900 25.81400
C  20.93100 50.76000 27.22900
C  19.74100 51.35300 27.56300
C  22.20600 50.25300 25.01800
C  21.56300 50.12900 28.39900
O  22.52800 49.40100 28.59200
C  20.69100 50.66200 29.56200
C  20.26600 49.49300 30.29500
O  19.65800 48.51900 29.86700
O  20.72900 49.63400 31.60200
C  20.30300 48.51700 32.46100
H  14.27600 53.17400 30.01200
H  14.33300 54.66300 23.88000
H  20.08100 51.90800 23.37900
H  18.40200 50.94900 31.55100
H  15.83100 52.46100 31.71200
H  15.17100 50.28600 30.28100
H  15.12000 50.28500 32.08200
H  16.55200 49.67900 31.26700
H  18.58900 54.02600 31.22400
H  19.76300 52.85300 31.90700
H  17.82700 54.31100 33.17300
H  19.13600 53.43900 33.82000
H  12.71500 54.45300 29.87600
H  11.47600 54.33000 28.62600
H  12.31400 55.90600 29.07400
H  10.56200 54.76000 26.60600
H  10.23300 56.09900 25.62300
H  11.13000 56.37500 27.18900
H  16.42000 54.94300 22.13100
H  18.40000 52.96300 21.66600
H  15.51700 52.13100 22.06700
H  16.50400 52.81900 20.72300
H  14.96700 53.65300 21.37200
H  19.70000 54.80400 23.45800
H  18.66000 55.72100 22.33600
H  20.15400 53.74300 20.69800
H  21.21900 54.61300 21.76100
H  20.14000 55.55200 20.70300
H  23.06100 50.55800 25.62200
H  22.19100 50.63600 23.99800
H  22.08200 49.17100 25.02400
H  21.28300 51.34700 30.16900
H  20.72600 48.60300 33.46200
H  20.72400 47.57600 32.10800
H  19.21400 48.55500 32.47900

