158

Mg -1.66300 16.68400 27.16500
C  -2.00200 14.39900 29.78600
C  -2.70200 19.13800 29.27900
C  -1.81900 18.74100 24.53000
C  -1.44200 14.01300 25.04500
N  -2.08600 16.74700 29.32000
C  -2.00600 15.75800 30.24300
C  -2.06200 16.28700 31.71900
C  -2.40300 17.83800 31.50700
C  -2.43900 17.87200 29.92400
C  -3.71800 18.38000 32.13300
C  -0.77700 15.97600 32.54700
C  -0.44900 17.01300 33.65900
H  0.26700 16.48000 34.96700
N  -2.01800 18.72700 26.95800
C  -2.44500 19.59400 27.96200
C  -2.55200 20.94400 27.41000
C  -2.10000 20.82300 26.05400
C  -1.97000 19.37900 25.77500
C  -2.93500 22.16600 28.31600
C  -1.91100 21.86600 24.92200
O  -1.43100 21.57200 23.83600
C  -2.36700 23.31000 25.07400
N  -1.74800 16.40900 25.05800
C  -1.69400 17.39000 24.17400
C  -1.60400 16.93000 22.72600
C  -1.53900 15.42700 22.86700
C  -1.49100 15.26100 24.41300
C  -2.75500 17.44100 21.73500
C  -0.54500 14.61200 22.04300
C  0.88000 14.65300 22.68300
N  -1.71700 14.60200 27.30300
C  -1.53500 13.63600 26.34900
C  -1.57800 12.35300 26.87600
C  -1.80200 12.59000 28.25200
C  -1.90200 13.94300 28.48700
C  -1.50700 11.03100 26.17900
C  -1.98700 11.96000 29.52100
O  -2.00000 10.76300 29.91200
C  -2.22600 13.12600 30.54600
C  -1.49400 12.89900 31.79100
O  -0.32700 12.57000 31.74300
O  -2.22900 13.02800 32.96800
C  -1.48500 12.67700 34.22400
H  -2.74800 19.91700 30.04200
H  -1.91500 19.38400 23.65400
H  -1.12200 13.13200 24.48400
H  -2.82200 15.79500 32.32600
H  -1.54700 18.41800 31.85300
H  -4.30100 18.85400 31.34400
H  -3.42700 19.17500 32.81900
H  -4.37800 17.65700 32.61200
H  -0.00200 15.89000 31.78400
H  -0.97500 15.10400 33.17000
H  -1.45700 17.35000 33.90200
H  0.04300 17.83500 33.14000
H  -3.97700 22.18500 28.63900
H  -2.64300 23.05200 27.75200
H  -2.31000 22.12600 29.20800
H  -1.74800 23.74200 25.86100
H  -3.35900 23.17900 25.50700
H  -2.37200 23.73900 24.07200
H  -0.68200 17.38600 22.36500
H  -2.57600 15.14300 22.68300
H  -3.51400 16.70300 21.47400
H  -2.29800 17.60600 20.76000
H  -3.21500 18.32600 22.17400
H  -0.58500 15.10500 21.07100
H  -0.87600 13.57800 21.94800
H  1.60800 15.02000 21.95900
H  1.14000 13.62800 22.94800
H  0.96600 15.28600 23.56600
H  -1.84400 11.01900 25.14300
H  -2.07300 10.28200 26.73300
H  -0.44900 10.76800 26.16000
H  -3.27400 13.25700 30.81400
H  -2.26200 12.33900 34.91000
H  -0.97400 13.52100 34.68800
H  -0.85900 11.82200 33.97200
Mg 52.65200 24.59800 44.68700
C  49.83400 26.72600 44.01000
C  50.95500 22.01500 43.03000
C  55.48900 23.00200 44.38600
C  54.41100 27.59700 45.72800
N  50.68800 24.53600 43.47100
C  49.68000 25.44300 43.43900
C  48.42300 24.87300 42.80300
C  48.73900 23.28300 42.80100
C  50.24900 23.24800 43.12700
C  47.77900 22.44500 43.69800
C  48.23300 25.55500 41.39100
C  49.02400 24.98500 40.20200
H  48.21600 24.33000 39.07600
N  53.14800 22.74600 43.92500
C  52.33000 21.74500 43.37700
C  53.02700 20.54300 43.25600
C  54.38800 20.82800 43.64500
C  54.45200 22.24300 44.01300
C  52.30300 19.12500 42.98600
C  55.48900 19.73700 43.75000
O  55.26700 18.52800 43.46400
C  56.87600 20.13200 44.31600
N  54.71600 25.23300 44.96600
C  55.66100 24.29700 44.80200
C  57.00000 24.82900 45.24600
C  56.63500 26.31800 45.75500
C  55.20900 26.44300 45.38700
C  57.72900 23.95900 46.34300
C  57.49100 27.42800 45.11000
C  58.43100 28.09200 46.16400
N  52.16900 26.69500 45.07600
C  53.01600 27.68300 45.53600
C  52.22800 28.85800 45.66800
C  50.91800 28.53400 45.15800
C  50.97300 27.21400 44.73800
C  52.68700 30.18000 46.18600
C  49.58200 29.03400 44.80000
O  49.12800 30.16800 45.00300
C  48.73300 27.83600 44.19200
C  48.04600 28.44800 42.98800
O  48.56800 29.02300 42.06000
O  46.69500 28.35000 43.26300
C  45.89600 29.00200 42.18400
H  50.31500 21.18600 42.71900
H  56.45500 22.50900 44.25600
H  54.97300 28.50200 45.96700
H  47.55100 25.08400 43.42100
H  48.62700 22.76100 41.85100
H  47.21500 23.13200 44.32800
H  48.31500 21.71100 44.29900
H  47.09400 21.89400 43.05300
H  48.48200 26.61500 41.44900
H  47.17400 25.43400 41.16500
H  49.73500 24.24900 40.57700
H  49.68900 25.76100 39.82400
H  52.27900 18.65200 43.96800
H  52.60700 18.44300 42.19100
H  51.27900 19.34300 42.68100
H  57.50800 19.24400 44.35900
H  56.73300 20.48200 45.33800
H  57.34700 20.83700 43.63100
H  57.77900 24.75500 44.48800
H  56.69900 26.33800 46.84300
H  57.07300 23.16300 46.69500
H  58.06600 24.71400 47.05300
H  58.62100 23.54300 45.87500
H  56.97600 28.16400 44.49200
H  58.12300 26.89900 44.39700
H  58.05000 29.06200 46.48400
H  59.45500 28.19400 45.80500
H  58.57000 27.34200 46.94300
H  53.23700 30.73500 45.42500
H  53.31700 30.03900 47.06500
H  51.76500 30.65500 46.51900
H  48.00300 27.60300 44.96600
H  44.85500 29.24900 42.39300
H  45.92000 28.40600 41.27200
H  46.38000 29.95100 41.95200

