158

Mg 25.08200 -4.81400 46.07900
C  26.87100 -2.07500 44.52200
C  22.44300 -3.88600 44.03700
C  23.54500 -7.45000 47.09500
C  28.00900 -5.83100 47.57800
N  24.63500 -2.96100 44.65200
C  25.56100 -2.09700 44.02500
C  24.94500 -1.32500 42.88000
C  23.40600 -1.73500 42.99600
C  23.43100 -2.89600 43.96500
C  22.41400 -0.59800 43.32600
C  25.68300 -1.73400 41.52000
C  26.39300 -0.59700 40.75600
H  25.94800 -0.51400 39.30000
N  23.21400 -5.53200 45.67000
C  22.31500 -5.06300 44.82600
C  21.11600 -5.88700 44.90000
C  21.37700 -6.95000 45.76800
C  22.71500 -6.70300 46.25400
C  19.86600 -5.57200 44.17000
C  20.36800 -7.98500 46.24000
O  19.16300 -7.87400 45.91200
C  20.65700 -9.15700 47.14800
N  25.68300 -6.42300 47.26500
C  24.85800 -7.32900 47.64300
C  25.47000 -8.52800 48.41800
C  27.00900 -8.02900 48.46400
C  26.92400 -6.67100 47.71800
C  24.82400 -8.67200 49.88600
C  28.07900 -8.91800 47.77600
C  29.30700 -9.43100 48.74000
N  27.04300 -4.11000 46.12900
C  28.04900 -4.56700 46.85000
C  29.26100 -3.74300 46.69400
C  28.80700 -2.75600 45.77100
C  27.49700 -2.97200 45.45400
C  30.61600 -4.05000 47.27800
C  29.20000 -1.56700 44.99200
O  30.18000 -0.81200 45.15700
C  28.00800 -1.23500 44.05100
C  27.85000 0.29200 44.26200
O  27.27500 0.74500 45.24400
O  28.33300 0.97900 43.07600
C  28.16000 2.39800 43.11600
H  21.57100 -3.67100 43.41600
H  22.99200 -8.35300 47.36200
H  28.90500 -6.18500 48.09200
H  25.02200 -0.24600 43.00800
H  23.04700 -2.06500 42.02100
H  21.63400 -0.42100 42.58400
H  22.85800 0.38400 43.48700
H  21.89300 -0.88200 44.24000
H  24.94100 -2.27500 40.93200
H  26.34100 -2.56600 41.76800
H  27.44900 -0.86000 40.81300
H  26.10300 0.32000 41.26900
H  20.08600 -5.55700 43.10200
H  19.54400 -4.58200 44.49400
H  19.04800 -6.29100 44.19200
H  19.75000 -9.61500 47.54300
H  21.21200 -8.74200 47.98900
H  21.33800 -9.86900 46.68300
H  25.45800 -9.51000 47.94500
H  27.19200 -7.69100 49.48400
H  25.32300 -8.10300 50.67000
H  24.87900 -9.75400 50.00500
H  23.80900 -8.27700 49.89300
H  28.60000 -8.44000 46.94600
H  27.70600 -9.89400 47.46500
H  30.11200 -8.80700 48.35300
H  29.48700 -10.49300 48.57800
H  29.09300 -9.12100 49.76300
H  31.45200 -3.54200 46.79800
H  30.70400 -5.13600 47.27200
H  30.55400 -3.74300 48.32200
H  28.18100 -1.35800 42.98100
H  28.11300 2.97300 42.19100
H  28.96700 2.85800 43.68600
H  27.23200 2.62200 43.64100
Mg -0.78000 34.23600 26.77100
C  -2.77900 32.59300 29.30600
C  0.83200 35.97600 29.27300
C  0.29200 36.31600 24.37900
C  -2.63900 32.52000 24.37400
N  -1.08700 34.31500 29.04000
C  -1.87600 33.53000 29.85900
C  -1.59500 33.83300 31.35100
C  -0.52600 35.05900 31.28800
C  -0.19600 35.10700 29.77000
C  -0.98600 36.42500 31.98000
C  -1.16800 32.54300 32.26800
C  -1.80100 32.37300 33.65200
H  -0.82900 32.62600 34.90800
N  0.40400 35.87100 26.84200
C  1.12500 36.38000 27.92600
C  2.10400 37.39200 27.44400
C  1.86300 37.51400 26.07300
C  0.76200 36.59000 25.72500
C  3.02100 38.09900 28.41600
C  2.54600 38.50000 25.11400
O  2.19500 38.65800 23.94000
C  3.71600 39.25800 25.56400
N  -1.04700 34.42400 24.62000
C  -0.56000 35.38000 23.90900
C  -0.87700 35.12200 22.44000
C  -1.64800 33.72700 22.37900
C  -1.77400 33.51700 23.87800
C  -1.61200 36.30800 21.89200
C  -0.94000 32.66700 21.61800
C  0.18200 31.80600 22.20700
N  -2.29100 32.75500 26.75900
C  -2.88300 32.15100 25.74100
C  -3.78900 31.11400 26.23000
C  -3.76700 31.31800 27.59700
C  -2.85800 32.35500 27.88500
C  -4.61700 30.14200 25.47900
C  -4.37100 30.86600 28.80900
O  -5.24300 30.02100 28.97700
C  -3.76700 31.63900 30.01800
C  -4.83700 32.25500 30.78400
O  -5.49500 33.20700 30.41700
O  -4.99300 31.61200 32.01000
C  -6.01100 32.06300 32.93200
H  1.26800 36.60600 30.05000
H  0.77100 36.91700 23.60400
H  -3.13900 31.97100 23.57400
H  -2.51200 34.15100 31.84700
H  0.35900 34.70400 31.81800
H  -0.82300 36.37600 33.05700
H  -2.04800 36.49200 31.74300
H  -0.51500 37.30900 31.55200
H  -0.08800 32.65600 32.36700
H  -1.23300 31.62200 31.68800
H  -2.28600 31.39900 33.71100
H  -2.62100 33.09100 33.66000
H  2.80200 37.71700 29.41300
H  2.94500 39.18000 28.30100
H  4.06900 37.97000 28.14900
H  4.25800 39.79100 24.78400
H  4.37100 38.67800 26.21400
H  3.37500 40.12100 26.13600
H  0.13300 35.19100 22.03500
H  -2.60400 33.92500 21.89600
H  -0.85400 36.94300 21.43400
H  -2.35600 36.79700 22.52100
H  -2.14800 35.84900 21.06000
H  -0.50400 33.25800 20.81300
H  -1.69600 32.03400 21.15200
H  -0.05400 30.77700 22.48000
H  0.78100 32.27000 22.99000
H  0.96700 31.66700 21.46300
H  -4.38100 29.15000 25.86200
H  -4.39400 30.11600 24.41200
H  -5.63100 30.43400 25.75000
H  -3.22000 31.03800 30.74500
H  -5.46500 32.21800 33.86300
H  -6.85300 31.38200 33.05200
H  -6.48300 32.93800 32.48600

