158

Mg 16.07000 51.23700 26.02000
C  17.91800 50.02400 28.66000
C  13.70300 52.26000 28.20600
C  14.55500 52.79800 23.37300
C  18.52700 50.13200 23.83100
N  15.93000 51.32300 28.12100
C  16.82400 50.75100 29.01600
C  16.38700 51.08000 30.47900
C  14.85600 51.35400 30.27100
C  14.81100 51.68200 28.77800
C  13.88900 50.13200 30.56800
C  17.37100 52.18200 31.07700
C  17.55400 51.93900 32.65400
H  16.60100 52.63000 33.63900
N  14.37800 52.41000 25.79400
C  13.51300 52.67900 26.84800
C  12.48700 53.54600 26.34300
C  12.71600 53.70200 24.94400
C  13.90000 52.89700 24.61800
C  11.31900 54.12600 27.20800
C  11.90300 54.49200 23.90300
O  12.29800 54.57200 22.75200
C  10.64500 55.20200 24.24700
N  16.30100 51.17900 23.86600
C  15.68500 52.11300 23.03400
C  16.36300 52.07000 21.66100
C  17.69300 51.34900 21.81000
C  17.47400 50.77700 23.23900
C  15.49900 51.38800 20.58400
C  18.92000 52.31800 21.75900
C  20.16000 51.81400 20.95900
N  17.74200 50.09200 26.06700
C  18.65100 49.76900 25.15500
C  19.77700 49.07400 25.75200
C  19.50200 49.22100 27.12500
C  18.32100 49.82900 27.29900
C  21.08000 48.51500 25.21700
C  20.07200 48.87600 28.42300
O  21.05400 48.19600 28.70900
C  19.08000 49.44500 29.47100
C  18.75000 48.40600 30.47600
O  18.51300 47.20800 30.23700
O  18.95900 48.87400 31.76100
C  18.89200 47.88500 32.90400
H  12.83900 52.48000 28.83600
H  14.24500 53.42200 22.53200
H  19.36800 49.95600 23.15800
H  16.55200 50.19000 31.08500
H  14.60600 52.26200 30.82000
H  13.39900 50.46700 31.48300
H  14.36900 49.17300 30.76200
H  13.18900 50.01300 29.74200
H  16.69600 53.01400 30.87700
H  18.30700 52.37500 30.55300
H  18.58000 52.23300 32.87600
H  17.45200 50.86600 32.81500
H  10.41700 53.82900 26.67200
H  11.40400 55.21200 27.21700
H  11.32400 53.84500 28.26100
H  10.30200 55.76100 23.37600
H  10.91300 55.91800 25.02500
H  9.85600 54.55100 24.62200
H  16.48900 53.10200 21.33400
H  17.77900 50.52400 21.10300
H  16.04100 50.91100 19.76800
H  14.72400 52.05000 20.19700
H  14.94600 50.54900 21.00600
H  19.32200 52.58700 22.73600
H  18.68300 53.22100 21.19600
H  19.92800 51.71300 19.89800
H  20.56000 50.83400 21.21900
H  20.93400 52.56800 21.10100
H  21.25700 47.49000 25.54500
H  21.94800 49.12100 25.47700
H  21.03600 48.64800 24.13700
H  19.65300 50.25600 29.92000
H  19.12100 48.44700 33.80900
H  19.57000 47.05600 32.70100
H  17.93300 47.41300 33.11800
Mg -2.44500 35.24700 26.74100
C  -4.27000 33.62100 29.31100
C  -1.13100 37.38800 28.92500
C  -0.60700 36.53600 24.06800
C  -3.87000 32.91300 24.47300
N  -2.67500 35.42200 28.87000
C  -3.50300 34.66900 29.72600
C  -3.36700 35.22700 31.15700
C  -2.55900 36.55400 30.88200
C  -2.06300 36.42900 29.45400
C  -3.34600 37.81400 31.19700
C  -2.56000 34.32800 32.11700
C  -2.55100 34.80500 33.60800
H  -2.79900 33.79700 34.75700
N  -1.11200 36.83100 26.48100
C  -0.69100 37.63600 27.58300
C  0.21300 38.66500 27.09300
C  0.44400 38.31300 25.72000
C  -0.39400 37.14100 25.36100
C  0.87900 39.61800 28.05300
C  1.41400 38.95800 24.73500
O  1.57000 38.48600 23.63800
C  2.22800 40.25400 25.05600
N  -2.28500 34.86500 24.58900
C  -1.55200 35.60900 23.68800
C  -1.59400 35.05000 22.24500
C  -2.61300 33.85900 22.32900
C  -3.01400 33.87400 23.89800
C  -1.72900 36.18300 21.06500
C  -1.95300 32.48400 21.94300
C  -2.74300 31.39600 21.17300
N  -3.91100 33.70400 26.77600
C  -4.23800 32.73900 25.85200
C  -4.96200 31.63900 26.41100
C  -5.06900 32.01100 27.77900
C  -4.35500 33.21800 27.91300
C  -5.42700 30.34200 25.70100
C  -5.54500 31.58400 29.10700
O  -6.13100 30.53700 29.40100
C  -5.00300 32.57000 30.12700
C  -6.12900 33.01400 30.94500
O  -7.20400 33.40500 30.57000
O  -5.85100 32.76000 32.24600
C  -6.94900 32.89700 33.16100
H  -0.87900 38.12200 29.69300
H  -0.20900 37.13000 23.24100
H  -4.30300 32.22100 23.74700
H  -4.34600 35.49200 31.55700
H  -1.67900 36.56000 31.52500
H  -3.32800 38.40200 30.27900
H  -2.91700 38.25500 32.09700
H  -4.41100 37.75100 31.42300
H  -1.49200 34.27400 31.90300
H  -2.93000 33.30300 32.14700
H  -3.13900 35.71800 33.50800
H  -1.63600 35.34000 33.86300
H  1.94100 39.43500 27.88500
H  0.56700 39.43800 29.08200
H  0.76300 40.68700 27.87700
H  3.22000 39.94900 25.39000
H  1.74400 40.87300 25.81000
H  2.41800 40.84400 24.15900
H  -0.63100 34.59200 22.01800
H  -3.46100 34.09100 21.68500
H  -0.79700 36.29400 20.51000
H  -1.81800 37.16500 21.53000
H  -2.58000 36.09200 20.39100
H  -1.74300 32.10600 22.94400
H  -1.02100 32.60600 21.39200
H  -3.63800 31.79000 20.69200
H  -3.07000 30.66100 21.90800
H  -2.17000 30.75700 20.50100
H  -4.78800 30.14100 24.84100
H  -6.44600 30.55200 25.37400
H  -5.47700 29.54200 26.43900
H  -4.26000 31.99800 30.68300
H  -6.52200 33.40500 34.02500
H  -7.11500 31.85800 33.44500
H  -7.89900 33.30900 32.82100

