158

Mg -2.55300 17.16100 27.25400
C  -3.07200 14.84600 29.84500
C  -2.95800 19.62000 29.55100
C  -2.71300 19.21400 24.68400
C  -2.65200 14.47000 24.92200
N  -3.10700 17.15500 29.39600
C  -3.07000 16.16500 30.24900
C  -3.21500 16.63700 31.72200
C  -3.26600 18.22100 31.56600
C  -3.12300 18.37800 30.03700
C  -4.58200 18.85100 32.10300
C  -2.12400 16.13100 32.67600
C  -1.79000 17.03400 33.92200
H  -1.40000 16.08900 35.11900
N  -2.62500 19.20000 27.13600
C  -2.71100 20.04200 28.24900
C  -2.53200 21.37800 27.74600
C  -2.38600 21.24500 26.29900
C  -2.55700 19.84100 25.97200
C  -2.45900 22.59500 28.65600
C  -1.96400 22.33500 25.22300
O  -1.79900 22.06100 24.05300
C  -1.82300 23.65600 25.60700
N  -2.75100 16.81600 25.03800
C  -2.78300 17.90600 24.25000
C  -2.91600 17.42300 22.77600
C  -2.56600 15.93100 22.78600
C  -2.66000 15.70000 24.34600
C  -4.29400 17.84000 22.15400
C  -1.23200 15.48700 22.07600
C  0.04600 16.10800 22.62500
N  -2.78300 15.09100 27.26400
C  -2.82000 14.15500 26.30500
C  -2.91200 12.88500 26.82500
C  -3.02200 13.05400 28.22200
C  -2.95100 14.48400 28.44500
C  -3.09900 11.61500 26.08100
C  -3.29300 12.39000 29.45700
O  -3.50400 11.22100 29.69200
C  -3.26500 13.50200 30.57400
C  -1.97900 13.19900 31.27300
O  -0.86600 13.61700 30.96700
O  -2.22500 12.53300 32.39700
C  -1.11700 12.36000 33.36000
H  -3.04700 20.36400 30.34600
H  -2.58900 19.82200 23.78600
H  -2.60200 13.55900 24.32200
H  -4.21500 16.32300 32.01800
H  -2.43100 18.69300 32.08300
H  -4.27100 19.69100 32.72300
H  -5.04000 18.07300 32.71300
H  -5.19900 19.20000 31.27500
H  -1.19200 15.83100 32.19700
H  -2.60200 15.24600 33.09600
H  -2.61500 17.61300 34.33800
H  -0.92100 17.64300 33.67300
H  -1.59700 23.19900 28.37400
H  -2.31000 22.24500 29.67800
H  -3.40400 23.13800 28.63400
H  -1.79500 24.43000 24.84000
H  -0.93900 23.68200 26.24500
H  -2.74200 23.94900 26.11300
H  -2.11500 17.77700 22.12800
H  -3.25800 15.38900 22.14200
H  -4.84600 18.45100 22.86800
H  -4.88100 16.96300 21.88100
H  -4.01300 18.51700 21.34600
H  -1.29700 15.78800 21.03000
H  -1.20400 14.39800 22.04300
H  0.59900 15.20000 22.86500
H  -0.05800 16.63700 23.57300
H  0.51800 16.73200 21.86600
H  -2.54000 10.86100 26.63600
H  -2.74100 11.63100 25.05100
H  -4.13600 11.28600 26.14800
H  -4.08300 13.43700 31.29200
H  -1.08900 11.28200 33.52000
H  -1.43400 12.86400 34.27300
H  -0.17100 12.61600 32.88300
Mg 25.06400 2.20700 30.44000
C  27.17300 2.18400 33.12500
C  22.41600 2.46200 32.50100
C  22.96400 1.99600 27.80500
C  27.74400 1.72200 28.31600
N  24.85800 2.19100 32.61900
C  25.83700 2.32000 33.50700
C  25.23700 2.76800 34.83100
C  23.71600 2.66000 34.60400
C  23.65500 2.43500 33.09300
C  23.06500 1.58600 35.55500
C  25.82900 4.10300 35.48200
C  26.12600 3.89000 37.01400
H  25.41500 4.84900 37.97800
N  23.01300 2.14200 30.17600
C  22.04900 2.24600 31.17600
C  20.75900 2.16900 30.61900
C  20.92100 2.06800 29.22600
C  22.34300 2.12200 28.99600
C  19.49500 2.30100 31.46500
C  19.88900 2.05200 28.13000
O  20.14300 1.75900 26.96700
C  18.43700 1.96300 28.54400
N  25.24700 1.64600 28.39700
C  24.28300 1.83300 27.49600
C  24.89100 1.86200 26.07100
C  26.41200 1.91900 26.22300
C  26.49600 1.76000 27.73100
C  24.33500 0.82100 25.01300
C  27.06300 3.24100 25.58000
C  26.72100 4.59600 26.24800
N  27.12300 1.83200 30.66900
C  28.10100 1.63000 29.72800
C  29.35500 1.45100 30.42900
C  29.06100 1.70800 31.75800
C  27.69800 1.97400 31.80600
C  30.66900 1.12900 29.74900
C  29.62100 1.76900 33.01900
O  30.77500 1.63700 33.38800
C  28.44200 2.21800 33.95600
C  28.32900 1.30100 35.12300
O  27.70500 0.23000 35.07900
O  28.93800 1.79800 36.25800
C  28.86800 1.14800 37.48400
H  21.51200 2.58300 33.10100
H  22.28400 1.97700 26.95100
H  28.56400 1.72900 27.59500
H  25.53500 1.92100 35.44900
H  23.29100 3.63800 34.83100
H  23.77800 1.27900 36.32000
H  22.74500 0.72100 34.97400
H  22.10900 1.97900 35.90000
H  25.24300 5.01200 35.35000
H  26.71400 4.25700 34.86300
H  27.19300 4.08100 37.12800
H  25.90600 2.89400 37.39800
H  18.88200 3.15300 31.17200
H  19.54600 2.29100 32.55400
H  19.04500 1.31400 31.35900
H  18.20300 2.77100 29.23700
H  18.28400 1.05600 29.12800
H  17.74000 2.03600 27.70900
H  24.63700 2.85200 25.69100
H  26.71000 1.03200 25.66500
H  23.68900 0.07400 25.47300
H  25.15400 0.28400 24.53500
H  23.78000 1.36000 24.24500
H  26.70900 3.29500 24.55100
H  28.15000 3.15600 25.58800
H  26.57700 4.45100 27.31900
H  25.93900 5.09000 25.67200
H  27.59100 5.22800 26.06700
H  31.46000 1.59200 30.33900
H  30.72200 1.58100 28.75800
H  30.84500 0.07300 29.54500
H  28.51300 3.22400 34.37000
H  27.82100 1.34200 37.71700
H  29.56000 1.55900 38.21900
H  29.06900 0.08200 37.37200

