158

Mg 47.72600 25.68400 28.96000
C  48.53800 27.81800 31.60600
C  46.28800 23.56400 31.28700
C  47.35600 23.30400 26.65800
C  49.67100 27.64600 26.80300
N  47.41300 25.74200 31.15400
C  47.83200 26.70400 32.03100
C  47.22200 26.61700 33.37600
C  46.64600 25.15700 33.35700
C  46.71500 24.75900 31.82400
C  47.24500 24.10500 34.34500
C  46.15100 27.71400 33.76300
C  46.23200 28.30900 35.15800
H  46.70900 27.51900 36.35600
N  46.85700 23.75800 28.95000
C  46.19300 23.11600 29.97200
C  45.66000 21.86600 29.52100
C  46.03400 21.70500 28.21300
C  46.76700 22.92900 27.86500
C  44.85400 20.90800 30.41300
C  45.69200 20.60700 27.22900
O  45.98300 20.66500 26.04600
C  44.89500 19.39000 27.65200
N  48.42600 25.49200 27.11100
C  48.03200 24.42900 26.34000
C  48.62700 24.51800 24.90800
C  49.17600 26.00500 24.87500
C  49.12100 26.41500 26.35000
C  49.67600 23.43500 24.67000
C  48.49100 27.05600 23.93100
C  49.45100 28.11800 23.35300
N  48.83700 27.46200 29.08100
C  49.59600 28.15500 28.16400
C  50.11100 29.37600 28.76700
C  49.69200 29.27900 30.11900
C  49.02000 28.02600 30.24600
C  50.77800 30.45200 27.95600
C  49.80100 29.97900 31.35900
O  50.31400 31.03500 31.62200
C  49.12400 29.08300 32.32800
C  50.14800 28.76300 33.44600
O  51.01600 27.91100 33.33800
O  49.86000 29.41600 34.58200
C  50.81800 29.39400 35.71600
H  45.71100 22.98900 32.01500
H  47.06900 22.63600 25.84300
H  50.22200 28.19600 26.03800
H  48.11800 26.50500 33.98600
H  45.61600 25.13300 33.71400
H  47.85000 24.68600 35.04100
H  47.91600 23.42600 33.82000
H  46.45800 23.57000 34.87700
H  45.10000 27.42600 33.73700
H  46.24800 28.56800 33.09300
H  45.21800 28.64700 35.37300
H  46.70700 29.29000 35.12300
H  45.36000 19.94400 30.36300
H  43.83500 20.79000 30.04400
H  44.93500 21.23000 31.45200
H  45.44400 18.94100 28.48000
H  44.76800 18.71700 26.80400
H  43.89800 19.73600 27.92700
H  47.81000 24.43800 24.19000
H  50.23500 26.03700 24.62100
H  49.62400 23.28700 23.59200
H  49.30300 22.52300 25.13600
H  50.63300 23.64300 25.15000
H  47.78600 27.57800 24.57800
H  48.01800 26.51800 23.10900
H  49.08900 29.11500 23.60300
H  49.45200 28.12600 22.26300
H  50.51200 27.95300 23.54100
H  50.75600 30.27000 26.88200
H  51.81100 30.66400 28.23200
H  50.26700 31.40000 28.12100
H  48.32900 29.66400 32.79600
H  50.48900 28.77800 36.55200
H  50.85000 30.41700 36.09100
H  51.79600 29.07500 35.35300
Mg 27.49700 50.26900 26.98500
C  25.31700 51.44000 29.40500
C  29.77600 49.61100 29.40900
C  29.65000 49.56500 24.50200
C  25.33300 51.51700 24.58500
N  27.54900 50.56200 29.24500
C  26.43100 50.82600 30.01900
C  26.73300 50.68800 31.52700
C  28.28800 50.18500 31.47800
C  28.54200 50.11600 29.95500
C  29.38200 50.89900 32.34200
C  25.78700 49.64600 32.25400
C  25.12600 50.21900 33.45000
H  24.82900 49.31100 34.66000
N  29.40800 49.51400 26.96800
C  30.20100 49.36100 28.06200
C  31.52500 48.91900 27.66900
C  31.50900 48.99600 26.19800
C  30.17900 49.34500 25.81600
C  32.62700 48.64600 28.61800
C  32.71000 48.77900 25.26600
O  32.56300 48.83500 24.06400
C  34.08600 48.42400 25.78800
N  27.50500 50.46700 24.80700
C  28.46500 50.06800 24.00400
C  28.18900 50.43600 22.58300
C  26.68800 50.92600 22.60300
C  26.46300 50.92500 24.14200
C  29.29700 51.43800 22.08600
C  25.58200 50.11000 21.84600
C  24.90300 50.99000 20.72200
N  25.69900 51.24400 26.92000
C  24.94900 51.71300 25.91600
C  23.72700 52.26800 26.42700
C  23.81300 52.17600 27.78700
C  25.01000 51.54100 28.01900
C  22.61100 52.82400 25.57300
C  23.16500 52.47300 28.98800
O  22.05300 52.87500 29.25600
C  24.10600 52.03200 30.09700
C  24.36100 53.24700 30.90300
O  25.29800 54.02500 30.74500
O  23.43500 53.36000 31.97000
C  23.73200 54.35600 32.93100
H  30.47900 49.44000 30.22700
H  30.31700 49.40400 23.65200
H  24.59800 51.74400 23.81000
H  26.63800 51.65600 32.01900
H  28.31700 49.15500 31.83400
H  29.90000 51.58600 31.67400
H  30.05700 50.19400 32.82700
H  29.08800 51.53900 33.17400
H  26.28800 48.76300 32.65100
H  24.96700 49.37500 31.59000
H  24.15800 50.66500 33.22200
H  25.69400 51.09700 33.75900
H  32.44800 49.22700 29.52300
H  33.57300 49.01700 28.22400
H  32.72800 47.57300 28.77900
H  34.07000 47.62300 26.52700
H  34.42600 49.31800 26.31100
H  34.65900 48.21400 24.88400
H  28.30300 49.52000 22.00300
H  26.74000 51.96900 22.29300
H  28.78200 52.38800 21.94700
H  29.76300 51.12500 21.15200
H  30.07200 51.43100 22.85300
H  24.84100 49.87900 22.61100
H  25.81400 49.16900 21.34700
H  25.30600 51.99800 20.82600
H  23.84500 50.86100 20.94600
H  25.03700 50.67000 19.68900
H  22.89900 52.61400 24.54300
H  22.68100 53.91100 25.61200
H  21.60000 52.61600 25.92200
H  23.50700 51.34600 30.69500
H  23.81800 55.35000 32.49100
H  24.59800 54.15300 33.56000
H  22.82800 54.34800 33.54100

