158

Mg 36.13500 48.85900 24.10200
C  36.44900 47.30100 27.30800
C  34.61900 51.55300 25.71200
C  35.87200 50.18800 21.15700
C  37.64200 46.06800 22.68700
N  35.56600 49.31100 26.35400
C  35.88200 48.56000 27.44700
C  35.45200 49.30000 28.74400
C  34.95000 50.73600 28.17800
C  34.98600 50.52600 26.62000
C  33.47600 51.14200 28.69600
C  36.70900 49.37200 29.74500
C  36.34300 49.20100 31.26900
H  34.90000 49.11100 31.73000
N  35.25400 50.59500 23.51700
C  34.74500 51.59900 24.24200
C  34.40300 52.70300 23.40200
C  34.79600 52.39500 22.06200
C  35.31900 50.98600 22.14600
C  33.87300 53.93500 23.92400
C  34.82200 53.18800 20.74900
O  34.95900 52.62600 19.64600
C  34.60100 54.69600 20.79800
N  36.51000 48.16200 22.18500
C  36.39400 48.95900 21.14600
C  36.80300 48.30400 19.86100
C  37.46900 47.00600 20.36100
C  37.24900 47.09800 21.82300
C  35.57900 48.07700 18.90500
C  38.91500 46.91700 20.08900
C  39.84000 47.93000 20.79500
N  36.89100 47.00300 24.78400
C  37.41300 45.94900 24.07800
C  37.74300 44.86000 24.97100
C  37.34600 45.34200 26.22900
C  36.95100 46.69600 26.10400
C  38.26300 43.51400 24.63700
C  37.14000 44.99500 27.62500
O  37.31400 43.89800 28.19500
C  36.64500 46.25200 28.40100
C  35.42200 46.00300 29.29500
O  34.25400 45.84400 28.90000
O  35.84300 45.96100 30.58800
C  34.96700 45.21200 31.54900
H  34.30400 52.47900 26.19700
H  35.84800 50.55900 20.13000
H  38.25300 45.27700 22.24700
H  34.58100 48.78300 29.14800
H  35.71600 51.48700 28.37000
H  33.46800 52.15600 29.09700
H  33.15800 50.44800 29.47400
H  32.75200 51.11700 27.88200
H  37.05500 50.40200 29.65800
H  37.47600 48.67500 29.40700
H  36.62900 50.15200 31.71800
H  36.91300 48.51400 31.89500
H  34.20000 54.78700 23.32900
H  34.28600 54.07900 24.92300
H  32.78400 53.89800 23.89300
H  34.75200 55.01300 19.76600
H  35.38900 55.16000 21.39100
H  33.58100 54.88600 21.13300
H  37.50600 49.03400 19.46100
H  36.96000 46.10100 20.02900
H  34.72500 48.02900 19.58100
H  35.63400 47.16700 18.30700
H  35.47900 48.84100 18.13400
H  39.00700 46.91900 19.00300
H  39.16300 45.89000 20.35600
H  39.21700 48.62700 21.35500
H  40.51200 48.43600 20.10200
H  40.41000 47.43700 21.58200
H  39.33200 43.62400 24.45900
H  37.64200 43.06700 23.86000
H  38.02200 42.94100 25.53300
H  37.43100 46.53800 29.09900
H  34.36700 45.84800 32.19900
H  35.49200 44.52200 32.21000
H  34.25900 44.59300 31.00000
Mg 16.58500 51.60200 25.94500
C  18.78400 50.61700 28.63300
C  14.55300 52.92800 28.29300
C  14.61700 52.44200 23.47500
C  19.02200 50.44400 23.71100
N  16.74100 51.85600 28.11300
C  17.62100 51.22100 29.03800
C  17.26600 51.54000 30.53500
C  15.83600 52.15400 30.39800
C  15.66200 52.30400 28.84700
C  14.75700 51.28900 31.13400
C  18.30100 52.49500 31.16100
C  18.59500 52.26500 32.66200
H  17.62300 51.40000 33.53600
N  14.76800 52.47600 25.93000
C  14.08500 53.01700 26.97200
C  12.82200 53.49000 26.50600
C  12.79500 53.21400 25.11400
C  14.12300 52.70300 24.75000
C  11.82400 54.17000 27.46600
C  11.63500 53.49400 24.15300
O  11.67200 53.44300 22.91700
C  10.40400 53.99500 24.79400
N  16.83300 51.50100 23.76900
C  15.81500 51.92100 22.99800
C  16.06500 51.41400 21.56800
C  17.60900 50.91300 21.62200
C  17.86700 50.98700 23.10000
C  14.99700 50.35100 21.04300
C  18.54700 51.88900 20.81200
C  19.95100 51.41500 20.43500
N  18.55100 50.76100 26.06900
C  19.34400 50.32600 25.06000
C  20.44000 49.54400 25.61400
C  20.30500 49.58300 26.98600
C  19.10600 50.35200 27.26500
C  21.53500 48.88900 24.74500
C  20.86700 49.13200 28.23100
O  21.83700 48.45300 28.63000
C  19.87800 49.76100 29.34600
C  19.49300 48.69400 30.32800
O  18.66500 47.83300 30.11300
O  20.17500 48.86200 31.50400
C  19.77900 47.92800 32.54500
H  13.78200 53.14800 29.03400
H  13.98400 52.68500 22.61900
H  19.76100 50.15800 22.96000
H  17.38400 50.56700 31.01200
H  15.94700 53.14200 30.84600
H  14.05400 52.02000 31.53300
H  15.23200 50.58400 31.81600
H  14.31900 50.71000 30.32100
H  17.99900 53.53600 31.05100
H  19.25600 52.43300 30.63800
H  18.76200 53.23200 33.13500
H  19.46800 51.62000 32.76500
H  11.32100 55.06400 27.09700
H  12.45300 54.59200 28.25000
H  11.02100 53.53500 27.84000
H  10.07000 53.38800 25.63600
H  9.68300 54.11600 23.98600
H  10.53000 55.01400 25.15800
H  15.97900 52.27700 20.90700
H  17.76100 49.95500 21.12400
H  15.37000 49.35500 20.80600
H  14.48500 50.82500 20.20500
H  14.22700 50.16000 21.79100
H  18.59500 52.75900 21.46700
H  18.07100 52.10900 19.85700
H  20.84000 51.86400 20.87800
H  20.19500 51.43500 19.37200
H  19.86400 50.34500 20.62000
H  22.48600 49.04000 25.25600
H  21.60400 49.41400 23.79200
H  21.21600 47.84700 24.69800
H  20.44000 50.37900 30.04600
H  19.92900 48.61100 33.38100
H  20.44000 47.07100 32.67100
H  18.72000 47.67400 32.48900

