158

Mg 16.21200 52.37600 25.13700
C  17.48300 50.84500 27.87600
C  13.57700 53.45400 27.02500
C  14.61700 53.24600 22.31400
C  18.66800 50.79000 23.16300
N  15.75900 52.43700 27.24000
C  16.42700 51.72200 28.22000
C  15.86500 52.07600 29.63900
C  14.58600 52.95400 29.29100
C  14.59400 52.90400 27.76200
C  13.21100 52.45900 29.93100
C  16.95200 52.72000 30.52400
C  17.11200 52.16900 31.96000
H  15.96300 51.40600 32.59500
N  14.49800 53.43100 24.77300
C  13.46300 53.69400 25.64300
C  12.49200 54.46500 24.96700
C  12.68100 54.32400 23.58200
C  13.94200 53.62100 23.49100
C  11.21700 55.14500 25.69300
C  11.85100 54.67500 22.35900
O  12.17800 54.40900 21.19400
C  10.50900 55.36100 22.55100
N  16.63200 52.12500 23.02600
C  15.80500 52.57800 22.11600
C  16.39300 52.19600 20.76500
C  17.91800 51.86400 20.98800
C  17.75200 51.53200 22.46700
C  15.65100 51.08200 19.88900
C  18.91400 53.09500 20.94700
C  20.14200 52.83000 20.16000
N  17.75600 51.10500 25.44300
C  18.73100 50.62100 24.56000
C  19.65900 49.78400 25.28400
C  19.20100 49.94300 26.61100
C  18.02200 50.68400 26.60900
C  20.81900 48.99300 24.74300
C  19.47600 49.48500 27.92200
O  20.35200 48.74900 28.31600
C  18.42700 50.16200 28.83600
C  17.81600 49.11800 29.80100
O  16.64900 48.77500 29.87600
O  18.75000 48.73600 30.70500
C  18.28300 47.93600 31.84400
H  12.84400 53.86100 27.72500
H  14.27000 53.47800 21.30500
H  19.49200 50.46000 22.52600
H  15.50200 51.17000 30.12400
H  14.77400 54.01300 29.47200
H  12.63100 52.16600 29.05600
H  12.68600 53.26600 30.44300
H  13.31900 51.60500 30.59800
H  16.67700 53.73500 30.81000
H  17.97000 52.79300 30.14400
H  17.36400 53.00900 32.60800
H  17.94600 51.46600 31.96900
H  10.24200 55.06100 25.21300
H  11.51400 56.16900 25.92000
H  11.24600 54.74100 26.70500
H  9.63300 54.78400 22.84800
H  10.34100 55.61300 21.50400
H  10.65600 56.21600 23.21000
H  16.19900 53.11100 20.20500
H  18.28600 50.93800 20.54600
H  14.81900 50.84200 20.55000
H  16.37000 50.26400 19.84100
H  15.33900 51.37600 18.88600
H  19.26700 53.46400 21.90900
H  18.39700 53.96500 20.54300
H  19.98100 52.84600 19.08200
H  20.50600 51.85900 20.49400
H  20.98600 53.48100 20.38900
H  20.63700 48.64300 23.72700
H  21.11000 48.13800 25.35400
H  21.65500 49.67200 24.57400
H  18.94300 50.79900 29.55400
H  17.90900 48.48200 32.71000
H  19.02600 47.22800 32.21200
H  17.51200 47.23400 31.52800
Mg -11.90400 16.58300 42.86600
C  -8.48000 17.07000 42.90800
C  -12.40400 19.71100 41.95700
C  -15.22300 15.88200 42.69700
C  -11.24900 13.07600 43.26400
N  -10.58900 18.12800 42.47800
C  -9.23800 18.20800 42.65400
C  -8.70300 19.49400 42.08200
C  -9.96500 20.43500 41.97000
C  -11.08400 19.43200 42.23100
C  -9.92000 21.57800 42.97600
C  -7.99500 19.45400 40.65600
C  -6.75200 20.28700 40.40700
H  -5.53300 19.74800 39.71500
N  -13.57700 17.59600 42.24100
C  -13.54200 18.88900 41.90000
C  -14.90300 19.37200 41.65000
C  -15.78800 18.29800 41.95500
C  -14.86000 17.15800 42.31200
C  -15.26200 20.87700 41.31800
C  -17.32000 18.34500 41.93900
O  -17.83300 19.42500 41.77200
C  -18.17600 17.16600 42.16400
N  -13.11100 14.69200 42.60100
C  -14.47800 14.73400 42.81200
C  -14.91200 13.40400 43.33100
C  -13.67600 12.53800 43.42400
C  -12.64200 13.48400 43.11400
C  -15.87700 13.46800 44.58200
C  -13.51700 11.42200 42.32600
C  -13.02200 10.08300 42.84300
N  -10.21800 15.31800 43.11400
C  -10.10300 13.89600 43.18200
C  -8.74400 13.50100 43.36800
C  -8.00300 14.74700 43.26100
C  -8.97700 15.72400 43.07500
C  -8.23400 12.03800 43.44400
C  -6.74100 15.37900 43.21600
O  -5.60900 14.87700 43.29200
C  -7.01700 16.93800 43.06000
C  -6.45500 17.65800 44.27500
O  -6.98100 17.87400 45.33200
O  -5.18600 18.10100 44.02200
C  -4.46400 18.57800 45.22900
H  -12.55200 20.78600 41.83100
H  -16.28300 15.62100 42.72600
H  -11.10100 12.05100 43.61000
H  -7.95700 19.86500 42.78500
H  -10.25700 20.82200 40.99400
H  -8.90600 21.77000 43.32500
H  -10.39500 21.16900 43.86800
H  -10.45800 22.45800 42.62400
H  -8.69800 19.84200 39.91900
H  -7.74000 18.41100 40.46400
H  -6.40800 20.45900 41.42600
H  -7.10500 21.26100 40.06700
H  -15.46900 21.16100 40.28600
H  -14.56100 21.55200 41.80900
H  -16.13700 21.19400 41.88500
H  -19.21200 17.18400 41.82400
H  -18.18100 16.99000 43.23900
H  -17.77100 16.27400 41.68500
H  -15.42600 13.01600 42.45100
H  -13.57500 12.23200 44.46500
H  -15.88600 14.39000 45.16300
H  -15.75800 12.69800 45.34400
H  -16.89400 13.37300 44.20200
H  -12.77000 11.64900 41.56500
H  -14.42800 11.24800 41.75300
H  -13.77600 9.44000 42.38800
H  -13.30000 10.12700 43.89700
H  -11.99200 9.82100 42.60400
H  -7.33200 12.07600 44.05600
H  -7.88800 11.68300 42.47400
H  -8.92500 11.30000 43.84900
H  -6.33600 17.44200 42.37500
H  -4.82900 19.52800 45.61900
H  -3.39000 18.71800 45.10300
H  -4.53800 17.81800 46.00600

