158

Mg 17.21500 -2.56300 28.41400
C  16.57200 -0.53200 31.32400
C  19.12700 -4.57300 30.46400
C  18.09100 -4.34100 25.72200
C  15.76400 -0.11400 26.46900
N  17.67000 -2.58500 30.61200
C  17.22700 -1.69500 31.65100
C  17.73300 -2.09100 33.04300
C  18.80400 -3.21200 32.67300
C  18.51300 -3.50000 31.20800
C  20.31600 -2.87500 32.88300
C  16.52400 -2.53300 33.98200
C  16.25800 -1.61400 35.22800
H  17.35000 -0.83300 35.83600
N  18.37600 -4.32900 28.15000
C  19.04700 -4.92400 29.11000
C  19.71100 -6.05200 28.54400
C  19.64500 -5.95600 27.13900
C  18.67800 -4.86600 26.89100
C  20.35300 -7.05900 29.43700
C  20.36600 -6.75100 26.09400
O  20.19900 -6.58700 24.89000
C  21.31100 -7.86100 26.45500
N  16.87900 -2.36600 26.45100
C  17.30400 -3.21900 25.47900
C  16.90700 -2.71000 24.09600
C  16.11900 -1.40800 24.40000
C  16.22100 -1.26600 25.88500
C  18.10400 -2.54000 23.15400
C  14.69200 -1.39700 23.86400
C  13.75100 -2.41600 24.52600
N  16.32400 -0.68200 28.82300
C  15.78900 0.15500 27.89800
C  15.18100 1.32000 28.49000
C  15.48300 1.12500 29.87100
C  16.16600 -0.12200 30.01100
C  14.48200 2.44200 27.76500
C  15.27400 1.65600 31.23600
O  14.72600 2.65500 31.70900
C  16.10700 0.65000 32.19900
C  17.31500 1.53000 32.56700
O  18.40500 1.60300 32.03400
O  16.93900 2.27100 33.68300
C  17.96200 3.27300 34.15800
H  19.83800 -5.12500 31.08200
H  18.38000 -4.81800 24.78300
H  15.09700 0.51300 25.87300
H  18.31100 -1.28100 33.48900
H  18.62600 -4.14200 33.21400
H  20.69400 -3.63800 33.56400
H  20.43300 -1.87400 33.30000
H  20.84100 -2.89000 31.92800
H  16.70400 -3.57100 34.26300
H  15.66800 -2.52800 33.30600
H  15.88300 -2.31300 35.97600
H  15.54000 -0.81100 35.06100
H  20.11300 -7.14300 30.49700
H  21.41600 -6.82000 29.44400
H  20.18600 -8.10700 29.18800
H  21.98300 -7.48900 27.22800
H  21.87100 -8.04800 25.53900
H  20.65900 -8.69200 26.72600
H  16.22400 -3.43700 23.65500
H  16.55000 -0.44200 24.13800
H  18.13200 -1.46300 22.98900
H  18.03400 -3.04100 22.18900
H  19.02700 -2.85500 23.64100
H  14.75100 -1.66200 22.80800
H  14.06400 -0.50600 23.88100
H  12.97500 -1.91200 25.10200
H  14.35200 -3.04500 25.18400
H  13.27600 -3.02100 23.75400
H  13.66800 2.06000 27.14900
H  15.20900 2.96600 27.14500
H  14.02600 3.12900 28.47800
H  15.43900 0.37600 33.01500
H  17.95200 4.25100 33.67600
H  18.96700 2.90500 33.95200
H  17.99400 3.26700 35.24800
Mg -11.36600 16.38700 42.74400
C  -7.97100 17.16500 43.15800
C  -12.09600 19.64300 42.39000
C  -14.51900 15.45400 42.58900
C  -10.44300 12.95500 43.07300
N  -10.11100 18.20900 42.50100
C  -8.77200 18.28200 42.80500
C  -8.30000 19.69600 42.62500
C  -9.68700 20.50800 42.61300
C  -10.71600 19.41000 42.50600
C  -9.82000 21.66400 43.76300
C  -7.48400 19.87700 41.31700
C  -5.98000 20.22700 41.38400
H  -5.12900 19.73400 40.17900
N  -13.05200 17.39300 42.41800
C  -13.16600 18.75900 42.26600
C  -14.62200 19.14700 42.07600
C  -15.34600 17.85100 42.07100
C  -14.31900 16.80000 42.35500
C  -15.12000 20.64100 41.87500
C  -16.80600 17.72500 41.65100
O  -17.40200 18.74200 41.47000
C  -17.56400 16.51100 41.41000
N  -12.37100 14.41500 42.67400
C  -13.69400 14.32100 42.73700
C  -14.12600 12.90200 42.79900
C  -12.82600 12.03300 42.80600
C  -11.82500 13.19400 42.82200
C  -15.08100 12.53100 44.02600
C  -12.61300 11.11900 41.57400
C  -12.87100 9.64400 41.85700
N  -9.52600 15.26500 42.91600
C  -9.34200 13.91200 43.14300
C  -7.92100 13.70200 43.34000
C  -7.31800 14.93200 43.41600
C  -8.38400 15.81700 43.10900
C  -7.21900 12.38300 43.58400
C  -6.12000 15.64100 43.58100
O  -4.94600 15.27700 43.81900
C  -6.48500 17.17700 43.47800
C  -6.13900 17.78500 44.78800
O  -6.87200 17.78700 45.77900
O  -4.80200 18.26700 44.71700
C  -4.18700 18.53900 46.03600
H  -12.26300 20.70700 42.21000
H  -15.54600 15.08500 42.62400
H  -10.10700 11.93800 43.28400
H  -7.64100 19.97100 43.44800
H  -9.84000 21.02100 41.66400
H  -8.82800 21.81100 44.19200
H  -10.50900 21.38600 44.56000
H  -10.07000 22.61700 43.29700
H  -7.90200 20.73700 40.79400
H  -7.65100 19.01900 40.66600
H  -5.69800 19.92500 42.39200
H  -5.98800 21.31500 41.44000
H  -15.42100 20.68300 40.82800
H  -14.32700 21.38200 41.97900
H  -16.01300 20.81800 42.47300
H  -17.00000 15.68200 40.98300
H  -18.34400 16.84000 40.72300
H  -17.97600 16.16100 42.35700
H  -14.67800 12.55100 41.92700
H  -12.81600 11.45300 43.72900
H  -15.58600 13.42700 44.38700
H  -14.50800 12.12100 44.85800
H  -15.89100 11.86000 43.73800
H  -11.64400 11.23500 41.09000
H  -13.39200 11.29900 40.83300
H  -12.10200 9.04000 41.37400
H  -13.84400 9.32700 41.48200
H  -12.87600 9.40000 42.91900
H  -7.54900 11.72300 42.78200
H  -7.59700 11.98700 44.52700
H  -6.14200 12.54400 43.63500
H  -5.88300 17.55300 42.65000
H  -3.10900 18.58600 45.87800
H  -4.34300 17.80100 46.82300
H  -4.48500 19.50300 46.44800

