158

Mg 1.67400 -0.73100 44.42900
C  4.96600 0.21900 44.07300
C  0.59600 2.24500 43.20000
C  -1.60900 -1.84300 44.33700
C  2.72000 -3.96400 45.49400
N  2.67000 0.94700 43.62000
C  4.08200 1.23900 43.65600
C  4.37400 2.73400 43.22200
C  2.93700 3.30900 42.98400
C  2.01500 2.10100 43.34000
C  2.54700 4.60200 43.78600
C  5.38100 2.79500 42.08200
C  5.75600 4.19600 41.65700
H  5.64000 4.63900 40.17100
N  -0.32300 0.11000 43.92100
C  -0.45500 1.32200 43.29300
C  -1.87000 1.47200 42.99100
C  -2.57600 0.29800 43.33000
C  -1.52700 -0.55800 43.86800
C  -2.52200 2.73000 42.36700
C  -4.01700 -0.01800 43.15200
O  -4.75600 0.80200 42.64400
C  -4.71200 -1.17800 43.79600
N  0.67100 -2.57200 44.73900
C  -0.67300 -2.75400 44.73300
C  -1.06500 -4.19800 44.88900
C  0.27300 -4.82900 45.46500
C  1.32800 -3.73900 45.25700
C  -2.26300 -4.51700 45.81000
C  0.65000 -6.24600 44.79000
C  0.78100 -7.38600 45.85800
N  3.41600 -1.76200 44.69400
C  3.73800 -3.04100 45.12000
C  5.22200 -3.17600 45.26000
C  5.70600 -1.94700 44.79800
C  4.61300 -1.13600 44.48900
C  5.95700 -4.41600 45.62100
C  6.99300 -1.17400 44.60400
O  8.15500 -1.56400 44.73700
C  6.58900 0.26400 44.15100
C  6.96400 1.35800 45.13200
O  6.46600 1.52100 46.21900
O  8.01200 2.04700 44.53300
C  8.40100 3.21000 45.38900
H  0.29100 3.24300 42.87700
H  -2.58000 -2.33600 44.26200
H  3.04800 -4.93700 45.86600
H  4.82500 3.17800 44.10900
H  2.92300 3.46600 41.90600
H  3.39300 4.93500 44.38700
H  1.75300 4.39700 44.50400
H  2.32200 5.43200 43.11500
H  5.04400 2.24700 41.20200
H  6.33600 2.41600 42.44700
H  6.72400 4.44400 42.09500
H  5.02000 4.87900 42.08300
H  -1.70200 3.43500 42.23100
H  -3.28700 3.12600 43.03500
H  -2.84300 2.38000 41.38600
H  -5.79300 -1.05200 43.85300
H  -4.26300 -1.26700 44.78500
H  -4.42300 -2.10000 43.29200
H  -1.19000 -4.58500 43.87800
H  0.02100 -4.81500 46.52500
H  -2.03600 -5.30400 46.53000
H  -3.14400 -4.88900 45.28800
H  -2.61900 -3.60200 46.28300
H  1.66900 -6.12800 44.42100
H  0.06100 -6.61400 43.94900
H  1.80200 -7.68100 46.10000
H  0.25800 -8.28800 45.54300
H  0.35300 -6.93700 46.75500
H  5.44700 -4.77400 46.51500
H  7.02300 -4.26100 45.78800
H  5.73300 -5.15000 44.84800
H  7.01400 0.47600 43.17000
H  9.32300 3.67800 45.04500
H  8.60100 2.92500 46.42200
H  7.56600 3.90900 45.34200
Mg -0.21600 42.91900 25.96400
C  1.91300 42.95800 28.69400
C  -2.92400 42.51400 28.11500
C  -2.19000 42.66700 23.27100
C  2.57800 43.09300 23.92000
N  -0.38700 42.89600 28.11100
C  0.55600 42.90800 29.09900
C  0.01700 42.96900 30.49200
C  -1.55300 42.70300 30.22900
C  -1.60800 42.56900 28.68600
C  -2.18000 41.38500 30.79400
C  0.36500 44.39900 31.14800
C  0.90700 44.35800 32.54700
H  0.64400 43.15400 33.41500
N  -2.24300 42.57000 25.72200
C  -3.20100 42.46700 26.73000
C  -4.52300 42.46900 26.08600
C  -4.22400 42.26600 24.72000
C  -2.84200 42.44400 24.53100
C  -5.79000 42.43600 26.90600
C  -5.24800 41.85200 23.71400
O  -4.91100 41.70700 22.58300
C  -6.71400 41.62100 24.15300
N  0.17000 42.84500 23.94800
C  -0.79600 42.67800 23.01700
C  -0.24200 42.73600 21.53500
C  1.27200 43.00000 21.79600
C  1.36500 42.89500 23.26800
C  -0.50600 41.53200 20.57700
C  1.74600 44.42900 21.33500
C  3.06300 44.47800 20.65300
N  1.87000 42.92500 26.17300
C  2.85800 43.04600 25.28200
C  4.15600 43.00900 25.93300
C  3.83500 43.05400 27.25300
C  2.40600 43.01700 27.36200
C  5.53900 42.96900 25.20900
C  4.44300 43.17400 28.51000
O  5.60200 43.34400 28.82500
C  3.20300 43.02100 29.50600
C  3.33300 41.77800 30.37000
O  3.09600 40.56900 30.09800
O  4.00200 42.13100 31.54200
C  4.41900 40.99500 32.32700
H  -3.74100 42.46100 28.83800
H  -2.81700 42.82600 22.39100
H  3.49900 43.03600 23.33600
H  0.44600 42.09900 30.99000
H  -2.18200 43.52000 30.58200
H  -2.60800 40.78400 29.99200
H  -2.97500 41.62600 31.49900
H  -1.55900 40.81100 31.48100
H  -0.44900 45.12200 31.09300
H  1.11100 44.78300 30.45300
H  0.39800 45.15200 33.09400
H  1.99500 44.39800 32.60300
H  -6.60400 43.12400 26.67700
H  -5.47500 42.49600 27.94800
H  -6.13600 41.41200 26.76600
H  -6.84300 40.69300 24.71000
H  -7.17600 41.60300 23.16600
H  -7.25400 42.41100 24.67400
H  -0.71100 43.62600 21.11400
H  1.87500 42.22700 21.32000
H  -0.87000 40.62200 21.05400
H  0.44800 41.22700 20.14600
H  -1.09200 41.78300 19.69300
H  1.75100 45.10400 22.19100
H  1.03400 44.85800 20.63000
H  3.82000 43.71400 20.82900
H  3.55600 45.43700 20.81200
H  2.72200 44.51300 19.61800
H  6.12100 42.08000 25.45000
H  6.01000 43.92300 25.44800
H  5.40800 42.93500 24.12700
H  3.27600 43.81000 30.25400
H  4.68500 41.33400 33.32800
H  5.38400 40.66800 31.94000
H  3.75400 40.14800 32.49300

