158

Mg 49.66100 35.20800 28.01000
C  47.68100 33.65500 30.53600
C  49.86800 37.98900 30.01700
C  51.41900 36.70600 25.50400
C  48.98900 32.46800 25.90500
N  48.89200 35.64700 30.13100
C  48.27700 34.86500 31.00600
C  48.37200 35.41300 32.42400
C  48.78300 36.91900 32.13900
C  49.24800 36.87300 30.67300
C  47.75900 38.05900 32.63000
C  49.51500 34.58400 33.10700
C  49.48800 34.36800 34.61600
H  48.56800 35.21600 35.48700
N  50.57000 37.06600 27.86600
C  50.44700 38.08900 28.75100
C  51.12300 39.32200 28.19400
C  51.71400 38.92800 26.95100
C  51.20700 37.50000 26.67500
C  51.23500 40.66100 29.06500
C  52.73900 39.62700 26.03800
O  53.33800 39.08700 25.14100
C  53.28200 41.00200 26.43300
N  49.89000 34.75700 25.87000
C  50.90000 35.42700 25.17700
C  51.50100 34.57700 24.01100
C  50.68200 33.26700 24.04700
C  49.78900 33.45900 25.32000
C  51.45200 35.40500 22.66600
C  51.57400 31.98500 24.07900
C  50.98000 30.78900 23.36700
N  48.57500 33.44000 28.11000
C  48.35800 32.46900 27.16400
C  47.37200 31.59900 27.68000
C  47.08800 32.03300 29.02600
C  47.86100 33.15400 29.18100
C  46.91900 30.29600 26.95300
C  46.30400 31.71800 30.13400
O  45.50000 30.81100 30.30300
C  46.72800 32.73700 31.24300
C  47.48000 32.04600 32.34100
O  48.38600 31.25800 32.05700
O  47.02600 32.26400 33.57500
C  47.37500 31.21200 34.58000
H  49.93600 38.86600 30.66500
H  51.97700 37.13000 24.66600
H  48.78800 31.59200 25.28500
H  47.43300 35.25100 32.95400
H  49.66800 37.15500 32.73100
H  48.08700 38.43000 33.60100
H  46.74800 37.66200 32.73200
H  47.80800 38.88500 31.92100
H  50.40800 35.20600 33.04700
H  49.60600 33.63900 32.57200
H  50.49400 34.51100 35.01200
H  49.17500 33.34200 34.81200
H  50.65300 40.72200 29.98400
H  50.81100 41.41400 28.40000
H  52.26700 40.84600 29.36300
H  52.50700 41.71100 26.72400
H  53.78700 41.39600 25.55100
H  53.80300 40.70300 27.34200
H  52.54300 34.49400 24.32000
H  50.02800 33.21100 23.17600
H  50.88300 34.78800 21.97000
H  52.48500 35.60500 22.38100
H  50.98000 36.38200 22.76600
H  51.68200 31.75900 25.14000
H  52.58300 32.10400 23.68400
H  51.75700 30.24700 22.82900
H  50.11700 31.09200 22.77300
H  50.60100 30.16400 24.17500
H  47.72100 29.93200 26.31100
H  45.97000 30.53000 26.46900
H  46.74800 29.56700 27.74400
H  45.85000 33.28700 31.58300
H  47.08100 30.21100 34.26500
H  46.99200 31.47200 35.56800
H  48.45400 31.14200 34.71300
Mg 17.18700 50.42900 26.24800
C  19.07500 49.05100 28.85500
C  14.90100 51.47500 28.46900
C  15.64000 51.65800 23.64000
C  19.65200 48.96600 23.94200
N  17.08700 50.31500 28.40000
C  17.94900 49.80300 29.28900
C  17.55300 50.11500 30.77300
C  15.96700 50.26600 30.60800
C  15.89200 50.70000 29.11700
C  15.11600 49.13000 31.13300
C  18.15800 51.44900 31.26400
C  18.43300 51.37800 32.72900
H  17.49400 50.76600 33.63900
N  15.56800 51.52200 26.05200
C  14.75400 51.90500 27.08100
C  13.67600 52.78900 26.54300
C  13.95700 52.97900 25.15500
C  15.12200 52.01100 24.89100
C  12.63600 53.47900 27.48100
C  13.24200 53.86300 24.10600
O  13.58800 53.91500 22.92900
C  12.20800 54.90400 24.52200
N  17.55200 50.24300 24.12800
C  16.68800 50.82900 23.26500
C  16.93700 50.41900 21.78600
C  18.39800 49.92400 21.89600
C  18.50900 49.67300 23.40700
C  15.87300 49.40500 21.37800
C  19.41200 50.90600 21.29800
C  20.45000 50.23300 20.36500
N  18.99300 49.18900 26.29300
C  19.85900 48.71700 25.34200
C  20.91400 47.96100 25.99200
C  20.63400 48.06400 27.35000
C  19.50700 48.84400 27.49400
C  22.03300 47.21700 25.26600
C  21.07600 47.68000 28.67100
O  22.05700 46.96300 28.99200
C  20.05700 48.40700 29.76200
C  19.44000 47.35100 30.57100
O  18.40800 46.77400 30.25600
O  19.86000 47.35000 31.87700
C  19.14200 46.53000 32.90600
H  14.11600 51.89700 29.10000
H  14.90700 51.91100 22.87100
H  20.43300 48.60700 23.26900
H  17.82400 49.25800 31.38900
H  15.60300 51.17200 31.09200
H  14.21900 49.51700 31.61500
H  15.69800 48.55500 31.85400
H  14.82700 48.39300 30.38400
H  17.44800 52.25300 31.06900
H  19.10800 51.67100 30.77900
H  18.82800 52.36100 32.98700
H  19.41500 50.92200 32.84900
H  12.41900 54.51000 27.20400
H  12.88900 53.54300 28.54000
H  11.64500 53.04100 27.36800
H  11.86300 55.36500 23.59700
H  12.64200 55.58100 25.25700
H  11.37400 54.30500 24.88800
H  16.75200 51.25400 21.10900
H  18.43800 48.95400 21.39900
H  15.03800 49.93500 20.92000
H  15.51600 48.87400 22.26100
H  16.26400 48.54900 20.82800
H  19.85800 51.47200 22.11600
H  18.85500 51.59100 20.65900
H  21.40800 50.72200 20.53900
H  20.19300 50.69500 19.41100
H  20.51000 49.15300 20.23500
H  22.34900 47.62800 24.30700
H  21.73800 46.25800 24.84200
H  22.91500 47.03000 25.87900
H  20.69900 49.11600 30.28400
H  19.72700 45.70000 33.30000
H  18.15500 46.18000 32.60400
H  19.13100 47.13600 33.81200

