158

Mg 42.25700 41.11700 25.84200
C  41.42800 43.45900 28.44300
C  43.65200 39.17900 28.38800
C  43.41000 39.15400 23.49600
C  41.85300 43.70700 23.62700
N  42.48500 41.37100 28.09700
C  42.00700 42.33300 28.93800
C  42.07300 41.95700 30.45700
C  42.95200 40.62600 30.40100
C  43.06700 40.34000 28.83800
C  44.30700 40.62700 31.16300
C  40.62100 41.75300 31.12800
C  40.22900 42.85000 32.15900
H  39.56300 42.30700 33.41300
N  43.31800 39.41300 25.92700
C  43.71000 38.65600 27.02100
C  44.26000 37.41600 26.58800
C  44.13100 37.36800 25.12500
C  43.53500 38.69300 24.78100
C  44.89100 36.41800 27.53200
C  44.60200 36.27900 24.21100
O  44.41400 36.23800 23.02800
C  45.34300 35.16000 24.72800
N  42.57900 41.42200 23.87800
C  42.95200 40.40200 23.03100
C  42.79400 40.70700 21.53200
C  42.60200 42.28000 21.64000
C  42.39700 42.53900 23.14500
C  43.98600 40.33800 20.71100
C  41.43400 42.71600 20.71400
C  41.65000 44.13500 20.03100
N  41.57900 43.14500 25.94500
C  41.52600 44.06100 24.91300
C  41.16600 45.38400 25.47300
C  41.09400 45.10500 26.83300
C  41.41400 43.78500 27.07300
C  40.88400 46.69000 24.77300
C  40.71400 45.80100 28.08700
O  40.24400 46.95500 28.30400
C  40.88100 44.66500 29.18100
C  41.87200 45.23600 30.13100
O  43.05000 45.37800 29.87200
O  41.29200 45.70700 31.23500
C  42.02900 46.40700 32.24700
H  44.15400 38.66900 29.21300
H  43.60000 38.44000 22.69200
H  41.72000 44.48900 22.87600
H  42.63800 42.70000 31.02000
H  42.36100 39.79300 30.78000
H  45.16900 40.57800 30.49800
H  44.33000 39.76800 31.83400
H  44.46400 41.49400 31.80500
H  40.64500 40.84500 31.73100
H  39.78800 41.66200 30.43100
H  39.52400 43.60300 31.80800
H  41.11500 43.43300 32.41300
H  44.43300 35.42900 27.54900
H  44.93800 36.78300 28.55800
H  45.89900 36.29500 27.13700
H  46.32000 35.52900 25.04000
H  45.50600 34.30400 24.07400
H  44.97000 34.72900 25.65700
H  41.90900 40.20900 21.13500
H  43.53600 42.81500 21.47000
H  43.73500 39.46100 20.11400
H  44.87900 40.22900 21.32700
H  44.24500 41.09300 19.96900
H  40.60200 42.89300 21.39500
H  41.36700 41.94400 19.94600
H  40.68000 44.25400 19.54800
H  42.40600 44.11000 19.24700
H  41.72900 44.97500 20.72100
H  41.66600 47.19700 24.20800
H  40.75800 47.38600 25.60200
H  39.98700 46.65300 24.15500
H  39.90600 44.60300 29.66500
H  42.42500 45.67100 32.94700
H  41.42600 47.12400 32.80500
H  42.88300 46.95800 31.85200
Mg 30.28100 57.51800 40.15000
C  27.33900 55.73100 39.28100
C  32.09900 55.18000 38.46200
C  32.82700 59.65500 40.18700
C  28.13800 60.16100 41.13500
N  29.77100 55.73900 38.89000
C  28.52200 55.16500 38.78400
C  28.61000 53.76100 38.23100
C  30.11900 53.56100 38.21500
C  30.74500 54.91400 38.58800
C  30.73800 52.42800 39.07800
C  27.80800 53.53300 36.90400
C  27.33500 54.68000 35.95700
H  27.76700 54.59700 34.52700
N  32.25000 57.35900 39.52400
C  32.83700 56.33900 38.83100
C  34.22900 56.59700 38.58200
C  34.43700 57.90600 39.13900
C  33.14900 58.37700 39.68800
C  35.11900 55.54100 38.03800
C  35.77500 58.68800 39.04300
O  36.76300 58.22300 38.53100
C  35.83800 60.13200 39.48500
N  30.50300 59.59000 40.49200
C  31.63600 60.26300 40.49400
C  31.55200 61.66800 41.14300
C  30.15200 61.70600 41.65100
C  29.52400 60.45000 41.00900
C  32.64600 62.13700 42.14700
C  29.30500 63.05200 41.53600
C  29.10500 63.92000 42.77600
N  28.16900 57.91400 40.16800
C  27.44000 59.07000 40.52700
C  26.04000 58.84600 40.49500
C  25.96900 57.50500 39.97200
C  27.30700 57.01600 39.82100
C  24.92700 59.73000 41.03200
C  25.03900 56.50000 39.69500
O  23.78700 56.42900 39.74700
C  25.87000 55.32200 39.15400
C  25.54100 54.00600 39.91500
O  26.17700 53.69400 40.88900
O  24.58500 53.31100 39.27800
C  24.49200 51.91200 39.79400
H  32.73100 54.43800 37.97000
H  33.65200 60.35800 40.32400
H  27.50400 60.92900 41.58500
H  28.20100 53.16300 39.04500
H  30.51200 53.36200 37.21800
H  30.01200 51.80400 39.60000
H  31.54000 52.71800 39.75700
H  31.20800 51.63900 38.49200
H  26.85500 53.03900 37.09500
H  28.32700 52.78100 36.31000
H  27.56700 55.59400 36.50400
H  26.24600 54.72000 35.98700
H  36.15900 55.86200 37.97600
H  34.59200 55.02500 37.23500
H  35.06600 54.83800 38.87000
H  36.82700 60.57700 39.37100
H  35.56400 60.09700 40.53900
H  35.16800 60.68300 38.82500
H  31.66700 62.39200 40.33700
H  30.08300 61.55900 42.72900
H  33.29400 62.98300 41.92000
H  33.22900 61.22100 42.24100
H  32.23400 62.30300 43.14200
H  28.34200 62.93600 41.03900
H  29.94500 63.59300 40.83800
H  28.05900 64.14300 42.98800
H  29.69700 64.83000 42.68000
H  29.43000 63.42000 43.68800
H  25.22600 60.73500 40.73500
H  24.79900 59.78500 42.11300
H  24.00600 59.53900 40.48100
H  25.55600 55.30700 38.11000
H  23.83500 52.02500 40.65700
H  25.41300 51.41200 40.09400
H  23.97400 51.26900 39.08300

