158

Mg 47.63400 35.12100 26.14300
C  45.85300 33.74300 28.76700
C  48.09300 38.03900 27.99000
C  48.97600 36.49500 23.50700
C  46.56300 32.30400 24.16500
N  47.07200 35.70900 28.07700
C  46.53000 34.94100 29.07100
C  46.64900 35.71000 30.40200
C  46.81600 37.14500 29.98700
C  47.36800 36.97700 28.56400
C  45.53800 38.00100 30.10200
C  47.85400 35.10500 31.17000
C  47.70000 35.11800 32.68200
H  46.68500 36.02600 33.31700
N  48.54800 36.97200 25.82200
C  48.55500 38.07100 26.64900
C  49.11000 39.17800 25.93700
C  49.55300 38.67100 24.70100
C  49.05200 37.33200 24.65300
C  49.11000 40.64200 26.40000
C  50.38100 39.40700 23.59800
O  50.73600 38.81600 22.53600
C  50.68600 40.90100 23.72400
N  47.72900 34.49900 24.08500
C  48.29400 35.29200 23.20500
C  48.30000 34.71700 21.84400
C  47.88700 33.20800 22.03800
C  47.37900 33.32500 23.49700
C  47.35100 35.56000 20.85100
C  49.02900 32.28300 21.67200
C  50.31200 32.32000 22.52400
N  46.45000 33.33600 26.36700
C  46.14700 32.31800 25.46700
C  45.32900 31.30900 26.13000
C  45.11500 31.85200 27.42900
C  45.88800 33.06400 27.49900
C  44.83300 29.98600 25.46700
C  44.43200 31.70200 28.66100
O  43.63500 30.84700 29.06900
C  44.85900 32.87100 29.55000
C  45.35200 32.42500 30.89400
O  46.51800 31.97600 31.14100
O  44.32800 32.32000 31.84200
C  44.61300 32.33200 33.28900
H  48.38300 38.87300 28.63200
H  49.53500 36.88700 22.65500
H  46.16800 31.43600 23.63300
H  45.73000 35.61000 30.97900
H  47.46200 37.71400 30.65500
H  44.65800 37.54200 30.55400
H  45.30400 38.23700 29.06400
H  45.78500 38.84400 30.74900
H  48.72100 35.68400 30.85400
H  48.13200 34.09600 30.86500
H  48.72400 35.35900 32.96800
H  47.65300 34.08500 33.02900
H  48.61400 41.23100 25.62800
H  50.10700 41.01300 26.64100
H  48.60400 40.74200 27.36000
H  51.10200 41.22600 24.67800
H  49.65600 41.24900 23.79400
H  51.24800 41.33600 22.89700
H  49.30100 34.77500 21.41700
H  47.01500 32.98500 21.42200
H  46.76000 34.87100 20.24800
H  48.06300 36.18100 20.30700
H  46.61200 36.16000 21.38200
H  49.41300 32.65000 20.72000
H  48.58900 31.29000 21.57200
H  50.61000 31.28700 22.70400
H  50.09900 32.72800 23.51200
H  51.11400 32.87700 22.04000
H  45.58200 29.45100 24.88400
H  44.08400 30.31000 24.74400
H  44.42000 29.29700 26.20400
H  43.99400 33.49600 29.77100
H  45.69400 32.26200 33.40200
H  44.16500 31.45600 33.75900
H  44.29600 33.31000 33.65000
Mg 4.83600 54.68400 40.34300
C  4.34600 51.19100 40.58600
C  8.18200 54.01600 39.53600
C  5.14700 57.81200 39.36100
C  1.36500 55.15100 40.92100
N  6.10500 52.74800 39.85900
C  5.68800 51.45500 40.12100
C  6.85000 50.44500 39.89400
C  8.06500 51.38300 39.98600
C  7.46400 52.82200 39.74900
C  8.72500 51.33000 41.35500
C  6.67300 49.55600 38.57000
C  6.02000 50.24700 37.40100
H  6.92600 51.11000 36.51700
N  6.43000 55.80300 39.59200
C  7.76100 55.38200 39.41800
C  8.64900 56.47900 39.04900
C  7.71700 57.66500 39.04100
C  6.34400 57.10000 39.24500
C  10.14500 56.39800 38.70400
C  8.14900 59.06300 38.83900
O  9.34500 59.31300 38.82300
C  7.23900 60.14200 38.83200
N  3.46200 56.21000 40.12000
C  3.86700 57.43900 39.74600
C  2.78600 58.51300 39.97200
C  1.52800 57.67100 40.45600
C  2.17900 56.22400 40.47200
C  3.15300 59.67400 40.95800
C  0.32400 57.76900 39.50600
C  -1.12000 58.05400 40.02300
N  3.15200 53.45600 40.58400
C  1.83800 53.81000 40.90500
C  1.10800 52.67600 41.40400
C  2.07700 51.66000 41.33000
C  3.25000 52.18200 40.71200
C  -0.33600 52.50000 41.86700
C  2.40500 50.24400 41.64700
O  1.81800 49.35900 42.21000
C  3.77900 49.88300 41.06900
C  3.70300 48.81800 40.02600
O  3.33700 49.00700 38.92900
O  4.15500 47.61100 40.53800
C  4.09500 46.51600 39.55900
H  9.27000 53.95100 39.47000
H  5.11000 58.86200 39.06500
H  0.34000 55.34500 41.24400
H  6.83700 49.72300 40.71000
H  8.77200 51.15300 39.18900
H  9.81000 51.37900 41.25900
H  8.52100 50.37300 41.83500
H  8.40900 52.16600 41.97800
H  6.17400 48.62400 38.83400
H  7.70100 49.30700 38.30400
H  5.29200 50.91400 37.86300
H  5.56800 49.43300 36.83400
H  10.31100 55.54100 38.05200
H  10.74900 56.19500 39.58900
H  10.52500 57.23400 38.11700
H  7.78300 61.07000 38.65100
H  6.70100 60.15300 39.77900
H  6.60900 60.04000 37.94800
H  2.77100 59.02600 39.01100
H  1.25400 57.91100 41.48400
H  2.57300 59.72600 41.87900
H  3.00700 60.60500 40.41100
H  4.17400 59.46700 41.28000
H  0.20700 56.95100 38.79500
H  0.62800 58.70900 39.04500
H  -1.00300 59.09200 40.33400
H  -1.42400 57.43100 40.86400
H  -1.93000 58.02400 39.29400
H  -0.73500 51.49900 41.70900
H  -1.02200 53.19600 41.38500
H  -0.33600 52.89400 42.88400
H  4.31600 49.45300 41.91500
H  3.01700 46.35600 39.52100
H  4.54700 45.63200 40.01100
H  4.41300 46.68900 38.53100

