158

Mg 2.10500 -1.84600 44.69800
C  5.38100 -0.66600 44.38500
C  0.99000 0.92100 43.03000
C  -0.82300 -3.45600 44.16300
C  3.48200 -4.94400 45.79400
N  3.10500 -0.22500 43.72500
C  4.39400 0.15600 43.80000
C  4.54900 1.59900 43.31800
C  3.15900 2.12000 43.35100
C  2.37400 0.84500 43.31600
C  2.65400 2.91400 44.55800
C  5.35500 1.71400 41.96200
C  6.88800 2.06900 41.99100
H  7.82300 1.40500 41.08200
N  0.32200 -1.38000 43.69800
C  0.05300 -0.10600 43.11600
C  -1.23900 -0.11200 42.54700
C  -1.78700 -1.41200 42.87100
C  -0.74200 -2.15100 43.58500
C  -1.74600 1.09500 41.77600
C  -3.25200 -1.81000 42.59200
O  -3.98300 -1.14900 41.86300
C  -3.92000 -2.96400 43.27000
N  1.39300 -4.05800 44.72400
C  0.12300 -4.37400 44.65200
C  -0.09200 -5.87100 45.03200
C  1.32000 -6.36300 45.53100
C  2.11000 -5.01400 45.35300
C  -1.09500 -6.11300 46.14100
C  1.86600 -7.54100 44.73800
C  2.53700 -8.75600 45.41600
N  4.03500 -2.60400 45.26700
C  4.41800 -3.86000 45.65400
C  5.89500 -3.90300 45.86800
C  6.30700 -2.57800 45.46900
C  5.15100 -1.93500 44.98000
C  6.70500 -5.03700 46.21400
C  7.44400 -1.63800 45.28200
O  8.63800 -1.80100 45.48200
C  6.81300 -0.37400 44.72200
C  7.01000 0.74000 45.85300
O  6.15600 1.09800 46.66700
O  8.08500 1.40900 45.47500
C  8.16200 2.78500 46.05500
H  0.60900 1.86400 42.63300
H  -1.76100 -3.99700 44.02100
H  3.86900 -5.92000 46.09700
H  5.11500 2.05600 44.13000
H  3.05000 2.65100 42.40500
H  1.79400 3.51700 44.26600
H  3.43300 3.56400 44.95500
H  2.33400 2.23600 45.34900
H  4.88600 2.57300 41.48200
H  5.21500 0.74700 41.47700
H  7.30100 1.96400 42.99400
H  7.02600 3.12400 41.75200
H  -1.35400 1.01300 40.76200
H  -1.50400 2.03400 42.27400
H  -2.83200 1.07900 41.68700
H  -3.62100 -3.87000 42.74200
H  -5.00500 -2.87300 43.22700
H  -3.61100 -2.93400 44.31500
H  -0.39600 -6.39500 44.12600
H  1.29100 -6.59600 46.59500
H  -0.74800 -6.93700 46.76300
H  -2.02500 -6.47000 45.69900
H  -1.22600 -5.15600 46.64600
H  2.61100 -7.17200 44.03300
H  1.06000 -7.92700 44.11400
H  2.08400 -8.83000 46.40400
H  3.62700 -8.73300 45.43800
H  2.25600 -9.66400 44.88100
H  6.57900 -5.72100 45.37400
H  6.25500 -5.35200 47.15500
H  7.77600 -4.85600 46.30700
H  7.36000 0.02600 43.86700
H  9.20800 3.01700 45.85400
H  7.82000 3.00900 47.06600
H  7.53000 3.32800 45.35300
Mg 24.29100 -4.36100 46.24700
C  26.24300 -1.92500 44.79900
C  21.60400 -3.50000 44.09300
C  22.72800 -7.36100 47.03200
C  27.06600 -5.39500 48.25500
N  23.96300 -2.77700 44.74000
C  24.89200 -2.05200 44.18100
C  24.41200 -1.21800 43.02700
C  22.86500 -1.41500 43.11800
C  22.77600 -2.67200 44.11800
C  21.93700 -0.18900 43.57400
C  25.10500 -1.59300 41.63200
C  25.64000 -0.45000 40.74500
H  25.40200 -0.59300 39.26600
N  22.38300 -5.19100 45.82400
C  21.46300 -4.67700 44.86200
C  20.28700 -5.62200 44.81000
C  20.57500 -6.72200 45.67600
C  21.92000 -6.45700 46.27800
C  19.07600 -5.20000 43.93300
C  19.57900 -7.87200 45.99900
O  18.51500 -7.86700 45.41300
C  19.91700 -8.97600 46.91100
N  24.83300 -6.14300 47.49300
C  23.98000 -7.18000 47.65500
C  24.68200 -8.30700 48.46200
C  25.87400 -7.53900 49.19400
C  26.03800 -6.33000 48.22300
C  23.70700 -9.16000 49.44000
C  27.15800 -8.33700 49.45100
C  27.48700 -8.80000 50.90300
N  26.27300 -3.87400 46.44600
C  27.26600 -4.31800 47.36100
C  28.44900 -3.51300 47.18200
C  28.14800 -2.61000 46.14700
C  26.77500 -2.84100 45.78100
C  29.68500 -3.54600 47.99900
C  28.65300 -1.54200 45.36100
O  29.77700 -1.06000 45.34300
C  27.41500 -1.07700 44.43400
C  27.09700 0.42700 44.56600
O  26.92900 1.15500 45.51700
O  27.21300 0.97800 43.24300
C  27.34400 2.47400 43.10200
H  20.91400 -3.04200 43.38100
H  22.26900 -8.34000 47.18400
H  27.85100 -5.61400 48.98100
H  24.59800 -0.15000 43.13900
H  22.58800 -1.81800 42.14400
H  21.31500 0.18500 42.76100
H  22.58900 0.68300 43.59800
H  21.46500 -0.30100 44.55000
H  24.38300 -2.02900 40.94200
H  25.89300 -2.26300 41.97600
H  26.71600 -0.35000 40.89300
H  25.11000 0.42500 41.12100
H  19.01300 -4.11200 43.89800
H  18.20300 -5.69900 44.35300
H  19.24700 -5.54100 42.91200
H  20.69900 -9.48300 46.34600
H  19.08600 -9.67100 47.02800
H  20.33700 -8.83100 47.90600
H  25.07800 -9.01600 47.73500
H  25.49900 -7.10100 50.11900
H  22.70100 -8.74100 49.45500
H  23.96800 -9.08500 50.49600
H  23.66500 -10.20200 49.12300
H  27.97100 -7.75800 49.01400
H  27.09700 -9.18100 48.76400
H  27.42700 -9.88100 50.77700
H  26.65800 -8.43500 51.51000
H  28.49800 -8.57400 51.23900
H  29.51100 -3.99200 48.97800
H  29.94800 -2.49600 48.13400
H  30.44800 -4.08500 47.43800
H  27.71700 -1.19900 43.39400
H  27.74700 2.88700 44.02700
H  26.37900 2.90000 42.82600
H  28.03800 2.64600 42.27900

