158

Mg 36.57700 49.41600 24.59800
C  36.97000 47.81600 27.76400
C  35.23800 52.09200 26.36300
C  35.86900 50.74400 21.71800
C  37.84700 46.41700 23.07300
N  36.22400 49.83900 26.85100
C  36.48000 49.05400 27.92100
C  36.31600 49.78800 29.22300
C  35.66800 51.12900 28.73900
C  35.69500 51.03200 27.23400
C  34.27900 51.47600 29.24100
C  37.65900 50.02500 29.99900
C  37.77300 49.76900 31.55500
H  36.52300 49.69500 32.47200
N  35.69500 51.16000 24.08400
C  35.21700 52.09800 24.90600
C  34.63100 53.10700 24.08900
C  34.78100 52.78800 22.68300
C  35.47700 51.50100 22.79700
C  33.88300 54.31700 24.65900
C  34.37000 53.56600 21.37100
O  34.73400 53.14900 20.25400
C  33.54000 54.80200 21.43100
N  36.66300 48.56400 22.63400
C  36.37800 49.40800 21.63300
C  36.83800 48.76900 20.27400
C  37.45900 47.37000 20.71800
C  37.35900 47.41900 22.23100
C  35.68500 48.56400 19.22500
C  38.90300 47.19400 20.27200
C  40.03600 48.12100 20.84300
N  37.31800 47.49100 25.23800
C  37.81000 46.42500 24.50500
C  38.24300 45.35300 25.37300
C  37.91300 45.84800 26.66600
C  37.37400 47.19700 26.53100
C  38.95900 44.05300 25.02300
C  37.84700 45.49400 28.05100
O  38.20900 44.52200 28.67400
C  37.31000 46.76100 28.81800
C  36.07000 46.38600 29.66300
O  35.04400 46.02200 29.20800
O  36.31000 46.38200 31.02900
C  35.24300 45.83100 31.93400
H  34.91500 53.00900 26.86000
H  35.75300 51.22300 20.74400
H  38.33200 45.50000 22.73400
H  35.55900 49.27400 29.81400
H  36.27700 51.95600 29.10300
H  33.92200 51.03600 30.17200
H  33.57600 51.11700 28.48900
H  34.27000 52.56200 29.33300
H  38.02100 51.04200 29.84900
H  38.37000 49.36800 29.49800
H  38.48500 50.46700 31.99700
H  38.23900 48.78400 31.53900
H  34.55900 55.17100 24.60400
H  33.59100 54.08700 25.68400
H  32.86800 54.48200 24.29700
H  32.76400 54.45400 22.11300
H  33.17100 54.92900 20.41300
H  34.00500 55.69200 21.85500
H  37.59400 49.41500 19.82600
H  36.81300 46.56100 20.37500
H  35.76400 49.44700 18.59100
H  34.70300 48.67100 19.68400
H  35.70100 47.63000 18.66200
H  38.95100 47.40300 19.20300
H  39.21200 46.15000 20.33500
H  39.55500 48.81100 21.53700
H  40.62100 48.55500 20.03200
H  40.78600 47.60300 21.44000
H  39.43000 43.92500 24.04800
H  38.29100 43.22500 25.25700
H  39.70700 44.16200 25.80800
H  38.06100 47.10900 29.52700
H  34.85300 44.88800 31.55000
H  34.39500 46.51400 31.97200
H  35.57000 45.64800 32.95700
Mg 6.65200 53.06500 41.60500
C  5.74100 49.77400 41.15700
C  9.73400 52.41000 40.16900
C  7.23700 56.44800 41.27800
C  3.32200 53.78100 42.72400
N  7.60200 51.33000 40.83400
C  7.08600 50.02100 40.78200
C  8.01100 49.06600 40.21000
C  9.40400 49.88400 40.23300
C  8.88700 51.31200 40.47300
C  10.47600 49.44100 41.40400
C  7.67700 48.48200 38.82900
C  7.28400 49.38000 37.67000
H  6.64300 48.81500 36.36000
N  8.32400 54.22600 41.02700
C  9.48500 53.76500 40.41300
C  10.41000 54.89200 40.24700
C  9.71600 56.16100 40.61800
C  8.38700 55.60200 40.99100
C  11.80400 54.70900 39.70400
C  10.27500 57.58100 40.48400
O  11.39300 57.68600 40.07400
C  9.54100 58.78800 40.95000
N  5.44100 54.89900 41.97100
C  5.94700 56.12200 41.76100
C  4.92700 57.24900 42.02300
C  3.59300 56.40400 42.51500
C  4.10000 54.95900 42.47400
C  5.33000 58.28100 43.10500
C  2.34300 56.61400 41.54500
C  1.10600 57.28200 42.06500
N  4.99600 52.02400 41.98500
C  3.73200 52.43700 42.49200
C  2.94700 51.34200 42.61000
C  3.67300 50.21500 42.10800
C  4.90400 50.67700 41.70100
C  1.48500 51.36300 43.10900
C  3.53600 48.81900 41.84800
O  2.62400 48.03100 41.98400
C  4.96500 48.49500 41.21100
C  4.59000 47.82400 39.97500
O  4.14700 48.36400 38.98200
O  4.82200 46.48400 40.06900
C  4.75200 45.62200 38.92000
H  10.66100 52.03400 39.73200
H  7.42300 57.51600 41.14400
H  2.27200 53.79000 43.02600
H  8.06300 48.20900 40.88200
H  9.93400 49.66700 39.30500
H  10.50200 50.15600 42.22600
H  11.47400 49.44600 40.96600
H  10.22600 48.45800 41.80400
H  6.93800 47.69300 38.96800
H  8.63700 48.03400 38.57200
H  8.19600 49.90800 37.39200
H  6.51900 50.03400 38.08700
H  12.47500 55.13100 40.45300
H  11.94500 55.15000 38.71700
H  12.10100 53.66700 39.81800
H  10.26900 59.59800 41.00100
H  9.29900 58.56900 41.99000
H  8.61000 59.01600 40.43100
H  4.71000 57.74500 41.07600
H  3.29000 56.58600 43.54600
H  6.21700 57.89400 43.60700
H  4.57800 58.40600 43.88400
H  5.55700 59.21800 42.59500
H  2.15000 55.63400 41.10800
H  2.72300 57.34200 40.82800
H  0.85200 58.19000 41.51900
H  1.13000 57.60500 43.10500
H  0.35600 56.49200 42.02400
H  1.57400 51.55500 44.17900
H  1.02000 50.39100 42.94300
H  0.89900 52.14300 42.62300
H  5.57400 47.84900 41.84400
H  3.90900 44.94900 39.07800
H  5.67400 45.03900 38.91400
H  4.70900 46.12900 37.95600

