158

Mg 35.99500 49.02500 24.91200
C  36.21200 47.53400 28.07700
C  34.63800 51.85300 26.25000
C  35.47900 50.06900 21.77700
C  36.94100 45.93300 23.49000
N  35.59500 49.57200 26.92700
C  35.77200 48.82300 28.11100
C  35.40200 49.66100 29.30200
C  34.75200 50.97500 28.69800
C  35.01200 50.81500 27.18200
C  33.31200 51.35300 29.01500
C  36.63600 49.87400 30.20200
C  36.39700 49.75700 31.74600
H  35.50800 50.80400 32.42500
N  35.14400 50.71900 24.08600
C  34.68000 51.80300 24.83400
C  34.24100 52.85700 23.91400
C  34.34900 52.27800 22.58000
C  35.03000 50.93600 22.76000
C  33.74700 54.18500 24.35000
C  33.94200 52.82800 21.24800
O  34.09200 52.26400 20.15900
C  33.25600 54.14200 21.25200
N  36.38300 48.20100 22.90000
C  36.05900 48.83500 21.74700
C  36.39300 47.97200 20.49700
C  37.00900 46.71600 21.15700
C  36.79500 46.94200 22.63600
C  35.14500 47.73100 19.58100
C  38.53600 46.54800 20.77200
C  39.58400 47.60400 21.10700
N  36.45200 47.13600 25.57900
C  36.79400 46.00600 24.91300
C  37.01700 44.86800 25.85600
C  36.74100 45.41700 27.06300
C  36.50200 46.77900 26.86600
C  37.56900 43.48600 25.53000
C  36.56100 45.11700 28.41900
O  36.68700 44.07800 29.02300
C  36.28400 46.50300 29.18200
C  34.98900 46.28900 29.74100
O  33.92500 46.24700 29.12100
O  35.09000 45.99200 31.13200
C  33.84100 45.69700 31.84300
H  34.26300 52.74400 26.75800
H  35.33300 50.50900 20.78900
H  37.19000 44.93500 23.12200
H  34.64600 49.16600 29.91200
H  35.39600 51.79900 29.00300
H  33.23900 52.35000 29.44900
H  32.94000 50.63800 29.74800
H  32.72400 51.37200 28.09800
H  37.00700 50.88200 30.01800
H  37.47400 49.22100 29.95800
H  37.30000 49.56000 32.32500
H  35.74000 48.88800 31.77700
H  33.92000 54.32300 25.41700
H  32.72300 54.23900 23.97900
H  34.30300 55.02200 23.92700
H  33.94700 54.89600 21.62800
H  32.34000 54.09600 21.84000
H  32.96700 54.29100 20.21100
H  37.06300 48.61100 19.92300
H  36.30700 45.90600 20.95700
H  34.97000 48.69300 19.09900
H  34.24400 47.58700 20.17700
H  35.27000 46.97100 18.80900
H  38.55000 46.54500 19.68200
H  38.92800 45.60600 21.15600
H  39.09800 48.29400 21.79800
H  39.88700 48.19300 20.24100
H  40.44500 47.24300 21.66900
H  37.98300 43.41800 24.52400
H  36.81500 42.72100 25.71600
H  38.45700 43.30900 26.13700
H  37.00300 46.74300 29.96500
H  32.95500 46.17600 31.42500
H  33.90000 45.93300 32.90600
H  33.69300 44.62200 31.74400
Mg 6.46700 54.48600 40.32400
C  6.66100 50.97200 40.16400
C  9.80200 54.59700 39.55500
C  6.11700 57.81700 39.97600
C  2.94900 54.16300 40.53300
N  7.98700 52.95400 39.95400
C  7.85800 51.59500 39.92500
C  9.24200 50.95500 39.96900
C  10.22200 52.13500 40.14700
C  9.26900 53.30500 39.79700
C  11.00500 52.27200 41.49900
C  9.57900 50.11500 38.72500
C  9.39300 50.88500 37.45300
H  8.03800 50.86600 36.66000
N  7.72800 55.99200 39.86000
C  9.06200 55.79900 39.53900
C  9.62900 57.03700 39.27400
C  8.67800 58.03900 39.50300
C  7.42200 57.34300 39.84900
C  11.10300 57.23900 38.95900
C  8.89500 59.52900 39.29300
O  9.99100 60.03200 39.19400
C  7.70300 60.43000 39.31000
N  4.78200 55.73300 40.05800
C  4.93400 57.09000 40.02100
C  3.53900 57.76400 40.09300
C  2.55600 56.64700 40.39600
C  3.47800 55.40500 40.28200
C  3.40700 58.95500 41.08900
C  1.21800 56.62000 39.62900
C  -0.08200 56.78500 40.41000
N  5.02100 52.93900 40.39000
C  3.67500 52.98300 40.62400
C  3.19300 51.53200 40.81700
C  4.34800 50.73200 40.76200
C  5.37000 51.61300 40.35300
C  1.76300 51.06100 41.06300
C  4.93700 49.36300 41.02000
O  4.33800 48.37400 41.38700
C  6.43200 49.44600 40.48200
C  6.24900 48.71800 39.23500
O  5.72700 49.09500 38.20400
O  6.81500 47.46700 39.44300
C  6.58800 46.56100 38.26500
H  10.87900 54.56600 39.37800
H  5.92800 58.88800 40.08200
H  1.89000 53.97100 40.71500
H  9.20400 50.20800 40.76200
H  10.99300 51.95100 39.39800
H  10.64800 51.52700 42.21100
H  10.87800 53.26600 41.92700
H  12.06600 52.11000 41.30900
H  9.02300 49.17800 38.68600
H  10.61200 49.76900 38.71300
H  10.25100 50.72600 36.79900
H  9.39600 51.95600 37.65500
H  11.64500 56.39100 38.54000
H  11.73600 57.82600 39.62400
H  10.99900 57.86500 38.07200
H  6.79200 60.19100 38.76200
H  8.00500 61.34600 38.80100
H  7.38200 60.76700 40.29500
H  3.40000 58.26200 39.13300
H  2.19400 56.80700 41.41100
H  3.28500 59.85100 40.47900
H  4.32200 59.00900 41.67900
H  2.54800 58.88500 41.75700
H  1.17000 55.71500 39.02300
H  1.27700 57.44700 38.92200
H  -0.77500 55.97300 40.18600
H  -0.75100 57.58300 40.08600
H  0.01700 56.96400 41.48000
H  1.22400 51.77600 41.68500
H  1.75900 50.05000 41.46900
H  1.45700 50.99900 40.01800
H  7.17800 49.03500 41.16100
H  7.00500 47.01000 37.36300
H  5.49900 46.53700 38.31500
H  6.93900 45.53500 38.37600

