158

Mg 49.41800 36.16500 28.41600
C  46.91900 34.57500 30.35600
C  49.18600 38.79100 30.59200
C  51.28200 37.80200 26.29600
C  48.79400 33.69500 25.92800
N  48.34400 36.54200 30.39600
C  47.40300 35.71000 31.00300
C  46.93100 36.41900 32.34200
C  47.70400 37.79800 32.31100
C  48.54000 37.68800 31.05200
C  46.73800 39.03700 32.38500
C  47.02300 35.61700 33.75000
C  48.31000 34.76900 33.90300
H  49.37000 35.42500 34.82300
N  50.16400 38.07300 28.48200
C  49.93500 39.04700 29.41900
C  50.55500 40.29400 29.02800
C  51.15400 40.01600 27.81900
C  50.96400 38.59300 27.49900
C  50.42700 41.62100 29.71500
C  52.03400 40.95400 26.93200
O  52.56900 40.59100 25.85900
C  52.26800 42.37300 27.31600
N  49.99500 35.71200 26.46100
C  50.79200 36.56300 25.78200
C  51.04600 36.06000 24.37000
C  50.20500 34.85000 24.25500
C  49.68800 34.65400 25.65600
C  50.81100 37.05900 23.19800
C  50.91800 33.55800 23.61100
C  50.17300 33.08500 22.43500
N  48.19500 34.46600 28.17200
C  48.07800 33.54400 27.08600
C  47.11100 32.56300 27.41400
C  46.55300 32.90900 28.65200
C  47.29500 34.05900 29.07200
C  46.62100 31.45100 26.55500
C  45.53000 32.60500 29.70500
O  44.68100 31.76500 29.79800
C  45.76900 33.64600 30.85800
C  46.13300 32.90500 31.99900
O  47.20400 32.29200 32.20700
O  45.10200 32.87300 32.88200
C  45.46400 32.32400 34.21100
H  49.31800 39.69100 31.19800
H  51.87900 38.38900 25.59600
H  48.63600 32.90400 25.19100
H  45.86800 36.59000 32.17400
H  48.31300 37.91800 33.20600
H  46.41700 39.28100 31.37200
H  47.14300 39.92700 32.86800
H  45.85600 38.75000 32.95600
H  46.16200 34.95100 33.79900
H  46.96800 36.30600 34.59200
H  48.75000 34.67300 32.91100
H  48.03800 33.85300 34.42700
H  50.25100 42.42200 28.99700
H  51.35000 41.90100 30.22300
H  49.53600 41.58300 30.34200
H  51.35200 42.96200 27.35500
H  52.66700 42.87500 26.43400
H  52.94900 42.39600 28.16600
H  52.10500 35.80500 24.33800
H  49.33200 35.14100 23.67100
H  50.84600 38.07200 23.60100
H  49.91900 36.88600 22.59600
H  51.63700 36.91100 22.50400
H  50.98700 32.78400 24.37600
H  51.94200 33.85800 23.38800
H  50.75700 32.77100 21.56900
H  49.42900 33.77300 22.03500
H  49.60100 32.23100 22.79700
H  45.94400 31.93800 25.85300
H  46.17000 30.65200 27.14400
H  47.48500 31.10500 25.98900
H  44.88600 34.26400 31.01800
H  45.45500 31.23600 34.26900
H  44.77300 32.74400 34.94100
H  46.42900 32.66500 34.58600
Mg 27.02000 49.78200 26.70100
C  24.75500 51.00800 29.28200
C  29.27600 49.28700 29.16600
C  29.08000 49.16900 24.28300
C  24.65900 51.30300 24.39900
N  26.90000 50.07000 28.99100
C  25.89200 50.42200 29.88200
C  26.34000 50.29400 31.31600
C  27.93100 50.09700 31.14100
C  28.05700 49.75400 29.63900
C  28.74600 51.41000 31.60000
C  25.61000 49.06600 32.01400
C  24.88600 49.37200 33.29800
H  25.76200 49.92200 34.47400
N  28.88300 49.25600 26.75100
C  29.67600 49.00700 27.86500
C  30.99300 48.52400 27.41600
C  30.96400 48.55600 25.96200
C  29.58400 49.02000 25.60100
C  32.08300 48.17200 28.35800
C  32.05800 48.17400 24.95300
O  31.89500 48.02400 23.75300
C  33.50500 47.88200 25.39200
N  26.90200 50.19500 24.69500
C  27.88500 49.70600 23.87400
C  27.50100 49.75000 22.35100
C  25.96600 50.20000 22.53500
C  25.82700 50.63300 23.92100
C  28.36200 50.68700 21.48300
C  24.92200 49.14700 21.97000
C  24.57700 47.97800 22.83900
N  25.07900 50.89400 26.77100
C  24.26300 51.43600 25.75800
C  23.15600 52.16000 26.35100
C  23.24200 51.93300 27.73000
C  24.44000 51.21700 27.93300
C  22.15300 52.93200 25.56400
C  22.57300 52.18800 28.95400
O  21.49700 52.64500 29.17000
C  23.58700 51.68500 30.08400
C  23.93600 52.71900 31.07800
O  24.53800 53.75900 30.98100
O  23.46300 52.22600 32.27900
C  23.56000 53.16200 33.39400
H  29.96400 49.07800 29.98800
H  29.86000 49.11400 23.52100
H  24.03700 51.70400 23.59600
H  26.13800 51.17000 31.93300
H  28.32600 49.26900 31.73000
H  29.64300 51.15500 32.16600
H  28.15500 52.06300 32.24200
H  29.05900 51.98600 30.73000
H  26.33900 48.28100 32.21200
H  24.75600 48.74400 31.41900
H  24.23900 48.57000 33.65400
H  24.30200 50.27600 33.12600
H  33.06600 48.58100 28.12200
H  32.21300 47.09000 28.32600
H  31.93300 48.50800 29.38300
H  34.13900 47.46200 24.61200
H  33.55000 47.22600 26.26200
H  33.93300 48.84300 25.67900
H  27.59700 48.72400 21.99800
H  25.88400 51.07300 21.88800
H  27.65700 51.20500 20.83300
H  29.00700 50.18000 20.76500
H  28.96400 51.35700 22.09700
H  25.28000 48.67800 21.05400
H  24.03800 49.70200 21.65800
H  24.52400 48.29000 23.88200
H  25.33900 47.20600 22.73300
H  23.58100 47.60500 22.60100
H  22.45600 53.08200 24.52700
H  21.93700 53.90500 26.00500
H  21.31200 52.25400 25.70800
H  23.05600 50.87700 30.58700
H  24.32700 52.84500 34.10100
H  22.67100 53.19200 34.02400
H  23.74300 54.20500 33.13500

