158

Mg 47.11400 16.02900 28.45200
C  44.88300 15.65900 31.15500
C  48.54400 18.64700 30.12500
C  49.14900 16.41000 25.73100
C  44.96200 13.98900 26.43700
N  46.87900 16.88500 30.51100
C  45.92200 16.54600 31.38900
C  46.20100 17.30200 32.70300
C  47.31900 18.35600 32.37400
C  47.55900 18.00200 30.91200
C  46.72300 19.77600 32.56000
C  46.62300 16.29500 33.78900
C  46.76700 16.95600 35.20500
H  48.11900 16.87800 35.93900
N  48.61000 17.36200 28.03200
C  49.07800 18.32600 28.83900
C  50.17100 18.98200 28.18400
C  50.40100 18.35400 26.96200
C  49.39200 17.27600 26.86800
C  50.85500 20.21100 28.77400
C  51.41300 18.63900 25.85900
O  51.42200 17.95100 24.85500
C  52.46800 19.73200 25.96800
N  47.05000 15.28300 26.37200
C  48.06200 15.52500 25.44900
C  47.87000 14.62600 24.19300
C  46.54300 13.80400 24.53900
C  46.12000 14.41400 25.83900
C  47.79000 15.55500 22.98500
C  46.82400 12.25900 24.64000
C  47.32700 11.52600 23.37500
N  45.32900 15.07100 28.73100
C  44.58100 14.27600 27.85300
C  43.40500 13.80400 28.48900
C  43.48400 14.37800 29.77000
C  44.70100 15.13500 29.85900
C  42.28000 12.90300 27.91700
C  42.80600 14.43100 31.05800
O  41.74500 13.99500 31.37300
C  43.70400 15.21000 31.97600
C  42.88100 16.35200 32.51700
O  42.36900 17.25300 31.88700
O  42.72300 16.22400 33.88900
C  42.00900 17.41900 34.48700
H  48.88300 19.55900 30.62100
H  49.78600 16.33700 24.84700
H  44.25800 13.42800 25.81900
H  45.22000 17.72000 32.93200
H  48.14600 18.19800 33.06600
H  47.00800 20.45400 31.75600
H  47.27800 20.00000 33.47100
H  45.66600 19.89100 32.79800
H  47.55300 15.80200 33.51000
H  45.91600 15.49100 33.99600
H  46.06200 16.47600 35.88300
H  46.50900 18.01400 35.14200
H  50.46000 21.08300 28.25200
H  51.91900 20.43900 28.71200
H  50.59400 20.40900 29.81300
H  52.81000 19.94900 24.95600
H  53.25100 19.33900 26.61700
H  52.02100 20.66000 26.32400
H  48.64400 13.85900 24.17900
H  45.79300 13.83900 23.74800
H  46.82800 15.55000 22.47300
H  48.59100 15.40500 22.26100
H  47.71500 16.58000 23.34800
H  45.95300 11.72100 25.01200
H  47.63800 12.14600 25.35700
H  48.41100 11.46200 23.28000
H  46.90500 12.14800 22.58500
H  46.93500 10.51000 23.32500
H  41.43100 12.77000 28.58800
H  42.76500 11.94700 27.71900
H  41.91500 13.25600 26.95200
H  43.97400 14.54500 32.79600
H  41.56600 17.06300 35.41800
H  41.23500 17.91900 33.90500
H  42.80000 18.14600 34.67400
Mg 47.16000 34.97400 28.30800
C  45.25100 33.04100 30.72200
C  47.39300 37.37100 30.65000
C  48.50800 36.85400 25.86500
C  46.68400 32.32300 26.01100
N  46.32700 35.10600 30.43400
C  45.81600 34.21400 31.26400
C  45.82600 34.68200 32.72500
C  46.19400 36.13300 32.59300
C  46.68700 36.22900 31.12700
C  45.03300 37.09900 32.79500
C  46.86100 33.74700 33.49300
C  46.92800 33.65000 35.05500
H  46.00800 34.59600 35.90700
N  47.93300 36.80100 28.32300
C  47.99300 37.66800 29.38200
C  48.76100 38.83300 29.01000
C  49.15200 38.70200 27.66600
C  48.60000 37.37000 27.22000
C  48.72400 40.02000 29.89400
C  49.76200 39.71400 26.78200
O  50.09000 39.48400 25.62500
C  50.06400 41.12300 27.28200
N  47.67400 34.61600 26.23100
C  48.02400 35.60600 25.37500
C  47.92700 35.20800 23.90900
C  47.69100 33.63700 24.05100
C  47.34600 33.50400 25.52900
C  46.78700 35.91300 23.15000
C  48.95900 32.68300 23.66200
C  50.34400 32.81500 24.45400
N  46.14900 33.13900 28.35400
C  46.01700 32.20800 27.27900
C  45.22700 31.05400 27.64800
C  44.87000 31.39400 28.99700
C  45.48700 32.63800 29.37200
C  44.96400 29.82900 26.82900
C  44.14600 30.90100 30.18100
O  43.61200 29.79300 30.36200
C  44.23900 31.98400 31.28400
C  44.50700 31.53000 32.65600
O  45.43500 30.84800 33.01200
O  43.41500 31.97900 33.42700
C  43.44300 31.57200 34.83900
H  47.61700 38.06800 31.46000
H  48.70400 37.58400 25.07600
H  46.37100 31.56500 25.28900
H  44.80100 34.52300 33.06100
H  47.00400 36.30500 33.30100
H  44.99100 37.86600 32.02300
H  45.19800 37.59900 33.75000
H  44.08900 36.55600 32.83100
H  47.77500 34.17100 33.07800
H  46.84800 32.72900 33.10400
H  47.92200 33.92300 35.40800
H  46.87900 32.59700 35.33400
H  48.16200 40.79900 29.38000
H  49.74400 40.40400 29.87300
H  48.33800 39.86100 30.90100
H  50.30600 41.62800 26.34700
H  50.87100 41.11100 28.01400
H  49.20100 41.56400 27.78200
H  48.88000 35.53200 23.49100
H  46.79600 33.26900 23.55000
H  47.18900 36.34100 22.23200
H  46.44300 36.73300 23.78200
H  45.95900 35.23600 22.94500
H  49.09800 32.96500 22.61800
H  48.56700 31.66600 23.68000
H  50.28700 33.55100 25.25700
H  51.11800 33.09200 23.73900
H  50.61600 31.86400 24.91200
H  45.70800 29.05000 26.99300
H  45.03000 30.11200 25.77900
H  43.98700 29.39400 27.03900
H  43.35000 32.59600 31.43500
H  44.06700 30.72700 35.13000
H  42.41900 31.25100 35.03300
H  43.74400 32.41200 35.46500

