158

Mg 24.75200 -6.47900 46.80200
C  27.42500 -4.39600 45.84400
C  22.77100 -4.79500 44.66000
C  22.45900 -9.00400 46.98200
C  27.09000 -8.57200 48.37700
N  25.07200 -4.88200 45.37800
C  26.24900 -4.13800 45.15800
C  26.05400 -3.02900 44.14500
C  24.46700 -2.89600 44.09800
C  24.07800 -4.29700 44.68800
C  23.75800 -1.84300 44.95500
C  26.75600 -3.35400 42.73900
C  27.68300 -2.28300 42.01700
H  27.18400 -2.10300 40.56200
N  22.79400 -6.78500 46.15300
C  22.16300 -5.91600 45.27200
C  20.81900 -6.42700 45.03600
C  20.75000 -7.67400 45.68600
C  21.98500 -7.83700 46.33500
C  19.88300 -5.70500 44.24900
C  19.44700 -8.54800 45.65400
O  18.46300 -8.18700 45.06900
C  19.32700 -9.99700 46.37400
N  24.74800 -8.52600 47.71500
C  23.67100 -9.29800 47.65000
C  23.99400 -10.66100 48.15800
C  25.42200 -10.44400 48.83700
C  25.80300 -9.14400 48.22700
C  23.00300 -11.42200 49.06100
C  26.42200 -11.55100 48.35600
C  27.43500 -12.10300 49.38500
N  26.84100 -6.38300 47.21600
C  27.63300 -7.27800 47.87700
C  29.02900 -6.80300 47.92100
C  28.96300 -5.63300 47.19900
C  27.68900 -5.41100 46.75400
C  30.19100 -7.54100 48.52800
C  29.77700 -4.49700 46.79400
O  30.91900 -4.19400 47.01200
C  28.83800 -3.72100 45.77100
C  28.77600 -2.26100 46.06900
O  28.34400 -1.81900 47.11100
O  29.46100 -1.64200 45.06200
C  29.48400 -0.15900 45.26500
H  22.21500 -4.18900 43.94200
H  21.71800 -9.80500 46.94800
H  27.73400 -9.27500 48.91000
H  26.48900 -2.11800 44.55600
H  24.19400 -2.88000 43.04300
H  24.52100 -1.19900 45.39100
H  23.16700 -2.32500 45.73400
H  23.16000 -1.13800 44.37800
H  26.12100 -3.91700 42.05500
H  27.54000 -4.07100 42.98200
H  28.71600 -2.61900 41.93900
H  27.57100 -1.29600 42.46700
H  19.34500 -6.28400 43.49900
H  20.40300 -4.95600 43.65200
H  19.06800 -5.25000 44.81100
H  18.27800 -10.28500 46.29600
H  19.57300 -9.84900 47.42500
H  19.90900 -10.72000 45.80300
H  24.08800 -11.11900 47.17300
H  25.51100 -10.39300 49.92200
H  22.08700 -10.83400 49.11600
H  23.32300 -11.69400 50.06700
H  22.78200 -12.36100 48.55300
H  27.08500 -11.15800 47.58600
H  25.91600 -12.37200 47.84700
H  27.64400 -13.17300 49.37800
H  27.12100 -11.75900 50.37000
H  28.40600 -11.67300 49.14100
H  30.43500 -7.02700 49.45800
H  31.02800 -7.63600 47.83600
H  29.90300 -8.49800 48.96300
H  29.21000 -3.82100 44.75100
H  30.22700 0.19200 44.54800
H  29.82100 0.15200 46.25400
H  28.47000 0.15200 45.01700
Mg 47.48300 16.80300 28.31300
C  45.25600 16.35700 31.06500
C  49.53600 18.52200 30.22700
C  49.25500 17.49500 25.54100
C  45.34200 14.85800 26.42200
N  47.27200 17.46300 30.39700
C  46.38100 17.08400 31.36500
C  46.91500 17.50800 32.77400
C  48.23400 18.27100 32.41100
C  48.41400 18.12200 30.94600
C  48.15000 19.81300 32.80500
C  47.03900 16.34100 33.85000
C  46.57300 16.53000 35.30500
H  46.23600 17.86900 35.86200
N  49.29300 17.77700 27.93900
C  49.97200 18.43700 28.86800
C  51.09700 19.06000 28.28600
C  51.09100 18.75100 26.87600
C  49.85300 17.99400 26.68900
C  52.09700 19.79900 29.14900
C  52.02600 19.07500 25.85900
O  51.93900 18.68000 24.71400
C  53.25400 19.89000 26.27500
N  47.27800 16.25200 26.28200
C  48.16000 16.60900 25.34900
C  47.68600 16.20900 23.99400
C  46.47800 15.28200 24.22500
C  46.39500 15.36000 25.74100
C  47.29000 17.42800 23.13100
C  46.66400 13.78000 23.70000
C  45.43700 12.99900 23.18700
N  45.67100 15.91900 28.55600
C  44.87400 15.21000 27.70100
C  43.60900 14.76100 28.30400
C  43.76200 15.25700 29.57600
C  44.95000 15.91300 29.70700
C  42.48000 13.92700 27.69900
C  43.07900 15.16800 30.84400
O  42.06900 14.58000 31.18100
C  44.09200 15.84700 31.89500
C  43.22700 16.80600 32.60700
O  42.78800 17.87100 32.19600
O  42.92300 16.32600 33.87200
C  42.04100 17.14100 34.76300
H  50.25100 18.96800 30.92200
H  49.70100 17.76500 24.58200
H  44.50600 14.31300 25.97700
H  46.17500 18.18200 33.20600
H  49.01000 17.71100 32.93300
H  48.65900 20.39800 32.03900
H  48.91400 19.94900 33.57000
H  47.17200 20.19400 33.09800
H  48.07800 16.05600 33.68400
H  46.41900 15.51700 33.49500
H  47.18400 16.07400 36.08400
H  45.68300 15.90200 35.30600
H  52.29000 19.26500 30.07900
H  51.78800 20.81800 29.38600
H  53.10400 19.66500 28.75400
H  53.57300 20.38300 25.35700
H  54.04400 19.29100 26.72700
H  52.90100 20.75400 26.83900
H  48.46500 15.63600 23.49200
H  45.54000 15.70800 23.86800
H  47.04100 18.29100 23.74700
H  46.43900 17.17800 22.49700
H  48.09700 17.54900 22.40800
H  47.04400 13.07900 24.44300
H  47.36000 13.78200 22.86100
H  45.66600 12.72300 22.15800
H  44.54100 13.61900 23.20700
H  45.24200 12.08600 23.75000
H  42.82400 13.40800 26.80500
H  41.61000 14.49600 27.37300
H  42.04700 13.26600 28.45000
H  44.54900 15.22600 32.66600
H  41.08400 16.69400 35.03300
H  41.88600 18.14000 34.35600
H  42.58300 17.24400 35.70200

