158

Mg 23.37200 -6.00200 46.88500
C  25.65000 -3.86800 45.29800
C  20.91900 -4.66400 44.87400
C  21.59800 -8.75500 47.28200
C  26.11900 -7.45900 48.50100
N  23.36100 -4.68500 45.05800
C  24.38700 -3.82500 44.72600
C  23.94900 -2.81900 43.69500
C  22.35400 -2.80400 43.88600
C  22.19000 -4.13200 44.62800
C  21.74900 -1.58500 44.60100
C  24.39200 -3.22600 42.24800
C  24.83300 -2.09800 41.41400
H  24.94000 -2.31000 39.93400
N  21.48200 -6.61800 46.28700
C  20.60800 -5.87200 45.47900
C  19.39400 -6.56900 45.31200
C  19.63200 -7.88400 45.88000
C  20.94200 -7.81800 46.49800
C  18.22400 -6.13900 44.49300
C  18.61700 -8.98000 45.83400
O  17.56600 -8.79000 45.25500
C  18.81800 -10.27800 46.50300
N  23.83500 -7.81700 47.75900
C  22.88200 -8.73900 47.88100
C  23.36900 -10.02200 48.66300
C  24.79400 -9.56700 49.10500
C  24.90900 -8.22000 48.42600
C  22.41200 -10.66700 49.75100
C  26.00900 -10.48600 48.96100
C  26.94400 -10.60000 50.13400
N  25.47700 -5.66000 47.04600
C  26.45600 -6.29800 47.82400
C  27.71500 -5.65200 47.70000
C  27.46100 -4.65100 46.74600
C  26.09600 -4.79000 46.31100
C  28.90700 -6.01500 48.40000
C  27.99700 -3.53200 45.97300
O  29.13000 -3.06900 45.92000
C  26.87700 -3.08900 45.01500
C  26.86800 -1.61900 45.15500
O  27.07000 -0.82100 44.27200
O  26.75400 -1.28700 46.51000
C  27.26300 -0.00200 46.88400
H  20.04300 -4.20800 44.40800
H  21.03400 -9.69000 47.30500
H  26.96300 -7.84200 49.07800
H  24.38000 -1.82300 43.80300
H  21.97200 -2.77600 42.86500
H  22.54300 -0.92800 44.95500
H  21.20900 -1.89100 45.49700
H  21.11700 -1.05500 43.88900
H  23.53000 -3.67200 41.75200
H  25.15900 -3.99200 42.36500
H  25.81100 -1.73000 41.72400
H  24.21300 -1.21900 41.59000
H  18.46000 -5.31000 43.82700
H  17.40600 -5.91800 45.17900
H  17.79400 -6.84700 43.78500
H  18.66000 -10.24400 47.58100
H  19.73900 -10.68200 46.08200
H  18.06200 -10.98100 46.15200
H  23.43300 -10.76200 47.86500
H  24.68200 -9.28900 50.15300
H  22.51400 -11.73800 49.57700
H  21.38800 -10.29800 49.69600
H  22.78500 -10.47800 50.75800
H  26.58000 -10.22200 48.07100
H  25.55300 -11.46500 48.80900
H  26.84900 -9.74600 50.80400
H  27.97200 -10.58900 49.77200
H  26.77700 -11.53900 50.66300
H  29.65200 -5.22300 48.31500
H  29.36700 -6.86700 47.90000
H  28.65100 -6.25400 49.43200
H  27.17700 -3.25600 43.98100
H  26.50300 0.77800 46.89800
H  28.11500 0.35500 46.30500
H  27.71800 0.08000 47.87100
Mg 26.31400 -0.01300 29.46700
C  27.86800 0.10200 32.53600
C  23.18800 0.21500 31.33300
C  24.42800 -0.29200 26.64600
C  29.15400 -0.91100 27.84200
N  25.53300 0.13600 31.68200
C  26.44800 0.29600 32.73900
C  25.74900 0.55500 34.12500
C  24.28400 0.50000 33.68500
C  24.32500 0.24600 32.17000
C  23.43100 -0.54900 34.37500
C  26.07800 1.85500 34.99800
C  26.61000 1.51500 36.39500
H  26.43100 2.45500 37.54000
N  24.12600 0.04900 29.03800
C  23.10200 0.11500 29.90700
C  21.85500 0.17700 29.18200
C  22.18900 0.00400 27.80900
C  23.64100 -0.00700 27.75100
C  20.53900 0.54900 29.84800
C  21.22000 -0.02100 26.63600
O  21.62000 -0.11600 25.47300
C  19.72700 0.15700 26.80000
N  26.66800 -0.70800 27.58300
C  25.76600 -0.65400 26.55700
C  26.42200 -0.91700 25.17800
C  27.96200 -1.07600 25.54400
C  27.90900 -0.93800 27.10200
C  25.78200 -2.07500 24.37000
C  28.82100 0.07700 24.92900
C  28.85000 1.46600 25.55000
N  28.13900 -0.45100 30.01700
C  29.25100 -0.73000 29.24400
C  30.39200 -0.76000 30.06800
C  29.98500 -0.39800 31.35300
C  28.51100 -0.27300 31.34100
C  31.85500 -1.00100 29.69200
C  30.36700 -0.08500 32.70500
O  31.48600 0.13600 33.21200
C  29.08100 0.17100 33.54000
C  29.00300 -0.87200 34.64900
O  28.64900 -2.01600 34.47600
O  29.45900 -0.31600 35.78500
C  29.26400 -1.19700 36.89400
H  22.28800 0.30800 31.94300
H  23.89400 -0.34900 25.69500
H  30.03400 -1.11400 27.22700
H  26.10200 -0.39100 34.53600
H  23.84100 1.49500 33.72200
H  22.59900 -0.00200 34.81800
H  23.97900 -1.04100 35.17800
H  23.14800 -1.38900 33.74100
H  25.26100 2.56800 35.11300
H  26.75600 2.51300 34.45400
H  27.68600 1.35900 36.31900
H  26.10300 0.59500 36.68700
H  20.08200 1.35800 29.27800
H  20.73500 0.96600 30.83600
H  19.88900 -0.31300 30.00300
H  19.23200 -0.00200 25.84200
H  19.54000 1.16500 27.17100
H  19.32300 -0.56200 27.51300
H  26.20900 -0.02100 24.59500
H  28.35000 -2.06400 25.29500
H  24.74700 -2.25500 24.66100
H  26.33300 -3.01500 24.40600
H  25.68700 -1.67400 23.36100
H  28.48300 0.25900 23.90800
H  29.82000 -0.35400 24.86400
H  28.34500 1.56600 26.51000
H  28.41100 2.16400 24.83700
H  29.86900 1.72500 25.83800
H  32.15600 -1.98700 30.04600
H  32.48200 -0.33000 30.27900
H  31.95800 -0.78000 28.63000
H  29.08500 1.16300 33.99100
H  29.77200 -2.12500 36.63300
H  28.19000 -1.28600 37.05800
H  29.69100 -0.66700 37.74600

