158

Mg 46.55800 25.26900 27.51100
C  47.49600 27.52300 29.90700
C  46.18400 22.87200 29.99000
C  45.94100 22.90200 25.20200
C  47.36000 27.53900 25.10900
N  47.01300 25.14200 29.65600
C  47.09900 26.27100 30.51000
C  47.03900 25.99600 31.99300
C  46.62200 24.42800 31.97500
C  46.70200 24.06900 30.45400
C  47.47100 23.45300 32.80200
C  46.07600 26.96900 32.82400
C  45.59300 26.50800 34.19500
H  45.91800 27.46400 35.44200
N  45.94400 23.19400 27.58800
C  45.84500 22.41700 28.68200
C  45.52900 21.02100 28.32400
C  45.40400 21.03500 26.96700
C  45.74500 22.43000 26.51100
C  45.40300 19.83700 29.34600
C  45.06800 19.91200 26.06400
O  44.81100 19.98100 24.86200
C  44.97000 18.57800 26.61300
N  46.61300 25.22500 25.42700
C  46.36800 24.12600 24.71700
C  46.39900 24.39800 23.15800
C  46.57600 25.94800 23.21800
C  46.89500 26.28200 24.71400
C  47.53700 23.68900 22.42000
C  45.35600 26.81100 22.74900
C  45.75100 28.04000 21.84900
N  47.32400 27.14000 27.42200
C  47.65200 27.95200 26.38400
C  48.19500 29.15100 26.81400
C  48.16000 29.10300 28.22500
C  47.62800 27.88300 28.53800
C  48.69000 30.15600 25.86500
C  48.42500 29.79700 29.47900
O  48.91100 30.95000 29.64900
C  47.88000 28.88500 30.56100
C  48.89700 28.61200 31.67300
O  49.79300 27.71600 31.71700
O  48.55000 29.49800 32.66700
C  49.23700 29.45400 33.96100
H  46.07300 22.11400 30.76800
H  45.73400 22.15700 24.43100
H  47.70000 28.18500 24.29700
H  47.98000 26.02100 32.54300
H  45.58000 24.24800 32.24000
H  48.03800 22.80100 32.13700
H  46.96200 22.69600 33.39800
H  48.08600 23.95500 33.54900
H  45.19300 27.17800 32.21900
H  46.62500 27.88600 33.03700
H  45.95800 25.51200 34.44200
H  44.50800 26.39800 34.19300
H  44.36300 19.52300 29.26900
H  45.61800 20.24900 30.33200
H  46.14900 19.05700 29.19400
H  44.20400 18.57100 27.38900
H  45.96400 18.52700 27.05800
H  44.65500 17.81800 25.89900
H  45.42200 24.18900 22.72100
H  47.52300 26.26200 22.78000
H  48.36300 24.28700 22.80800
H  47.45600 23.68800 21.33300
H  47.58900 22.65500 22.76100
H  44.90300 27.32300 23.59800
H  44.52600 26.23900 22.33500
H  46.77700 28.00000 21.48300
H  45.64400 28.94300 22.45100
H  45.16000 28.17200 20.94300
H  49.61400 29.72600 25.47900
H  48.86500 31.11200 26.35900
H  48.02100 30.32600 25.02200
H  46.93300 29.25600 30.95300
H  48.64400 28.71100 34.49300
H  49.22700 30.44700 34.41100
H  50.26200 29.08800 34.02700
Mg 34.53000 49.17200 26.47800
C  34.92600 46.80300 28.95900
C  33.66800 51.46600 28.71700
C  33.54500 51.09900 23.90100
C  35.30600 46.63700 24.10800
N  34.44200 49.12000 28.58600
C  34.59700 48.03500 29.45200
C  34.68200 48.48100 30.89400
C  34.15300 50.02600 30.83000
C  34.13700 50.28700 29.28000
C  32.86200 50.46500 31.63400
C  36.05900 48.37200 31.52100
C  36.15800 48.05100 32.95600
H  36.28200 49.21800 33.93100
N  33.84500 51.10700 26.31400
C  33.54100 51.86700 27.36000
C  33.35800 53.25800 26.84400
C  33.39500 53.17500 25.39600
C  33.53800 51.74800 25.17800
C  33.31400 54.47900 27.70400
C  33.21900 54.29400 24.38500
O  33.28700 54.12000 23.18300
C  32.70900 55.53300 24.89300
N  34.38800 48.94600 24.40000
C  33.97500 49.88400 23.54900
C  34.12700 49.48200 22.05600
C  34.97200 48.20500 22.20000
C  34.86800 47.90000 23.66800
C  32.75900 49.23400 21.23600
C  36.41200 48.38100 21.72400
C  37.21800 47.10200 21.36800
N  35.01900 47.12000 26.45500
C  35.21700 46.18700 25.45700
C  35.45900 44.86200 26.03200
C  35.45500 45.07000 27.44400
C  35.07700 46.40200 27.57200
C  35.97200 43.63700 25.24700
C  35.68500 44.47800 28.75400
O  35.89300 43.33000 29.07900
C  35.36000 45.58300 29.76800
C  34.27300 45.10500 30.61400
O  33.13300 44.83100 30.21700
O  34.73000 44.89900 31.85700
C  33.67800 44.72800 32.87600
H  33.49700 52.21000 29.49700
H  33.36300 51.77300 23.06200
H  35.48200 45.89100 23.33000
H  33.97300 47.87800 31.46100
H  34.87000 50.74400 31.22900
H  32.03300 50.57800 30.93500
H  33.08400 51.38700 32.17100
H  32.46300 49.76800 32.37000
H  36.44300 49.39200 31.50600
H  36.70100 47.77000 30.87900
H  37.08000 47.48300 33.08100
H  35.25700 47.47800 33.17800
H  34.14600 55.12100 27.41500
H  33.70400 54.22800 28.69000
H  32.35300 54.99200 27.66200
H  32.36700 56.05300 23.99800
H  33.62100 56.05000 25.19100
H  31.89300 55.44100 25.60900
H  34.64100 50.31100 21.56900
H  34.51900 47.45600 21.55000
H  32.97000 49.88700 20.38800
H  31.99000 49.67100 21.87400
H  32.57500 48.22800 20.86000
H  36.92800 48.85000 22.56200
H  36.42500 49.02600 20.84500
H  37.57000 47.26100 20.34900
H  36.60100 46.21000 21.48000
H  38.14600 46.93900 21.91700
H  36.87900 44.04100 24.79700
H  35.30300 43.27900 24.46500
H  36.34500 42.83900 25.88800
H  36.25200 45.75800 30.36800
H  33.98500 45.54200 33.53200
H  33.84800 43.77800 33.38400
H  32.66000 44.92600 32.54200

