158

Mg 41.27600 9.75200 29.14100
C  43.38100 10.47800 31.83900
C  39.06700 8.40300 31.22800
C  39.71100 8.40200 26.42200
C  44.03700 10.45700 26.95200
N  41.26600 9.47700 31.30900
C  42.10800 9.96100 32.26000
C  41.52700 9.84700 33.68000
C  40.20200 9.14700 33.41100
C  40.12800 9.05900 31.86900
C  40.09200 7.71800 34.07400
C  41.33400 11.19700 34.42700
C  40.89700 11.18200 35.92100
H  41.99900 11.44100 36.93800
N  39.65700 8.52200 28.83600
C  38.78500 8.11300 29.84200
C  37.65800 7.38000 29.30200
C  37.77500 7.64000 27.87000
C  39.13900 8.17500 27.66100
C  36.57100 6.72900 30.14500
C  36.77100 7.40800 26.76500
O  36.97200 7.65900 25.57200
C  35.43400 6.87500 27.05900
N  41.88000 9.37200 26.95900
C  40.95600 8.94600 26.04400
C  41.42000 9.17400 24.58000
C  42.72600 9.88700 24.82800
C  42.92300 9.93400 26.33400
C  41.57200 7.81900 23.79400
C  42.57600 11.28600 24.21600
C  42.09000 12.47500 25.14600
N  43.27700 10.36200 29.30400
C  44.23100 10.66900 28.34700
C  45.42500 11.12800 28.95900
C  45.13500 11.10200 30.33300
C  43.82300 10.65800 30.50400
C  46.69400 11.38200 28.23700
C  45.70700 11.30200 31.63500
O  46.84600 11.63300 32.02900
C  44.55100 10.89700 32.69700
C  44.92800 9.93100 33.69600
O  44.99100 8.74300 33.46600
O  45.24600 10.54300 34.85200
C  45.66400 9.63700 35.92700
H  38.41600 7.91200 31.95400
H  39.27800 7.84900 25.58600
H  44.75200 10.87400 26.23900
H  42.16400 9.16800 34.24800
H  39.31900 9.77100 33.54100
H  40.97500 7.41800 34.63800
H  39.92300 6.88800 33.38700
H  39.18300 7.94800 34.63000
H  40.68100 11.92500 33.94400
H  42.32700 11.63700 34.34100
H  40.43200 10.24400 36.22400
H  40.08500 11.90000 36.03600
H  36.79200 6.83500 31.20700
H  36.36700 5.68000 29.92600
H  35.64700 7.28700 29.99400
H  34.85100 6.88200 26.13800
H  34.93400 7.62100 27.67600
H  35.50800 5.89400 27.52800
H  40.71600 9.68500 23.92400
H  43.55400 9.43000 24.28600
H  41.44300 6.96500 24.46000
H  42.55300 7.67000 23.34200
H  40.78500 7.92500 23.04900
H  42.03600 11.40000 23.27600
H  43.59600 11.55100 23.93700
H  42.96700 13.06100 25.41900
H  41.56600 12.12700 26.03700
H  41.41300 13.08300 24.54500
H  47.52400 11.23400 28.92700
H  46.91100 12.36000 27.80700
H  46.75900 10.73000 27.36600
H  44.34200 11.81400 33.24900
H  44.73600 9.31300 36.39900
H  46.32300 10.16500 36.61600
H  46.29800 8.82900 35.56400
Mg -5.82600 25.00700 26.15100
C  -4.41200 26.22300 29.09300
C  -7.98900 23.14900 28.26000
C  -7.19400 23.78800 23.39700
C  -3.68200 27.04500 24.36100
N  -6.22500 24.75700 28.56200
C  -5.49600 25.35000 29.53100
C  -6.07700 24.94600 30.92100
C  -6.91400 23.71300 30.50800
C  -7.07300 23.85500 29.02200
C  -6.35400 22.34500 30.89700
C  -6.90200 26.09500 31.63500
C  -6.58600 26.38300 33.08000
H  -5.83500 25.32800 34.05000
N  -7.29400 23.64700 25.86200
C  -8.11900 22.97900 26.85200
C  -9.13800 22.17500 26.21100
C  -8.86600 22.31600 24.77300
C  -7.75100 23.30200 24.64700
C  -10.21000 21.47700 26.97200
C  -9.52700 21.67100 23.58700
O  -9.23300 21.90500 22.42500
C  -10.56400 20.64300 23.90400
N  -5.46500 25.37000 24.14400
C  -6.15000 24.73400 23.15900
C  -5.62100 25.10600 21.78100
C  -4.65800 26.30800 22.09700
C  -4.56300 26.27600 23.60300
C  -4.85600 24.01600 20.91100
C  -5.06600 27.73800 21.66900
C  -4.14800 28.35500 20.55800
N  -4.26100 26.30100 26.58700
C  -3.53500 27.16500 25.76500
C  -2.61600 28.00600 26.59900
C  -3.00400 27.71000 27.91500
C  -4.00100 26.67600 27.84100
C  -1.57000 29.00900 25.95700
C  -2.70000 27.98600 29.31000
O  -1.77900 28.68700 29.78100
C  -3.53100 27.02200 30.12300
C  -2.69900 26.30900 31.08300
O  -2.07700 25.31000 30.78700
O  -2.68700 26.86300 32.35800
C  -1.79000 26.09000 33.19800
H  -8.65300 22.46200 28.79000
H  -7.64200 23.48200 22.45000
H  -3.00100 27.62200 23.73100
H  -5.20400 24.69100 31.52200
H  -7.88600 23.68200 31.00100
H  -7.03800 21.99500 31.67000
H  -5.34400 22.43000 31.29700
H  -6.40400 21.51800 30.18800
H  -7.98000 25.93400 31.60700
H  -6.74100 26.89700 30.91400
H  -7.55700 26.59100 33.52900
H  -6.01100 27.30900 33.10700
H  -9.83500 20.49700 27.26700
H  -11.12000 21.52600 26.37400
H  -10.50900 22.02500 27.86500
H  -10.79800 20.13700 22.96800
H  -11.45600 21.21700 24.15300
H  -10.42500 19.96900 24.74900
H  -6.51100 25.40700 21.22800
H  -3.68500 26.07500 21.66500
H  -5.65800 23.33200 20.63500
H  -4.29200 23.35100 21.56500
H  -4.46300 24.44600 19.98900
H  -5.23900 28.38900 22.52500
H  -5.93900 27.61600 21.02700
H  -4.63600 28.71800 19.65300
H  -3.43600 27.64300 20.13900
H  -3.58400 29.18700 20.97900
H  -1.04400 29.59700 26.70800
H  -2.06700 29.75000 25.33100
H  -0.76900 28.45500 25.46700
H  -4.25100 27.59300 30.70900
H  -0.74200 26.15000 32.90300
H  -2.13800 25.05800 33.16000
H  -1.93600 26.48200 34.20500

