158

Mg 36.18900 48.83200 25.06600
C  36.22800 47.56200 28.20500
C  34.68300 51.72700 26.29200
C  35.83300 49.91400 21.89900
C  37.43800 45.74700 23.92500
N  35.68800 49.61700 27.06200
C  35.79300 48.87600 28.26800
C  35.42000 49.73200 29.46600
C  34.99700 51.04200 28.82100
C  35.14300 50.85200 27.30900
C  33.58700 51.64800 29.18200
C  36.64300 49.77900 30.45900
C  36.33300 49.62700 31.93900
H  34.89400 49.84700 32.43500
N  35.41300 50.61000 24.20000
C  34.75200 51.67000 24.87400
C  34.22800 52.59400 23.87000
C  34.49000 52.01600 22.56600
C  35.29500 50.77600 22.87300
C  33.61000 53.81000 24.27100
C  34.03900 52.48000 21.24700
O  34.22700 51.82500 20.26700
C  33.29300 53.74800 21.15000
N  36.52800 47.99800 23.11400
C  36.42200 48.66200 21.95700
C  37.00100 47.83000 20.69500
C  37.65500 46.70100 21.52300
C  37.07300 46.75800 22.95500
C  35.98500 47.34800 19.60400
C  39.19600 46.69100 21.40900
C  39.70600 45.67900 20.42800
N  36.63100 46.97800 25.84800
C  37.18200 45.84000 25.31600
C  37.36700 44.81300 26.34500
C  36.95800 45.43900 27.44600
C  36.61300 46.76700 27.10800
C  37.85300 43.40500 26.13700
C  36.89400 45.21100 28.81200
O  37.27000 44.21900 29.44100
C  36.39800 46.58600 29.39600
C  35.12400 46.36100 30.14500
O  34.04000 46.44000 29.70700
O  35.44500 45.95900 31.36900
C  34.38200 45.82200 32.43100
H  34.09500 52.55300 26.69500
H  35.92700 50.22400 20.85600
H  37.87500 44.78800 23.64000
H  34.60000 49.25700 30.00400
H  35.61900 51.85200 29.20000
H  33.58600 52.71800 29.39300
H  33.18200 51.12400 30.04800
H  33.05100 51.28900 28.30300
H  37.20700 50.66600 30.17200
H  37.35200 48.98700 30.21500
H  37.03900 50.23600 32.50400
H  36.66100 48.63900 32.26200
H  33.86900 54.63200 23.60500
H  33.99800 54.15500 25.22900
H  32.53400 53.69000 24.39500
H  33.92300 54.63400 21.23500
H  32.46500 53.67500 21.85400
H  32.75400 53.85900 20.20900
H  37.70900 48.40500 20.09700
H  37.27600 45.73700 21.18500
H  36.25900 46.35100 19.25900
H  36.01300 48.05800 18.77700
H  35.01700 47.38800 20.10300
H  39.56500 46.47000 22.41000
H  39.55000 47.64100 21.00700
H  38.90600 45.17000 19.89100
H  40.26100 44.90500 20.96000
H  40.29400 46.17900 19.65900
H  38.94200 43.42000 26.10700
H  37.48500 42.91800 25.23400
H  37.57600 42.81600 27.01200
H  37.16800 46.84900 30.12000
H  33.39100 46.21400 32.20300
H  34.77200 46.35400 33.29800
H  34.32900 44.76500 32.69100
Mg -12.41400 16.80100 41.06600
C  -9.39600 15.23000 40.49500
C  -10.97400 19.78500 40.36400
C  -15.54900 18.19900 40.61100
C  -13.91800 13.66100 41.18400
N  -10.43900 17.38500 40.42900
C  -9.31800 16.64900 40.31900
C  -8.07500 17.46400 39.94800
C  -8.59500 18.91200 40.01800
C  -10.07700 18.67100 40.35700
C  -7.89100 19.78200 41.10600
C  -7.42300 16.98400 38.57900
C  -5.93000 17.32900 38.43500
H  -5.39100 17.59700 37.04600
N  -13.12100 18.70500 40.74100
C  -12.33500 19.80500 40.45200
C  -13.22000 20.97000 40.44000
C  -14.51600 20.52800 40.39900
C  -14.45500 19.06400 40.64500
C  -12.75300 22.40300 40.22200
C  -15.76300 21.48100 40.29500
O  -15.77600 22.63300 39.98600
C  -17.04800 20.97300 40.69000
N  -14.41300 16.01200 40.87800
C  -15.54800 16.81300 40.68100
C  -16.83300 15.94800 40.55400
C  -16.33700 14.54200 40.85400
C  -14.78600 14.67300 40.98700
C  -18.01700 16.39500 41.43400
C  -16.81300 13.38000 39.87700
C  -18.06400 12.51300 40.24900
N  -11.80300 14.86500 41.03800
C  -12.49200 13.67000 41.06300
C  -11.57800 12.49700 41.16700
C  -10.36900 13.14700 40.90600
C  -10.56100 14.54800 40.72500
C  -11.89500 11.07600 41.44300
C  -8.93200 12.83700 40.91100
O  -8.33300 11.82100 41.21900
C  -8.29400 14.19700 40.47500
C  -7.12000 14.40300 41.42600
O  -7.23700 14.94000 42.50800
O  -6.00000 13.99400 40.83600
C  -4.87000 14.06300 41.68200
H  -10.41100 20.70500 40.19200
H  -16.47400 18.68300 40.29000
H  -14.25000 12.63400 41.35500
H  -7.33100 17.25400 40.71600
H  -8.73200 19.31700 39.01600
H  -6.97300 19.32000 41.46900
H  -8.54600 19.85700 41.97400
H  -7.73100 20.77400 40.68300
H  -7.85900 17.42500 37.68200
H  -7.63500 15.91600 38.54100
H  -5.14100 16.66200 38.78200
H  -5.81600 18.26500 38.98200
H  -12.88100 22.59300 39.15700
H  -11.72500 22.58000 40.53800
H  -13.41600 22.99200 40.85700
H  -17.49000 20.25700 39.99800
H  -17.67500 21.85700 40.81000
H  -16.85900 20.52900 41.66800
H  -17.18700 16.00500 39.52400
H  -16.48400 14.43300 41.92800
H  -18.05700 15.90400 42.40700
H  -18.98000 16.22800 40.95100
H  -18.03100 17.48000 41.52800
H  -15.93400 12.73900 39.81000
H  -17.03300 13.82000 38.90400
H  -18.27700 12.63500 41.31100
H  -17.84700 11.53100 39.82900
H  -18.88600 12.83200 39.60900
H  -10.99400 10.59600 41.82300
H  -11.95500 10.69800 40.42300
H  -12.90500 10.88800 41.80800
H  -7.88500 14.01500 39.48100
H  -4.75800 15.03800 42.15800
H  -3.98300 13.88600 41.07400
H  -4.65500 13.24300 42.36700

