158

Mg 43.09900 3.70700 47.76100
C  41.50900 6.73700 47.04700
C  40.18000 2.08400 47.03200
C  44.81900 0.79000 47.72200
C  46.24100 5.40100 47.47700
N  41.03000 4.37800 47.16000
C  40.59000 5.74300 47.07100
C  39.08900 5.67400 46.53800
C  38.71600 4.25000 46.79500
C  40.02800 3.49000 47.02500
C  37.66100 4.18400 47.99500
C  39.01400 6.17100 45.04100
C  37.53200 6.45900 44.62700
H  37.24700 6.11200 43.15000
N  42.58300 1.72700 47.51000
C  41.30300 1.26200 47.23300
C  41.39800 -0.18300 47.07700
C  42.70200 -0.55100 47.45100
C  43.45400 0.72200 47.52800
C  40.11500 -0.93700 46.78100
C  43.15100 -1.98000 47.66200
O  42.35100 -2.89800 47.40900
C  44.53600 -2.41400 48.05200
N  45.26400 3.25100 47.35700
C  45.63700 1.94400 47.65400
C  47.16800 1.77200 47.71400
C  47.63000 3.25100 47.82300
C  46.34200 4.01500 47.52200
C  47.59300 0.93300 48.94500
C  48.70200 3.58700 46.70000
C  49.68500 4.64400 47.08800
N  43.76500 5.69000 47.44100
C  45.06400 6.15000 47.34200
C  44.90600 7.59700 47.33100
C  43.55500 7.89600 47.20600
C  42.90500 6.69400 47.23100
C  46.06300 8.53500 47.43000
C  42.64000 8.97500 47.12200
O  42.87200 10.17700 47.04200
C  41.22800 8.24800 46.94100
C  40.32000 8.77600 47.97200
O  40.13800 8.35900 49.06400
O  39.63200 9.89700 47.39800
C  38.66400 10.47900 48.24300
H  39.21700 1.60700 46.83900
H  45.40100 -0.13100 47.78700
H  47.10800 6.02600 47.70000
H  38.47900 6.34400 47.14500
H  38.32500 3.74200 45.91400
H  36.62200 4.12100 47.67200
H  37.72800 5.07700 48.61700
H  37.85900 3.34300 48.66100
H  39.44800 5.47200 44.32700
H  39.55800 7.11500 45.00400
H  37.42700 7.53600 44.76000
H  36.87000 5.91400 45.30000
H  40.07500 -1.07900 45.70100
H  39.19400 -0.44100 47.09000
H  40.16800 -1.90100 47.28600
H  45.09600 -2.31700 47.12300
H  44.44600 -3.47100 48.30200
H  45.00300 -1.88400 48.88200
H  47.57200 1.29800 46.81900
H  47.85700 3.51100 48.85700
H  48.19300 1.61700 49.54400
H  48.23900 0.09800 48.67400
H  46.67200 0.63900 49.45000
H  48.26800 3.81900 45.72700
H  49.12700 2.59200 46.57000
H  50.71800 4.31700 46.97500
H  49.30300 4.97300 48.05500
H  49.71400 5.46500 46.37200
H  45.74200 9.55700 47.63100
H  46.58400 8.63400 46.47800
H  46.70000 8.18200 48.24100
H  40.94000 8.48300 45.91600
H  37.74500 9.89300 48.21200
H  38.31300 11.34200 47.67700
H  38.92800 10.88200 49.22100
Mg 46.65100 34.69300 27.45100
C  45.00700 32.85400 29.98000
C  47.03400 37.18500 29.65200
C  47.72900 36.47100 24.90400
C  45.89200 32.06200 25.21000
N  46.23500 34.85700 29.59800
C  45.60100 34.06500 30.44200
C  45.88400 34.48600 31.88100
C  46.08100 36.07700 31.72800
C  46.46200 36.06300 30.21900
C  44.83200 36.93400 32.07400
C  47.22100 33.73500 32.32100
C  47.51000 33.56100 33.80800
H  46.72000 34.39700 34.82700
N  47.46100 36.50200 27.33500
C  47.58500 37.37800 28.32900
C  48.43600 38.44900 27.90800
C  48.51100 38.33400 26.47300
C  47.88000 37.03800 26.17100
C  49.20400 39.40900 28.80000
C  49.23000 39.19000 25.48200
O  49.37700 38.80800 24.29200
C  49.70000 40.55000 25.84200
N  46.73500 34.30500 25.42900
C  47.32900 35.16500 24.57400
C  47.20800 34.76500 23.08900
C  46.83400 33.28400 23.19700
C  46.43700 33.20000 24.67800
C  46.30900 35.56100 22.14200
C  47.98700 32.24300 22.74100
C  49.33800 32.15900 23.49300
N  45.63400 32.79100 27.53900
C  45.40600 31.83500 26.54800
C  44.84700 30.68800 27.14000
C  44.54300 31.07000 28.47300
C  45.07200 32.35100 28.63500
C  44.44800 29.37100 26.51800
C  43.92200 30.70700 29.74200
O  43.38100 29.66400 30.00800
C  44.08800 31.88000 30.69800
C  44.75500 31.32500 31.94100
O  45.82100 30.75000 31.96000
O  43.88700 31.46800 32.99500
C  44.42700 31.29700 34.37100
H  47.07900 37.98600 30.39300
H  48.01000 36.98900 23.98400
H  45.82400 31.22700 24.51000
H  45.10200 34.20900 32.58800
H  46.83500 36.39200 32.45000
H  43.93700 36.31800 32.16700
H  44.65100 37.68200 31.30300
H  44.90300 37.50400 33.00100
H  47.99500 34.30500 31.80600
H  47.29900 32.76700 31.82600
H  48.57000 33.64900 34.04300
H  47.24400 32.52600 34.02600
H  49.19500 39.03300 29.82300
H  48.77400 40.41100 28.79800
H  50.27100 39.40900 28.57500
H  50.35100 40.47600 26.71300
H  48.82600 41.19400 25.93500
H  50.37800 40.99300 25.11200
H  48.19600 35.02800 22.71300
H  45.96800 33.07200 22.57000
H  46.09500 36.49100 22.66800
H  45.43400 34.97300 21.86500
H  46.85900 35.83600 21.24200
H  48.26400 32.57700 21.74100
H  47.52200 31.26900 22.58800
H  49.36400 31.17600 23.96300
H  49.42200 32.96200 24.22600
H  50.25200 32.39100 22.94700
H  44.88500 29.20400 25.53300
H  43.37300 29.38200 26.33600
H  44.80800 28.58400 27.18000
H  43.17200 32.34000 31.06700
H  45.50400 31.45300 34.31500
H  44.33800 30.31400 34.83500
H  43.86300 31.99900 34.98500

