158

Mg 46.96800 44.75700 41.72600
C  43.63500 43.83100 42.49400
C  47.66200 41.35300 41.53800
C  49.85000 45.48300 40.28500
C  45.92300 48.18700 41.51600
N  45.79600 42.85200 42.09000
C  44.45900 42.78300 42.27700
C  43.93700 41.37400 42.24200
C  45.28500 40.50800 42.24200
C  46.35200 41.62900 41.94700
C  45.52100 39.78600 43.58700
C  43.03800 40.88800 41.04900
C  43.00800 41.71100 39.71700
H  42.89200 40.91700 38.43200
N  48.55600 43.54500 40.95800
C  48.67400 42.22400 41.04000
C  50.03600 41.85900 40.71500
C  50.61100 43.03900 40.19200
C  49.62200 44.07300 40.40900
C  50.62800 40.54700 40.75000
C  51.96400 43.14300 39.50400
O  52.71900 42.17000 39.29000
C  52.41500 44.38200 38.81400
N  47.71700 46.50900 40.93500
C  49.00100 46.58700 40.55300
C  49.56800 47.97800 40.52800
C  48.22900 48.87800 40.62200
C  47.23300 47.83300 41.12900
C  50.64100 48.20400 41.63800
C  47.85800 49.57000 39.34500
C  48.43000 50.96900 38.98000
N  45.17600 45.88200 42.11600
C  44.92000 47.21800 41.93600
C  43.47700 47.43200 42.35500
C  42.92900 46.13200 42.50700
C  43.97400 45.22600 42.46300
C  42.79400 48.73800 42.43800
C  41.66200 45.39000 42.65900
O  40.47300 45.83400 42.72200
C  42.09100 43.81900 42.81300
C  41.75400 43.35600 44.18600
O  42.13400 43.79800 45.23800
O  40.91100 42.24300 44.02300
C  40.48400 41.72100 45.29300
H  47.95200 40.30000 41.54100
H  50.83100 45.86900 40.00300
H  45.65000 49.24300 41.44800
H  43.48400 41.20900 43.22000
H  45.43900 39.79700 41.43000
H  46.37300 39.12300 43.43300
H  44.63600 39.22800 43.89200
H  45.90800 40.41500 44.38900
H  42.03300 40.71700 41.43300
H  43.28700 39.93300 40.58700
H  43.84100 42.40600 39.61300
H  42.09600 42.30900 39.74000
H  50.57300 40.03700 39.78900
H  50.16100 39.85900 41.45500
H  51.64700 40.64000 41.12800
H  51.67500 44.90900 38.21200
H  53.17300 44.19800 38.05300
H  52.73700 45.01500 39.64200
H  49.95600 48.13100 39.52200
H  48.24500 49.63500 41.40700
H  50.89200 47.23800 42.07700
H  50.24100 48.85800 42.41200
H  51.57800 48.67000 41.33400
H  46.77200 49.66200 39.34200
H  48.06000 48.92100 38.49300
H  49.02800 51.29600 39.83100
H  47.54200 51.59600 39.06000
H  49.04300 50.90000 38.08200
H  41.99500 48.81900 41.70100
H  43.46300 49.55200 42.15700
H  42.41800 48.89400 43.44900
H  41.46400 43.26300 42.11600
H  40.13800 42.50500 45.96600
H  41.29800 41.09700 45.66200
H  39.61700 41.06400 45.23500
Mg 41.36800 41.18200 26.65400
C  40.82700 43.71100 28.89300
C  42.11200 39.09000 29.14700
C  42.41300 38.86200 24.26900
C  41.05700 43.45100 24.00800
N  41.46400 41.42500 28.85700
C  41.04700 42.47700 29.57800
C  40.92700 42.12300 31.10600
C  41.61500 40.63900 31.06300
C  41.70100 40.37600 29.58800
C  42.91000 40.48700 31.87700
C  39.45300 42.22300 31.57900
C  39.13000 43.21100 32.73900
H  38.49500 42.58100 33.99900
N  42.01700 39.15600 26.68400
C  42.26000 38.52600 27.84800
C  42.74700 37.20100 27.61400
C  42.82100 37.09300 26.21100
C  42.42500 38.39700 25.60600
C  43.19800 36.24600 28.67300
C  43.24100 35.97400 25.31000
O  43.30500 36.04200 24.10400
C  43.62600 34.66100 25.95500
N  41.77700 41.11500 24.51300
C  42.14400 40.08900 23.75800
C  41.91600 40.35400 22.21100
C  41.24900 41.72800 22.21800
C  41.29300 42.14800 23.69000
C  43.31500 40.37800 21.44300
C  39.86400 41.62200 21.47800
C  38.78700 40.79600 22.16400
N  41.03000 43.21100 26.44200
C  40.93000 44.02300 25.32300
C  40.64500 45.36800 25.61900
C  40.51300 45.35600 27.06900
C  40.84000 43.94700 27.45000
C  40.50800 46.58800 24.70300
C  40.15700 46.05800 28.24600
O  39.83500 47.26800 28.41400
C  40.19300 45.06000 29.47800
C  41.03600 45.72500 30.52700
O  42.25700 45.70000 30.68400
O  40.13500 46.36700 31.34200
C  40.77800 46.98100 32.52400
H  42.39600 38.37600 29.92300
H  42.46000 38.16600 23.42900
H  40.87000 44.03200 23.10200
H  41.53200 42.87100 31.61700
H  40.95100 39.86500 31.45000
H  43.26800 41.39800 32.35700
H  43.63500 40.19100 31.11900
H  42.74600 39.64700 32.55200
H  39.13100 41.18700 31.68700
H  38.90100 42.54200 30.69500
H  38.39900 43.94400 32.39600
H  40.05800 43.67700 33.07200
H  42.53300 35.39300 28.54000
H  43.10800 36.58100 29.70600
H  44.25600 36.05300 28.50000
H  44.56700 34.61900 26.50500
H  43.72400 33.99000 25.10200
H  42.84100 34.19700 26.55200
H  41.16700 39.64800 21.85400
H  41.76400 42.44700 21.58100
H  43.47500 41.27000 20.83700
H  43.22100 39.61200 20.67300
H  44.16400 40.04000 22.03800
H  40.04400 41.34200 20.44000
H  39.44700 42.59900 21.23400
H  38.49600 40.14400 21.34000
H  37.86200 41.31200 22.41800
H  39.09800 40.14800 22.98300
H  39.70300 47.24700 25.02800
H  40.28400 46.41800 23.65000
H  41.40500 47.17800 24.89200
H  39.22500 44.66100 29.78000
H  40.03000 47.52300 33.10100
H  41.56900 47.68800 32.27200
H  41.12700 46.29100 33.29300

