158

Mg -10.26900 39.96100 42.12600
C  -9.95800 36.61000 41.15300
C  -7.48100 40.62000 40.49400
C  -11.11700 43.23400 42.36500
C  -13.41800 39.24400 43.52000
N  -8.89600 38.76900 40.98200
C  -8.95600 37.43900 40.73600
C  -7.80300 36.93200 39.84800
C  -6.91600 38.21600 39.72400
C  -7.72900 39.26200 40.51400
C  -5.45000 38.10500 40.19300
C  -8.19300 36.28000 38.41600
C  -7.20000 35.19700 37.90800
H  -6.18900 35.57600 36.82700
N  -9.40800 41.67300 41.58700
C  -8.16200 41.71300 40.97100
C  -7.75500 43.14300 40.85500
C  -8.81400 43.91400 41.38000
C  -9.88300 42.98900 41.82400
C  -6.48200 43.60200 40.13000
C  -8.78400 45.40600 41.36500
O  -7.75700 46.04500 41.04300
C  -10.08300 46.24900 41.51900
N  -12.10100 41.08100 42.64900
C  -12.23100 42.38200 42.75600
C  -13.53700 42.88400 43.43300
C  -14.24900 41.57900 43.86800
C  -13.16300 40.59300 43.31200
C  -13.34200 44.11100 44.39900
C  -15.65300 41.20500 43.37600
C  -16.67900 40.82500 44.48000
N  -11.47700 38.25900 42.30700
C  -12.70000 38.12400 42.98200
C  -13.07500 36.67500 42.87700
C  -11.96900 36.03000 42.26300
C  -11.11800 37.04000 41.86000
C  -14.23900 36.04700 43.50500
C  -11.31800 34.71800 41.90000
O  -11.74800 33.58800 42.14700
C  -10.05900 35.10200 41.09700
C  -8.83400 34.48200 41.62100
O  -8.40000 34.54300 42.71500
O  -8.36200 33.62800 40.68000
C  -7.23800 32.70600 40.85000
H  -6.57100 40.80200 39.91700
H  -11.40800 44.28400 42.43800
H  -14.29700 38.99200 44.11800
H  -7.29500 36.17100 40.44100
H  -7.09500 38.54700 38.70000
H  -5.01000 37.14000 39.94200
H  -5.30800 38.15700 41.27200
H  -4.73300 38.78300 39.73100
H  -7.99400 36.98200 37.60600
H  -9.27200 36.14200 38.35700
H  -7.79200 34.37800 37.50000
H  -6.67300 34.79700 38.77500
H  -6.47100 44.23800 39.24500
H  -5.79300 42.76900 39.99700
H  -6.03300 44.25100 40.88200
H  -10.24000 46.24300 42.59800
H  -10.95400 45.88500 40.97400
H  -9.91600 47.29800 41.27200
H  -14.10900 43.28000 42.59500
H  -14.17300 41.71200 44.94700
H  -13.80400 43.82900 45.34500
H  -13.92600 44.92800 43.97500
H  -12.29200 44.37900 44.51700
H  -15.71500 40.49400 42.55100
H  -16.00700 42.14900 42.96300
H  -17.39500 41.63800 44.59600
H  -16.24800 40.68500 45.47100
H  -17.21400 39.91400 44.21200
H  -15.10100 36.23800 42.86600
H  -14.46000 36.53700 44.45400
H  -14.11600 34.96800 43.59400
H  -10.27900 34.65800 40.12600
H  -7.47700 31.76300 41.34100
H  -6.49200 33.18100 41.48800
H  -6.79600 32.51400 39.87200
Mg 0.19200 43.68000 25.60100
C  2.22900 43.31700 28.45300
C  -2.42200 42.69000 27.47000
C  -1.50600 43.91500 22.85500
C  3.16900 44.31800 23.62700
N  -0.03900 43.23100 27.73300
C  0.88900 43.12200 28.72400
C  0.32800 42.79100 30.09100
C  -1.20300 42.37800 29.70800
C  -1.26400 42.83800 28.24300
C  -1.54100 40.87700 29.85500
C  0.32900 44.10000 30.93000
C  -0.16400 44.00700 32.43400
H  -0.24700 42.63200 33.14100
N  -1.68400 43.29700 25.22000
C  -2.69500 42.87200 26.08800
C  -3.92000 42.82100 25.37700
C  -3.68400 43.24200 24.09000
C  -2.24100 43.49900 23.99800
C  -5.23500 42.39800 26.14500
C  -4.66500 43.59600 23.00900
O  -4.39300 44.27900 22.03100
C  -6.12400 43.15100 23.19400
N  0.77500 44.04000 23.44100
C  -0.18200 44.20500 22.55100
C  0.38000 44.65300 21.23300
C  1.84200 44.90700 21.52200
C  1.97800 44.32300 22.95500
C  0.19200 43.47300 20.14400
C  2.35600 46.37100 21.59700
C  1.37700 47.43100 22.19700
N  2.31400 43.89700 25.94800
C  3.40400 44.09900 25.02800
C  4.59600 43.97500 25.79100
C  4.18500 43.66600 27.06200
C  2.78600 43.54000 27.16800
C  5.98500 44.14000 25.26000
C  4.73300 43.37700 28.37200
O  5.89900 43.30300 28.74100
C  3.45900 43.20600 29.38000
C  3.63500 42.04000 30.21300
O  3.34800 40.89100 29.87900
O  4.29600 42.35700 31.33000
C  4.81900 41.20500 32.12600
H  -3.29600 42.25900 27.96200
H  -2.11400 43.91900 21.94800
H  4.06800 44.46900 23.02700
H  0.84000 41.95800 30.57400
H  -1.97200 42.86600 30.30600
H  -2.05300 40.55300 28.94900
H  -2.25200 40.72600 30.66700
H  -0.70000 40.22200 30.08500
H  -0.29800 44.86300 30.46800
H  1.35400 44.43800 30.78100
H  -1.15200 44.45600 32.53800
H  0.60000 44.55500 32.98500
H  -6.04500 43.11700 26.02000
H  -5.13500 42.19800 27.21200
H  -5.60200 41.42900 25.80700
H  -6.16000 42.08200 23.40100
H  -6.66400 43.17000 22.24700
H  -6.59000 43.71500 24.00200
H  -0.10400 45.57100 20.89900
H  2.47100 44.34300 20.83200
H  1.14600 43.06900 19.80500
H  -0.24900 43.89100 19.23900
H  -0.37800 42.67000 20.61200
H  2.64800 46.70300 20.60100
H  3.21700 46.40200 22.26500
H  1.80000 48.09200 22.95400
H  0.53400 46.94200 22.68400
H  1.04100 47.98400 21.31900
H  6.02400 45.10800 24.76000
H  6.23900 43.33000 24.57600
H  6.84400 44.15800 25.93100
H  3.56000 44.09900 29.99800
H  5.55600 41.51000 32.86900
H  5.33200 40.46500 31.51100
H  3.94000 40.84400 32.65800

