158

Mg 2.07600 8.33500 24.85800
C  2.60500 10.06100 27.81800
C  2.14600 5.37600 26.70500
C  1.69300 6.56500 22.03400
C  2.52900 11.28300 22.96100
N  2.42200 7.83400 27.00100
C  2.50200 8.70600 28.05000
C  2.58000 7.97600 29.45000
C  2.55600 6.44100 29.03600
C  2.32200 6.51100 27.49400
C  3.83300 5.59400 29.44300
C  1.32100 8.45300 30.32300
C  1.54300 8.65900 31.88200
H  2.73700 8.00600 32.53900
N  1.78300 6.28000 24.41100
C  1.87600 5.25500 25.34600
C  1.77700 3.97800 24.71200
C  1.71600 4.25200 23.28100
C  1.69700 5.75100 23.18300
C  1.83100 2.65100 25.46200
C  1.74200 3.19700 22.11100
O  1.59500 3.55400 20.95200
C  1.96100 1.73800 22.36700
N  2.24500 8.85000 22.77400
C  1.91800 7.96500 21.78000
C  1.82700 8.57000 20.41100
C  2.31300 10.06500 20.74400
C  2.40500 10.07600 22.23600
C  2.47900 7.83500 19.21400
C  1.33200 11.17900 20.20900
C  -0.12300 11.30300 20.78600
N  2.40700 10.29000 25.25100
C  2.54300 11.41700 24.42400
C  2.87700 12.59800 25.21300
C  2.87000 12.09900 26.55200
C  2.50700 10.73600 26.50300
C  3.04400 14.01400 24.61900
C  3.00100 12.47800 27.93500
O  3.21200 13.61700 28.37600
C  2.73600 11.23400 28.81000
C  3.77100 11.15500 29.80100
O  4.83200 10.81000 29.46500
O  3.42400 11.65500 31.03500
C  4.52400 11.82200 31.93700
H  2.13600 4.43200 27.25400
H  1.46600 6.01500 21.11800
H  2.74900 12.18800 22.39200
H  3.51600 8.19700 29.96300
H  1.69900 5.98400 29.53000
H  3.45200 4.75800 30.02900
H  4.55300 6.10900 30.07900
H  4.28500 5.15900 28.55200
H  0.46000 7.83800 30.06300
H  0.91400 9.34500 29.84600
H  0.63100 8.20300 32.26800
H  1.60000 9.71600 32.14300
H  2.85100 2.46400 25.79600
H  1.52200 1.82700 24.81800
H  1.19700 2.54700 26.34300
H  2.77100 1.58200 23.08000
H  2.02400 1.16700 21.44100
H  0.95800 1.51500 22.73100
H  0.79700 8.54600 20.05400
H  3.27400 10.11800 20.23200
H  1.71300 7.60400 18.47400
H  3.00700 6.97200 19.61900
H  3.19200 8.48600 18.70700
H  1.34100 10.98600 19.13600
H  1.84100 12.12500 20.39500
H  -0.79700 11.07100 19.96100
H  -0.21800 12.31500 21.17900
H  -0.28500 10.61000 21.61100
H  2.79400 13.97400 23.55800
H  4.00100 14.49400 24.82300
H  2.29400 14.70900 24.99600
H  1.75500 11.28900 29.28100
H  4.08300 12.31600 32.80300
H  5.28000 12.47100 31.49500
H  5.03200 10.90200 32.22800
Mg 0.29600 43.67700 25.93000
C  2.47200 43.92600 28.67900
C  -2.16400 42.72700 28.14400
C  -1.62700 42.96500 23.29700
C  3.08900 43.97800 23.77100
N  0.16300 43.50000 28.14500
C  1.14700 43.76800 29.05400
C  0.64700 43.83600 30.47700
C  -0.83500 43.25100 30.39200
C  -0.99700 43.09400 28.81400
C  -1.17100 41.95100 31.22200
C  0.69000 45.22400 31.22500
C  0.81100 45.39000 32.81800
H  0.57800 44.08700 33.59800
N  -1.64100 42.98200 25.82300
C  -2.50700 42.70000 26.79000
C  -3.83600 42.29200 26.21000
C  -3.63400 42.23900 24.82200
C  -2.26600 42.74200 24.59200
C  -4.99900 42.10300 27.07400
C  -4.67200 41.84700 23.66000
O  -4.39100 41.74300 22.46000
C  -6.11400 41.46000 24.10500
N  0.69100 43.54000 23.88000
C  -0.31400 43.34400 23.05600
C  0.25100 43.44000 21.57100
C  1.67300 43.96600 21.70600
C  1.82900 43.80200 23.20900
C  0.08000 42.14300 20.72100
C  1.82300 45.44700 21.30700
C  1.20200 46.59700 22.17000
N  2.34300 44.03500 26.09900
C  3.33500 44.16600 25.12900
C  4.65900 44.30700 25.83800
C  4.43400 44.22200 27.19000
C  2.96500 44.02600 27.28600
C  6.00900 44.52200 25.16400
C  4.95100 44.16500 28.55100
O  6.10000 44.15500 29.02000
C  3.76900 44.08600 29.56100
C  4.06700 42.79500 30.26400
O  4.26500 41.67100 29.82600
O  3.95100 43.10200 31.63300
C  4.34000 42.01400 32.54600
H  -3.03600 42.45900 28.74300
H  -2.30000 42.93900 22.43800
H  3.72300 44.03100 22.88300
H  1.16600 43.05500 31.03200
H  -1.53100 44.04500 30.66300
H  -1.47900 41.23600 30.45900
H  -1.91500 42.14500 31.99500
H  -0.24100 41.59700 31.66600
H  -0.21600 45.76600 30.95300
H  1.52100 45.70300 30.70900
H  0.09900 46.15700 33.12300
H  1.84000 45.72800 32.94700
H  -5.88900 42.54300 26.62400
H  -4.87600 42.67000 27.99700
H  -5.25900 41.13400 27.50100
H  -5.94300 40.71400 24.88000
H  -6.57100 40.99600 23.23100
H  -6.61100 42.35300 24.48400
H  -0.24200 44.32800 21.17500
H  2.42300 43.41000 21.14400
H  -0.56400 41.41100 21.20800
H  0.98300 41.63700 20.37900
H  -0.49700 42.45900 19.85200
H  1.36400 45.44200 20.31800
H  2.86800 45.68500 21.11200
H  0.78600 46.24000 23.11100
H  0.43500 46.92100 21.46600
H  1.96600 47.36400 22.29700
H  6.54000 43.57100 25.20400
H  6.57300 45.22800 25.77300
H  5.82100 44.82500 24.13400
H  3.75700 44.98200 30.18100
H  5.39800 41.88000 32.31800
H  3.94900 41.03400 32.27200
H  4.16800 42.39500 33.55300

