158

Mg 16.06700 -1.95700 27.46000
C  15.07600 0.36700 29.87900
C  18.14400 -3.51300 29.78800
C  17.65900 -3.45100 25.04500
C  14.36600 0.11400 25.15400
N  16.70400 -1.40600 29.50800
C  16.01000 -0.54400 30.37500
C  16.47800 -0.81000 31.78000
C  17.68600 -1.82000 31.61600
C  17.46200 -2.33900 30.23400
C  19.07500 -1.22400 31.89300
C  15.37000 -1.40500 32.76300
C  15.67600 -1.12100 34.27000
H  16.92800 -0.41300 34.78800
N  17.48600 -3.51300 27.46200
C  18.26700 -3.96300 28.48000
C  19.15100 -5.03700 27.97600
C  18.90800 -5.08300 26.53500
C  17.99800 -4.00500 26.31300
C  19.94300 -5.95100 28.86400
C  19.38600 -6.14200 25.42900
O  18.91200 -6.17200 24.33300
C  20.40000 -7.25800 25.77100
N  15.99300 -1.67600 25.41100
C  16.79400 -2.42100 24.63700
C  16.64700 -2.00200 23.18400
C  15.31100 -1.14500 23.15200
C  15.14100 -0.91500 24.65300
C  17.87100 -1.10900 22.66000
C  14.08900 -1.79000 22.39000
C  13.32600 -0.85600 21.32000
N  14.77100 -0.20000 27.43400
C  14.15600 0.46600 26.46400
C  13.37900 1.55300 27.02000
C  13.61300 1.53200 28.37700
C  14.54700 0.47200 28.55000
C  12.53700 2.45000 26.20400
C  13.39800 2.15400 29.69100
O  12.56700 3.01200 29.92900
C  14.22300 1.33300 30.72800
C  15.02300 2.34400 31.43200
O  16.07600 2.85700 31.12600
O  14.33000 2.52700 32.61600
C  14.82600 3.48900 33.54400
H  18.82300 -4.06600 30.44100
H  18.17400 -3.84500 24.16600
H  13.78500 0.80700 24.54200
H  16.85200 0.14300 32.15400
H  17.62400 -2.69200 32.26700
H  18.89200 -0.15000 31.94800
H  19.68000 -1.50100 31.03000
H  19.43900 -1.53800 32.87200
H  15.35000 -2.48300 32.60700
H  14.45500 -0.99100 32.34000
H  15.75100 -2.14000 34.65100
H  14.86300 -0.57100 34.74300
H  19.56300 -6.96000 28.70600
H  19.91600 -5.66400 29.91500
H  20.96200 -6.00100 28.48000
H  20.55500 -7.75800 24.81500
H  19.99900 -8.05200 26.40100
H  21.27600 -6.82600 26.25500
H  16.55700 -2.93600 22.62900
H  15.52800 -0.17500 22.70500
H  18.65300 -0.93700 23.40000
H  17.53700 -0.14000 22.29100
H  18.28600 -1.68100 21.83000
H  13.41700 -2.12300 23.18000
H  14.40600 -2.69600 21.87400
H  13.43300 -1.36400 20.36100
H  13.85000 0.09300 21.21000
H  12.26700 -0.67900 21.50500
H  13.24900 3.20000 25.86000
H  11.74000 2.83000 26.84300
H  12.11900 1.96600 25.32100
H  13.51100 0.80000 31.35800
H  13.98200 4.14800 33.74800
H  15.72300 3.99700 33.19100
H  15.09600 2.93700 34.44400
Mg 49.51800 35.56600 27.50300
C  47.58800 34.46200 30.17300
C  50.30300 38.35200 29.22900
C  51.21100 36.45000 24.86100
C  48.43600 32.77600 25.64800
N  48.78000 36.44700 29.38000
C  48.10600 35.73600 30.36500
C  48.29800 36.43100 31.74100
C  48.89000 37.85500 31.33500
C  49.35500 37.55700 29.87800
C  47.83100 39.01200 31.27300
C  49.15500 35.74500 32.78600
C  48.83700 35.81000 34.22900
H  48.47000 37.25300 34.56800
N  50.55300 37.17700 27.10100
C  50.84500 38.20800 27.95900
C  51.85800 39.08600 27.34100
C  52.14600 38.52700 26.03600
C  51.25100 37.37900 25.90100
C  52.42400 40.36000 27.99100
C  53.30600 38.96600 25.05400
O  53.46900 38.42800 23.94100
C  54.10700 40.19500 25.37300
N  49.82100 34.64200 25.51100
C  50.53000 35.29700 24.64500
C  50.56200 34.65200 23.30600
C  49.89400 33.28800 23.52700
C  49.33100 33.55300 24.95400
C  49.90800 35.46100 22.09100
C  50.73800 32.03700 23.46100
C  50.04200 30.88900 22.76000
N  48.32300 33.93500 27.78500
C  47.96100 32.86100 27.02200
C  47.05200 31.95700 27.68700
C  46.85000 32.60100 28.92300
C  47.65800 33.77700 28.97000
C  46.49600 30.73200 27.09300
C  46.04400 32.53000 30.12500
O  45.13900 31.81500 30.53100
C  46.47000 33.77800 30.99600
C  46.79200 33.35400 32.38000
O  47.77000 32.65400 32.68100
O  45.73300 33.62300 33.17200
C  45.49200 32.94100 34.50100
H  50.63800 39.20800 29.81900
H  51.73000 36.93500 24.03200
H  48.03900 31.91500 25.10700
H  47.29700 36.61100 32.13300
H  49.81200 38.18400 31.81500
H  48.07700 39.48100 30.32100
H  48.04100 39.70700 32.08600
H  46.87000 38.49700 31.25800
H  50.16600 36.12000 32.62300
H  49.30100 34.71600 32.45800
H  49.56800 35.33900 34.88600
H  47.89600 35.26100 34.27800
H  53.49800 40.22800 28.12500
H  51.95200 40.64800 28.93000
H  52.30000 41.26000 27.38900
H  54.99200 40.23600 24.73800
H  54.49000 39.97700 26.37000
H  53.56000 41.13100 25.26200
H  51.62000 34.44700 23.14600
H  49.10200 33.17600 22.78700
H  49.34900 34.81200 21.41800
H  50.64400 35.91200 21.42600
H  49.31800 36.31000 22.43700
H  51.01000 31.56000 24.40300
H  51.62300 32.26400 22.86600
H  50.07600 30.00300 23.39300
H  50.51200 30.67000 21.80100
H  48.98400 30.97800 22.51300
H  47.18600 30.19500 26.44300
H  45.68600 31.07200 26.44800
H  46.02800 30.04400 27.79800
H  45.68900 34.49100 31.25800
H  46.33700 32.30200 34.76000
H  44.72800 32.16300 34.53700
H  45.15400 33.57500 35.32100

