158

Mg 35.66000 0.91700 29.19500
C  33.50700 2.41400 31.71100
C  38.15400 1.08500 31.47400
C  37.86300 0.44400 26.72900
C  33.16500 1.67100 26.80000
N  35.78300 1.53900 31.38400
C  34.79200 2.17200 32.23200
C  35.31000 2.36100 33.64700
C  36.88300 2.30400 33.37300
C  36.95900 1.55000 31.99700
C  37.51200 3.73100 33.26200
C  34.69800 1.31700 34.67500
C  34.31400 1.95500 36.03700
H  35.23200 3.02000 36.63400
N  37.66900 0.41500 29.18700
C  38.52500 0.57800 30.18500
C  39.91100 0.21800 29.78000
C  39.75700 -0.10100 28.37700
C  38.40000 0.25000 27.98600
C  41.10200 0.05000 30.74700
C  40.82600 -0.56400 27.39100
O  40.59600 -0.86800 26.20300
C  42.27500 -0.61200 27.84200
N  35.47500 0.84100 27.12800
C  36.56800 0.74200 26.25400
C  36.27300 1.02000 24.80300
C  34.75500 1.44800 24.91800
C  34.36700 1.19000 26.36200
C  37.11600 2.10100 24.00000
C  33.83000 0.73900 23.85200
C  33.17600 1.77800 22.84000
N  33.70400 1.76200 29.19400
C  32.79600 1.94900 28.16500
C  31.61900 2.66900 28.62600
C  31.81300 2.77100 29.99600
C  33.11000 2.21800 30.29600
C  30.52100 3.01400 27.79300
C  31.20800 3.27800 31.22700
O  30.16800 3.85200 31.42500
C  32.22200 2.88100 32.42300
C  32.41000 4.13600 33.23600
O  33.11600 5.10600 33.00700
O  31.51100 3.99700 34.28600
C  31.31100 5.10500 35.20900
H  39.00300 1.32400 32.11800
H  38.57300 0.22900 25.92800
H  32.41500 1.77900 26.01400
H  35.20700 3.41100 33.92300
H  37.39800 1.80500 34.19400
H  38.25900 3.82500 34.05000
H  36.78800 4.53400 33.39900
H  38.00300 3.85900 32.29700
H  35.35600 0.50200 34.97400
H  33.83200 0.83600 34.22200
H  34.20900 1.17300 36.78800
H  33.26000 2.19400 35.89600
H  40.75200 -0.63700 31.51800
H  41.49100 0.94600 31.22900
H  42.05200 -0.33400 30.37500
H  42.54700 -1.33200 28.61400
H  42.60500 0.40900 28.03700
H  42.90700 -0.74900 26.96500
H  36.32500 0.08600 24.24400
H  34.75400 2.53800 24.92500
H  36.50000 2.90900 23.60400
H  37.57300 1.59300 23.15100
H  37.91600 2.44500 24.65700
H  33.11200 0.16900 24.44100
H  34.44800 0.00300 23.33800
H  33.40700 1.42400 21.83600
H  33.57400 2.79000 22.91100
H  32.09300 1.78800 22.96500
H  29.90900 3.78000 28.26900
H  29.95800 2.13100 27.49200
H  30.96600 3.49200 26.92100
H  31.71700 2.12900 33.03000
H  30.79700 5.94600 34.74300
H  32.30900 5.38900 35.54400
H  30.69800 4.74200 36.03300
Mg 41.90100 40.55200 25.95700
C  41.05700 43.01400 28.42200
C  42.29200 38.28200 28.38900
C  42.87900 38.39500 23.61000
C  41.46100 42.96800 23.57200
N  41.74400 40.75500 28.15900
C  41.33200 41.75300 28.97200
C  41.31600 41.31200 30.52600
C  41.54300 39.71400 30.42100
C  41.82100 39.55500 28.89900
C  42.59000 39.12600 31.37400
C  39.95200 41.72800 31.24200
C  39.57600 41.08300 32.51000
H  39.19800 42.01000 33.63400
N  42.48600 38.54400 25.93500
C  42.59400 37.81600 27.05600
C  43.05400 36.47900 26.77800
C  43.14300 36.37900 25.36000
C  42.87000 37.83200 24.86800
C  43.27900 35.43100 27.84400
C  43.50200 35.22900 24.39000
O  43.51000 35.31500 23.16700
C  43.64700 33.83800 24.97600
N  42.28700 40.69900 23.87400
C  42.66000 39.67300 23.11800
C  42.53800 39.97300 21.61300
C  41.64200 41.28200 21.70800
C  41.82800 41.66000 23.17000
C  43.93500 40.16200 20.97600
C  40.25800 41.22100 21.08300
C  39.32800 40.14900 21.58800
N  41.42600 42.58800 25.89900
C  41.29700 43.47700 24.84700
C  40.96900 44.81900 25.34600
C  40.87700 44.65500 26.70700
C  41.17900 43.30700 27.03200
C  40.70100 46.05000 24.52700
C  40.40600 45.34500 27.93300
O  39.90800 46.45100 28.10300
C  40.60800 44.30500 29.07400
C  41.59500 44.94600 30.00400
O  42.81200 44.73300 30.10300
O  40.91900 45.83000 30.86700
C  41.52700 46.17300 32.11600
H  42.27000 37.51400 29.16500
H  43.02800 37.65100 22.82500
H  41.16300 43.67700 22.79700
H  42.08100 41.90000 31.03400
H  40.62000 39.19200 30.67500
H  42.21000 38.32500 32.00700
H  42.83100 39.85200 32.15000
H  43.45900 38.82300 30.78900
H  39.10000 41.66100 30.56500
H  40.04100 42.76600 31.56200
H  40.38900 40.41100 32.78500
H  38.62900 40.57700 32.32600
H  42.27700 35.10600 28.12600
H  43.68100 35.85700 28.76300
H  43.84400 34.55800 27.51700
H  43.56500 33.16100 24.12600
H  42.82100 33.69800 25.67400
H  44.61400 33.89500 25.47700
H  42.08300 39.13600 21.08300
H  42.08000 42.07100 21.09600
H  44.50600 39.43500 21.55400
H  44.28900 41.18300 20.83700
H  43.87900 39.73100 19.97600
H  40.31200 41.09700 20.00100
H  39.96100 42.25700 21.24500
H  38.83500 39.63600 20.76300
H  38.58500 40.45700 22.32300
H  39.93900 39.49300 22.20700
H  39.66500 46.14300 24.20000
H  41.22800 45.99400 23.57500
H  41.14400 46.94200 24.96900
H  39.62600 44.21800 29.53700
H  42.58500 46.35900 31.93300
H  41.47500 45.33700 32.81300
H  40.94600 47.01400 32.49400

