158

Mg 41.49300 7.85900 29.10300
C  43.53300 9.32200 31.41500
C  39.59800 6.45200 31.64000
C  39.46400 6.41300 26.77100
C  43.70700 8.95300 26.50400
N  41.61000 7.86700 31.29000
C  42.47900 8.67900 32.02900
C  42.15600 8.63200 33.54500
C  40.90600 7.64900 33.59200
C  40.67200 7.27900 32.06900
C  41.00700 6.36500 34.49800
C  41.76200 10.11300 33.95800
C  40.82700 10.31300 35.24300
H  41.22000 11.47700 36.18300
N  39.70200 6.61300 29.22600
C  39.06600 6.15800 30.33800
C  37.87500 5.43400 29.93300
C  37.83400 5.48700 28.49000
C  39.04300 6.19500 28.09500
C  37.06900 4.67400 30.95200
C  36.72500 4.98300 27.53500
O  36.79000 5.12700 26.33700
C  35.54000 4.24700 28.07900
N  41.68900 7.60600 26.93800
C  40.64300 7.03400 26.23700
C  40.86200 7.23600 24.68500
C  42.14200 8.19800 24.62500
C  42.44000 8.38500 26.11300
C  41.11800 5.88200 23.92100
C  41.84700 9.48600 23.80500
C  41.18700 10.58600 24.49100
N  43.28300 8.98600 28.95700
C  44.11400 9.20100 27.85600
C  45.36000 9.80100 28.34500
C  45.10300 9.97800 29.75800
C  43.83200 9.42000 30.03100
C  46.65300 10.17700 27.61000
C  45.65700 10.45800 30.94400
O  46.74200 10.97100 31.27600
C  44.69100 10.10300 32.06200
C  45.36900 9.19500 33.06200
O  45.81500 8.06800 32.87600
O  45.42300 9.83500 34.30100
C  46.05400 9.03600 35.42000
H  39.03800 6.11800 32.51600
H  38.82400 6.14700 25.92600
H  44.47700 9.23800 25.78500
H  42.97200 8.24900 34.15800
H  39.97100 8.10000 33.92300
H  41.32600 5.51100 33.90200
H  40.01400 6.17900 34.90900
H  41.65100 6.47300 35.37100
H  41.25600 10.61400 33.13200
H  42.68400 10.63200 34.21800
H  40.86700 9.37800 35.80200
H  39.79100 10.36000 34.90800
H  37.43000 4.96100 31.94000
H  36.91300 3.60800 30.78300
H  36.04500 5.04400 30.92000
H  35.35400 4.63200 29.08200
H  35.80900 3.19400 28.15500
H  34.74700 4.22500 27.33200
H  39.95800 7.68900 24.27700
H  42.88100 7.70300 23.99400
H  40.45900 5.92900 23.05400
H  40.93000 5.01800 24.55800
H  42.12400 5.68300 23.55300
H  41.24100 9.18400 22.95100
H  42.81200 9.80800 23.41200
H  41.82600 11.46900 24.50700
H  40.99900 10.32900 25.53400
H  40.20200 10.77300 24.06300
H  46.55700 10.01600 26.53600
H  47.61300 9.74700 27.89600
H  46.76000 11.25600 27.72000
H  44.35700 11.00200 32.58000
H  47.12500 9.23900 35.39200
H  45.83200 7.97200 35.34500
H  45.83200 9.39900 36.42300
Mg 55.67000 24.94500 43.94800
C  52.85900 26.83100 42.89100
C  54.50500 22.27700 42.22500
C  58.69400 23.43900 44.32600
C  56.89500 27.91400 45.40100
N  54.02200 24.75400 42.62700
C  52.98900 25.58200 42.34800
C  52.13500 24.94200 41.28200
C  52.34100 23.44700 41.60200
C  53.70800 23.45800 42.18600
C  51.22100 22.80900 42.48100
C  52.40700 25.38600 39.85200
C  51.06100 25.46000 39.00500
H  51.23500 25.85100 37.46600
N  56.44300 23.03900 43.44500
C  55.74400 22.02600 42.77000
C  56.58100 20.77400 42.71800
C  57.76100 21.06400 43.44900
C  57.71000 22.55400 43.78700
C  56.20900 19.56500 41.97100
C  58.88000 20.08000 43.73300
O  58.78100 18.89400 43.40800
C  60.23100 20.58100 44.31000
N  57.61500 25.66300 44.61200
C  58.66800 24.80500 44.76400
C  59.86000 25.59800 45.27500
C  59.29600 27.04500 45.65600
C  57.84700 26.92400 45.12300
C  60.62400 24.90000 46.41600
C  60.18000 28.30100 45.12500
C  60.72700 29.32400 46.21400
N  55.02000 26.95800 44.25000
C  55.57600 28.04100 44.87500
C  54.60400 29.14900 44.94500
C  53.50100 28.66700 44.23800
C  53.82600 27.39000 43.77500
C  54.81600 30.43300 45.67300
C  52.22200 29.02500 43.76900
O  51.59100 29.99900 44.04300
C  51.63000 27.80700 42.97500
C  50.97400 28.26000 41.66000
O  51.57600 28.76800 40.72500
O  49.64100 27.99600 41.73100
C  48.80700 28.27200 40.54100
H  54.05800 21.41700 41.72100
H  59.69600 23.05900 44.53800
H  57.14600 28.83400 45.93200
H  51.10800 25.15800 41.57800
H  52.37000 22.82400 40.70800
H  51.32400 23.11600 43.52200
H  51.28000 21.72300 42.42200
H  50.23500 23.12700 42.14400
H  52.97600 24.60700 39.34500
H  52.95400 26.32100 39.97400
H  50.22100 26.05800 39.35900
H  50.71500 24.45400 38.76900
H  55.47200 19.80200 41.20400
H  55.62400 18.90100 42.60700
H  57.01200 19.06800 41.42600
H  60.10400 20.98300 45.31600
H  60.63400 21.28700 43.58400
H  60.82100 19.66500 44.29800
H  60.48700 25.85700 44.42200
H  59.24500 27.17700 46.73700
H  60.00300 24.20300 46.97800
H  61.00600 25.53300 47.21700
H  61.33400 24.24400 45.91100
H  59.47000 28.88900 44.54300
H  61.08600 27.99600 44.60000
H  61.80600 29.17300 46.22600
H  60.16200 29.28200 47.14600
H  60.64000 30.29900 45.73300
H  54.31200 30.40000 46.63900
H  54.47500 31.23200 45.01400
H  55.86300 30.52200 45.96100
H  50.79600 27.39600 43.54400
H  49.06900 27.74700 39.62200
H  48.85600 29.35500 40.43100
H  47.78200 28.00700 40.80100

