158

Mg 47.44100 17.31500 28.73200
C  45.38300 17.31700 31.62200
C  49.74300 19.08500 30.42800
C  49.04700 17.59400 25.80400
C  44.65400 15.75500 27.02600
N  47.42000 18.36200 30.78900
C  46.56800 18.00200 31.81600
C  47.10800 18.47400 33.17400
C  48.48800 19.12000 32.71500
C  48.63400 18.80400 31.25200
C  48.61400 20.60700 33.16900
C  47.36200 17.39200 34.21300
C  46.92700 17.72500 35.62500
H  46.97600 19.19800 36.10900
N  49.15200 18.19300 28.22100
C  50.02800 18.84200 29.07000
C  51.20000 19.34700 28.33700
C  50.97600 18.85600 27.01400
C  49.73100 18.12300 26.96800
C  52.32200 20.24100 28.95300
C  51.90500 18.97500 25.78900
O  51.64700 18.49700 24.68700
C  53.20400 19.75100 25.90300
N  47.05100 16.48800 26.78000
C  47.86300 16.89200 25.71600
C  47.22500 16.52100 24.34400
C  45.90400 15.67600 24.81400
C  45.82300 16.03100 26.30100
C  46.81300 17.71500 23.50300
C  46.14200 14.16100 24.62100
C  45.14500 13.49300 23.61300
N  45.41900 16.70400 29.15400
C  44.38900 16.15200 28.37100
C  43.10700 16.14500 29.09700
C  43.50600 16.38100 30.38600
C  44.86800 16.73000 30.40300
C  41.76900 15.70300 28.47900
C  43.02600 16.51800 31.65500
O  41.88700 16.42200 32.09500
C  44.28200 16.99500 32.53200
C  43.84700 18.07400 33.44700
O  43.73000 19.27900 33.22500
O  43.35000 17.44100 34.53700
C  42.61400 18.35200 35.50900
H  50.57500 19.45300 31.03100
H  49.41900 17.82700 24.80400
H  43.80100 15.32600 26.49600
H  46.42900 19.25800 33.51100
H  49.34300 18.60500 33.15400
H  49.61700 20.67500 33.58800
H  47.91600 20.96500 33.92600
H  48.78900 21.30900 32.35400
H  48.42500 17.18500 34.33000
H  46.79800 16.52800 33.86200
H  47.43200 17.07700 36.34100
H  45.87700 17.43300 35.59800
H  52.07900 20.37200 30.00800
H  52.53500 21.13300 28.36400
H  53.22400 19.63900 29.05900
H  53.70100 19.59700 24.94500
H  53.83200 19.41400 26.72700
H  52.74400 20.73500 25.99900
H  47.83100 15.77700 23.82700
H  44.98600 15.95300 24.29600
H  47.60000 18.43100 23.73900
H  45.82600 18.11400 23.73900
H  47.03800 17.40600 22.48300
H  45.93100 13.71500 25.59300
H  47.12500 13.88400 24.24000
H  44.45500 14.18500 23.12900
H  44.55000 12.78100 24.18600
H  45.64200 12.82500 22.90900
H  41.65100 15.96300 27.42700
H  41.01200 16.27600 29.01300
H  41.66200 14.62700 28.61800
H  44.49000 16.12800 33.15900
H  42.51700 19.40400 35.23800
H  43.25900 18.34500 36.38700
H  41.59400 18.03100 35.71900
Mg 0.32700 41.78700 25.16500
C  1.35200 41.98900 28.51300
C  -2.49800 40.17500 26.26300
C  -0.59900 41.46600 21.96100
C  3.56500 42.72300 24.13800
N  -0.48800 41.29600 27.16700
C  0.07500 41.47200 28.35300
C  -0.80800 41.03600 29.50700
C  -1.99200 40.28800 28.82000
C  -1.64400 40.57700 27.29300
C  -2.13700 38.82700 29.21900
C  -1.31600 42.22600 30.45500
C  -1.00000 41.96400 31.92900
H  -1.64800 40.66300 32.64100
N  -1.36900 41.04100 24.25600
C  -2.35800 40.37200 24.88100
C  -3.46400 40.17900 23.90300
C  -2.88500 40.49500 22.65500
C  -1.57800 41.08400 22.92400
C  -4.84900 39.76300 24.25400
C  -3.57000 40.39300 21.28700
O  -3.11200 40.86800 20.29100
C  -4.92000 39.59000 21.21500
N  1.38100 41.96900 23.35500
C  0.72100 41.67400 22.15100
C  1.72000 41.79400 20.96500
C  3.03800 42.21000 21.58400
C  2.63300 42.37700 23.07700
C  1.69900 40.37200 20.24000
C  3.55600 43.49000 21.06600
C  2.73700 44.76100 21.21500
N  2.13000 42.27700 26.10900
C  3.31000 42.76500 25.52300
C  4.19100 43.04200 26.65900
C  3.46300 42.73200 27.87100
C  2.21300 42.32400 27.45400
C  5.60100 43.68800 26.60000
C  3.47900 42.68400 29.31800
O  4.35900 42.96900 30.11500
C  2.17500 42.10700 29.76700
C  2.53300 40.75300 30.24700
O  3.08900 39.90800 29.58900
O  2.37800 40.76300 31.55900
C  2.48700 39.52600 32.32900
H  -3.34000 39.54300 26.55400
H  -0.78800 41.35500 20.89100
H  4.58600 42.94500 23.82100
H  -0.26300 40.32600 30.12900
H  -2.90200 40.81100 29.11300
H  -1.48500 38.55600 30.04900
H  -1.75900 38.19000 28.41900
H  -3.19800 38.67300 29.41100
H  -2.37900 42.45600 30.38600
H  -0.85200 43.17500 30.18800
H  -1.33600 42.80000 32.54200
H  0.07900 41.86200 32.05000
H  -5.45000 40.65900 24.10400
H  -4.91500 39.58100 25.32600
H  -5.22200 38.92200 23.66900
H  -5.61600 40.10700 21.87600
H  -4.56100 38.57600 21.39100
H  -5.25900 39.70000 20.18500
H  1.31600 42.51100 20.25000
H  3.77900 41.41200 21.53300
H  1.38100 40.65700 19.23700
H  0.93600 39.68900 20.61400
H  2.71300 39.97300 20.22700
H  3.71100 43.29900 20.00400
H  4.57100 43.49000 21.46500
H  2.71600 45.29100 20.26300
H  3.34600 45.40800 21.84700
H  1.76900 44.61900 21.69400
H  5.67400 44.12600 25.60400
H  6.34400 42.89200 26.66000
H  5.56600 44.45500 27.37300
H  1.73000 42.76900 30.51100
H  3.46400 39.32700 32.77000
H  2.33400 38.63100 31.72600
H  1.76500 39.57000 33.14400

