158

Mg 47.87000 25.22600 28.24300
C  48.40600 27.52100 30.70100
C  47.31200 22.91200 30.66200
C  47.50700 22.97000 25.77800
C  49.00400 27.50400 25.88100
N  47.84500 25.23300 30.46500
C  47.87500 26.38000 31.21700
C  47.63600 26.00300 32.72500
C  47.42900 24.42700 32.75100
C  47.48800 24.16300 31.23600
C  48.52200 23.61700 33.52900
C  46.32500 26.80300 33.24200
C  46.63900 28.14700 33.93400
H  45.93100 28.61600 35.19000
N  47.45300 23.19500 28.23000
C  47.26600 22.46000 29.33800
C  46.85100 21.13700 28.90600
C  46.90900 21.09800 27.47700
C  47.34000 22.45700 27.09900
C  46.36200 20.10600 29.83800
C  46.64700 19.95700 26.51000
O  46.81200 20.07200 25.26700
C  45.97100 18.71600 27.01000
N  48.27900 25.25400 26.12600
C  48.02800 24.14900 25.32000
C  47.93200 24.61200 23.81200
C  48.22700 26.08700 23.83800
C  48.55900 26.29600 25.32300
C  48.99000 23.82600 22.88600
C  47.07200 27.00500 23.36000
C  47.36400 27.88200 22.12600
N  48.65400 27.06500 28.29300
C  49.03100 27.86300 27.27200
C  49.54100 29.09900 27.82300
C  49.29800 29.02600 29.18600
C  48.67200 27.81300 29.40700
C  50.12000 30.23000 27.04800
C  49.45400 29.69900 30.42800
O  49.98100 30.77200 30.59100
C  48.99200 28.68100 31.51900
C  50.09300 28.37000 32.44200
O  51.00200 27.60100 32.25700
O  49.97100 29.14200 33.57800
C  51.04000 28.86400 34.54500
H  47.18400 22.16700 31.44900
H  47.19900 22.23900 25.02800
H  49.14800 28.33200 25.18400
H  48.39300 26.26600 33.46400
H  46.51000 24.26100 33.31300
H  48.96300 24.32600 34.23000
H  49.25700 23.23700 32.81900
H  48.09500 22.78800 34.09400
H  45.58200 26.20400 33.76900
H  45.77300 27.04300 32.33200
H  46.35700 28.81100 33.11700
H  47.71600 28.09600 34.10000
H  45.41000 19.68100 29.52200
H  46.04600 20.60000 30.75700
H  47.08100 19.28900 29.88900
H  45.14800 19.22400 27.51400
H  46.68600 18.29800 27.71900
H  45.61900 18.08700 26.19300
H  46.93900 24.38800 23.42200
H  49.16800 26.20300 23.30100
H  48.64600 22.79300 22.83400
H  49.98200 23.93800 23.32400
H  48.93100 24.27400 21.89400
H  46.67900 27.66100 24.13700
H  46.18000 26.45000 23.06800
H  47.23300 28.89700 22.50000
H  46.66300 27.63400 21.32800
H  48.41400 27.77000 21.85800
H  50.29200 30.06000 25.98500
H  51.09200 30.43900 27.49500
H  49.46500 31.10200 27.05100
H  48.21400 29.12100 32.14300
H  50.50300 28.08200 35.08200
H  51.20600 29.79200 35.09100
H  51.93600 28.28400 34.32500
Mg -1.30200 34.36500 27.73200
C  -3.14000 32.29800 29.98300
C  0.18200 35.72900 30.49300
C  0.00600 36.55300 25.65300
C  -3.07800 32.79000 25.13600
N  -1.56300 34.07400 29.94600
C  -2.34800 33.21300 30.64400
C  -2.11100 33.25600 32.13500
C  -1.21800 34.55100 32.33200
C  -0.88500 34.90300 30.84900
C  -1.85100 35.72700 33.07400
C  -1.45800 31.96300 32.73300
C  -1.95200 31.48000 34.11300
H  -1.30500 31.91100 35.41400
N  0.07600 35.85100 27.99400
C  0.60900 36.24600 29.25600
C  1.66400 37.16000 28.97900
C  1.60800 37.38200 27.55200
C  0.54500 36.57000 26.97400
C  2.51600 37.80200 30.08400
C  2.39700 38.43500 26.75900
O  2.12300 38.71800 25.63900
C  3.47900 39.21500 27.40800
N  -1.55500 34.61200 25.70800
C  -0.99100 35.71600 25.10000
C  -1.59100 35.95900 23.73300
C  -2.28500 34.61700 23.41400
C  -2.39800 33.93400 24.80700
C  -2.50600 37.21300 23.58700
C  -1.59500 33.73500 22.30200
C  -2.18700 34.03100 20.85200
N  -2.74500 32.81900 27.46200
C  -3.33400 32.17200 26.39000
C  -4.18800 31.12400 26.78500
C  -4.21200 31.17500 28.19900
C  -3.29300 32.17900 28.57600
C  -4.92700 30.17900 25.87100
C  -4.75600 30.51900 29.30400
O  -5.55400 29.59100 29.27600
C  -4.04000 31.18000 30.58100
C  -5.25600 31.70800 31.29500
O  -6.11000 32.51000 30.89200
O  -5.27800 31.15300 32.56300
C  -6.18800 31.78500 33.52400
H  0.56300 36.24400 31.37800
H  0.24700 37.35800 24.95500
H  -3.56900 32.37700 24.25200
H  -3.05100 33.43600 32.65800
H  -0.28500 34.35800 32.86100
H  -2.92700 35.55700 33.12100
H  -1.66500 36.65400 32.53300
H  -1.47400 35.77900 34.09600
H  -0.42800 32.27500 32.90500
H  -1.48000 31.13900 32.01900
H  -2.17100 30.41500 34.04500
H  -2.96600 31.85100 34.25900
H  3.52700 37.64700 29.70600
H  2.53800 37.21900 31.00400
H  2.27400 38.85300 30.24200
H  3.05500 39.83700 28.19600
H  4.03800 39.85800 26.72700
H  4.20300 38.53600 27.85800
H  -0.74700 35.96600 23.04300
H  -3.31700 34.84300 23.14600
H  -2.80400 37.58400 24.56800
H  -3.45600 37.03300 23.08400
H  -2.02500 38.01600 23.02900
H  -1.65200 32.67800 22.56300
H  -0.51800 33.87200 22.40300
H  -2.98500 34.77300 20.85800
H  -2.59600 33.10200 20.45700
H  -1.41500 34.46500 20.21700
H  -4.32300 30.00300 24.98100
H  -5.94300 30.48600 25.62200
H  -5.06300 29.21100 26.35500
H  -3.47300 30.55200 31.26800
H  -5.68500 32.20800 34.39400
H  -6.74400 30.98700 34.01600
H  -6.88600 32.51200 33.11100

