158

Mg 9.34500 3.61100 28.18200
C  10.58500 1.84800 30.88600
C  6.97100 5.06200 30.23200
C  7.81000 5.05200 25.47300
C  11.09900 1.50000 25.98200
N  8.75200 3.28900 30.33400
C  9.53900 2.71000 31.25600
C  9.14000 3.18700 32.67600
C  7.95500 4.22100 32.47500
C  7.80100 4.16900 30.89000
C  6.66200 3.85400 33.23500
C  10.43900 3.74200 33.52600
C  10.18900 4.64600 34.75700
H  10.73500 4.19300 36.10200
N  7.69200 4.98900 27.89700
C  6.89400 5.45300 28.89600
C  5.93100 6.41400 28.34800
C  6.12800 6.37400 26.90200
C  7.18300 5.40400 26.67700
C  4.90300 7.23900 29.09600
C  5.48800 7.19200 25.78600
O  5.82000 7.07500 24.57300
C  4.29300 8.12400 26.11600
N  9.41200 3.24000 26.05200
C  8.82500 4.06200 25.13500
C  9.30700 3.91000 23.66400
C  10.39400 2.81200 23.94800
C  10.31700 2.46200 25.41200
C  8.21500 3.40100 22.71300
C  11.80500 3.25600 23.49800
C  12.51800 4.26700 24.36500
N  10.58600 2.01400 28.33900
C  11.19300 1.22600 27.31600
C  11.94100 0.21000 27.99800
C  11.79000 0.49900 29.40600
C  10.89300 1.55500 29.51300
C  12.81500 -0.79100 27.29100
C  12.32400 0.16200 30.76700
O  13.16500 -0.62100 31.10800
C  11.54600 1.09300 31.73900
C  10.83300 0.22900 32.66800
O  9.89700 -0.49100 32.37800
O  11.32800 0.29300 33.91100
C  10.54200 -0.35600 34.96700
H  6.29000 5.61700 30.88100
H  7.35100 5.52000 24.59900
H  11.85500 1.04700 25.33700
H  8.82600 2.27200 33.17700
H  8.18800 5.25300 32.73600
H  5.90100 3.62100 32.49000
H  6.29800 4.74100 33.75400
H  6.87900 3.03100 33.91600
H  11.10700 4.22400 32.81200
H  10.90300 2.83000 33.90300
H  9.11900 4.73000 34.94900
H  10.43300 5.65500 34.42500
H  4.88300 6.98200 30.15500
H  3.89500 7.06700 28.71800
H  5.11000 8.26900 28.80800
H  3.89300 8.49500 25.17200
H  4.51800 8.96200 26.77500
H  3.39900 7.59700 26.44700
H  9.76700 4.82500 23.29300
H  10.00600 1.97500 23.36700
H  7.38800 3.02900 23.31800
H  8.55800 2.51200 22.18400
H  8.03000 4.06300 21.86700
H  11.73300 3.74300 22.52600
H  12.43500 2.37600 23.36500
H  12.09700 4.50500 25.34200
H  12.74100 5.17200 23.79900
H  13.50000 3.89000 24.65100
H  13.39700 -0.32700 26.49500
H  12.25800 -1.58400 26.79400
H  13.49200 -1.31500 27.96500
H  12.12800 1.88800 32.20600
H  9.71300 -0.99800 34.66700
H  10.16000 0.49900 35.52400
H  11.16100 -0.99800 35.59400
Mg -4.71900 26.44500 25.94100
C  -2.94800 27.43500 28.84800
C  -6.00900 23.87400 27.90000
C  -6.09800 25.21000 23.18700
C  -2.76300 28.64600 24.11200
N  -4.44000 25.75900 28.08900
C  -3.76200 26.36300 29.08700
C  -4.27800 25.87700 30.42300
C  -5.04900 24.53700 30.09300
C  -5.17100 24.71800 28.59900
C  -4.23100 23.26200 30.59400
C  -5.16900 26.92100 31.19100
C  -4.76100 27.07300 32.66000
H  -4.23400 25.88200 33.54000
N  -5.86800 24.76500 25.54400
C  -6.32100 23.87900 26.54100
C  -7.33300 22.97300 25.91800
C  -7.46500 23.41000 24.61200
C  -6.37400 24.44800 24.34800
C  -8.01500 21.90300 26.66100
C  -8.31600 22.81300 23.51700
O  -8.14500 23.16400 22.35600
C  -9.34800 21.77000 23.79800
N  -4.45700 26.84400 23.93600
C  -5.22300 26.26200 23.03200
C  -4.94600 26.89600 21.63500
C  -3.88000 27.94900 21.89300
C  -3.67400 27.84400 23.39200
C  -4.38400 25.94300 20.53700
C  -4.28900 29.40300 21.51000
C  -4.19300 29.65600 19.98300
N  -3.20300 27.76800 26.33400
C  -2.53100 28.63300 25.54400
C  -1.54800 29.35300 26.26000
C  -1.81500 28.99100 27.60000
C  -2.69100 27.92200 27.55600
C  -0.55700 30.33900 25.71300
C  -1.43400 29.23700 28.90100
O  -0.62900 30.07200 29.30900
C  -2.12500 28.24700 29.78400
C  -1.26700 27.53300 30.75900
O  -0.52500 26.53800 30.52900
O  -1.48600 28.10500 31.94900
C  -0.61600 27.43400 32.98500
H  -6.50700 23.09600 28.48300
H  -6.63200 24.94000 22.27300
H  -2.15800 29.34200 23.52700
H  -3.42500 25.60300 31.04400
H  -6.08600 24.44600 30.41800
H  -4.14800 22.49700 29.82200
H  -4.96200 22.79000 31.25100
H  -3.29000 23.55900 31.05700
H  -6.19900 26.57100 31.26600
H  -5.12500 27.91000 30.73600
H  -5.63500 27.43300 33.20300
H  -3.98000 27.83400 32.67000
H  -9.09800 22.01800 26.69100
H  -7.69900 21.75300 27.69300
H  -7.78000 21.01500 26.07400
H  -8.82000 20.82500 23.67400
H  -10.04800 21.89900 22.97300
H  -10.03700 21.81400 24.64200
H  -5.86000 27.32500 21.22600
H  -2.93400 27.69000 21.41800
H  -5.16200 25.29700 20.12900
H  -3.69300 25.23000 20.98500
H  -3.90600 26.30600 19.62700
H  -3.69200 30.21100 21.93300
H  -5.33700 29.59400 21.73900
H  -3.73100 30.64100 19.91600
H  -5.20800 29.75900 19.59900
H  -3.69000 28.90400 19.37400
H  -0.97800 30.95500 24.91900
H  0.34400 29.86300 25.32500
H  -0.26400 30.97000 26.55200
H  -2.87000 28.77600 30.37900
H  0.43800 27.39500 32.71200
H  -1.05000 26.47300 33.26100
H  -0.71600 28.11200 33.83400

