158

Mg 24.87900 -4.64800 46.74000
C  26.82600 -2.27800 45.08300
C  22.28200 -3.75800 44.63400
C  23.26400 -7.42300 47.76100
C  27.79600 -5.64500 48.47500
N  24.59700 -3.06700 45.18800
C  25.52000 -2.17900 44.66000
C  25.01600 -1.28200 43.50000
C  23.41600 -1.72400 43.56200
C  23.39900 -2.90900 44.54700
C  22.54000 -0.48100 44.18200
C  25.73800 -1.69500 42.16100
C  26.39200 -0.54600 41.40000
H  25.89200 -0.35200 39.96900
N  22.97000 -5.37500 46.42600
C  22.07800 -4.90600 45.44600
C  20.91900 -5.79700 45.40100
C  21.13400 -6.74000 46.43000
C  22.49600 -6.53800 46.98400
C  19.76200 -5.67200 44.37700
C  20.20700 -7.93400 46.84600
O  19.17200 -8.17700 46.28200
C  20.52600 -8.83000 48.07100
N  25.46700 -6.27400 47.96300
C  24.56700 -7.23600 48.29300
C  25.28100 -8.29600 49.19700
C  26.47600 -7.49400 49.71600
C  26.60500 -6.42400 48.65800
C  24.38700 -9.09300 50.19800
C  27.76000 -8.34300 50.13200
C  28.10400 -8.30300 51.63000
N  26.94900 -4.09700 46.82600
C  27.98000 -4.60500 47.55900
C  29.13100 -3.83700 47.22900
C  28.71800 -2.89000 46.27000
C  27.36400 -3.11600 46.07500
C  30.51200 -3.99700 47.83300
C  29.25600 -1.76400 45.46800
O  30.30500 -1.21600 45.48100
C  28.02600 -1.34400 44.66700
C  27.79100 0.07000 44.97600
O  27.40600 0.48300 46.01400
O  28.07400 0.83800 43.83800
C  27.91300 2.27100 43.95700
H  21.42600 -3.41000 44.05200
H  22.92900 -8.46000 47.82700
H  28.66200 -6.01700 49.02700
H  25.11800 -0.21800 43.71400
H  22.94300 -2.07700 42.64600
H  21.81300 -0.13200 43.44900
H  23.09500 0.36600 44.58700
H  21.97000 -0.92700 44.99800
H  24.96500 -2.06900 41.49000
H  26.36000 -2.57000 42.34900
H  27.46600 -0.72100 41.33400
H  26.29400 0.40600 41.92200
H  19.21200 -6.58900 44.16300
H  20.08700 -5.21000 43.44500
H  19.04000 -4.92500 44.70400
H  21.03200 -8.24400 48.83900
H  21.22900 -9.62000 47.80900
H  19.57800 -9.13200 48.51600
H  25.52200 -9.04700 48.44400
H  26.02700 -7.04900 50.60400
H  23.32200 -8.99700 49.98900
H  24.56000 -8.77400 51.22600
H  24.76300 -10.11600 50.18800
H  28.66000 -8.02400 49.60600
H  27.53800 -9.36600 49.83000
H  27.19700 -7.96400 52.13100
H  28.87100 -7.58400 51.91700
H  28.35600 -9.30500 51.97700
H  30.75200 -5.06000 47.81700
H  30.47200 -3.68400 48.87700
H  31.30600 -3.39000 47.39800
H  28.46400 -1.47200 43.67800
H  26.95600 2.63200 43.58000
H  28.71200 2.79200 43.43000
H  27.82000 2.66900 44.96800
Mg -1.41100 33.82000 26.80800
C  -3.53500 32.05000 29.20100
C  -0.21800 35.54200 29.50000
C  0.12900 35.65700 24.59400
C  -2.96200 32.07400 24.31300
N  -1.87500 33.75100 29.16500
C  -2.73700 33.01000 29.90400
C  -2.54700 33.25200 31.46200
C  -1.57200 34.44900 31.49000
C  -1.16800 34.63400 29.96700
C  -2.26800 35.72100 32.03700
C  -2.05000 31.97600 32.20000
C  -2.86800 31.43800 33.38200
H  -2.09500 31.18200 34.61600
N  -0.09600 35.38200 26.97300
C  0.34000 35.89500 28.22300
C  1.41500 36.77400 27.84600
C  1.48300 36.87600 26.42300
C  0.50000 35.96900 25.93900
C  2.32800 37.40600 28.93100
C  2.35000 37.72200 25.51700
O  2.12000 37.84600 24.34700
C  3.35000 38.65900 26.05900
N  -1.53900 33.97100 24.73100
C  -0.80200 34.81500 24.06700
C  -1.07700 34.73300 22.56600
C  -2.00700 33.48700 22.43000
C  -2.19000 33.13100 23.88700
C  -1.72500 36.01800 21.99500
C  -1.32000 32.34200 21.57700
C  -2.04300 31.85300 20.29000
N  -2.99500 32.38700 26.71300
C  -3.44600 31.69600 25.59700
C  -4.42200 30.73100 25.99000
C  -4.54600 30.85300 27.37000
C  -3.58300 31.85200 27.77200
C  -5.26400 29.75700 25.12200
C  -5.21700 30.36300 28.57300
O  -6.10700 29.54000 28.71900
C  -4.47900 30.96700 29.84600
C  -5.51800 31.51800 30.84600
O  -6.32700 32.34500 30.61600
O  -5.39000 30.76300 31.93200
C  -6.42100 30.99100 32.98600
H  0.16700 36.14900 30.32200
H  0.76800 36.10200 23.82700
H  -3.48300 31.44100 23.59200
H  -3.49500 33.68300 31.78300
H  -0.73400 34.18900 32.13700
H  -1.67700 36.16300 32.83900
H  -3.19400 35.67600 32.60900
H  -2.33100 36.53300 31.31300
H  -1.06000 32.19400 32.60200
H  -1.98600 31.21500 31.42100
H  -3.34700 30.48000 33.18100
H  -3.65600 32.16600 33.57800
H  2.15500 36.95700 29.90900
H  2.16500 38.48300 28.91700
H  3.39600 37.29100 28.74300
H  4.24100 38.05500 26.23400
H  2.92200 39.03800 26.98700
H  3.62200 39.34000 25.25200
H  -0.14300 34.61300 22.01700
H  -2.94600 33.67900 21.91000
H  -1.40600 36.81800 22.66300
H  -2.81400 35.98400 21.95500
H  -1.32400 36.23900 21.00600
H  -1.31800 31.46800 22.22800
H  -0.31400 32.58900 21.24000
H  -1.85100 32.61100 19.53100
H  -3.10100 31.61400 20.40000
H  -1.44300 31.02900 19.90400
H  -5.12100 28.70800 25.37900
H  -5.02500 29.92000 24.07100
H  -6.30900 30.01000 25.30500
H  -3.81700 30.23400 30.30500
H  -7.41700 31.09600 32.55600
H  -6.27900 31.88300 33.59600
H  -6.36000 30.18500 33.71800

