158

Mg 40.88000 9.37200 30.09200
C  42.74600 10.59900 32.78500
C  38.58000 8.14400 32.32600
C  39.16400 8.12000 27.52200
C  43.65800 10.10300 27.94500
N  40.80900 9.19900 32.34400
C  41.56000 9.95500 33.20200
C  41.00100 9.83500 34.63600
C  39.73600 9.07000 34.48500
C  39.71000 8.73500 32.93100
C  39.56600 7.72800 35.38600
C  40.79100 11.23100 35.40400
C  40.16500 11.21600 36.81000
H  41.09100 11.81700 37.93200
N  39.08600 8.44700 29.95900
C  38.26100 8.03300 30.94300
C  36.93900 7.64900 30.36000
C  37.10300 7.66200 29.00600
C  38.47300 8.06100 28.77400
C  35.86200 7.25200 31.20100
C  36.09400 7.42400 27.83500
O  36.47200 7.59700 26.69400
C  34.77700 6.90400 28.06800
N  41.34500 9.15700 27.98800
C  40.45100 8.58800 27.12600
C  41.09300 8.46400 25.72100
C  42.33700 9.41700 25.86000
C  42.50200 9.56700 27.38500
C  41.47500 7.01300 25.35600
C  42.26300 10.74100 25.08800
C  41.50200 11.91600 25.75200
N  42.87700 10.01000 30.29800
C  43.82700 10.38900 29.34800
C  44.86800 11.17800 29.98400
C  44.53400 11.17500 31.35200
C  43.28800 10.55500 31.44100
C  46.05600 11.78700 29.26600
C  44.95300 11.62400 32.68900
O  46.01800 12.16700 33.03600
C  43.82200 11.34400 33.59000
C  44.51600 10.48800 34.53400
O  44.69800 9.26900 34.48700
O  44.89100 11.22100 35.67000
C  45.55100 10.41100 36.73100
H  37.90600 7.77300 33.10000
H  38.88300 7.52700 26.64900
H  44.47300 10.34100 27.25800
H  41.74400 9.25800 35.18600
H  38.82700 9.63300 34.69400
H  38.88700 7.86100 36.22900
H  40.51400 7.57300 35.90200
H  39.43400 6.80800 34.81700
H  40.21600 11.92800 34.79500
H  41.80300 11.59000 35.59100
H  39.99000 10.18400 37.11600
H  39.17700 11.65300 36.95200
H  35.91600 6.31600 31.75700
H  34.93700 7.31500 30.62800
H  35.67300 8.01300 31.95800
H  34.27400 6.56800 27.16200
H  34.20200 7.64800 28.62000
H  34.76400 6.01600 28.70000
H  40.38300 8.86700 24.99900
H  43.21700 8.96000 25.40700
H  41.08700 6.83800 24.35200
H  41.01600 6.26600 26.00300
H  42.56200 6.92800 25.34000
H  41.95600 10.55600 24.05900
H  43.29600 11.08800 25.06100
H  42.07100 12.82800 25.57500
H  41.19200 11.77600 26.78800
H  40.63500 12.04400 25.10400
H  46.01500 11.68300 28.18100
H  46.90000 11.34800 29.79800
H  46.16100 12.82700 29.57400
H  43.50200 12.21300 34.16400
H  45.51700 11.04100 37.61900
H  46.59600 10.22400 36.48400
H  44.99700 9.49800 36.95100
Mg 47.91500 16.53900 28.66000
C  45.89100 16.48800 31.38700
C  50.24400 18.46200 30.34200
C  49.82700 16.74800 25.84100
C  45.40600 14.75400 26.83700
N  47.94500 17.48200 30.57400
C  47.06700 17.21800 31.56900
C  47.54500 17.89300 32.91800
C  48.83800 18.71400 32.46200
C  49.05100 18.12500 31.06600
C  48.84600 20.30000 32.52900
C  47.77700 16.88000 34.07800
C  47.27500 17.21700 35.45800
H  47.26000 18.71500 35.75200
N  49.82800 17.44900 28.15700
C  50.57200 18.16300 29.01900
C  51.83000 18.50400 28.43100
C  51.80600 17.90200 27.06000
C  50.49700 17.34100 26.97100
C  52.95600 19.16700 29.18900
C  52.82200 17.99900 25.83400
O  52.47800 17.54600 24.72200
C  54.08700 18.83800 25.96000
N  47.67600 15.84400 26.66900
C  48.61200 16.04400 25.69900
C  48.17100 15.33400 24.38500
C  46.92600 14.56700 24.81100
C  46.59300 15.04700 26.18700
C  47.75200 16.35300 23.23700
C  47.11500 12.96000 24.80800
C  46.22600 12.15300 23.93100
N  45.93300 15.83700 28.94300
C  45.03900 15.15400 28.13200
C  43.84900 14.85700 28.97700
C  44.17000 15.35800 30.28500
C  45.40100 15.93500 30.18700
C  42.56100 14.25200 28.49000
C  43.64500 15.51300 31.63700
O  42.56400 15.17700 32.10000
C  44.82000 16.23600 32.51000
C  44.29200 17.40700 33.24400
O  44.20100 18.49400 32.71200
O  43.80700 17.03700 34.44800
C  43.15300 18.14200 35.23800
H  50.98800 19.12900 30.78200
H  50.37000 16.60600 24.90400
H  44.71500 14.16600 26.22900
H  46.85600 18.62300 33.34300
H  49.67200 18.36500 33.07000
H  48.13300 20.72000 33.23800
H  48.71000 20.75400 31.54700
H  49.81100 20.58300 32.95100
H  48.80100 16.50800 34.07000
H  47.18200 15.99100 33.86700
H  47.97000 16.71700 36.13200
H  46.30900 16.71300 35.51000
H  53.87200 18.62100 28.96500
H  53.00000 18.98100 30.26200
H  53.07200 20.21000 28.89500
H  54.85400 18.44900 26.63100
H  53.88800 19.79900 26.43400
H  54.48200 18.78000 24.94600
H  48.96900 14.69600 24.00400
H  46.03300 14.76100 24.21700
H  48.24000 17.31400 23.39700
H  46.69300 16.61000 23.26300
H  48.02000 15.98000 22.24800
H  47.02400 12.70800 25.86400
H  48.15900 12.73400 24.59100
H  46.81100 11.25500 23.73200
H  45.89600 12.58900 22.98900
H  45.35800 11.84000 24.51100
H  42.47100 13.21700 28.81800
H  42.59000 14.30500 27.40200
H  41.76100 14.95000 28.73600
H  45.19500 15.53300 33.25400
H  42.13000 17.81500 35.41900
H  43.05200 19.04900 34.64100
H  43.71300 18.22100 36.17100

