158

Mg 9.78800 48.15400 26.61200
C  7.87000 48.34800 29.57800
C  12.38600 49.57600 28.34100
C  11.31200 48.23600 23.76400
C  6.63200 47.52900 24.80100
N  9.93300 48.96400 28.71500
C  9.17400 48.77900 29.83700
C  9.87600 49.27800 31.07200
C  11.14100 49.98300 30.56100
C  11.21000 49.46200 29.11700
C  10.99500 51.60600 30.55200
C  10.27800 48.21700 32.11200
C  9.70700 48.34100 33.55400
H  9.89500 46.95100 34.31200
N  11.60400 48.70800 26.11000
C  12.59400 49.26100 26.96800
C  13.84100 49.52400 26.13000
C  13.55500 49.10800 24.79300
C  12.11400 48.70100 24.83200
C  15.17200 50.05500 26.77500
C  14.39800 49.09700 23.51000
O  13.98600 48.62000 22.43200
C  15.83200 49.48500 23.59200
N  9.05800 47.70700 24.61200
C  10.04000 47.76700 23.63600
C  9.47500 47.33600 22.23100
C  7.92200 47.27200 22.57100
C  7.81600 47.43200 24.03800
C  9.84100 48.40000 21.15600
C  7.14700 46.02800 21.99500
C  6.66100 46.17600 20.58600
N  7.63400 47.91600 27.01300
C  6.50100 47.67000 26.17900
C  5.33300 47.54900 27.05600
C  5.82400 47.67400 28.38300
C  7.20700 48.01300 28.30800
C  3.94000 47.28400 26.55700
C  5.44400 47.63400 29.72900
O  4.34000 47.33500 30.24000
C  6.76000 47.96600 30.56200
C  7.05500 46.71700 31.22300
O  7.39900 45.74100 30.58400
O  7.10500 46.67200 32.57100
C  7.31600 45.40500 33.13400
H  13.22400 50.05500 28.85200
H  11.81700 48.15800 22.79900
H  5.72600 47.47800 24.19500
H  9.16900 49.92500 31.59100
H  12.09900 49.56600 30.87200
H  11.20500 51.97300 29.54700
H  11.72300 51.99800 31.26300
H  9.96400 51.93600 30.67800
H  11.35700 48.07800 32.17300
H  9.92800 47.28100 31.67500
H  8.64500 48.54900 33.42300
H  10.25900 49.14900 34.03500
H  15.02500 50.86900 27.48400
H  15.78400 50.55600 26.02400
H  15.90300 49.31200 27.09300
H  15.88500 50.56700 23.71500
H  16.43700 49.27200 22.71000
H  16.25900 49.10900 24.52100
H  9.90600 46.36700 21.98100
H  7.50000 48.13600 22.05900
H  10.22000 49.32100 21.59900
H  8.99500 48.55000 20.48600
H  10.70700 48.03800 20.60200
H  6.23000 45.77800 22.52900
H  7.83800 45.18600 21.99200
H  7.21900 47.01500 20.17000
H  5.58700 46.32600 20.46900
H  6.84000 45.27200 20.00400
H  3.87800 46.30300 26.08600
H  3.60300 48.11600 25.93800
H  3.29100 47.38500 27.42700
H  6.63600 48.70300 31.35600
H  6.57500 44.74100 32.68900
H  7.20400 45.48400 34.21500
H  8.32700 45.04600 32.94000
Mg 0.77300 43.49600 26.14700
C  2.93100 42.98500 28.86000
C  -1.78900 42.46800 28.09100
C  -1.27300 43.49200 23.40600
C  3.63500 43.88900 24.10300
N  0.61700 42.94800 28.25700
C  1.62600 42.83800 29.24100
C  1.02400 42.71100 30.60200
C  -0.47400 42.29800 30.26500
C  -0.57700 42.58100 28.74200
C  -0.76100 40.76500 30.42300
C  1.12400 44.00600 31.44200
C  1.63000 43.87700 32.88200
H  1.01000 42.86400 33.82600
N  -1.28500 43.12800 25.77500
C  -2.18400 42.76200 26.80700
C  -3.49400 42.78700 26.30000
C  -3.36400 43.15600 24.89200
C  -1.95300 43.26200 24.60900
C  -4.78900 42.49000 27.16900
C  -4.48100 43.35800 23.82100
O  -4.22600 43.55700 22.65900
C  -5.92500 43.48100 24.24500
N  1.16000 43.62300 24.08200
C  0.12600 43.71600 23.18700
C  0.69300 43.81500 21.72900
C  2.16900 44.28100 21.96900
C  2.34900 43.90300 23.48300
C  0.59400 42.43700 20.99200
C  2.51800 45.70700 21.67300
C  1.55900 46.79600 22.12600
N  2.87400 43.55700 26.42300
C  3.92100 43.76500 25.52300
C  5.12600 43.68500 26.18100
C  4.82600 43.40400 27.50600
C  3.42400 43.31600 27.60600
C  6.51300 43.78900 25.58800
C  5.43900 43.16400 28.78000
O  6.62300 43.10900 29.10800
C  4.20000 43.04100 29.73000
C  4.29500 41.77100 30.58500
O  4.06200 40.67000 30.10300
O  4.59000 42.09900 31.85800
C  4.52100 41.07200 32.83800
H  -2.60600 42.17600 28.75300
H  -1.80700 43.79400 22.50200
H  4.43900 44.05300 23.38300
H  1.47100 41.90500 31.18300
H  -1.19200 42.90100 30.82000
H  -1.09900 40.28000 29.50700
H  -1.37700 40.45900 31.26800
H  0.17300 40.28400 30.71500
H  0.20500 44.58800 31.37700
H  1.77000 44.74700 30.97300
H  1.65800 44.85100 33.36900
H  2.69900 43.67900 32.81100
H  -5.76300 42.77200 26.76700
H  -4.69800 42.72700 28.22900
H  -4.72700 41.40300 27.22600
H  -6.23000 42.44400 24.38900
H  -6.44800 43.85200 23.36400
H  -6.01300 44.18700 25.07100
H  0.15800 44.63400 21.24700
H  2.83900 43.61100 21.43100
H  0.45100 41.63900 21.72000
H  1.45300 42.28000 20.34000
H  -0.28000 42.38700 20.34200
H  2.54000 45.82600 20.59000
H  3.46800 45.99500 22.12200
H  1.20400 47.30200 21.22700
H  1.99100 47.54100 22.79400
H  0.69200 46.35700 22.61900
H  7.01300 44.72400 25.84100
H  6.38500 43.71700 24.50800
H  7.11600 42.94400 25.92000
H  4.30200 43.93000 30.35300
H  3.92800 41.50900 33.64100
H  5.52900 40.89200 33.21300
H  4.07300 40.14900 32.46900

