158

Mg 17.09600 52.00200 26.55000
C  19.42200 50.76000 28.90500
C  15.06400 52.82200 29.12100
C  14.89500 53.22700 24.32000
C  19.28900 50.89700 24.02600
N  17.22400 51.80000 28.78600
C  18.29000 51.31300 29.50500
C  18.10700 51.57300 30.94800
C  16.57800 51.86800 31.02900
C  16.26300 52.20800 29.60200
C  15.80300 50.61500 31.43600
C  18.94400 52.79600 31.45200
C  19.11000 52.88000 32.98800
H  18.07400 52.24100 33.87400
N  15.16300 52.81800 26.66800
C  14.55900 53.13900 27.82000
C  13.30200 53.89700 27.61800
C  13.19000 54.00000 26.15900
C  14.44300 53.32400 25.63000
C  12.43900 54.46000 28.68700
C  12.17900 54.70600 25.30900
O  12.15800 54.55200 24.07500
C  11.19200 55.65400 25.86400
N  16.96600 51.84400 24.48100
C  16.05300 52.63800 23.81800
C  16.20200 52.44300 22.25900
C  17.68200 51.88000 22.11900
C  18.04500 51.55700 23.61400
C  15.15800 51.43200 21.70100
C  18.74800 52.88200 21.50300
C  20.04800 52.23500 21.06500
N  18.91800 51.05400 26.42500
C  19.70700 50.59000 25.34400
C  20.95200 49.97400 25.78200
C  20.88600 50.08500 27.17800
C  19.61900 50.66500 27.49700
C  21.96200 49.35800 24.83400
C  21.64500 49.85500 28.41000
O  22.73900 49.39900 28.59300
C  20.64700 50.25600 29.63800
C  20.39300 49.14100 30.56100
O  19.93500 48.07300 30.28800
O  20.88200 49.58000 31.80100
C  20.66200 48.60700 32.87600
H  14.38300 53.13900 29.91400
H  14.31700 53.79100 23.58600
H  19.91000 50.54100 23.20200
H  18.37500 50.69900 31.54000
H  16.37200 52.71300 31.68600
H  14.79000 50.46400 31.06400
H  15.78200 50.51500 32.52200
H  16.30800 49.76400 30.97800
H  18.45000 53.70100 31.10000
H  19.90900 52.84800 30.94800
H  19.36200 53.91500 33.22000
H  20.03000 52.33200 33.19500
H  11.65500 53.75700 28.96700
H  12.13000 55.48600 28.48500
H  12.98900 54.61500 29.61500
H  10.58500 56.17300 25.12200
H  11.63000 56.43800 26.48100
H  10.52300 54.97000 26.38800
H  16.13200 53.34700 21.65400
H  17.67900 51.06600 21.39500
H  15.57800 50.51000 21.29900
H  14.71400 52.05200 20.92200
H  14.40500 51.34400 22.48400
H  19.12100 53.66400 22.16400
H  18.32300 53.27100 20.57800
H  20.84000 52.46300 21.77900
H  20.40500 52.71100 20.15100
H  19.83300 51.16800 21.02100
H  22.17400 50.10600 24.06900
H  21.44600 48.51300 24.37900
H  22.87200 49.10700 25.37800
H  21.13600 51.07800 30.15900
H  20.20600 47.64600 32.63600
H  20.08100 48.98200 33.71800
H  21.64100 48.37900 33.29600
Mg -9.53800 38.33400 41.00600
C  -8.26700 35.08900 40.76100
C  -6.51400 39.44700 39.78600
C  -10.89700 41.48500 40.51600
C  -12.71400 37.09800 41.68400
N  -7.60800 37.36000 40.43300
C  -7.24800 36.01000 40.48700
C  -5.83100 35.77800 40.19800
C  -5.20800 37.26100 40.30600
C  -6.48900 38.09300 40.10800
C  -4.44200 37.67200 41.68000
C  -5.79800 34.93100 38.83100
C  -5.89700 35.78000 37.57500
H  -7.08800 35.53900 36.56700
N  -8.84500 40.20700 40.28400
C  -7.54700 40.45900 39.88400
C  -7.39200 41.82900 39.43000
C  -8.58600 42.51700 39.74200
C  -9.52000 41.40100 40.19100
C  -6.10000 42.40300 38.95600
C  -8.69700 43.94900 39.57000
O  -7.75000 44.56600 39.13100
C  -9.98800 44.73300 39.83200
N  -11.57000 39.16100 41.02800
C  -11.83600 40.51700 40.89000
C  -13.34700 40.78100 41.17000
C  -13.88000 39.35000 41.54800
C  -12.65600 38.50500 41.50700
C  -13.41100 41.86300 42.25200
C  -15.12100 38.88300 40.69800
C  -16.46900 39.07400 41.40300
N  -10.39100 36.49000 41.26600
C  -11.65100 36.15900 41.63800
C  -11.72400 34.73800 41.98400
C  -10.43400 34.26300 41.57300
C  -9.62100 35.39600 41.13900
C  -12.88700 33.97700 42.48500
C  -9.59100 33.18200 41.55700
O  -9.75400 31.98600 41.83300
C  -8.27000 33.62200 40.87000
C  -7.05600 32.91800 41.33000
O  -6.18600 32.45300 40.62200
O  -7.02800 32.83500 42.71900
C  -5.81500 32.26800 43.29800
H  -5.60400 39.85900 39.34300
H  -11.32900 42.48700 40.46900
H  -13.68900 36.72200 42.00000
H  -5.29000 35.23400 40.97200
H  -4.51100 37.39100 39.47800
H  -3.39700 37.92200 41.49900
H  -4.55100 36.92600 42.46800
H  -4.93200 38.57700 42.03900
H  -6.63400 34.23400 38.76900
H  -4.82800 34.43700 38.88100
H  -4.99000 35.60100 36.99800
H  -5.95000 36.84700 37.78900
H  -6.30600 42.96100 38.04300
H  -5.34500 41.66600 38.67900
H  -5.55500 43.08200 39.61200
H  -9.71200 45.77500 39.99400
H  -10.60500 44.31600 40.62800
H  -10.62400 44.75100 38.94700
H  -13.70800 40.94000 40.15400
H  -14.08400 39.35000 42.61800
H  -13.74200 42.73600 41.69000
H  -12.47500 42.23700 42.66800
H  -14.07800 41.55300 43.05600
H  -15.04900 37.81600 40.48400
H  -15.12300 39.42500 39.75300
H  -16.54200 39.75800 42.24900
H  -16.71900 38.09800 41.81700
H  -17.15200 39.30800 40.58600
H  -12.54200 33.57700 43.43900
H  -13.17000 33.20100 41.77300
H  -13.68100 34.71700 42.58100
H  -8.29400 33.21300 39.86000
H  -5.65900 31.22700 43.01500
H  -5.89200 32.26700 44.38600
H  -4.94600 32.86000 43.01200

