158

Mg -1.46800 18.14100 26.80500
C  -2.07900 15.82200 29.57600
C  -1.95500 20.67000 29.00800
C  -1.55800 20.00100 24.13700
C  -1.58000 15.13300 24.72700
N  -2.02600 18.13000 29.05200
C  -1.99500 17.17500 30.00900
C  -2.07800 17.75800 31.42900
C  -1.99100 19.30200 31.15600
C  -2.03900 19.39000 29.63600
C  -3.08700 20.19200 31.73700
C  -0.97900 17.15900 32.43200
C  -0.64500 17.98800 33.71700
H  -0.75800 17.40900 35.18300
N  -1.72800 20.14500 26.65000
C  -1.90500 21.04100 27.61900
C  -1.89000 22.37300 26.98300
C  -1.87900 22.13700 25.59300
C  -1.74300 20.70400 25.37000
C  -2.00200 23.67900 27.72400
C  -1.90300 23.08500 24.45600
O  -2.09100 22.78600 23.28000
C  -1.70300 24.50300 24.76800
N  -1.63100 17.67100 24.70100
C  -1.45200 18.65800 23.82400
C  -1.52500 18.11500 22.37300
C  -1.64400 16.54100 22.56900
C  -1.57900 16.41500 24.11900
C  -2.77300 18.74900 21.64100
C  -0.56900 15.70900 21.68800
C  0.89800 15.77900 21.98500
N  -1.73700 15.98800 27.01500
C  -1.72300 14.89400 26.08800
C  -1.75100 13.68800 26.78900
C  -1.86300 14.00200 28.08700
C  -1.95500 15.37700 28.22200
C  -1.82200 12.29900 26.16300
C  -1.89600 13.35800 29.38500
O  -1.75800 12.16900 29.70700
C  -2.20700 14.50300 30.39600
C  -1.12100 14.27600 31.42500
O  0.02400 14.56000 31.27700
O  -1.56700 13.61400 32.51900
C  -0.58400 13.32000 33.64300
H  -2.15200 21.42800 29.76900
H  -1.46600 20.61700 23.24000
H  -1.71500 14.26300 24.08100
H  -3.03100 17.50100 31.89200
H  -1.02900 19.74700 31.41000
H  -2.51500 20.97000 32.24400
H  -3.70100 19.58400 32.40100
H  -3.85600 20.63800 31.10700
H  -0.05200 16.97800 31.88800
H  -1.44300 16.28400 32.88800
H  -1.42100 18.75300 33.67600
H  0.26400 18.57500 33.58800
H  -1.06900 24.24000 27.66100
H  -2.26400 23.54500 28.77300
H  -2.83700 24.25500 27.32600
H  -2.50600 25.02800 25.28500
H  -1.61000 24.89600 23.75600
H  -0.80000 24.55800 25.37600
H  -0.52800 18.30300 21.97500
H  -2.59000 16.20800 22.14000
H  -3.48700 17.96300 21.39400
H  -2.39800 19.17500 20.71000
H  -3.15400 19.51600 22.31500
H  -0.86900 16.05900 20.70000
H  -0.95500 14.69700 21.80700
H  1.14300 16.61100 22.64500
H  1.57800 15.98100 21.15800
H  1.33200 14.87100 22.40400
H  -1.06600 12.32600 25.37700
H  -2.80200 12.04900 25.75700
H  -1.39400 11.63200 26.91000
H  -3.10800 14.39600 30.99900
H  -0.97400 13.76500 34.55900
H  0.36400 13.85300 33.71000
H  -0.57300 12.26800 33.93000
Mg 30.36700 58.56800 40.24900
C  27.44900 56.67100 39.34100
C  32.18500 55.80700 39.30500
C  33.03800 60.57300 39.90100
C  28.23300 61.36600 40.32600
N  29.84000 56.56200 39.23500
C  28.63900 55.93500 39.07200
C  28.67600 54.44700 38.74900
C  30.22500 54.24200 38.86200
C  30.83000 55.64800 39.10300
C  30.54900 53.23800 40.03300
C  28.10400 54.13100 37.31500
C  28.03400 55.25600 36.24000
H  28.69600 55.03200 34.86300
N  32.38800 58.18000 39.84600
C  32.94300 56.98500 39.48600
C  34.37900 57.12100 39.51100
C  34.67600 58.50700 39.62600
C  33.31900 59.20600 39.72800
C  35.22800 55.89100 39.43900
C  36.10900 58.99700 39.86000
O  37.02600 58.27300 40.10400
C  36.38100 60.47800 40.07100
N  30.54600 60.67400 40.20700
C  31.79400 61.25700 40.14100
C  31.66600 62.75800 40.52000
C  30.18700 62.94100 40.91800
C  29.57100 61.67300 40.42400
C  32.70500 63.37800 41.50800
C  29.51300 64.17700 40.25200
C  28.81200 65.19200 41.15200
N  28.27600 58.90500 40.20600
C  27.57800 60.11700 40.23200
C  26.12200 59.80100 40.09100
C  26.03800 58.50800 39.75800
C  27.40200 57.97800 39.76600
C  25.02900 60.89900 40.16700
C  25.12200 57.42500 39.37000
O  23.89900 57.42400 39.13500
C  25.95500 56.19100 39.19400
C  25.57300 55.23200 40.16500
O  25.96000 55.14300 41.32300
O  24.68500 54.33600 39.65000
C  24.33200 53.21600 40.44600
H  32.83800 54.94200 39.17300
H  33.93900 61.18600 39.82500
H  27.56000 62.21100 40.49300
H  28.05700 54.01600 39.53500
H  30.70700 53.94200 37.93100
H  29.82100 53.00100 40.80800
H  31.31800 53.59400 40.72000
H  30.84800 52.33900 39.49500
H  27.12600 53.65200 37.35300
H  28.74200 53.33200 36.93700
H  28.63700 56.08900 36.60000
H  26.98900 55.54200 36.12200
H  36.30700 56.04600 39.46600
H  35.00400 55.32900 38.53200
H  34.96700 55.19300 40.23500
H  35.87900 60.77200 40.99300
H  35.95800 61.02400 39.22700
H  37.46100 60.60700 40.13800
H  31.92400 63.35700 39.64700
H  30.07400 62.91800 42.00200
H  32.21600 63.63100 42.44800
H  33.09600 64.32400 41.13400
H  33.59000 62.75300 41.62900
H  28.80700 63.86100 39.48400
H  30.27700 64.68300 39.66300
H  29.05500 64.97700 42.19200
H  27.75600 65.02200 40.94400
H  28.91600 66.25400 40.93000
H  24.32400 60.70600 39.35900
H  25.38900 61.92800 40.14000
H  24.42900 60.74400 41.06400
H  25.76700 55.79300 38.19800
H  24.96100 53.05700 41.32200
H  24.38100 52.32900 39.81500
H  23.27900 53.38600 40.67200

