158

Mg 44.11200 3.86800 47.55500
C  42.19900 6.70400 46.96400
C  41.50800 1.90400 47.23100
C  46.32200 1.19000 47.50600
C  46.98200 6.00400 47.34700
N  42.09800 4.31500 47.00100
C  41.47500 5.50500 46.87000
C  40.02300 5.30300 46.65300
C  39.88800 3.82800 47.14300
C  41.28100 3.29000 47.03400
C  39.18100 3.64200 48.52300
C  39.51600 5.69100 45.18600
C  38.43000 6.78700 44.94400
H  37.85200 6.77000 43.52200
N  43.93600 1.79500 47.49100
C  42.73000 1.15500 47.43600
C  42.92800 -0.28000 47.46100
C  44.34100 -0.46200 47.51600
C  44.95700 0.88400 47.46100
C  41.79900 -1.32700 47.17900
C  44.99300 -1.86300 47.55000
O  44.33200 -2.88000 47.35300
C  46.52900 -2.04400 47.53100
N  46.30400 3.69900 47.25900
C  46.88700 2.47500 47.51300
C  48.39200 2.67200 47.83300
C  48.61900 4.19200 47.41800
C  47.23500 4.66400 47.23500
C  48.79400 2.32500 49.24100
C  49.41600 4.54200 46.16200
C  50.92500 4.43500 46.19900
N  44.59300 5.95000 47.23600
C  45.71700 6.68800 47.24100
C  45.42700 8.09300 47.24900
C  44.01800 8.14900 47.18200
C  43.56000 6.77600 47.14500
C  46.40300 9.18300 47.34100
C  42.88500 8.97200 47.23800
O  42.87100 10.16600 47.60600
C  41.62900 8.09100 47.02400
C  40.68600 8.37900 48.20100
O  40.84500 7.95400 49.28600
O  39.59700 9.07800 47.76400
C  38.67400 9.44600 48.82900
H  40.57400 1.35900 47.38300
H  47.00900 0.36900 47.72200
H  47.76800 6.75400 47.46200
H  39.42500 5.99500 47.24700
H  39.19600 3.36400 46.44100
H  38.40200 2.89100 48.38700
H  38.67800 4.54100 48.87900
H  39.91900 3.36500 49.27600
H  39.03100 4.80500 44.77600
H  40.38700 5.81000 44.54100
H  38.80000 7.77600 45.21400
H  37.54900 6.70300 45.58000
H  41.73500 -1.42300 46.09600
H  40.85800 -0.97400 47.60200
H  41.96900 -2.32600 47.58000
H  46.92800 -1.87900 48.53200
H  46.90600 -1.37000 46.76200
H  46.79700 -3.08000 47.32600
H  48.94800 2.01600 47.16300
H  48.96600 4.80400 48.25000
H  48.17700 1.47500 49.53600
H  48.61100 3.19900 49.86600
H  49.80100 1.90800 49.25300
H  49.04600 5.47700 45.74200
H  49.02800 3.87800 45.39000
H  51.45800 4.25900 47.13300
H  51.33900 5.36400 45.80600
H  51.35900 3.68900 45.53300
H  46.06000 9.95600 46.65400
H  47.39200 8.85500 47.02000
H  46.45100 9.50500 48.38200
H  40.98700 8.39500 46.19800
H  39.24100 9.79200 49.69300
H  37.93200 8.70800 49.13300
H  38.12000 10.31600 48.47600
Mg -10.94300 15.62300 42.67400
C  -7.67400 16.71200 42.89300
C  -11.97300 18.77300 42.10600
C  -13.96100 14.37900 42.58500
C  -9.65500 12.28300 42.72900
N  -9.87300 17.45800 42.47100
C  -8.55400 17.70700 42.65600
C  -8.19900 19.05000 42.25900
C  -9.59700 19.83200 42.35700
C  -10.56300 18.62800 42.31100
C  -9.75300 20.62900 43.66500
C  -7.51400 19.12500 40.85500
C  -6.20000 19.99300 40.66100
H  -5.18000 19.43000 39.73300
N  -12.78700 16.49000 42.38400
C  -13.06600 17.80300 42.23100
C  -14.50500 17.98400 42.11500
C  -15.08400 16.73100 42.23100
C  -13.93500 15.79500 42.41300
C  -15.12100 19.31500 41.91600
C  -16.55600 16.33200 42.14600
O  -17.36900 17.22500 42.18100
C  -17.03900 14.93200 41.70000
N  -11.67900 13.65500 42.58400
C  -12.97500 13.44000 42.69600
C  -13.35900 12.01100 42.97000
C  -12.01000 11.33700 42.70500
C  -11.07100 12.51700 42.55800
C  -13.90500 11.79000 44.40400
C  -12.08500 10.26500 41.58300
C  -12.15500 8.76200 42.02700
N  -9.07400 14.60500 42.86400
C  -8.69800 13.29200 42.83000
C  -7.30600 13.18600 43.17100
C  -6.79400 14.48600 43.10100
C  -7.93500 15.31900 42.98200
C  -6.43200 11.90200 43.28800
C  -5.63600 15.43600 43.15900
O  -4.45200 15.18200 43.36400
C  -6.14800 16.92500 43.09800
C  -5.73400 17.49300 44.37200
O  -6.21800 17.29500 45.48700
O  -4.73700 18.44600 44.27900
C  -4.42100 19.35400 45.38800
H  -12.27000 19.79900 41.88200
H  -14.94000 13.89800 42.64100
H  -9.28700 11.25500 42.72500
H  -7.47800 19.48400 42.95200
H  -9.74200 20.43200 41.45900
H  -10.70100 20.50700 44.18800
H  -9.75400 21.67700 43.36500
H  -8.90300 20.44100 44.32000
H  -8.17100 19.56500 40.10500
H  -7.39800 18.10200 40.49700
H  -5.77600 20.11100 41.65800
H  -6.41600 21.03900 40.44500
H  -15.46000 19.40300 40.88400
H  -14.35200 20.07600 42.04900
H  -15.93400 19.47300 42.62500
H  -18.03000 15.05700 41.26300
H  -17.26100 14.17300 42.45000
H  -16.38200 14.42400 40.99300
H  -14.15100 11.54300 42.38500
H  -11.63100 10.82500 43.58900
H  -14.95100 11.48400 44.38800
H  -13.85600 12.78300 44.85200
H  -13.31300 11.08500 44.98800
H  -11.16900 10.37200 41.00200
H  -12.85500 10.62400 40.90100
H  -11.51200 8.03100 41.53600
H  -13.20200 8.49600 41.87600
H  -12.12200 8.60400 43.10500
H  -5.38400 12.16700 43.42500
H  -6.68000 11.55600 42.28400
H  -6.68200 11.20100 44.08400
H  -5.75300 17.45000 42.22800
H  -5.16100 19.30400 46.18600
H  -4.35000 20.38700 45.04700
H  -3.53900 19.01100 45.92900

