158

Mg 6.56800 55.97300 42.23400
C  5.80700 52.53500 42.38800
C  9.79700 54.98700 41.01400
C  7.21900 59.07500 41.38400
C  3.19900 56.72800 42.70900
N  7.63200 53.97400 41.73700
C  7.08100 52.71900 41.86800
C  8.11900 51.65800 41.45300
C  9.45100 52.46500 41.40600
C  8.96600 53.90700 41.34300
C  10.52800 52.12500 42.46000
C  7.78800 50.78600 40.22600
C  7.34200 51.53100 38.99800
H  6.16400 50.87800 38.25400
N  8.25900 56.88200 41.43800
C  9.45200 56.35200 41.03900
C  10.31000 57.35500 40.56600
C  9.59200 58.60100 40.67200
C  8.31400 58.25000 41.24000
C  11.74800 57.06300 40.20500
C  10.20900 59.94000 40.38700
O  11.32600 60.07100 39.91500
C  9.43500 61.21700 40.64100
N  5.35300 57.64400 42.01600
C  5.96700 58.85400 41.89600
C  4.95000 59.95800 42.27100
C  3.52000 59.22400 42.33800
C  4.08200 57.73200 42.37000
C  5.23200 60.59500 43.66400
C  2.63600 59.55300 41.09400
C  1.61100 60.65700 41.40400
N  4.81800 54.94900 42.55400
C  3.51800 55.39000 42.87200
C  2.74200 54.25800 43.24700
C  3.55700 53.16100 43.19300
C  4.84600 53.56700 42.67600
C  1.35800 54.42300 43.70100
C  3.58900 51.73900 43.37000
O  2.75500 50.94700 43.84900
C  5.05500 51.26000 42.96100
C  4.81900 50.14100 42.13600
O  4.09000 50.07600 41.18800
O  5.62100 49.09600 42.55900
C  5.81200 47.88200 41.75800
H  10.81300 54.68100 40.75800
H  7.20300 60.12400 41.08200
H  2.16000 56.97400 42.94000
H  8.05800 50.96700 42.29400
H  9.91900 52.17800 40.46400
H  10.11900 51.41300 43.17700
H  10.93000 52.99600 42.97900
H  11.44000 51.71100 42.02900
H  7.00300 50.06500 40.45200
H  8.73700 50.32700 39.94700
H  8.18800 51.79600 38.36300
H  7.08200 52.53800 39.32300
H  11.91200 56.99300 39.13000
H  12.11100 56.14000 40.65700
H  12.26800 57.88500 40.69800
H  9.01000 61.23000 41.64400
H  8.56500 61.25300 39.98500
H  10.02300 62.12100 40.47900
H  4.92400 60.81700 41.60100
H  3.10500 59.50600 43.30600
H  4.52600 61.38800 43.90900
H  6.21300 61.05200 43.54000
H  5.23500 59.82000 44.43100
H  2.01100 58.69000 40.86700
H  3.10500 59.77100 40.13500
H  0.56600 60.36900 41.28700
H  1.78300 61.40400 40.63000
H  1.52500 61.08200 42.40400
H  0.60300 54.65300 42.95000
H  1.27800 55.14500 44.51400
H  0.99700 53.51100 44.17600
H  5.68900 50.90900 43.77500
H  6.82000 47.84200 41.34500
H  5.08600 47.71200 40.96300
H  5.64200 47.00600 42.38300
Mg -0.58000 42.74800 24.81100
C  1.94800 42.16900 27.26500
C  -2.88400 42.19400 27.30000
C  -2.89800 42.75100 22.45800
C  1.95800 42.98500 22.45200
N  -0.48900 42.26900 27.00100
C  0.60400 42.13400 27.80400
C  0.24400 41.99000 29.35400
C  -1.33900 41.62200 29.16600
C  -1.63000 42.03300 27.75000
C  -1.62600 40.06800 29.38200
C  0.66400 43.20800 30.25600
C  0.03200 43.38800 31.68200
H  -0.45400 42.11100 32.38300
N  -2.66900 42.54900 24.83400
C  -3.41700 42.32900 25.95300
C  -4.87700 42.26400 25.60200
C  -4.82900 42.31100 24.22400
C  -3.45100 42.54000 23.79000
C  -6.07100 42.02600 26.57500
C  -5.93200 42.17400 23.12600
O  -5.77000 42.14900 21.93100
C  -7.31400 42.12700 23.61600
N  -0.47000 42.82700 22.69200
C  -1.58300 42.79900 21.87900
C  -1.14000 42.98200 20.38600
C  0.41000 43.29200 20.53300
C  0.68000 43.09900 21.98900
C  -1.57500 41.77700 19.58500
C  0.89700 44.66800 19.91700
C  0.74400 45.94700 20.81200
N  1.54400 42.70000 24.85100
C  2.39000 42.91700 23.82600
C  3.79000 42.72500 24.32200
C  3.61100 42.62300 25.71100
C  2.28200 42.46000 25.93400
C  5.02200 42.83300 23.46900
C  4.31600 42.42800 26.94800
O  5.49300 42.35200 27.15200
C  3.21800 42.32000 28.03500
C  3.50400 41.22400 28.92400
O  3.43500 40.02200 28.70500
O  3.98600 41.75500 30.05600
C  4.31200 40.75100 31.08400
H  -3.64700 42.18500 28.08200
H  -3.61100 42.51300 21.66600
H  2.67200 43.30300 21.68800
H  0.83700 41.20200 29.81800
H  -1.97200 42.25000 29.79300
H  -2.40200 39.91800 30.13300
H  -0.70200 39.59300 29.71000
H  -1.78800 39.60500 28.40900
H  0.69400 44.16900 29.74300
H  1.71800 43.05100 30.48300
H  -0.87500 43.94400 31.44700
H  0.66200 43.94100 32.38000
H  -5.78900 41.90500 27.62100
H  -6.64900 41.12500 26.36800
H  -6.77100 42.85700 26.49000
H  -7.36000 42.96500 24.31000
H  -7.45900 41.20000 24.17100
H  -8.04300 42.23300 22.81200
H  -1.71800 43.86200 20.10400
H  0.95800 42.51900 19.99300
H  -0.68400 41.27400 19.21000
H  -2.43400 41.91100 18.92700
H  -1.92500 41.03000 20.29700
H  0.41800 44.93500 18.97600
H  1.94800 44.63300 19.63000
H  1.74700 46.36200 20.91500
H  0.25700 45.68900 21.75200
H  0.20100 46.79200 20.38800
H  4.88500 42.00600 22.77200
H  5.99400 42.63900 23.92200
H  5.09200 43.82900 23.03200
H  3.26100 43.28400 28.54100
H  3.52200 40.02100 31.26000
H  4.49000 41.26300 32.02900
H  5.28200 40.38900 30.74300

