158

Mg 47.48000 25.02400 27.75000
C  48.25800 27.35700 30.36400
C  46.75200 22.70800 30.26300
C  47.05800 22.85400 25.36600
C  48.75600 27.35800 25.35100
N  47.47500 25.10600 30.07700
C  47.79800 26.15700 30.90900
C  47.52600 25.77500 32.41800
C  47.26200 24.23900 32.31700
C  47.14900 23.98400 30.79500
C  48.28400 23.25900 33.05900
C  46.44800 26.56500 33.10600
C  46.18200 26.14800 34.55400
H  46.32500 27.10200 35.70100
N  46.84900 23.12400 27.78900
C  46.63000 22.31500 28.89900
C  46.10200 21.05500 28.43000
C  46.13000 21.09100 26.98200
C  46.70200 22.40500 26.64400
C  45.89000 19.90200 29.33700
C  45.65700 20.03700 25.98100
O  45.51500 20.19900 24.80300
C  45.11000 18.68600 26.54900
N  47.76100 25.11600 25.58400
C  47.53200 24.04600 24.79800
C  47.88600 24.30600 23.35100
C  48.27700 25.84400 23.36600
C  48.31500 26.11000 24.85500
C  48.82600 23.29400 22.76700
C  47.19400 26.73300 22.75100
C  47.72300 27.53500 21.58600
N  48.27800 26.96400 27.78300
C  48.79900 27.74400 26.69800
C  49.24300 29.03900 27.24800
C  49.08700 28.90000 28.63000
C  48.51000 27.60700 28.97700
C  49.95200 30.12800 26.50000
C  49.35800 29.50700 29.90500
O  49.96000 30.56500 30.13600
C  48.74700 28.62000 31.05500
C  49.70600 28.55500 32.22300
O  50.91300 28.20400 32.09900
O  49.05500 28.89700 33.36400
C  49.75300 29.01700 34.59700
H  46.52200 21.99900 31.06100
H  47.07000 22.06800 24.60900
H  49.18100 28.01500 24.59000
H  48.47000 26.02100 32.90500
H  46.29500 24.05600 32.78500
H  47.80300 22.75500 33.89700
H  49.16600 23.75600 33.46200
H  48.64000 22.60700 32.26100
H  45.48200 26.50800 32.60500
H  46.73600 27.61700 33.11500
H  46.86100 25.34900 34.85100
H  45.22200 25.63800 34.63400
H  44.90200 19.44400 29.30000
H  46.09200 20.17100 30.37400
H  46.51300 19.09400 28.95500
H  45.00000 18.03200 25.68400
H  44.04800 18.82800 26.75300
H  45.75400 18.25800 27.31700
H  46.95300 24.16800 22.80400
H  49.32000 26.01700 23.10000
H  48.38100 22.71100 21.96100
H  49.15000 22.59400 23.53700
H  49.73000 23.82500 22.46800
H  46.63000 27.26800 23.51400
H  46.43200 26.19600 22.18700
H  47.00100 27.65900 20.78000
H  48.65400 27.05900 21.27800
H  48.07100 28.53800 21.83300
H  49.27900 30.98200 26.42700
H  50.21900 29.78200 25.50100
H  50.80300 30.44500 27.10300
H  47.93300 29.29300 31.32300
H  50.81600 28.82000 34.45800
H  49.40600 28.28400 35.32600
H  49.67100 30.06600 34.87900
Mg 29.75300 58.10300 40.92200
C  26.99600 56.11000 39.76400
C  31.84300 55.54800 39.66900
C  32.30600 60.27500 41.12100
C  27.43700 60.81900 41.20200
N  29.48000 56.02800 39.82600
C  28.26100 55.43200 39.56800
C  28.42300 53.97700 39.06300
C  30.00600 53.76300 39.25700
C  30.49800 55.16400 39.64000
C  30.40900 52.81200 40.38800
C  28.00300 53.84000 37.56100
C  28.33100 54.97600 36.47300
H  27.13400 55.64800 35.69800
N  31.76200 57.88500 40.55900
C  32.46300 56.82300 40.06600
C  33.87100 57.12200 39.89000
C  34.00600 58.44100 40.36200
C  32.68000 59.00300 40.69500
C  34.97100 56.21600 39.23000
C  35.33900 59.21300 40.31300
O  36.31600 58.61800 39.86700
C  35.56500 60.61800 40.91900
N  29.79800 60.24200 40.98400
C  31.03900 60.80600 41.30000
C  30.84300 62.26900 41.72400
C  29.31100 62.43300 41.75500
C  28.79800 61.08000 41.27600
C  31.45900 62.63500 43.11400
C  28.67500 63.59100 41.03000
C  28.16400 64.73400 42.02200
N  27.60400 58.43700 40.69700
C  26.86300 59.56100 40.86200
C  25.47200 59.19300 40.78600
C  25.45900 57.87100 40.29300
C  26.83000 57.45100 40.23200
C  24.26400 60.16300 41.04000
C  24.58900 56.78800 39.80500
O  23.39100 56.63100 39.69500
C  25.58900 55.67000 39.35000
C  25.08500 54.42500 39.98400
O  25.12700 54.25200 41.19400
O  24.60500 53.55500 39.04400
C  23.90900 52.31800 39.61900
H  32.51200 54.73800 39.36900
H  32.96400 61.13700 41.24900
H  26.75100 61.63500 41.43900
H  27.84600 53.25900 39.64400
H  30.43400 53.47000 38.29900
H  29.48600 52.39000 40.78600
H  30.95700 53.28100 41.20600
H  30.89900 51.94400 39.94600
H  26.92300 53.69900 37.51900
H  28.36000 52.93800 37.06500
H  29.01000 54.51500 35.75600
H  28.89900 55.72300 37.02700
H  35.57300 56.66500 38.44100
H  34.50900 55.33000 38.79300
H  35.68900 55.91900 39.99500
H  35.13000 61.37100 40.26100
H  36.61100 60.89700 41.04300
H  35.11200 60.54700 41.90800
H  31.20800 62.98100 40.98400
H  28.99200 62.38200 42.79600
H  32.07000 61.78200 43.41000
H  30.76500 62.84600 43.92800
H  32.18100 63.45100 43.09400
H  27.76100 63.23500 40.55600
H  29.33000 63.95200 40.23700
H  28.82500 65.01800 42.84100
H  27.15300 64.55100 42.38400
H  28.05500 65.59000 41.35500
H  24.42300 61.17500 41.41200
H  23.59000 59.67600 41.74500
H  23.82200 60.38100 40.06800
H  25.49600 55.52100 38.27400
H  22.84100 52.50100 39.73400
H  24.40800 51.96900 40.52300
H  23.90600 51.63400 38.77000

