158

Mg 53.52500 24.27400 43.99600
C  50.72200 26.68400 43.48300
C  51.17600 21.80800 43.20100
C  56.05000 22.29700 43.54100
C  55.52100 27.05800 44.12400
N  51.23800 24.34500 43.32400
C  50.32500 25.32900 43.27100
C  48.95000 24.71500 42.91500
C  49.04500 23.25300 43.28500
C  50.62800 23.08300 43.34500
C  48.31800 22.66500 44.51500
C  48.50400 25.18700 41.49100
C  49.23800 24.47900 40.30100
H  50.05500 25.30200 39.36200
N  53.59000 22.30800 43.52500
C  52.56400 21.48600 43.13000
C  53.13300 20.18900 42.76400
C  54.49700 20.21300 43.13900
C  54.77100 21.63500 43.42300
C  52.37000 19.01000 42.11100
C  55.39300 19.01600 43.38100
O  54.91400 17.88900 43.10500
C  56.80300 19.05200 43.89200
N  55.46900 24.57000 43.90300
C  56.35300 23.59000 43.71700
C  57.80000 24.17300 43.81400
C  57.55900 25.68400 43.85100
C  56.07200 25.76500 43.90900
C  58.66500 23.51800 44.96900
C  58.15900 26.57600 42.68000
C  58.77200 27.97900 43.11900
N  53.25700 26.41300 43.98300
C  54.21200 27.41000 44.03000
C  53.60500 28.72700 44.07600
C  52.26700 28.51300 43.88400
C  52.11500 27.07400 43.78600
C  54.37200 29.96800 44.38300
C  51.01200 29.11400 43.88800
O  50.69100 30.23700 44.22600
C  50.01700 28.12100 43.43700
C  49.68400 28.53300 42.02300
O  50.41200 28.35500 41.09700
O  48.39300 28.98400 41.86400
C  47.96300 29.51900 40.59200
H  50.46400 21.00100 43.01700
H  56.99600 21.79300 43.33500
H  56.13600 27.91900 44.39600
H  48.21300 25.12400 43.60600
H  48.67300 22.60400 42.49200
H  47.75300 23.46700 44.98900
H  48.96400 22.23300 45.28000
H  47.60600 21.87600 44.27300
H  48.57200 26.24400 41.23700
H  47.45700 24.89100 41.41900
H  48.48500 24.03100 39.65300
H  49.84500 23.61700 40.57900
H  52.68500 18.78800 41.09100
H  51.35100 19.37900 41.99000
H  52.30300 18.07000 42.65800
H  57.51100 19.13400 43.06800
H  56.98800 18.06900 44.32700
H  56.89000 19.85600 44.62300
H  58.30700 23.76900 42.93700
H  57.90000 26.19100 44.75400
H  58.26800 22.57300 45.34100
H  59.03200 24.25300 45.68500
H  59.51800 23.14900 44.39900
H  57.35800 26.70700 41.95200
H  58.94600 25.93000 42.29000
H  58.25300 28.72300 42.51400
H  59.85500 28.06800 43.03200
H  58.49000 28.13400 44.16100
H  53.61100 30.69600 44.66400
H  55.04100 30.22700 43.56200
H  55.04900 29.79400 45.21900
H  49.15700 28.15600 44.10700
H  46.89100 29.65900 40.72900
H  48.16900 28.84600 39.75900
H  48.43200 30.47500 40.35800
Mg 5.90000 56.18400 41.13100
C  3.97400 53.26800 40.77400
C  8.38200 54.67100 39.40400
C  7.17700 59.27100 40.48000
C  3.00200 57.82100 42.39100
N  6.13200 54.26900 40.00700
C  5.23700 53.22500 40.09800
C  5.78200 51.90400 39.48200
C  7.29300 52.33600 39.34200
C  7.32300 53.81300 39.66400
C  8.37200 51.49800 40.00400
C  5.15400 51.65500 38.14200
C  4.80600 50.12900 37.95500
H  5.17400 49.55000 36.57600
N  7.63700 56.86500 40.27900
C  8.59700 56.08700 39.58200
C  9.67700 56.89900 39.20000
C  9.38900 58.19000 39.67000
C  8.00200 58.16900 40.20300
C  10.98500 56.42000 38.60700
C  10.34600 59.39300 39.48300
O  11.41500 59.29900 38.86100
C  9.96800 60.76400 40.07800
N  5.16400 58.27600 41.32400
C  5.93700 59.31600 40.94400
C  5.13800 60.65100 41.23200
C  3.92200 60.18800 41.96000
C  3.96400 58.67600 41.80500
C  5.94100 61.76200 41.96300
C  2.62900 60.91800 41.53400
C  2.29200 62.19200 42.35900
N  4.05800 55.69900 41.76100
C  3.01600 56.43800 42.29900
C  1.93700 55.51100 42.76200
C  2.31100 54.27200 42.23100
C  3.49200 54.48500 41.52700
C  0.54200 55.89600 43.30600
C  1.91100 52.86600 42.12100
O  1.03600 52.14800 42.60800
C  3.00600 52.22700 41.14600
C  2.10500 51.96800 39.98000
O  1.47500 52.77100 39.29500
O  2.09700 50.63000 39.75100
C  0.96400 50.04300 39.05400
H  9.28000 54.24800 38.94800
H  7.66800 60.18000 40.12600
H  2.06600 58.26500 42.73400
H  5.51800 51.14500 40.21900
H  7.46600 52.50700 38.27900
H  9.10200 51.86900 40.72500
H  8.87800 51.04300 39.15300
H  7.91000 50.73700 40.63300
H  5.85800 51.88100 37.34100
H  4.27500 52.29600 38.06600
H  3.71600 50.15500 37.96500
H  5.25900 49.60700 38.79800
H  11.00700 56.94000 37.65000
H  10.96600 55.38600 38.26200
H  11.80200 56.67500 39.28200
H  10.74900 61.51300 40.20400
H  9.53600 60.48700 41.04000
H  9.28000 61.29300 39.41900
H  4.85000 60.89500 40.21000
H  3.93300 60.36700 43.03500
H  5.88100 62.57000 41.23400
H  6.96600 61.39400 41.91000
H  5.74700 61.97300 43.01500
H  1.80400 60.20600 41.56700
H  2.58200 61.16700 40.47400
H  2.04000 63.04800 41.73200
H  3.09300 62.45400 43.05000
H  1.38000 62.09100 42.94700
H  -0.13800 56.33600 42.57700
H  0.68900 56.58200 44.14000
H  0.05200 54.98300 43.64400
H  3.49800 51.35900 41.58600
H  0.22900 50.77300 38.71400
H  0.54900 49.21300 39.62700
H  1.33300 49.67800 38.09600

