158

Mg 41.08800 8.32600 28.92400
C  42.74100 9.81000 31.53900
C  38.87800 6.90700 31.26600
C  39.33700 7.06100 26.36200
C  43.40700 9.62600 26.76500
N  40.95900 8.34100 31.12100
C  41.69200 9.09400 31.99800
C  41.03700 9.10600 33.39500
C  39.87700 8.06800 33.25900
C  39.85800 7.82100 31.76400
C  40.02300 6.80800 34.15500
C  40.39700 10.44000 33.84600
C  39.72600 10.47700 35.17000
H  40.30200 11.40300 36.21000
N  39.44300 7.06200 28.87300
C  38.66100 6.61700 29.90200
C  37.54400 5.81400 29.35100
C  37.47400 6.09700 27.94500
C  38.80300 6.73900 27.63500
C  36.72300 4.87800 30.13700
C  36.34300 5.80300 26.88800
O  36.43700 6.06200 25.71900
C  35.03200 5.22900 27.40200
N  41.30700 8.41400 26.86600
C  40.46000 7.79400 26.01600
C  41.00400 7.92100 24.56900
C  42.10500 8.96900 24.66700
C  42.31400 9.03100 26.14600
C  41.43900 6.51100 24.04500
C  41.69100 10.39700 24.15500
C  40.50800 11.04400 24.95200
N  42.86000 9.43200 29.02700
C  43.71200 9.88800 28.10100
C  44.76200 10.60400 28.73400
C  44.42400 10.70800 30.06300
C  43.26000 9.92700 30.20700
C  45.97700 11.04400 28.05200
C  44.75500 11.28000 31.32000
O  45.69300 11.98200 31.54900
C  43.61900 10.80300 32.35800
C  44.30200 10.17400 33.59800
O  44.99500 9.21700 33.66100
O  43.75000 10.89900 34.65300
C  43.85000 10.24200 35.92500
H  38.16800 6.54800 32.01400
H  38.78100 6.70100 25.49500
H  44.17300 9.92100 26.04400
H  41.75700 8.71300 34.11300
H  38.96200 8.61900 33.47800
H  39.93400 5.95100 33.48700
H  39.26800 6.77100 34.94000
H  40.93500 6.86600 34.74900
H  39.71800 10.71300 33.03900
H  41.21700 11.15600 33.89800
H  39.56500 9.51100 35.64900
H  38.69700 10.77600 34.96900
H  37.10800 4.83400 31.15500
H  36.62100 3.91300 29.64100
H  35.71700 5.25000 30.32900
H  34.57300 5.88200 28.14400
H  35.15900 4.24600 27.85500
H  34.28300 5.13600 26.61500
H  40.18500 8.25600 23.93300
H  43.05300 8.61400 24.26300
H  40.52300 6.07200 23.65000
H  41.77700 5.86500 24.85600
H  42.12500 6.56800 23.20000
H  41.27100 10.25500 23.16000
H  42.48100 11.14700 24.17200
H  40.83100 11.20000 25.98200
H  39.64000 10.38700 24.99000
H  40.23700 12.00300 24.51000
H  45.87600 11.07300 26.96800
H  46.67600 10.22700 28.23500
H  46.32100 12.03800 28.33700
H  43.26500 11.77400 32.70200
H  43.06900 10.52900 36.62900
H  44.84400 10.29200 36.37000
H  43.55600 9.20000 35.80100
Mg 7.14300 56.76400 41.18600
C  6.59700 53.41100 40.59500
C  10.48400 56.29700 40.00900
C  7.64200 60.13300 41.16000
C  3.83200 57.28300 41.87600
N  8.46000 55.05300 40.33200
C  8.02400 53.75500 40.34200
C  9.15400 52.85400 39.86300
C  10.36900 53.67400 40.36800
C  9.76100 55.07500 40.22900
C  10.87600 53.38300 41.79800
C  8.98800 52.52000 38.37400
C  10.36100 52.24300 37.57300
H  10.49900 50.96900 36.70800
N  8.81000 58.03300 40.63900
C  10.03200 57.62600 40.19600
C  10.88200 58.80500 40.04800
C  10.11000 59.87700 40.52200
C  8.79500 59.37900 40.74600
C  12.27600 58.68000 39.46200
C  10.69800 61.27700 40.73800
O  11.86300 61.53900 40.44400
C  9.95200 62.37200 41.45300
N  5.80000 58.47600 41.10800
C  6.27800 59.71800 41.30200
C  5.09100 60.74700 41.31000
C  3.94100 59.83500 41.59600
C  4.51500 58.45800 41.54300
C  5.15000 61.99700 42.28300
C  2.74400 60.15600 40.61300
C  1.26100 59.94000 40.93600
N  5.56600 55.61300 41.30700
C  4.23600 55.92200 41.71800
C  3.59100 54.71000 42.07400
C  4.45500 53.72900 41.61000
C  5.63500 54.27800 41.09400
C  2.27900 54.53100 42.81900
C  4.58200 52.26700 41.49700
O  3.79300 51.35100 41.80700
C  5.86700 52.04400 40.65400
C  5.46700 51.43400 39.35000
O  5.55600 52.01700 38.29600
O  5.00700 50.14200 39.58200
C  4.54600 49.50000 38.35200
H  11.56000 56.12200 39.94200
H  7.72700 61.21900 41.23800
H  2.80600 57.41600 42.22700
H  9.34200 51.95100 40.44400
H  11.30000 53.51900 39.82200
H  10.31200 52.56100 42.23900
H  10.89500 54.21800 42.49800
H  11.90900 53.05000 41.69400
H  8.44200 53.28200 37.81800
H  8.37100 51.63300 38.23100
H  11.16400 52.08200 38.29100
H  10.80000 53.02600 36.95500
H  12.78900 59.36800 40.13400
H  12.32600 58.96300 38.41100
H  12.78900 57.72200 39.54500
H  9.48000 61.93800 42.33400
H  9.29300 62.88900 40.75600
H  10.70400 63.11200 41.72300
H  5.12600 61.11500 40.28500
H  3.65800 60.01700 42.63300
H  6.14100 62.07900 42.73000
H  4.41400 61.93600 43.08400
H  5.03700 62.86600 41.63500
H  2.76700 59.36800 39.86100
H  2.89400 61.18100 40.27400
H  0.83200 59.13500 40.34000
H  0.70700 60.85100 40.71000
H  1.13100 59.75300 42.00200
H  1.63500 54.11100 42.04700
H  1.84200 55.40800 43.29700
H  2.41700 53.88600 43.68700
H  6.55000 51.32600 41.10700
H  3.93500 50.19600 37.77700
H  4.01500 48.58500 38.61400
H  5.34500 49.13500 37.70700

