158

Mg 55.03200 24.32900 45.29200
C  52.55700 26.50800 44.20300
C  53.02800 21.64200 44.32100
C  57.79500 22.33600 45.21600
C  57.10800 27.20100 45.81300
N  53.02700 24.14700 44.37000
C  52.16500 25.19000 44.10500
C  50.87300 24.61700 43.61600
C  50.93600 23.13700 44.17500
C  52.43900 22.95000 44.24900
C  50.16200 22.88200 45.54400
C  50.83500 24.70600 42.06100
C  49.46100 24.96900 41.53200
H  48.88900 24.22700 40.25300
N  55.39000 22.29100 44.86400
C  54.40600 21.32600 44.51700
C  55.01900 20.04800 44.40600
C  56.34700 20.20000 44.78900
C  56.55500 21.66600 44.98200
C  54.22600 18.86900 43.91400
C  57.35200 18.93600 44.88400
O  56.96800 17.78000 44.65500
C  58.80000 19.23400 45.26800
N  57.15300 24.70700 45.40300
C  58.07200 23.69500 45.41800
C  59.51100 24.29900 45.65000
C  59.19900 25.72700 46.00100
C  57.73100 25.94500 45.68800
C  60.36000 23.51600 46.69000
C  60.22700 26.77700 45.51900
C  60.69900 27.87500 46.57600
N  54.85800 26.38400 45.24500
C  55.76100 27.41700 45.52300
C  55.12500 28.66300 45.44800
C  53.80000 28.33000 44.97900
C  53.72000 26.93400 44.78700
C  55.67000 30.02200 45.64600
C  52.53900 28.88400 44.59000
O  52.18100 30.04000 44.75300
C  51.67600 27.71200 43.97300
C  51.56900 28.05000 42.53800
O  52.47500 27.99200 41.71100
O  50.28100 28.51300 42.29400
C  50.25500 29.22400 41.00700
H  52.33000 20.81400 44.17800
H  58.67800 21.70300 45.32000
H  57.71200 28.09600 45.97200
H  50.09400 25.21700 44.08600
H  50.52600 22.42200 43.46200
H  49.54200 21.99100 45.44500
H  49.61200 23.77200 45.84700
H  50.87500 22.70200 46.35000
H  51.23200 23.79000 41.62300
H  51.61300 25.41700 41.78400
H  49.46800 26.03000 41.28400
H  48.67000 24.83600 42.27000
H  54.17100 19.03600 42.83900
H  53.27900 18.75600 44.44200
H  54.69800 17.92500 44.18700
H  59.40400 19.63800 44.45600
H  59.20400 18.25200 45.51300
H  58.76000 19.84200 46.17200
H  59.89900 24.02700 44.66800
H  59.24200 25.86600 47.08100
H  59.66900 22.86200 47.22300
H  60.98100 24.10900 47.36000
H  61.05800 22.96800 46.05700
H  59.75000 27.32700 44.70800
H  61.05600 26.26400 45.03100
H  60.75700 28.80400 46.00800
H  61.59300 27.53900 47.10200
H  60.01000 27.98800 47.41300
H  56.16400 30.00900 46.61800
H  54.74600 30.59900 45.62800
H  56.37800 30.45300 44.93800
H  50.76000 27.57500 44.54700
H  51.17500 29.80900 40.99600
H  49.39100 29.88800 41.00800
H  50.18200 28.49800 40.19700
Mg 10.01800 48.94900 26.04800
C  7.90000 49.02700 28.81500
C  12.54200 49.97000 28.04900
C  11.97800 49.02700 23.24600
C  7.23400 48.47800 24.00500
N  10.12600 49.52600 28.13800
C  9.24300 49.24200 29.16700
C  9.77900 49.51800 30.59900
C  11.27200 49.98700 30.30500
C  11.30700 49.82900 28.75900
C  11.61500 51.43000 30.81300
C  9.83400 48.25600 31.56600
C  9.17100 48.44100 32.97600
H  9.44000 47.43900 34.08000
N  11.98300 49.46400 25.68700
C  12.87700 49.87400 26.66100
C  14.24700 49.99700 26.10800
C  14.04300 49.67800 24.75200
C  12.62700 49.32900 24.49200
C  15.43000 50.34000 26.99000
C  15.10900 49.67700 23.64000
O  14.90300 49.45600 22.46500
C  16.50600 50.17200 24.00300
N  9.60700 48.90200 23.87800
C  10.61500 48.79500 22.96700
C  10.09200 48.59400 21.59800
C  8.62800 48.12200 21.90700
C  8.46500 48.50800 23.36700
C  10.25500 49.78400 20.60000
C  8.24300 46.64300 21.50300
C  8.62000 45.53600 22.58400
N  7.96900 48.72500 26.30100
C  6.98700 48.62100 25.37600
C  5.71800 48.49100 26.05700
C  5.99200 48.68600 27.39500
C  7.39600 48.87700 27.47700
C  4.32600 48.12200 25.41000
C  5.40800 48.70000 28.64300
O  4.24000 48.61700 29.08600
C  6.64200 48.75900 29.62800
C  6.65400 47.44200 30.29000
O  7.24600 46.47800 29.95100
O  6.00600 47.53900 31.50500
C  6.04200 46.39700 32.41200
H  13.37500 50.14400 28.73300
H  12.52200 49.09000 22.30100
H  6.37300 48.13000 23.43000
H  9.12900 50.21900 31.12200
H  12.14000 49.48100 30.72900
H  12.39100 51.30100 31.56700
H  10.84600 51.87700 31.44400
H  11.94400 52.09800 30.01800
H  10.87700 48.01900 31.77700
H  9.40600 47.34700 31.14200
H  8.09300 48.56300 32.87600
H  9.51200 49.41000 33.34000
H  16.19100 49.56900 26.86200
H  15.31700 50.60800 28.04100
H  15.84800 51.31100 26.72500
H  17.16800 50.27700 23.14300
H  16.98700 49.33400 24.50800
H  16.54700 51.11800 24.54200
H  10.64000 47.68200 21.36200
H  7.93000 48.78600 21.39700
H  9.21500 50.11100 20.61700
H  10.46000 49.32000 19.63500
H  11.03500 50.48900 20.88400
H  8.85400 46.37500 20.64100
H  7.19700 46.48500 21.24500
H  8.53100 45.83200 23.62900
H  9.63800 45.18000 22.42600
H  7.96400 44.70400 22.33000
H  3.45400 47.99100 26.05000
H  4.50300 47.09200 25.09800
H  4.25000 48.72100 24.50300
H  6.64000 49.61200 30.30600
H  6.04200 46.84200 33.40700
H  6.87500 45.69300 32.43100
H  5.17400 45.75100 32.28100

