158

Mg 48.67400 44.41600 42.90600
C  45.26100 44.22200 42.72200
C  48.69600 40.95200 42.42900
C  52.12100 44.43700 42.97500
C  48.59600 47.87900 42.43500
N  47.14900 42.74200 42.72700
C  45.77300 42.94400 42.61800
C  44.95600 41.62500 42.65800
C  46.14700 40.62000 42.84500
C  47.42200 41.48100 42.62200
C  46.07700 39.96400 44.25500
C  44.04800 41.41600 41.40300
C  44.26000 42.25200 40.10000
H  44.73600 41.52300 38.85000
N  50.16700 42.94500 42.84100
C  49.99100 41.54400 42.55200
C  51.35200 40.91800 42.52400
C  52.28300 41.85700 42.91400
C  51.53500 43.14000 42.97500
C  51.63600 39.43200 42.19800
C  53.74500 41.49700 43.13200
O  54.17200 40.34400 42.96500
C  54.74800 42.47800 43.63100
N  50.17500 45.96700 42.67400
C  51.50700 45.71000 42.81900
C  52.25500 47.06600 42.88500
C  51.13600 48.17800 42.86800
C  49.87400 47.28800 42.61900
C  53.23100 47.12500 44.18300
C  51.31500 49.50000 42.00100
C  51.29900 50.86400 42.72800
N  47.30000 45.84000 42.56100
C  47.32700 47.19800 42.43100
C  46.03400 47.79300 42.41400
C  45.16700 46.63900 42.49500
C  45.96500 45.44100 42.58500
C  45.68100 49.25300 42.46900
C  43.75900 46.27400 42.57300
O  42.73800 46.97400 42.62300
C  43.79600 44.63000 42.75400
C  43.08800 44.35700 43.95500
O  42.07100 43.72700 43.97700
O  43.83800 44.75000 45.03300
C  43.41400 44.09500 46.29400
H  48.73500 39.88700 42.19100
H  53.20800 44.54000 42.95000
H  48.43900 48.95900 42.44600
H  44.32700 41.63600 43.54700
H  46.02300 39.84900 42.08500
H  47.06200 40.08000 44.70800
H  45.83600 38.91500 44.08100
H  45.28000 40.44900 44.81900
H  43.02200 41.30300 41.75300
H  44.32300 40.39900 41.12300
H  44.93200 43.08100 40.32200
H  43.33700 42.74800 39.80100
H  52.31800 39.32500 41.35400
H  50.69000 38.92400 42.01000
H  52.16300 38.98100 43.03900
H  55.17300 43.14300 42.87900
H  55.63400 41.97200 44.01200
H  54.27800 42.88600 44.52600
H  52.79000 47.21200 41.94700
H  51.00400 48.36300 43.93400
H  53.18500 46.17400 44.71400
H  52.78800 47.88500 44.82700
H  54.22300 47.43700 43.85700
H  50.55800 49.51800 41.21700
H  52.26400 49.52600 41.46500
H  52.26400 51.35300 42.60000
H  51.09100 50.67800 43.78200
H  50.56200 51.47200 42.20300
H  45.60900 49.67300 41.46600
H  46.42200 49.79600 43.05600
H  44.74600 49.44900 42.99400
H  43.32500 44.12100 41.91300
H  44.03000 43.19600 46.33300
H  42.35600 43.86400 46.41400
H  43.63800 44.67000 47.19300
Mg 9.29200 48.60600 27.73100
C  7.61900 47.82200 30.70500
C  12.14600 48.96200 29.62500
C  10.93900 49.23300 24.93100
C  6.28900 48.64900 25.94000
N  9.76900 48.65900 29.97600
C  8.95400 48.22500 30.98500
C  9.60800 48.31800 32.35300
C  11.10200 48.79100 31.93000
C  11.03300 48.92400 30.43100
C  11.55400 50.05600 32.74000
C  9.59300 46.93900 33.19500
C  10.60200 46.62500 34.36200
H  10.08900 45.77800 35.58700
N  11.32100 48.82300 27.29800
C  12.34400 48.90600 28.20900
C  13.58900 48.77100 27.47100
C  13.21800 48.86200 26.02600
C  11.77200 49.02000 26.06800
C  14.94400 48.49200 28.06200
C  14.13500 48.66300 24.83100
O  13.85600 48.45800 23.66600
C  15.61700 48.62200 25.11100
N  8.65800 49.04100 25.78200
C  9.58500 49.31000 24.78100
C  8.99800 49.30000 23.31100
C  7.44000 49.37300 23.70400
C  7.40800 48.94000 25.22800
C  9.52200 50.41100 22.42300
C  6.59600 48.35000 22.74600
C  5.92200 48.96900 21.55000
N  7.33200 48.34600 28.22800
C  6.19700 48.39000 27.38400
C  4.99500 47.98400 28.19500
C  5.55200 47.71300 29.46300
C  6.96300 47.95600 29.46500
C  3.62900 47.94000 27.60000
C  5.19100 47.33700 30.84100
O  4.06200 47.05800 31.24700
C  6.50600 47.36600 31.64300
C  6.60700 46.04800 32.22400
O  7.22300 45.04700 31.84200
O  5.82000 46.11000 33.33900
C  5.73300 44.86100 34.05900
H  13.09800 48.95900 30.15900
H  11.52100 49.38200 24.01900
H  5.35600 48.68600 25.37400
H  9.10300 49.09300 32.92900
H  11.90600 48.09500 32.16600
H  11.06700 50.14900 33.71000
H  11.38900 50.99700 32.21500
H  12.58900 49.85000 33.01400
H  9.60300 46.07700 32.52900
H  8.62800 47.08800 33.68100
H  11.05200 47.54400 34.73900
H  11.41200 45.98100 34.02000
H  14.96100 48.40100 29.14800
H  15.57800 49.36600 27.91300
H  15.49400 47.72600 27.51500
H  15.97400 49.37900 25.80900
H  16.12200 48.95100 24.20300
H  15.96000 47.66700 25.50900
H  9.21200 48.33500 22.85300
H  7.02600 50.38100 23.71500
H  9.48100 49.91800 21.45100
H  10.55000 50.65400 22.69000
H  8.85600 51.27300 22.44400
H  5.81500 47.81100 23.28200
H  7.27600 47.61200 22.32100
H  6.69600 49.42900 20.93600
H  5.25300 49.78500 21.82300
H  5.33800 48.13400 21.16300
H  3.03100 47.13600 28.03000
H  3.62300 47.79300 26.52000
H  3.17600 48.91500 27.77800
H  6.48300 48.13800 32.41100
H  6.08300 44.98900 35.08400
H  6.23000 44.00600 33.60000
H  4.68100 44.57600 34.06200

