158

Mg 2.13500 -0.25400 42.89600
C  5.66100 -0.03800 42.61400
C  1.82700 2.53400 40.93200
C  -1.08100 -0.98800 42.41800
C  2.67400 -3.46000 44.23600
N  3.55700 1.09500 41.87800
C  4.98300 1.03200 41.91800
C  5.57300 2.12700 41.06500
C  4.36800 3.12300 40.89700
C  3.20100 2.20100 41.18200
C  4.39500 4.37100 41.90500
C  6.04200 1.58500 39.67200
C  7.46300 2.06200 39.23800
H  7.55500 2.52200 37.77500
N  0.54200 0.69500 41.97000
C  0.64800 1.85000 41.23400
C  -0.70900 2.20000 40.83600
C  -1.59900 1.32600 41.38900
C  -0.74500 0.25900 41.93500
C  -1.04200 3.57100 40.03200
C  -3.21900 1.46400 41.41200
O  -3.75200 2.38100 40.87200
C  -4.07500 0.39500 42.00600
N  0.96200 -2.07400 43.14200
C  -0.36700 -2.04300 43.00100
C  -0.98000 -3.32400 43.52500
C  0.11700 -4.02200 44.31700
C  1.34800 -3.18100 43.85700
C  -2.26200 -3.08400 44.42200
C  0.41800 -5.54100 43.97500
C  -0.28200 -6.57300 44.87400
N  3.77600 -1.47300 43.47200
C  3.78000 -2.73200 43.96500
C  5.21400 -3.22800 44.06700
C  5.98100 -2.13800 43.58800
C  5.04500 -1.13700 43.26200
C  5.71500 -4.58700 44.61200
C  7.28300 -1.68700 43.35400
O  8.34000 -2.31900 43.52900
C  7.14100 -0.29200 42.67900
C  7.80100 0.76500 43.54800
O  7.71500 0.82600 44.76300
O  8.59000 1.65000 42.77700
C  9.11400 2.85800 43.42400
H  1.71000 3.43000 40.31800
H  -2.14000 -1.23300 42.31600
H  2.84500 -4.39000 44.78200
H  6.33400 2.70100 41.59300
H  4.22800 3.50500 39.88600
H  5.44900 4.64200 41.95500
H  3.97200 3.96100 42.82300
H  3.83800 5.23900 41.55300
H  5.28400 1.80500 38.92000
H  5.99200 0.49800 39.73300
H  8.25800 1.34100 39.42900
H  7.75900 2.91800 39.84600
H  -0.17500 4.04600 39.57300
H  -1.44600 4.22200 40.80700
H  -1.79400 3.55100 39.24300
H  -5.13900 0.54100 41.82200
H  -3.86500 0.29200 43.07100
H  -3.91600 -0.58200 41.55100
H  -1.33600 -3.84100 42.63400
H  0.13000 -3.73000 45.36700
H  -2.29500 -2.01400 44.62600
H  -2.15400 -3.63800 45.35500
H  -3.13900 -3.42200 43.87100
H  1.46800 -5.83300 43.96900
H  0.05100 -5.72200 42.96500
H  -1.06900 -5.97600 45.33600
H  0.31900 -7.05300 45.64700
H  -0.80500 -7.29500 44.24800
H  4.98500 -5.29600 45.00200
H  6.44400 -4.42300 45.40600
H  6.26800 -5.08000 43.81200
H  7.69100 -0.33200 41.73900
H  8.61200 3.72000 42.98400
H  10.15600 2.95500 43.11800
H  9.10700 2.78200 44.51100
Mg 46.10200 24.83200 28.87500
C  46.83500 26.99100 31.48600
C  44.91000 22.62100 31.35900
C  45.71200 22.49000 26.52100
C  47.88200 26.90500 26.70800
N  45.80900 24.87000 31.11000
C  46.14800 25.85800 31.89900
C  45.72100 25.59300 33.41900
C  45.32100 24.11600 33.42900
C  45.38700 23.86300 31.86600
C  46.02400 23.06500 34.35900
C  44.68800 26.55400 33.98200
C  45.03300 27.20700 35.25000
H  45.51200 26.34800 36.45900
N  45.35100 22.80200 28.93300
C  44.88400 22.11000 30.07900
C  44.47100 20.71400 29.62800
C  44.69600 20.67400 28.23700
C  45.27500 22.02900 27.82300
C  43.99100 19.64300 30.62800
C  44.57600 19.44700 27.33700
O  44.81400 19.58800 26.15000
C  43.94500 18.21300 27.83800
N  46.80900 24.63100 26.84400
C  46.49500 23.60400 26.07300
C  46.95800 23.83800 24.69800
C  47.59500 25.28700 24.71600
C  47.41600 25.62000 26.17600
C  47.85400 22.69500 24.15300
C  46.90700 26.28900 23.72700
C  45.74900 27.17900 24.15800
N  47.15200 26.60100 28.95900
C  47.81200 27.31400 28.00700
C  48.31500 28.48600 28.62700
C  48.02100 28.42000 29.96700
C  47.24100 27.26700 30.14100
C  49.11800 29.54200 28.10400
C  48.08800 29.09100 31.17500
O  48.58700 30.20100 31.49500
C  47.25200 28.22800 32.27500
C  48.21300 27.96100 33.42800
O  48.87000 26.98600 33.58500
O  48.19600 28.96800 34.35600
C  48.64600 28.65100 35.72000
H  44.51900 22.06300 32.21300
H  45.51300 21.80200 25.69700
H  48.51900 27.49800 26.04800
H  46.64200 25.85000 33.94100
H  44.27200 24.06900 33.72300
H  45.29600 22.42300 34.85400
H  46.69100 23.52600 35.08800
H  46.69800 22.34200 33.90000
H  43.71700 26.09600 34.16700
H  44.59200 27.28900 33.18200
H  44.07700 27.60600 35.58800
H  45.69600 28.06700 35.15600
H  44.41000 18.64300 30.52000
H  42.91300 19.78100 30.71700
H  44.29700 20.01500 31.60600
H  42.96200 18.45200 28.24500
H  44.54100 17.78700 28.64500
H  43.78300 17.63000 26.93100
H  46.09000 23.87000 24.04000
H  48.66600 25.27500 24.51400
H  47.38800 22.15000 23.33200
H  47.97600 21.88100 24.86800
H  48.87100 23.02600 23.94300
H  46.47700 25.76700 22.87200
H  47.57100 27.01100 23.25200
H  45.50900 26.98100 25.20300
H  44.81000 26.84700 23.71600
H  45.86700 28.26100 24.09000
H  49.94500 29.10800 27.54200
H  49.48600 30.16900 28.91600
H  48.55500 30.13200 27.38100
H  46.41300 28.79600 32.67600
H  47.80300 28.45500 36.38300
H  49.16300 29.55800 36.03600
H  49.36900 27.83500 35.72900

