158

Mg 44.12400 3.42200 47.30000
C  41.57700 5.68700 46.48500
C  41.66500 0.83100 47.22400
C  46.62200 1.10600 47.26200
C  46.43900 5.99800 47.07300
N  41.92800 3.19500 46.65800
C  41.11900 4.32400 46.44300
C  39.67200 3.88400 46.33400
C  39.67700 2.45600 46.85000
C  41.16800 2.07200 46.91500
C  38.92200 2.17000 48.14200
C  39.13200 3.98000 44.86500
C  38.11300 5.08200 44.38500
H  38.53900 5.83100 43.16300
N  44.20200 1.26500 47.28000
C  43.03800 0.49000 47.41500
C  43.46500 -0.85900 47.67400
C  44.90400 -0.81900 47.70400
C  45.29300 0.53500 47.39900
C  42.57500 -2.08500 47.91300
C  45.78000 -1.98600 48.11900
O  45.25500 -3.05000 48.35300
C  47.25700 -2.00000 48.16500
N  46.20700 3.50300 46.97500
C  47.00800 2.40300 47.11600
C  48.53700 2.84700 47.10000
C  48.45700 4.39900 47.23600
C  46.94400 4.67200 47.09700
C  49.36600 2.08500 48.23700
C  49.42000 5.11600 46.16900
C  50.85900 5.48000 46.68500
N  44.06500 5.41000 46.89500
C  45.09800 6.34400 46.79900
C  44.54200 7.61300 46.53800
C  43.14300 7.46800 46.51900
C  42.89400 6.10400 46.65100
C  45.29400 8.91900 46.41100
C  41.83000 8.18100 46.36700
O  41.56000 9.33900 46.16600
C  40.81200 6.96900 46.33900
C  39.85800 7.13300 47.48500
O  40.00200 6.65600 48.61900
O  38.76200 7.83100 47.08000
C  37.68000 8.12700 48.05700
H  40.88600 0.07400 47.33100
H  47.38800 0.33300 47.35100
H  47.17400 6.80000 47.17000
H  39.01000 4.57100 46.86200
H  39.24900 1.68400 46.21100
H  38.58700 3.10300 48.59700
H  39.61500 1.64100 48.79600
H  38.01900 1.58800 47.95900
H  38.66600 3.02300 44.62900
H  39.88900 4.15900 44.10100
H  37.85200 5.72600 45.22500
H  37.18400 4.53200 44.23200
H  42.57700 -2.29400 48.98200
H  42.82700 -2.99300 47.36400
H  41.51900 -1.95800 47.67200
H  47.61000 -1.82000 47.14900
H  47.54800 -2.93900 48.63500
H  47.67300 -1.23000 48.81500
H  48.96200 2.51200 46.15400
H  48.62300 4.80800 48.23300
H  48.69500 1.66700 48.98800
H  50.08600 2.79700 48.64100
H  50.01400 1.32500 47.80200
H  48.82800 5.97000 45.83900
H  49.59400 4.45600 45.31800
H  51.57900 5.07900 45.97200
H  51.04900 4.98800 47.63900
H  50.98600 6.55900 46.78200
H  46.23800 8.67000 45.92700
H  45.55700 9.26100 47.41200
H  44.77000 9.63500 45.77800
H  40.35600 7.14100 45.36400
H  38.01500 8.11400 49.09400
H  36.80700 7.49900 47.88200
H  37.49800 9.19800 47.95900
Mg 35.48000 0.79500 29.29200
C  33.38500 1.95000 31.88300
C  37.96800 0.77800 31.51300
C  37.45000 0.06100 26.79900
C  32.73000 1.19400 26.98600
N  35.65900 1.42800 31.48300
C  34.59800 1.66600 32.37000
C  35.05100 1.75600 33.83400
C  36.55900 1.24900 33.69400
C  36.77500 1.16800 32.11300
C  37.66700 2.08000 34.41700
C  34.25800 0.82600 34.74800
C  33.67200 1.46800 36.00000
H  34.70300 2.30500 36.84100
N  37.45200 0.42300 29.16900
C  38.37000 0.46700 30.18700
C  39.63500 -0.10000 29.70600
C  39.54100 -0.16300 28.31800
C  38.13200 0.11100 28.05300
C  40.73400 -0.43000 30.65800
C  40.54100 -0.48700 27.25600
O  40.27200 -0.60400 26.06700
C  41.85100 -0.81200 27.82100
N  35.14700 0.70400 27.18600
C  36.19800 0.43800 26.34900
C  35.67500 0.48500 24.82900
C  34.09500 0.51900 24.97400
C  33.94800 0.79200 26.46300
C  36.35500 1.60700 24.00800
C  33.46700 -0.81000 24.50100
C  32.83000 -0.71800 23.12100
N  33.50100 1.37500 29.41500
C  32.52500 1.50400 28.41100
C  31.31500 2.03500 28.96700
C  31.59300 2.23700 30.39100
C  32.90900 1.84500 30.54300
C  30.04500 2.24500 28.22700
C  31.08800 2.67200 31.67600
O  29.99100 3.12100 31.98100
C  32.27400 2.60700 32.69000
C  32.53100 3.91900 33.08700
O  32.97400 4.85800 32.43400
O  32.18900 3.99200 34.42600
C  32.31500 5.28800 35.09700
H  38.79800 0.44100 32.13800
H  37.86000 -0.34000 25.87000
H  31.90000 1.05500 26.28900
H  35.13400 2.77900 34.20000
H  36.69200 0.22300 34.03700
H  38.29400 2.60000 33.69300
H  38.19500 1.61700 35.25100
H  37.20200 2.91200 34.94700
H  34.89400 0.02000 35.11200
H  33.46600 0.29300 34.22200
H  33.14200 0.71700 36.58600
H  32.80500 2.08000 35.75300
H  41.53500 0.29500 30.80200
H  41.04900 -1.40700 30.29200
H  40.28300 -0.72900 31.60400
H  42.11800 0.08800 28.37400
H  42.57500 -1.03900 27.03900
H  41.79400 -1.71600 28.42800
H  36.03000 -0.43000 24.35300
H  33.82900 1.39300 24.38000
H  36.96900 1.25200 23.18100
H  37.02300 2.09100 24.72100
H  35.62600 2.39000 23.79700
H  32.68800 -1.00600 25.23800
H  34.06200 -1.70600 24.67700
H  33.46900 -0.06100 22.53100
H  31.76200 -0.50200 23.08400
H  32.90400 -1.70900 22.67200
H  29.25300 2.58600 28.89300
H  29.84600 1.31400 27.69700
H  30.14100 2.99900 27.44500
H  31.94000 1.93400 33.48000
H  32.90000 6.05300 34.58700
H  32.64600 5.04100 36.10600
H  31.37100 5.78600 35.31600

