158

Mg 46.99300 15.33500 27.84000
C  45.01300 15.47100 30.68900
C  49.12900 17.61400 29.35900
C  48.93200 15.17800 25.14800
C  44.48000 13.60900 26.12000
N  47.05100 16.37600 29.81500
C  46.16200 16.22800 30.75000
C  46.61000 16.95300 32.01000
C  47.82800 17.81700 31.55400
C  48.01800 17.21100 30.19300
C  47.76800 19.35700 31.46400
C  47.00300 16.06800 33.18000
C  46.50500 16.46600 34.66300
H  47.35600 16.27800 35.93800
N  48.74900 16.36500 27.30000
C  49.49800 17.24800 28.04700
C  50.72200 17.53800 27.31600
C  50.65100 16.86200 26.10100
C  49.40800 16.11200 26.13600
C  51.70600 18.57000 27.75600
C  51.64400 16.94500 24.99400
O  51.49000 16.25700 23.97400
C  52.90200 17.62000 25.08000
N  46.66600 14.66700 25.90600
C  47.69000 14.65800 24.99800
C  47.22800 14.01400 23.72200
C  45.87200 13.34300 24.08900
C  45.62400 13.94000 25.44600
C  46.90000 15.05500 22.57400
C  45.94700 11.78200 23.99500
C  46.84200 11.03200 25.08500
N  45.17700 14.54900 28.28500
C  44.28300 13.88100 27.49300
C  43.20600 13.43900 28.37800
C  43.45500 14.11200 29.58600
C  44.63500 14.76200 29.49800
C  41.97800 12.66500 27.96500
C  42.87300 14.34400 30.87700
O  41.77700 13.86700 31.28200
C  43.84400 15.22700 31.69900
C  43.16300 16.53300 31.93900
O  42.43500 17.11900 31.15800
O  43.35200 16.94900 33.20200
C  42.89500 18.26800 33.55500
H  49.71600 18.30500 29.96800
H  49.58700 14.89000 24.32300
H  43.84000 12.91100 25.57700
H  45.92400 17.76700 32.24400
H  48.76800 17.64800 32.08000
H  46.86700 19.64000 32.00900
H  47.60800 19.62000 30.41800
H  48.66600 19.82800 31.86400
H  48.07900 15.91800 33.27000
H  46.59300 15.07000 33.02500
H  45.61200 15.85100 34.77800
H  46.13600 17.49200 34.65900
H  51.51500 18.96200 28.75500
H  51.84900 19.43800 27.11300
H  52.65200 18.06000 27.93600
H  53.56400 17.48300 25.93500
H  52.72300 18.68100 24.90500
H  53.52200 17.27700 24.25200
H  47.87900 13.21900 23.35900
H  45.08200 13.60300 23.38400
H  47.26800 15.96700 23.04600
H  45.84100 15.13000 22.32900
H  47.61100 14.69100 21.83300
H  46.32500 11.41300 23.04200
H  44.90900 11.45200 23.93900
H  47.77100 10.68000 24.63600
H  46.32500 10.08900 25.26000
H  47.04800 11.67700 25.93900
H  41.19400 13.39900 27.77900
H  41.72700 12.09300 28.85900
H  42.23400 12.02400 27.12200
H  44.14200 14.81800 32.66400
H  42.79000 18.25700 34.64000
H  41.90000 18.52000 33.18700
H  43.62100 19.00900 33.21900
Mg -1.53000 33.98200 26.76000
C  -2.82600 32.36700 29.48100
C  0.17800 36.09300 28.99100
C  -0.61000 36.09400 24.21800
C  -3.29600 32.08700 24.57600
N  -1.37900 34.19400 29.01900
C  -1.94700 33.40000 29.91200
C  -1.65800 33.81700 31.38900
C  -0.75000 35.03400 31.14900
C  -0.66400 35.19100 29.59600
C  -1.12400 36.29900 31.95500
C  -1.03900 32.59100 32.23500
C  -0.11700 32.79900 33.43400
H  -0.53400 32.12500 34.81100
N  -0.28800 35.74000 26.57500
C  0.38100 36.33300 27.63200
C  1.16800 37.35800 27.07100
C  1.02000 37.37300 25.65600
C  0.00800 36.40000 25.39300
C  2.07900 38.19600 27.83200
C  1.68400 38.26300 24.53500
O  1.38300 38.29900 23.33200
C  2.70700 39.22700 24.92100
N  -2.08400 34.24100 24.65300
C  -1.55200 35.13800 23.80900
C  -1.75600 34.74200 22.32800
C  -2.42100 33.32400 22.54000
C  -2.61900 33.18000 24.04300
C  -2.58000 35.79500 21.48600
C  -1.55400 32.11400 21.92900
C  -0.16700 31.92000 22.64100
N  -2.86800 32.58600 26.94100
C  -3.46100 31.82400 25.94100
C  -4.19600 30.79800 26.53500
C  -4.05900 30.99200 27.96600
C  -3.21100 32.07300 28.11900
C  -4.99300 29.72300 25.72100
C  -4.32800 30.50800 29.31900
O  -5.01200 29.57900 29.60700
C  -3.60400 31.36300 30.35700
C  -4.62500 31.99300 31.22500
O  -5.52300 32.75400 30.88200
O  -4.47000 31.55700 32.54900
C  -5.36200 32.11700 33.52300
H  0.75700 36.71300 29.67800
H  -0.28900 36.74600 23.40300
H  -3.67300 31.27000 23.95700
H  -2.62900 34.08900 31.80200
H  0.26700 34.77800 31.44700
H  -2.01300 36.22100 32.58000
H  -1.44200 37.02600 31.20700
H  -0.22500 36.59000 32.49900
H  -0.61900 31.83200 31.57500
H  -1.90500 32.00700 32.54600
H  0.03200 33.86800 33.58900
H  0.86600 32.43100 33.13900
H  2.10600 37.74400 28.82400
H  1.72200 39.21900 27.95300
H  3.10600 38.12100 27.47600
H  2.89600 39.99700 24.17400
H  3.65800 38.69600 24.97200
H  2.59000 39.72700 25.88200
H  -0.78200 34.71100 21.83900
H  -3.44100 33.22900 22.16900
H  -2.77800 36.69100 22.07300
H  -3.55200 35.49900 21.09100
H  -2.00500 35.91600 20.56800
H  -1.48100 32.33600 20.86400
H  -2.12200 31.18900 22.02600
H  -0.07200 32.73900 23.35400
H  0.47000 32.15900 21.78900
H  0.06200 30.89700 22.93900
H  -4.77300 28.78700 26.23600
H  -4.88600 29.81300 24.64000
H  -6.04200 29.85500 25.98400
H  -2.93700 30.78600 30.99800
H  -4.89600 32.22400 34.50300
H  -6.04900 31.28200 33.65600
H  -5.87400 33.05600 33.31200

