158

Mg 54.00700 24.70800 44.87600
C  51.51400 27.29200 44.18800
C  51.58400 22.48200 43.90300
C  56.44900 22.55400 44.61400
C  56.16900 27.39600 45.69800
N  51.90900 24.92200 43.83500
C  51.09900 26.03100 43.76700
C  49.65900 25.72700 43.40700
C  49.69600 24.13100 43.68400
C  51.10900 23.78100 43.76900
C  48.93500 23.65500 44.98000
C  49.15000 26.10500 41.91800
C  50.20900 25.99100 40.75400
H  49.66500 25.40700 39.38900
N  54.03200 22.79900 44.40400
C  52.95300 22.01800 44.04400
C  53.46100 20.67600 43.88500
C  54.82100 20.65600 44.09300
C  55.22400 22.04800 44.36000
C  52.56400 19.54800 43.46400
C  55.72100 19.46000 43.96000
O  55.23800 18.51900 43.32700
C  57.16300 19.34100 44.34200
N  56.03400 24.93500 45.18200
C  56.86900 23.81300 44.99500
C  58.33100 24.22400 45.24200
C  58.20900 25.71000 45.74900
C  56.72700 26.08600 45.42800
C  59.13100 23.21200 46.18700
C  59.23400 26.66700 44.93300
C  58.93600 26.84900 43.39900
N  53.87600 26.86300 45.09500
C  54.82600 27.80700 45.50100
C  54.21600 29.04500 45.69700
C  52.93800 28.98600 45.14700
C  52.72900 27.59400 44.81400
C  54.90700 30.23300 46.29700
C  51.72300 29.70100 44.86100
O  51.39300 30.85900 44.99400
C  50.75200 28.62000 44.22300
C  50.47200 29.08100 42.80900
O  51.31400 29.22800 41.93500
O  49.15400 29.33600 42.62100
C  48.73600 29.89000 41.38900
H  50.82000 21.72700 43.70500
H  57.31100 21.89200 44.50900
H  56.81400 28.21800 46.01400
H  49.04100 26.26500 44.12700
H  49.15500 23.71200 42.83600
H  48.48800 24.40400 45.63400
H  49.57100 23.01400 45.59200
H  48.12000 23.04200 44.59600
H  48.74500 27.11600 41.96100
H  48.26600 25.58100 41.55500
H  51.14800 25.50900 41.02600
H  50.50100 26.99400 40.44100
H  52.98500 19.29800 42.49100
H  51.53000 19.88200 43.38600
H  52.53200 18.68600 44.13000
H  57.49600 18.32300 44.54300
H  57.18200 19.82400 45.32000
H  57.86200 19.80800 43.64800
H  58.89700 24.34700 44.31900
H  58.31300 25.66100 46.83300
H  58.52600 22.33500 46.41700
H  59.49800 23.64000 47.12000
H  60.03700 22.97300 45.62900
H  60.17100 26.11600 45.00500
H  59.32800 27.63100 45.43300
H  59.65000 26.41400 42.70000
H  58.87800 27.91400 43.17400
H  57.91600 26.51300 43.21400
H  55.99000 30.16600 46.40400
H  54.52000 30.29600 47.31400
H  54.60300 31.14500 45.78400
H  49.84100 28.41300 44.78500
H  49.08600 29.28500 40.55300
H  49.15900 30.89500 41.39200
H  47.68700 30.11400 41.19700
Mg -5.33400 25.23300 25.45300
C  -3.87100 26.63500 28.25700
C  -7.07100 23.17400 27.54400
C  -6.19000 23.42100 22.70700
C  -3.27500 27.20200 23.53400
N  -5.28700 24.85300 27.65400
C  -4.71500 25.59600 28.62400
C  -5.04300 25.17600 30.02600
C  -5.95100 23.93400 29.79000
C  -6.09200 23.92600 28.22700
C  -5.54400 22.54500 30.31600
C  -5.71900 26.29500 30.88500
C  -5.30600 26.44200 32.38000
H  -4.58600 25.27500 33.05900
N  -6.68900 23.62600 25.15100
C  -7.32200 22.99000 26.12900
C  -8.28600 22.09600 25.52800
C  -7.86600 22.03600 24.14400
C  -6.93000 23.09200 23.89300
C  -9.27800 21.27800 26.34100
C  -8.37400 21.09500 23.01200
O  -8.00800 21.19100 21.85200
C  -9.47900 20.11900 23.34700
N  -4.96300 25.41800 23.40700
C  -5.26700 24.48900 22.50200
C  -4.63200 24.77300 21.19700
C  -3.78400 26.08400 21.41800
C  -4.02900 26.22200 22.89500
C  -3.82200 23.52600 20.58000
C  -4.36300 27.35700 20.68000
C  -3.46400 27.92700 19.60700
N  -3.93800 26.69300 25.73600
C  -3.16800 27.39400 24.84700
C  -2.25800 28.28400 25.55400
C  -2.54200 28.07300 26.94400
C  -3.51300 27.05200 26.96900
C  -1.24900 29.13700 24.97200
C  -2.30500 28.52100 28.31800
O  -1.59900 29.43300 28.80100
C  -2.98500 27.42900 29.19700
C  -1.83600 26.69200 29.85600
O  -0.96000 26.08100 29.26800
O  -1.81200 26.82500 31.18500
C  -0.64700 26.28400 31.95300
H  -7.64900 22.58000 28.25500
H  -6.31900 22.82200 21.80400
H  -2.58400 27.70800 22.85600
H  -4.11100 24.90200 30.52100
H  -6.98500 23.98600 30.13000
H  -6.51000 22.13400 30.61100
H  -4.80300 22.51700 31.11500
H  -5.22700 21.88500 29.50900
H  -6.77800 26.04600 30.95700
H  -5.61100 27.27900 30.42900
H  -6.26100 26.51400 32.90000
H  -4.81300 27.38400 32.61900
H  -9.05300 20.21300 26.39100
H  -10.32100 21.34400 26.03200
H  -9.35500 21.65200 27.36200
H  -9.72900 19.52400 22.46900
H  -10.28000 20.83800 23.52100
H  -9.18700 19.52300 24.21100
H  -5.51900 24.97500 20.59800
H  -2.70800 25.92700 21.35000
H  -3.65800 22.81900 21.39300
H  -2.86000 23.89800 20.22600
H  -4.38300 23.08500 19.75500
H  -4.72300 28.15200 21.33400
H  -5.26300 27.02100 20.16500
H  -2.94300 28.85600 19.83700
H  -4.12100 28.10000 18.75500
H  -2.62100 27.26100 19.42200
H  -0.39000 29.42000 25.58100
H  -1.79000 29.99900 24.58300
H  -0.77000 28.65300 24.12100
H  -3.48900 28.05500 29.93300
H  0.31100 26.70200 31.64400
H  -0.63000 25.19800 31.86200
H  -0.82800 26.50500 33.00500

