158

Mg 47.61400 25.60500 28.45000
C  48.41500 27.75300 31.14900
C  45.87700 23.51600 30.76200
C  47.22000 23.35300 26.01800
C  49.47800 27.69000 26.32200
N  47.26600 25.66600 30.72900
C  47.51200 26.75500 31.55600
C  46.84300 26.54800 32.95500
C  46.21600 25.06800 32.82400
C  46.47600 24.70000 31.34300
C  46.57500 24.05800 33.94800
C  45.90700 27.64700 33.37500
C  45.91100 28.22000 34.83500
H  46.45500 27.40600 36.02600
N  46.65100 23.72600 28.33800
C  45.98400 23.08300 29.36100
C  45.48600 21.83400 28.86800
C  45.94600 21.64000 27.51700
C  46.61800 22.94700 27.22600
C  44.67100 20.83200 29.68600
C  45.76700 20.51900 26.60000
O  46.28900 20.55600 25.50300
C  45.00800 19.27900 26.77200
N  48.19700 25.52900 26.49900
C  47.99600 24.48100 25.68800
C  48.60100 24.71300 24.27300
C  49.05400 26.17300 24.29500
C  48.99900 26.47600 25.79400
C  49.67800 23.66300 23.98400
C  48.18400 27.20800 23.52000
C  49.02300 28.11900 22.65400
N  48.78200 27.33500 28.66200
C  49.55000 28.05700 27.69700
C  50.06900 29.24300 28.29800
C  49.67700 29.09400 29.64100
C  48.87100 27.99600 29.78900
C  50.69900 30.39300 27.56500
C  49.74800 29.70000 31.01200
O  50.37300 30.76400 31.30200
C  48.89200 28.86900 31.93700
C  49.73400 28.55100 33.10100
O  50.55400 27.62500 33.18500
O  49.41400 29.31400 34.17200
C  50.39100 29.32900 35.33600
H  45.40100 22.84100 31.47700
H  47.05100 22.70300 25.15700
H  50.03300 28.39800 25.70400
H  47.59700 26.41900 33.73200
H  45.12700 25.09300 32.77900
H  47.24800 24.55800 34.64400
H  47.02500 23.17500 33.49300
H  45.72900 23.66500 34.51300
H  44.92900 27.16700 33.37600
H  45.91200 28.47500 32.66600
H  44.87800 28.45700 35.09100
H  46.60100 29.06300 34.79100
H  43.83500 20.59400 29.02900
H  44.29200 21.28400 30.60300
H  45.23200 19.92700 29.91500
H  45.21200 18.74600 27.70000
H  45.23400 18.52800 26.01500
H  43.95700 19.53100 26.63200
H  47.85400 24.58800 23.48900
H  50.12800 26.21800 24.11700
H  50.58100 24.25900 23.85000
H  49.37900 23.14300 23.07400
H  49.69700 22.93100 24.79200
H  47.64100 27.84400 24.21800
H  47.38800 26.74300 22.93900
H  50.07800 27.88700 22.79900
H  48.79200 29.17500 22.79600
H  48.79000 27.84600 21.62500
H  50.17100 30.73800 26.67600
H  51.61800 29.96200 27.16800
H  50.90500 31.17800 28.29400
H  47.98800 29.37200 32.28000
H  49.90000 28.75400 36.12100
H  50.59800 30.32000 35.74100
H  51.36700 28.89700 35.11500
Mg -5.73900 24.91100 25.37500
C  -4.07300 26.13200 28.17600
C  -7.28900 22.57400 27.40900
C  -7.14300 23.43800 22.62700
C  -3.67900 26.90800 23.32200
N  -5.42800 24.31700 27.57600
C  -4.94100 25.09700 28.49600
C  -5.64300 24.80500 29.85600
C  -6.33500 23.44700 29.59300
C  -6.33600 23.45100 28.03600
C  -5.58900 22.17600 30.10300
C  -6.49100 25.95300 30.34500
C  -6.31000 26.36400 31.83500
H  -5.70400 25.40700 32.88400
N  -7.08300 23.21500 25.10200
C  -7.65300 22.50400 26.06200
C  -8.63100 21.61000 25.46700
C  -8.64400 21.86000 24.02200
C  -7.61400 22.89500 23.82500
C  -9.42000 20.64100 26.28900
C  -9.60100 21.32800 22.97600
O  -9.60500 21.72800 21.79400
C  -10.70800 20.33100 23.41700
N  -5.47600 25.15200 23.31200
C  -6.15600 24.39700 22.40800
C  -5.81200 24.83500 20.94600
C  -4.76000 26.02300 21.08800
C  -4.66000 26.08600 22.67200
C  -5.32700 23.65100 19.96800
C  -5.11100 27.37000 20.50600
C  -4.39300 27.78000 19.21700
N  -4.12700 26.18800 25.62300
C  -3.53200 27.01800 24.74500
C  -2.66800 27.93600 25.43900
C  -2.93000 27.70800 26.78200
C  -3.73700 26.58300 26.84600
C  -1.80400 28.95900 24.80800
C  -2.57000 28.07700 28.09900
O  -1.78100 29.00700 28.46700
C  -3.34200 27.13900 29.14100
C  -2.27900 26.60800 30.15000
O  -1.17700 26.15700 29.93400
O  -2.79600 26.95200 31.34600
C  -1.94000 26.90700 32.46100
H  -7.88300 21.90800 28.03700
H  -7.57400 22.94500 21.75300
H  -3.11600 27.59300 22.68400
H  -4.91400 24.60700 30.64200
H  -7.35900 23.43700 29.96500
H  -6.19400 21.32600 30.41800
H  -4.91300 22.41500 30.92500
H  -4.85800 21.79700 29.39000
H  -7.56700 25.78300 30.30500
H  -6.28000 26.77000 29.65500
H  -7.28400 26.69900 32.19200
H  -5.71400 27.27600 31.81100
H  -9.07200 20.41100 27.29600
H  -9.50600 19.64100 25.86300
H  -10.48500 20.83600 26.41600
H  -11.28400 20.82000 24.20200
H  -10.25100 19.43800 23.84200
H  -11.25900 20.01800 22.52900
H  -6.70600 25.23500 20.46800
H  -3.82400 25.57900 20.74800
H  -5.72600 23.88800 18.98300
H  -5.52800 22.62900 20.29200
H  -4.23900 23.63900 20.04100
H  -5.07300 28.14800 21.26800
H  -6.12100 27.33500 20.09900
H  -3.34200 27.49200 19.19700
H  -4.49700 28.86200 19.12800
H  -4.96400 27.31000 18.41700
H  -2.47800 29.59300 24.23300
H  -1.06700 28.51900 24.13600
H  -1.35400 29.55500 25.60300
H  -4.06100 27.89800 29.44700
H  -1.68900 25.91300 32.83200
H  -2.33000 27.42800 33.33500
H  -0.91500 27.26900 32.37600

