158

Mg 24.31300 -8.33700 47.44000
C  26.84700 -6.31600 46.51800
C  22.39100 -7.14500 44.90300
C  22.16900 -11.11400 47.74100
C  26.62100 -10.27800 49.33600
N  24.58500 -6.91200 45.91000
C  25.67200 -6.11400 45.75800
C  25.52300 -5.07600 44.64000
C  24.08300 -5.41100 44.08400
C  23.60800 -6.55000 45.02400
C  23.15300 -4.19100 43.92800
C  26.62800 -5.27300 43.50600
C  27.12800 -3.93900 42.90700
H  26.95700 -3.61800 41.43900
N  22.42500 -8.88200 46.66800
C  21.79200 -8.17100 45.64500
C  20.47800 -8.74900 45.42900
C  20.36600 -9.93500 46.27100
C  21.69900 -9.98400 46.97800
C  19.63600 -8.29200 44.28800
C  19.15500 -10.86800 46.35200
O  18.12300 -10.51500 45.79100
C  19.10100 -11.98100 47.13600
N  24.27800 -10.46500 48.45800
C  23.31000 -11.38700 48.48700
C  23.66100 -12.70900 49.19400
C  25.13600 -12.24400 49.83200
C  25.37300 -10.87200 49.21000
C  22.67400 -13.10700 50.29200
C  26.27700 -13.29900 49.52200
C  27.30900 -13.59600 50.53000
N  26.34100 -8.40900 47.82000
C  27.09500 -9.13400 48.71600
C  28.27000 -8.44300 48.93900
C  28.27100 -7.29400 48.09400
C  27.07400 -7.35200 47.40300
C  29.44100 -8.82400 49.91200
C  28.99300 -6.13100 47.66000
O  30.12100 -5.71200 48.07100
C  28.08700 -5.40600 46.56300
C  27.74700 -4.04900 47.03900
O  27.45100 -3.71000 48.15300
O  27.92700 -3.19400 46.01400
C  27.65000 -1.74900 46.24600
H  21.79300 -6.74300 44.08300
H  21.50200 -11.97800 47.78500
H  27.39400 -10.65200 50.01000
H  25.61400 -4.10100 45.11900
H  24.19400 -5.86500 43.09900
H  22.34100 -4.44000 43.24500
H  23.84200 -3.48300 43.46800
H  22.78000 -3.77900 44.86600
H  26.29000 -5.89100 42.67500
H  27.45600 -5.89300 43.85100
H  28.21000 -4.00400 43.02800
H  26.71600 -3.10300 43.47200
H  18.59100 -8.58200 44.17300
H  20.16100 -8.62600 43.39300
H  19.82800 -7.23000 44.44400
H  19.83700 -12.69800 46.77200
H  18.10600 -12.41500 47.23600
H  19.37400 -11.65700 48.14000
H  23.80500 -13.56700 48.53700
H  24.98300 -12.03400 50.89000
H  22.64200 -14.17400 50.07200
H  21.70800 -12.60400 50.23600
H  23.09400 -13.06000 51.29600
H  26.84100 -13.09900 48.61100
H  25.80300 -14.27300 49.40400
H  27.23800 -14.66900 50.70900
H  27.11100 -13.00200 51.42300
H  28.31100 -13.44100 50.13100
H  29.90200 -9.74800 49.56400
H  29.04400 -9.05800 50.90000
H  30.10500 -7.96400 50.00400
H  28.76900 -5.22400 45.73200
H  26.71500 -1.63400 46.79300
H  27.58800 -1.19900 45.30700
H  28.51400 -1.45500 46.84300
Mg 46.66400 34.70900 28.33300
C  45.16000 33.01000 30.94800
C  47.45000 37.12200 30.48400
C  47.56600 36.53600 25.65700
C  45.29200 32.34200 26.03600
N  46.30000 34.93700 30.49700
C  45.78500 34.15500 31.38600
C  46.02800 34.60100 32.88400
C  46.48300 35.97900 32.56500
C  46.84300 35.97900 31.09700
C  45.38800 37.15800 32.93800
C  47.00300 33.72300 33.62400
C  47.02300 33.65500 35.13300
H  46.38500 34.83400 35.82900
N  47.50300 36.51900 28.14900
C  47.70300 37.41400 29.14800
C  48.29600 38.53600 28.54100
C  48.41000 38.38400 27.11800
C  47.85800 37.04600 26.94500
C  49.06000 39.45100 29.54800
C  49.15500 39.13100 26.07000
O  49.33200 38.73000 24.91400
C  49.61300 40.57600 26.42000
N  46.53300 34.39900 26.13400
C  46.85600 35.42400 25.28100
C  46.33200 35.16500 23.85800
C  45.62600 33.75200 23.96500
C  45.93600 33.37300 25.47000
C  45.64300 36.41900 23.23700
C  45.96700 32.53100 23.00100
C  44.79400 31.68400 22.47200
N  45.48100 32.99600 28.42200
C  45.10400 32.09900 27.40900
C  44.43600 30.97300 28.04300
C  44.37300 31.35300 29.37800
C  45.08000 32.56100 29.59500
C  43.72100 29.74900 27.31700
C  43.76500 31.02300 30.68500
O  43.08900 30.07600 31.00300
C  44.11900 32.20600 31.61300
C  44.27700 31.83800 33.10400
O  45.06000 31.04200 33.61200
O  43.32100 32.52900 33.80900
C  43.09900 32.00900 35.19100
H  47.79300 37.82200 31.24800
H  47.61900 37.33100 24.91000
H  44.59600 31.70900 25.48100
H  45.09400 34.63100 33.44400
H  47.40700 36.21500 33.09200
H  45.30900 37.79400 32.05600
H  45.79300 37.62300 33.83700
H  44.40400 36.73200 33.13400
H  48.01200 34.08900 33.43300
H  46.97100 32.71800 33.20500
H  48.02100 33.51200 35.54600
H  46.24700 32.91100 35.31400
H  49.31100 40.29600 28.90700
H  49.93300 38.85100 29.80400
H  48.51700 39.64300 30.47300
H  48.83900 41.16800 26.90700
H  49.92300 41.03100 25.48000
H  50.50400 40.46500 27.04000
H  47.23200 35.04500 23.25500
H  44.55000 33.90900 23.89300
H  45.54000 37.18500 24.00600
H  44.63700 36.19400 22.88300
H  46.29400 36.78800 22.44500
H  46.79100 31.91900 23.36700
H  46.46800 33.07900 22.20300
H  44.55000 31.86600 21.42500
H  43.85800 31.83800 23.01000
H  45.06400 30.65200 22.69300
H  44.33100 29.06100 26.73300
H  42.98100 30.16600 26.63400
H  43.30500 29.13100 28.11300
H  43.13900 32.68300 31.58200
H  42.78000 30.96700 35.14100
H  42.39700 32.72000 35.62500
H  43.99300 32.01300 35.81400

