158

Mg 47.32900 16.53100 28.28600
C  45.47300 15.44700 31.01000
C  48.92900 18.71300 30.36500
C  49.01500 17.59800 25.52800
C  45.24800 14.58600 26.22600
N  47.39600 16.84500 30.47100
C  46.57400 16.27600 31.35900
C  46.98300 16.64400 32.81300
C  47.85300 17.89900 32.54300
C  48.12100 17.80700 31.04300
C  47.35400 19.32500 33.17600
C  47.53200 15.40400 33.63800
C  47.21500 15.28800 35.09700
H  48.29600 15.08600 36.15100
N  48.77000 17.92900 28.03100
C  49.25200 18.80900 29.02900
C  50.07900 19.81200 28.38100
C  50.13900 19.48800 26.99800
C  49.32200 18.26500 26.77600
C  50.73700 20.88100 29.23200
C  50.83000 20.22500 25.86600
O  50.59200 19.94600 24.72300
C  51.88400 21.26200 26.11400
N  47.12300 16.21200 26.15400
C  48.14700 16.58600 25.25600
C  48.08400 15.63300 23.98300
C  46.81700 14.72800 24.22100
C  46.38700 15.17600 25.63400
C  48.10300 16.24700 22.60200
C  47.10600 13.16000 24.09700
C  46.27900 12.36700 23.18600
N  45.62900 15.33500 28.52500
C  44.90500 14.61300 27.60200
C  43.81500 13.95400 28.28300
C  43.95400 14.27000 29.61000
C  45.10300 15.06800 29.72100
C  42.86300 13.14900 27.59900
C  43.46200 14.16100 31.01300
O  42.43800 13.54100 31.38600
C  44.44800 14.88100 31.89300
C  43.66500 15.96900 32.59700
O  43.26000 17.02100 32.19000
O  43.41100 15.49500 33.87000
C  42.86300 16.44200 34.81900
H  49.45300 19.43800 30.99000
H  49.53000 17.83400 24.59500
H  44.74000 13.88300 25.56200
H  46.08500 16.96500 33.34000
H  48.75000 17.63700 33.10300
H  46.67000 19.00600 33.96200
H  46.90200 19.87600 32.35100
H  48.29700 19.81400 33.42000
H  48.62100 15.43200 33.66700
H  47.20800 14.45400 33.21200
H  46.56000 14.42800 35.23700
H  46.57200 16.14100 35.31200
H  51.53400 20.44100 29.83300
H  49.92500 21.27300 29.84400
H  51.10100 21.67200 28.57700
H  52.52900 21.50800 25.27100
H  52.54000 20.83800 26.87400
H  51.46100 22.21100 26.44500
H  48.97700 15.02800 24.13300
H  46.02200 14.87200 23.48900
H  48.83900 15.74700 21.97100
H  48.53500 17.24700 22.56900
H  47.18000 16.08200 22.04600
H  47.18700 12.68500 25.07500
H  48.13500 13.12800 23.73900
H  46.76300 12.12800 22.23900
H  45.34000 12.84500 22.90400
H  45.99000 11.38700 23.56400
H  42.50400 12.34400 28.24000
H  43.46700 12.76800 26.77600
H  41.96400 13.69500 27.31400
H  44.65300 14.13700 32.66300
H  41.90200 16.76400 34.41900
H  43.48400 17.31700 35.01500
H  42.57200 15.89900 35.71800
Mg -0.69100 44.01900 24.87500
C  1.75000 43.24900 27.28600
C  -3.14800 43.25100 27.26800
C  -2.94700 44.55600 22.53200
C  1.80500 44.43300 22.59000
N  -0.66600 43.22300 26.94400
C  0.44000 43.05200 27.74900
C  0.01900 42.93900 29.17600
C  -1.51700 42.65400 29.12200
C  -1.82500 42.99400 27.67000
C  -1.92400 41.23600 29.49100
C  0.30900 44.32500 29.92500
C  1.03100 44.12600 31.32400
H  0.69600 42.81500 32.07100
N  -2.78200 43.96100 24.93200
C  -3.61600 43.62400 25.99400
C  -5.00100 43.79400 25.51500
C  -4.96400 44.20800 24.18400
C  -3.51600 44.26700 23.81100
C  -6.15600 43.51600 26.44700
C  -6.10500 44.50700 23.15000
O  -5.92200 44.86100 21.96100
C  -7.49800 44.44800 23.66400
N  -0.55200 44.40700 22.79800
C  -1.58200 44.52700 22.02200
C  -1.30400 44.76000 20.53000
C  0.28000 44.87900 20.63100
C  0.56700 44.55600 22.08600
C  -1.84600 43.46700 19.71000
C  0.81000 46.26000 20.18600
C  1.14500 47.30700 21.33300
N  1.29000 43.81000 24.88400
C  2.15500 44.00600 23.85800
C  3.54200 43.87500 24.38000
C  3.44300 43.64300 25.72300
C  2.05400 43.57500 25.95200
C  4.83500 44.04800 23.57600
C  4.15600 43.42100 26.93100
O  5.37700 43.29600 27.09400
C  3.05800 43.27400 27.99000
C  3.35000 42.03400 28.75500
O  2.95600 40.93600 28.39900
O  4.30800 42.25000 29.70400
C  4.67200 41.17800 30.65000
H  -3.85900 43.04600 28.07000
H  -3.66000 44.60000 21.70600
H  2.66500 44.54400 21.92600
H  0.48700 42.10600 29.70100
H  -2.06900 43.25600 29.84300
H  -2.59800 40.93900 28.68800
H  -2.34700 41.11900 30.48800
H  -1.11200 40.51500 29.38900
H  -0.61900 44.87900 30.06700
H  0.91500 45.00500 29.32500
H  0.74100 44.91200 32.02200
H  2.10900 44.15100 31.16500
H  -6.78500 42.86000 25.84600
H  -6.64500 44.47600 26.61800
H  -5.93100 43.09400 27.42700
H  -8.23700 44.94500 23.03500
H  -7.55400 44.93000 24.64000
H  -7.76400 43.39600 23.76500
H  -1.77700 45.67300 20.16700
H  0.78700 44.14600 20.00400
H  -1.91900 42.57700 20.33500
H  -1.12700 43.20300 18.93500
H  -2.75600 43.71000 19.16000
H  0.18800 46.77800 19.45500
H  1.76600 46.09200 19.69000
H  1.26600 48.33400 20.98800
H  2.08900 46.86500 21.65300
H  0.43600 47.31700 22.16100
H  4.69600 43.36900 22.73500
H  5.75700 43.71600 24.05300
H  4.85200 45.05900 23.16800
H  3.13200 44.14400 28.64300
H  5.23700 40.39400 30.14500
H  3.77500 40.79900 31.13900
H  5.33900 41.60900 31.39700

