158

Mg 39.89400 8.99800 29.16100
C  41.88900 10.30000 31.84000
C  37.88800 7.57900 31.52100
C  38.47800 7.44100 26.62800
C  42.56700 9.96700 26.96800
N  39.93400 9.00900 31.41800
C  40.73900 9.64500 32.30000
C  40.24400 9.47400 33.74100
C  39.02800 8.52400 33.62700
C  38.97400 8.27000 32.08700
C  38.87800 7.21000 34.42900
C  39.87800 10.86000 34.34600
C  38.74200 11.01200 35.39800
H  39.14300 11.79600 36.60700
N  38.34000 7.79900 29.02400
C  37.57100 7.43800 30.11100
C  36.48300 6.62000 29.61100
C  36.53400 6.69000 28.17200
C  37.86900 7.22500 27.87200
C  35.49100 5.85700 30.47300
C  35.56500 6.11000 27.15300
O  35.93200 5.98700 26.01900
C  34.17000 5.63100 27.46400
N  40.44200 8.67900 27.17700
C  39.63900 8.06000 26.26900
C  40.05300 8.27900 24.80500
C  41.39400 9.10500 24.89600
C  41.54200 9.25300 26.42900
C  40.20900 6.96100 24.03200
C  41.27000 10.50100 24.13000
C  40.09300 11.42500 24.50200
N  41.84800 9.97800 29.31900
C  42.82700 10.22500 28.36300
C  43.95500 10.97700 28.94900
C  43.61300 11.00600 30.31500
C  42.36300 10.41100 30.47100
C  45.22000 11.43400 28.31200
C  44.00000 11.47500 31.66400
O  44.93300 12.14800 32.07400
C  42.95700 11.04400 32.59600
C  43.50400 10.25800 33.70100
O  43.55600 9.03300 33.79500
O  43.64800 11.07400 34.81100
C  43.99100 10.56400 36.17100
H  37.10300 7.21900 32.19000
H  37.83800 7.13500 25.79800
H  43.33500 10.39000 26.31700
H  41.05600 9.01000 34.30100
H  38.13800 9.12100 33.82200
H  39.39900 6.42300 33.88300
H  37.82200 7.00300 34.60000
H  39.39000 7.29900 35.38700
H  39.96000 11.58700 33.53700
H  40.77400 11.00100 34.95000
H  38.39800 10.07100 35.82800
H  37.91000 11.50400 34.89300
H  35.58500 4.90100 29.95800
H  34.47700 6.24900 30.39000
H  35.68000 5.68200 31.53200
H  33.80900 6.45700 28.07700
H  34.26800 4.62800 27.87900
H  33.59800 5.57800 26.53700
H  39.23500 8.84000 24.35300
H  42.31600 8.70300 24.47500
H  39.61300 7.02100 23.12200
H  39.84500 6.17000 24.68800
H  41.22000 6.66600 23.75100
H  41.15000 10.35200 23.05700
H  42.15000 11.08700 24.39600
H  40.37700 12.44400 24.76600
H  39.69100 11.20500 25.49100
H  39.33100 11.34600 23.72700
H  45.25400 11.32000 27.22800
H  46.09200 11.02900 28.82600
H  45.23900 12.49400 28.56400
H  42.43000 11.91600 32.98200
H  43.06600 10.60000 36.74500
H  44.73000 11.16200 36.70500
H  44.23600 9.50300 36.12100
Mg 0.16900 44.05300 25.80700
C  2.51500 43.78900 28.38700
C  -2.30100 43.23400 27.89000
C  -1.74600 44.08000 23.10400
C  2.93600 44.31000 23.50600
N  0.15700 43.51400 27.90900
C  1.15800 43.61700 28.73900
C  0.66300 43.56800 30.19100
C  -0.85900 43.04700 30.03900
C  -1.04200 43.29400 28.52100
C  -1.05000 41.55300 30.56500
C  0.79000 44.94200 30.87900
C  0.49400 44.96600 32.40700
H  0.52800 43.61600 33.15600
N  -1.74800 43.69800 25.50300
C  -2.67500 43.37000 26.49700
C  -3.96000 43.07200 25.87900
C  -3.82600 43.38400 24.50000
C  -2.41300 43.76000 24.29400
C  -5.12900 42.58500 26.72800
C  -4.89300 43.33300 23.45400
O  -4.61900 43.67000 22.27900
C  -6.26100 42.89800 23.76400
N  0.56900 44.37400 23.61400
C  -0.46900 44.34900 22.73700
C  0.01500 44.91600 21.33200
C  1.48900 45.23400 21.60600
C  1.75500 44.63700 22.99600
C  -0.15600 43.93900 20.24600
C  1.96400 46.71300 21.53900
C  1.08400 47.63300 22.42200
N  2.27300 44.06400 25.88000
C  3.25200 44.16100 24.86500
C  4.58500 44.22400 25.49600
C  4.34800 44.11900 26.84100
C  2.95600 44.01000 27.06600
C  5.94400 44.33500 24.78200
C  4.94600 43.99900 28.10200
O  6.10700 43.94700 28.43300
C  3.82400 43.89300 29.16900
C  4.10900 42.77600 30.02300
O  4.22900 41.67100 29.63700
O  4.18900 43.10900 31.35900
C  4.45700 42.12700 32.34100
H  -3.13800 43.22100 28.59100
H  -2.31700 43.96900 22.18000
H  3.75900 44.50600 22.81600
H  1.29700 42.82700 30.67800
H  -1.51000 43.67100 30.65200
H  -1.36300 40.89600 29.75400
H  -1.84700 41.55900 31.30900
H  -0.10900 41.25400 31.02700
H  0.12200 45.58400 30.30500
H  1.79400 45.34900 30.75900
H  -0.43700 45.50600 32.57400
H  1.23400 45.50600 32.99700
H  -5.89400 43.35900 26.78900
H  -4.82600 42.36700 27.75200
H  -5.53800 41.65700 26.32900
H  -6.44800 41.89400 24.14500
H  -6.84300 42.94300 22.84300
H  -6.67300 43.49900 24.57600
H  -0.45700 45.86200 21.06800
H  2.18000 44.76700 20.90300
H  -1.22700 43.82700 20.07600
H  0.26400 42.96100 20.47800
H  0.23300 44.32600 19.30400
H  1.76100 46.99500 20.50600
H  3.01900 46.65500 21.80900
H  0.42200 47.02600 23.04000
H  0.51400 48.43400 21.95100
H  1.68200 48.30000 23.04300
H  5.89100 44.64200 23.73700
H  6.36900 43.34600 24.94900
H  6.57000 45.07200 25.28500
H  3.89700 44.78100 29.79800
H  4.09900 42.41700 33.32900
H  5.48900 41.78600 32.42400
H  3.75700 41.31400 32.14700

