158

Mg 53.93000 22.43200 44.52200
C  51.51900 24.83500 43.49400
C  51.76600 19.98400 43.48400
C  56.46400 20.24000 44.76400
C  56.06300 24.97500 45.28400
N  51.91100 22.50300 43.56700
C  51.09300 23.56900 43.13200
C  49.88800 23.03600 42.38000
C  49.89200 21.55100 42.63700
C  51.23600 21.33600 43.39200
C  48.67200 21.00800 43.47600
C  49.89300 23.36100 40.87400
C  48.50000 23.45400 40.17000
H  48.15800 22.73400 38.81000
N  54.09900 20.37400 44.12600
C  53.08500 19.52200 43.75200
C  53.56800 18.16300 43.65500
C  54.92700 18.18200 44.16200
C  55.21000 19.66500 44.39000
C  52.77000 16.97200 43.20600
C  55.86900 16.90400 44.29900
O  55.50600 15.77600 44.01100
C  57.32600 17.09600 44.67200
N  56.01900 22.58900 44.69400
C  56.84900 21.55100 44.90700
C  58.27200 21.94700 45.20100
C  58.06000 23.38100 45.59800
C  56.60200 23.71500 45.13800
C  58.95800 21.13400 46.34000
C  59.13500 24.51800 45.09500
C  60.10600 25.01700 46.22900
N  53.79200 24.51200 44.51200
C  54.76300 25.42300 44.92300
C  54.11300 26.74400 45.00400
C  52.88300 26.54500 44.37600
C  52.73800 25.17300 44.14800
C  54.77300 28.00300 45.56600
C  51.65100 27.22700 43.97700
O  51.26500 28.36500 44.13500
C  50.70400 26.10400 43.37400
C  50.48800 26.51600 41.90400
O  51.44100 26.55900 41.11300
O  49.22200 26.90100 41.65800
C  48.93900 27.37600 40.30000
H  51.05300 19.15800 43.45200
H  57.21900 19.55800 45.15900
H  56.69600 25.72700 45.76200
H  49.02900 23.43600 42.91800
H  49.83900 21.06600 41.66200
H  48.93900 20.50400 44.40500
H  48.13800 20.31900 42.82100
H  47.93300 21.77800 43.69800
H  50.40100 22.60600 40.27300
H  50.43500 24.29400 40.71800
H  48.20900 24.48200 39.95100
H  47.75900 23.10100 40.88600
H  53.37900 16.51400 42.42600
H  51.78200 17.16800 42.78900
H  52.63100 16.40900 44.12900
H  57.67100 17.74600 43.86800
H  57.80500 16.11700 44.68200
H  57.48800 17.52300 45.66200
H  58.88900 21.90000 44.30400
H  57.92400 23.50500 46.67300
H  59.62400 20.35700 45.96500
H  58.09700 20.67000 46.82100
H  59.49900 21.72500 47.07900
H  58.65100 25.25700 44.45500
H  59.73800 23.98800 44.35800
H  61.05700 24.63400 45.85700
H  59.90600 24.46200 47.14500
H  59.97600 26.08900 46.37500
H  55.85500 27.98300 45.44200
H  54.48400 28.19900 46.59900
H  54.41500 28.79300 44.90600
H  49.73600 26.08900 43.87500
H  48.79500 28.45600 40.33400
H  47.99400 26.96400 39.94600
H  49.68000 27.21200 39.51800
Mg 8.45600 47.71400 28.55300
C  6.97400 47.19000 31.55500
C  11.49000 48.28200 30.25700
C  9.92800 48.67200 25.65600
C  5.42700 47.98100 27.14900
N  9.11100 47.94200 30.69500
C  8.32000 47.61400 31.73300
C  9.07500 47.89900 33.04300
C  10.41600 48.57200 32.62400
C  10.36900 48.26300 31.13200
C  10.48200 50.09000 32.80100
C  9.17700 46.76000 34.02500
C  8.74700 46.89900 35.50100
H  8.86000 45.66400 36.44400
N  10.42500 48.12700 28.00600
C  11.59100 48.20200 28.78700
C  12.73600 48.35800 27.93900
C  12.32400 48.52300 26.60800
C  10.78300 48.46400 26.72700
C  14.15600 48.26100 28.44300
C  13.09300 48.54200 25.26900
O  12.50000 48.42100 24.18300
C  14.57000 48.58700 25.25800
N  7.73100 48.47800 26.73200
C  8.48900 48.69800 25.58700
C  7.61600 48.79600 24.28100
C  6.21800 48.76500 24.91200
C  6.43400 48.36300 26.35400
C  7.95100 50.03700 23.38300
C  5.19100 47.90800 24.18400
C  3.69000 48.43300 24.32500
N  6.63400 47.58400 29.14200
C  5.40900 47.67400 28.49800
C  4.30900 47.29900 29.28500
C  4.86500 47.10500 30.50900
C  6.25900 47.23900 30.34400
C  2.80800 47.15000 28.84700
C  4.55300 46.79200 31.90500
O  3.49200 46.48000 32.42400
C  5.95300 46.81600 32.64700
C  6.12400 45.46800 33.23400
O  6.69300 44.52500 32.71400
O  5.42800 45.51100 34.41900
C  5.46600 44.33500 35.25900
H  12.42000 48.49900 30.78800
H  10.37800 48.96200 24.70400
H  4.41900 47.91800 26.73400
H  8.40400 48.57700 33.57100
H  11.25600 48.06000 33.09300
H  10.38000 50.50000 31.79700
H  11.43600 50.50000 33.13400
H  9.64600 50.51900 33.35300
H  10.23700 46.52900 34.13100
H  8.72800 45.85000 33.62600
H  7.74600 47.31700 35.61200
H  9.42000 47.65700 35.90200
H  14.52400 47.31300 28.05100
H  14.07200 48.14500 29.52400
H  14.82200 49.10700 28.27400
H  14.85900 47.56700 25.51200
H  14.88900 49.37300 25.94300
H  15.02300 48.73100 24.27800
H  7.98200 47.93100 23.72700
H  5.78600 49.76500 24.90200
H  8.65000 50.68200 23.91400
H  7.01100 50.49500 23.07500
H  8.33000 49.56200 22.47800
H  5.21100 46.94000 24.68600
H  5.34200 47.65000 23.13600
H  3.35000 48.61200 23.30500
H  3.50500 49.28400 24.98000
H  3.02100 47.72700 24.81800
H  2.41300 48.14500 28.63900
H  2.18000 46.68200 29.60400
H  2.77800 46.68800 27.86000
H  5.86900 47.49800 33.49300
H  5.91300 43.42300 34.86600
H  4.49200 43.97500 35.59300
H  5.92300 44.57700 36.21900

