158

Mg 0.02500 7.71800 24.64100
C  1.09500 9.55700 27.43500
C  0.00300 4.95400 26.58300
C  -0.77800 5.95100 21.89900
C  0.62500 10.62800 22.62600
N  0.51400 7.31200 26.87200
C  0.86200 8.22100 27.76400
C  0.99600 7.55000 29.12200
C  0.68100 6.01500 28.81900
C  0.40500 6.05100 27.33500
C  1.68700 4.94300 29.31700
C  0.05400 8.02500 30.27400
C  0.65400 8.35000 31.63800
H  1.90600 7.50600 32.06700
N  -0.32700 5.69800 24.29000
C  -0.27400 4.73000 25.21900
C  -0.58200 3.44000 24.58100
C  -0.78300 3.70400 23.19500
C  -0.67800 5.16300 23.08100
C  -0.46700 2.08000 25.30800
C  -1.03100 2.69700 22.09200
O  -1.21500 2.96800 20.88000
C  -0.90100 1.28800 22.34100
N  -0.02100 8.26800 22.62000
C  -0.40600 7.33900 21.70300
C  -0.57400 8.04300 20.30900
C  0.03900 9.42500 20.56900
C  0.24000 9.43900 22.02900
C  -0.00100 7.22300 19.09900
C  -0.94400 10.60800 20.02000
C  -2.10400 11.11200 20.91700
N  0.69100 9.70200 24.91000
C  0.87400 10.80500 24.06900
C  1.24100 11.96700 24.76800
C  1.31500 11.55800 26.13300
C  1.02500 10.16500 26.11800
C  1.49200 13.30000 24.22100
C  1.62700 12.00400 27.47000
O  1.90100 13.16800 27.79200
C  1.48500 10.69000 28.39700
C  2.71600 10.50500 29.18000
O  3.58000 9.72700 28.83300
O  2.71600 11.20900 30.32100
C  4.03500 11.04700 31.02900
H  -0.19600 4.11500 27.25300
H  -0.97900 5.41800 20.96700
H  0.72400 11.55300 22.05400
H  2.05900 7.54800 29.35900
H  -0.29400 5.76300 29.23600
H  2.20900 4.47400 28.48300
H  1.26800 4.05900 29.79900
H  2.50100 5.33200 29.92800
H  -0.83600 7.40100 30.35100
H  -0.27500 8.99600 29.90500
H  -0.02800 8.06200 32.43700
H  0.88100 9.39700 31.84000
H  -0.15300 2.11000 26.35200
H  0.21100 1.43400 24.75200
H  -1.42700 1.56200 25.29700
H  -1.01400 0.70300 21.42800
H  -1.63500 0.89700 23.04600
H  0.09400 0.94600 22.62600
H  -1.65800 8.07100 20.19600
H  1.03500 9.55900 20.14600
H  0.25400 6.22400 19.45200
H  0.81400 7.81000 18.67600
H  -0.64800 7.08600 18.23300
H  -1.40900 10.18400 19.13100
H  -0.30600 11.43500 19.70800
H  -1.77700 12.08700 21.27700
H  -2.35700 10.50800 21.78700
H  -2.99600 11.25900 20.30900
H  1.35000 13.22400 23.14300
H  2.43400 13.75400 24.52900
H  0.72200 13.93300 24.66100
H  0.68800 10.92600 29.10200
H  4.86600 11.57700 30.56400
H  4.35300 10.00700 31.10800
H  3.95700 11.36800 32.06700
Mg 44.61200 3.59100 48.12600
C  42.51600 6.44600 47.66500
C  41.90500 1.57100 47.86200
C  46.66300 0.92600 47.46100
C  47.35200 5.75500 48.01100
N  42.44000 4.01200 47.55100
C  41.80900 5.24500 47.57200
C  40.24100 5.04600 47.29200
C  40.07600 3.48800 47.70100
C  41.62700 2.96500 47.74800
C  39.30900 3.28000 49.03900
C  39.86400 5.41000 45.78600
C  38.57600 6.08900 45.63800
H  38.02200 5.96700 44.26600
N  44.28500 1.52800 47.81800
C  43.12300 0.84900 47.84400
C  43.38200 -0.56600 47.60200
C  44.73500 -0.74900 47.45400
C  45.28300 0.60500 47.46600
C  42.25600 -1.60400 47.72700
C  45.39600 -2.13400 47.16400
O  44.77400 -3.20700 47.14700
C  46.89700 -2.22600 46.89700
N  46.61900 3.39400 47.67900
C  47.25300 2.16800 47.64500
C  48.81700 2.31400 47.71500
C  48.99000 3.82400 47.78800
C  47.57000 4.36700 47.93800
C  49.31000 1.47600 48.90700
C  49.76100 4.37000 46.49000
C  51.28800 4.08600 46.51200
N  44.87900 5.68000 47.92700
C  46.09200 6.36100 47.95300
C  45.75400 7.85000 47.87500
C  44.39800 7.88200 47.74200
C  43.92200 6.55600 47.74900
C  46.80800 8.95600 48.00000
C  43.22000 8.79400 47.66300
O  43.18200 9.98700 47.63600
C  41.98800 7.85600 47.56900
C  41.15900 8.06400 48.72100
O  41.29100 7.50400 49.83400
O  40.24800 9.02900 48.36800
C  39.22600 9.47200 49.40200
H  40.96600 1.02300 47.96900
H  47.42700 0.14600 47.45100
H  48.19800 6.43100 48.15000
H  39.67100 5.65200 47.99700
H  39.54000 2.92600 46.93700
H  38.77800 4.18800 49.32700
H  40.02500 2.86100 49.74600
H  38.55600 2.51700 48.84300
H  39.88500 4.43800 45.29500
H  40.65700 5.99800 45.32400
H  38.94500 7.10600 45.76900
H  37.86500 5.86400 46.43300
H  42.44500 -2.38300 46.98800
H  41.33100 -1.13700 47.38800
H  42.29900 -2.08900 48.70200
H  47.47600 -1.91900 47.76800
H  47.19000 -1.52600 46.11600
H  47.31200 -3.21000 46.67900
H  49.19000 1.78300 46.83900
H  49.55900 4.14700 48.65900
H  49.67300 2.13500 49.69600
H  50.06600 0.75300 48.60000
H  48.51100 1.02000 49.49100
H  49.55100 5.39600 46.18700
H  49.36300 3.82500 45.63400
H  51.79400 4.73000 45.79200
H  51.60000 3.08700 46.20700
H  51.60300 4.38500 47.51200
H  46.60000 9.67500 47.20800
H  47.82000 8.55400 48.02800
H  46.72500 9.40000 48.99200
H  41.56400 8.12300 46.60100
H  38.25000 9.01900 49.22900
H  39.15400 10.55100 49.27000
H  39.45600 9.29000 50.45200

