158

Mg 29.04500 59.29700 41.31500
C  26.28100 57.72300 40.17900
C  30.95100 56.73200 39.74300
C  31.98100 61.26100 41.29100
C  27.12400 62.13000 41.83700
N  28.64700 57.52400 40.10700
C  27.42700 57.11100 39.75800
C  27.46600 55.96500 38.71100
C  28.91500 55.36900 38.98700
C  29.55200 56.59700 39.64100
C  28.96900 54.16200 39.86200
C  27.29200 56.58100 37.24300
C  26.68800 55.54500 36.24200
H  26.39400 56.11400 34.85200
N  31.20500 58.97800 40.75200
C  31.72000 57.80900 40.24500
C  33.16800 57.94900 40.23300
C  33.50000 59.23800 40.76000
C  32.18100 59.91900 41.00300
C  34.02500 56.80100 39.80800
C  34.85300 59.80400 41.03200
O  35.81100 59.17500 40.62800
C  35.11600 61.11400 41.82100
N  29.52900 61.44400 41.66700
C  30.74800 61.96900 41.60400
C  30.68200 63.47300 41.73500
C  29.12500 63.78000 41.86200
C  28.53100 62.36600 41.83200
C  31.56500 64.03100 42.89900
C  28.43100 64.65400 40.70600
C  27.78900 66.00000 41.21400
N  27.06400 59.73900 41.42700
C  26.39200 60.92500 41.63900
C  24.94800 60.69500 41.53300
C  24.83800 59.44200 40.94100
C  26.14800 58.90300 40.85300
C  23.83400 61.58000 41.88700
C  23.94700 58.44300 40.36200
O  22.74200 58.38600 40.29300
C  24.84300 57.30000 39.86400
C  24.53000 56.07000 40.64700
O  24.70300 55.89100 41.84500
O  23.88700 55.16100 39.87000
C  23.52300 53.90000 40.42600
H  31.48500 55.86200 39.35500
H  32.81300 61.96500 41.34000
H  26.40400 62.94900 41.88700
H  26.55100 55.38000 38.80600
H  29.47100 55.21500 38.06200
H  27.98000 53.95000 40.26900
H  29.66400 54.21500 40.69900
H  29.26500 53.34600 39.20300
H  28.23200 56.96700 36.84700
H  26.70800 57.49900 37.30400
H  25.74400 55.17300 36.63900
H  27.38100 54.70700 36.16200
H  34.38500 56.78800 38.78000
H  33.58400 55.81500 39.95000
H  34.88700 56.84600 40.47400
H  34.94800 61.93400 41.12200
H  36.20000 61.08900 41.93600
H  34.48400 61.20500 42.70400
H  31.02000 63.80900 40.75500
H  28.87900 64.26500 42.80700
H  31.12800 64.08500 43.89600
H  32.07500 64.92900 42.54900
H  32.36100 63.31200 43.09100
H  27.54600 64.09600 40.40100
H  29.04100 64.71500 39.80500
H  26.70100 65.95000 41.18800
H  28.18000 66.69000 40.46600
H  28.21100 66.26400 42.18300
H  22.89600 61.18000 41.50300
H  24.06700 62.55600 41.46100
H  23.83400 61.79200 42.95600
H  24.68500 57.19000 38.79100
H  22.67900 54.00600 41.10800
H  24.40500 53.38700 40.81000
H  23.18800 53.24900 39.61800
Mg 16.10000 52.16500 25.86800
C  17.95700 51.01100 28.73100
C  13.44900 52.85900 28.10000
C  14.41900 53.01500 23.15100
C  18.75700 50.85000 23.90600
N  15.75000 51.88500 28.18900
C  16.71800 51.57500 29.11400
C  16.30300 51.89400 30.48800
C  14.69800 52.07600 30.30600
C  14.62800 52.29300 28.83100
C  13.75700 50.87900 30.75400
C  16.93000 53.21200 30.96400
C  16.94700 53.24500 32.52700
H  16.18100 52.22000 33.36200
N  14.16600 52.84400 25.63800
C  13.26700 53.07900 26.67800
C  12.14700 53.71200 26.10000
C  12.39600 53.88700 24.67900
C  13.67400 53.27100 24.41200
C  10.98000 54.23800 26.94700
C  11.60900 54.63600 23.64600
O  11.92600 54.73100 22.46900
C  10.28500 55.26800 24.04400
N  16.55300 52.07500 23.85800
C  15.62700 52.46400 22.89800
C  16.27800 52.22600 21.44000
C  17.65300 51.67400 21.80700
C  17.69600 51.55100 23.27800
C  15.41600 51.33700 20.53100
C  18.81300 52.52500 21.27200
C  18.94500 52.39300 19.74100
N  17.99700 51.21600 26.18500
C  18.88900 50.65100 25.31300
C  20.05400 50.05500 26.01300
C  19.73700 50.24800 27.34100
C  18.43300 50.83000 27.42800
C  21.34200 49.45800 25.39200
C  20.10200 50.01000 28.68900
O  21.04900 49.32800 29.13000
C  19.00000 50.52700 29.66900
C  18.53700 49.48100 30.64200
O  17.52800 48.84500 30.59200
O  19.33300 49.41700 31.76000
C  19.04800 48.41900 32.90000
H  12.57600 53.08200 28.71800
H  14.00600 53.36500 22.20300
H  19.56200 50.33000 23.38200
H  16.32900 51.04000 31.16600
H  14.29200 52.94900 30.81700
H  12.89500 50.76900 30.09600
H  13.26800 51.24600 31.65700
H  14.37400 49.98100 30.78500
H  16.30800 54.03800 30.62100
H  17.97600 53.27300 30.66300
H  16.67400 54.25700 32.82600
H  17.98200 53.11100 32.84200
H  10.01700 54.17400 26.44000
H  11.19500 55.24100 27.31500
H  10.91400 53.72800 27.90700
H  10.04200 55.95000 23.22900
H  10.42500 55.87300 24.94000
H  9.47100 54.57600 24.26000
H  16.51400 53.17200 20.95300
H  17.63600 50.67400 21.37500
H  15.55800 51.71200 19.51800
H  14.38500 51.34600 20.88600
H  15.67100 50.28100 20.43900
H  19.61100 51.97600 21.77100
H  18.62000 53.52300 21.66500
H  18.08400 51.80900 19.41700
H  19.80700 51.84700 19.35700
H  19.06700 53.34300 19.21900
H  21.20200 48.37700 25.37700
H  22.13400 49.64400 26.11800
H  21.44800 49.87600 24.39100
H  19.49200 51.28400 30.28100
H  19.67300 47.54800 32.70400
H  18.07400 47.95200 33.04500
H  19.40800 48.86100 33.82900

