158

Mg 48.42900 14.23300 27.17400
C  46.59100 14.70500 30.09100
C  50.76200 16.30700 28.19000
C  49.85800 13.73700 24.18100
C  45.43900 12.51400 25.77000
N  48.55600 15.42200 28.93500
C  47.75600 15.44600 30.10200
C  48.41300 16.23100 31.25300
C  49.47800 17.02500 30.38200
C  49.68200 16.22100 29.07200
C  49.14400 18.50300 30.25400
C  49.09900 15.25500 32.20500
C  48.74900 15.36300 33.66000
H  49.82600 15.09100 34.73300
N  50.10900 14.80600 26.42500
C  51.01700 15.63100 27.01900
C  52.20900 15.57600 26.23400
C  51.98200 14.87600 25.04300
C  50.56200 14.37700 25.17100
C  53.44800 16.31000 26.78900
C  52.80300 14.64800 23.85200
O  52.53100 14.04500 22.81400
C  54.19600 15.26800 23.91800
N  47.75100 13.34000 25.19500
C  48.60800 13.19900 24.22600
C  47.98200 12.48600 22.99400
C  46.56600 12.05500 23.49900
C  46.57400 12.66100 24.90500
C  47.91200 13.46400 21.72900
C  46.20400 10.54000 23.40400
C  46.88700 9.51600 24.31800
N  46.46200 13.74400 27.75200
C  45.40900 12.95100 27.10400
C  44.41400 12.69700 28.09800
C  44.80700 13.40800 29.28000
C  46.04400 14.05100 29.02600
C  43.19900 11.81600 27.96300
C  44.41600 13.68500 30.67400
O  43.37700 13.38800 31.28800
C  45.58800 14.52500 31.14600
C  45.00500 15.84500 31.70400
O  44.03400 16.41400 31.25000
O  45.66400 16.17900 32.90400
C  44.93800 17.14200 33.76900
H  51.58700 16.98000 28.43100
H  50.24600 13.63200 23.16500
H  44.59600 11.90700 25.43400
H  47.71700 16.85500 31.81300
H  50.51200 16.95800 30.72300
H  48.68900 18.69700 29.28300
H  50.06500 19.08600 30.28400
H  48.45500 18.96000 30.96400
H  50.17500 15.38000 32.08400
H  48.92200 14.23700 31.85800
H  47.89000 14.77600 33.98600
H  48.39400 16.38200 33.81000
H  53.43800 16.33000 27.87900
H  53.43600 17.31400 26.36600
H  54.35900 15.81700 26.44900
H  54.92400 14.82900 24.60200
H  54.14100 16.34500 24.07800
H  54.62900 15.08500 22.93500
H  48.59300 11.60900 22.78200
H  45.82600 12.60500 22.91700
H  47.99800 14.52200 21.97500
H  46.97500 13.38900 21.17800
H  48.70800 13.24600 21.01700
H  46.40000 10.24500 22.37300
H  45.16800 10.29300 23.63300
H  47.52900 8.84700 23.74500
H  46.18800 9.03100 24.99900
H  47.54300 10.15800 24.90500
H  43.41700 10.76400 27.77600
H  42.69900 12.06900 27.02800
H  42.67700 11.91100 28.91500
H  45.95400 13.89900 31.95900
H  43.87600 17.30900 33.59100
H  45.43100 18.11400 33.76500
H  45.10800 16.76900 34.78000
Mg -0.62700 43.86900 26.27500
C  1.85500 43.32200 28.58000
C  -2.91400 43.59000 28.75900
C  -3.07100 43.79600 24.01500
C  1.75300 43.42900 23.74400
N  -0.52500 43.40700 28.32700
C  0.59000 43.30500 29.13200
C  0.25800 43.39000 30.63000
C  -1.18500 42.78300 30.51800
C  -1.59500 43.20700 29.11000
C  -1.22800 41.19300 30.75600
C  0.34400 44.85000 31.21500
C  0.41000 44.93100 32.75000
H  0.13600 43.62900 33.63000
N  -2.74100 44.02300 26.40800
C  -3.50800 43.94600 27.58500
C  -4.86100 44.19000 27.28500
C  -4.95700 44.25600 25.84300
C  -3.57100 44.03200 25.30000
C  -5.79200 44.50900 28.40200
C  -6.14900 44.41700 24.99200
O  -6.03200 44.55000 23.77900
C  -7.61200 44.35100 25.53700
N  -0.72800 43.54300 24.24400
C  -1.85500 43.57500 23.52700
C  -1.60700 43.46000 21.98400
C  -0.05800 43.62500 21.92000
C  0.37700 43.49400 23.36800
C  -2.16800 42.04900 21.35600
C  0.52400 44.94000 21.37800
C  0.08600 46.16000 22.24400
N  1.45000 43.42500 26.11700
C  2.27800 43.37600 25.01700
C  3.61000 43.38100 25.47800
C  3.47800 43.30200 26.91100
C  2.13400 43.35500 27.22400
C  4.84500 43.50400 24.64600
C  4.24700 43.23600 28.11600
O  5.44700 43.09800 28.34600
C  3.25900 43.34400 29.24000
C  3.50800 42.27000 30.20500
O  3.77300 41.12200 29.91400
O  3.30800 42.67100 31.46500
C  3.70600 41.71300 32.51000
H  -3.57800 43.51900 29.62300
H  -3.80500 43.87000 23.20900
H  2.47600 43.44700 22.92600
H  0.88400 42.68400 31.17700
H  -1.78500 43.31500 31.25600
H  -1.64200 40.56100 29.97000
H  -1.66100 41.09500 31.75100
H  -0.22300 40.77200 30.75400
H  -0.55700 45.43700 31.03700
H  1.17200 45.38000 30.74300
H  -0.47600 45.47500 33.07800
H  1.32700 45.38100 33.12800
H  -5.27600 45.17000 29.09800
H  -6.13900 43.65900 28.98900
H  -6.71600 45.00000 28.09700
H  -8.29500 44.16900 24.70700
H  -7.80600 45.18100 26.21700
H  -7.81200 43.43300 26.09000
H  -2.18400 44.22800 21.46900
H  0.29200 42.73600 21.39600
H  -3.10300 42.08400 20.79500
H  -2.15700 41.29900 22.14600
H  -1.43500 41.87100 20.56900
H  0.13500 45.05900 20.36700
H  1.59600 44.86500 21.19500
H  0.92300 46.45700 22.87600
H  -0.79900 45.94600 22.84400
H  -0.23400 46.88900 21.49900
H  4.96200 42.64200 23.98900
H  5.69600 43.64100 25.31200
H  4.85600 44.38800 24.00800
H  3.40400 44.32100 29.70100
H  4.79600 41.70000 32.50800
H  3.29300 40.71800 32.34300
H  3.58400 42.10100 33.52100

