158

Mg 36.34900 49.48800 24.99100
C  36.59400 47.92000 28.06400
C  36.01100 52.47600 26.58200
C  36.07200 50.92000 22.02100
C  37.04600 46.41900 23.52400
N  36.34900 50.17400 27.13400
C  36.40000 49.31400 28.23300
C  36.09200 50.01100 29.61400
C  35.78700 51.47100 29.04500
C  36.10800 51.38200 27.46400
C  34.35300 52.03200 29.34800
C  37.30700 49.97300 30.65200
C  36.89600 50.16600 32.13100
H  35.34700 50.15300 32.50700
N  36.10300 51.40200 24.39900
C  35.95400 52.49700 25.13800
C  35.86700 53.68000 24.37700
C  35.80400 53.27700 23.02300
C  36.01700 51.80100 23.08900
C  35.72600 55.07300 24.96000
C  35.45100 54.02000 21.83700
O  35.45300 53.50300 20.71500
C  35.13900 55.45900 21.90100
N  36.36100 48.74400 23.00600
C  36.31900 49.54300 21.92600
C  36.48700 48.80600 20.57200
C  36.92600 47.34400 21.06700
C  36.75400 47.49400 22.59300
C  35.08000 48.85500 19.93800
C  38.23400 46.89500 20.53800
C  39.44500 46.83300 21.46100
N  36.74900 47.50900 25.56100
C  36.91400 46.37600 24.90100
C  37.16800 45.28300 25.80300
C  37.04100 45.86100 27.03100
C  36.76800 47.18000 26.82200
C  37.62700 43.90000 25.47800
C  37.11700 45.59100 28.45000
O  37.45500 44.55600 29.02500
C  36.75500 46.86400 29.18300
C  35.55200 46.50800 29.97800
O  34.41000 46.57200 29.50500
O  35.85500 46.04300 31.17400
C  34.78100 45.61900 32.00000
H  35.82800 53.42100 27.09800
H  35.87900 51.32600 21.02600
H  37.25900 45.42900 23.11500
H  35.23100 49.49300 30.03600
H  36.55700 52.12600 29.45300
H  33.81600 51.44000 30.08900
H  33.77300 51.88100 28.43800
H  34.50300 53.07300 29.63400
H  38.00200 50.76500 30.37400
H  37.92100 49.09900 30.43500
H  37.39300 51.07500 32.46900
H  37.37300 49.41800 32.76400
H  34.80900 55.64200 24.80500
H  36.54500 55.65300 24.53700
H  35.79000 55.03900 26.04800
H  35.96400 56.01100 22.35100
H  34.34900 55.61900 22.63500
H  34.85600 55.90800 20.94900
H  37.27500 49.27700 19.98500
H  36.16500 46.62500 20.76200
H  34.94200 47.90900 19.41400
H  34.98800 49.54000 19.09600
H  34.33100 48.86400 20.73100
H  38.42000 47.42500 19.60400
H  38.05200 45.83800 20.34700
H  39.37000 47.73800 22.06500
H  40.25700 47.00200 20.75400
H  39.64900 45.92000 22.02000
H  36.94400 43.15200 25.88100
H  38.57000 43.66900 25.97400
H  37.79300 43.79400 24.40600
H  37.53800 47.19100 29.86700
H  35.05700 45.70400 33.05100
H  34.52600 44.60500 31.69000
H  33.91800 46.26500 31.84200
Mg -9.67400 17.37800 42.43300
C  -6.20400 17.28200 42.54800
C  -9.49500 20.73000 41.96800
C  -13.11200 17.41800 42.14100
C  -9.81700 13.96300 42.94600
N  -7.98500 18.84200 42.28900
C  -6.70200 18.57300 42.36000
C  -5.82400 19.81300 42.32300
C  -6.89500 20.92600 42.39900
C  -8.24800 20.13300 42.27500
C  -6.70700 21.86700 43.61800
C  -4.92800 20.01600 41.07800
C  -5.47300 19.81000 39.70900
H  -4.97400 18.76200 38.76900
N  -11.11000 18.86400 41.96500
C  -10.78000 20.15500 41.71300
C  -12.01100 20.86700 41.40200
C  -13.17000 19.97000 41.62900
C  -12.48800 18.64600 41.88500
C  -12.08600 22.39100 41.13700
C  -14.58400 20.32500 41.60000
O  -14.91600 21.45500 41.17500
C  -15.71400 19.38700 42.00500
N  -11.31900 15.79200 42.27800
C  -12.61400 16.13400 42.36300
C  -13.50400 14.84500 42.71900
C  -12.34100 13.85200 43.19400
C  -11.10400 14.58800 42.73400
C  -14.58100 15.11400 43.74600
C  -12.39900 12.42200 42.42000
C  -12.31400 11.18400 43.34400
N  -8.30500 15.89500 42.68900
C  -8.50100 14.51900 42.74600
C  -7.22200 13.90600 42.84500
C  -6.27100 14.92700 42.79600
C  -6.99000 16.11600 42.70000
C  -6.89800 12.48600 42.94500
C  -4.85100 15.24400 42.83900
O  -3.86600 14.54500 42.86900
C  -4.75500 16.73400 42.77500
C  -4.17100 17.27700 43.95300
O  -3.16500 17.95400 44.01700
O  -4.85300 16.82500 45.07700
C  -4.29200 17.29300 46.37800
H  -9.48700 21.82000 41.90300
H  -14.20000 17.33200 42.11300
H  -9.89200 12.93300 43.30200
H  -5.09200 19.88300 43.12800
H  -6.92600 21.58400 41.53000
H  -6.06700 22.69400 43.31200
H  -6.03400 21.41000 44.34400
H  -7.61600 22.21800 44.10600
H  -4.09400 19.35600 41.31900
H  -4.45400 20.99800 41.07700
H  -5.23000 20.79900 39.31900
H  -6.56200 19.83800 39.72200
H  -12.53000 22.81600 42.03700
H  -12.67500 22.61400 40.24700
H  -11.09300 22.73800 40.85300
H  -15.91600 18.61800 41.26000
H  -16.60500 20.00100 42.13800
H  -15.54400 18.92700 42.97900
H  -13.94100 14.35400 41.84900
H  -12.39800 13.69800 44.27200
H  -14.59200 16.12300 44.15800
H  -14.56600 14.51800 44.65800
H  -15.54100 15.07600 43.22900
H  -11.57600 12.52200 41.71300
H  -13.32000 12.41500 41.83600
H  -11.47100 10.58500 43.00100
H  -13.16700 10.50800 43.28900
H  -12.03300 11.41000 44.37300
H  -7.70300 11.76900 43.10600
H  -6.21400 12.30300 43.77400
H  -6.34600 12.19100 42.05300
H  -4.14000 16.93700 41.89800
H  -3.20200 17.29200 46.35000
H  -4.46100 16.52900 47.13600
H  -4.58900 18.27600 46.74200

