158

Mg 0.37400 8.03800 26.66400
C  1.36000 9.82200 29.49900
C  0.75800 5.11000 28.45700
C  0.46900 6.30900 23.74000
C  0.71900 10.99900 24.84100
N  1.05300 7.59300 28.80000
C  1.19000 8.41700 29.81300
C  1.10900 7.69200 31.21600
C  1.22400 6.23500 30.74800
C  0.85600 6.29200 29.23700
C  2.50300 5.43900 30.98700
C  -0.22400 7.90300 32.00900
C  -0.19300 8.35500 33.45800
H  0.95000 7.90300 34.33800
N  0.41100 5.93900 26.20600
C  0.48700 4.89600 27.08700
C  0.40900 3.67700 26.35800
C  0.30000 4.02300 24.98900
C  0.34500 5.50600 24.92600
C  0.47500 2.28900 26.97800
C  -0.14300 3.07100 23.82900
O  -0.38600 3.54000 22.76200
C  -0.32900 1.54000 23.96800
N  0.40900 8.59900 24.60900
C  0.41400 7.67600 23.53400
C  0.50400 8.36300 22.25700
C  0.03700 9.76800 22.65000
C  0.38600 9.84500 24.14800
C  1.89600 8.31200 21.67700
C  -1.54300 9.92100 22.41500
C  -1.94100 10.41400 21.05100
N  0.87200 10.00200 27.02900
C  1.02400 11.08700 26.18800
C  1.30900 12.24600 26.93200
C  1.50300 11.75000 28.23700
C  1.13500 10.42800 28.23900
C  1.54200 13.71400 26.43600
C  1.96500 12.15200 29.57200
O  2.44300 13.20400 30.01100
C  1.65600 10.87600 30.51800
C  2.78800 10.57300 31.26400
O  3.90900 10.18100 30.90200
O  2.51400 11.08200 32.54900
C  3.72100 11.44100 33.33000
H  0.91400 4.21100 29.05700
H  0.60500 5.72700 22.82600
H  0.86400 11.80100 24.11400
H  1.93200 8.03100 31.84400
H  0.46400 5.72400 31.34000
H  3.22500 5.46700 30.17100
H  2.19300 4.47400 31.38800
H  2.95800 5.91900 31.85400
H  -0.86400 7.02500 32.09000
H  -0.78000 8.59900 31.38000
H  -1.09600 8.18100 34.04400
H  -0.18400 9.44400 33.50400
H  0.91600 2.39700 27.96800
H  0.98000 1.52100 26.39300
H  -0.53300 1.93500 27.19600
H  -0.86800 1.29500 23.05300
H  -0.89200 1.18700 24.83300
H  0.65900 1.10400 23.82300
H  -0.22900 7.88800 21.60500
H  0.50000 10.62200 22.15500
H  2.12200 9.32200 21.33400
H  1.95800 7.71800 20.76600
H  2.57800 8.00900 22.47100
H  -1.93300 10.67100 23.10300
H  -2.14700 9.04600 22.65500
H  -1.06600 10.47500 20.40300
H  -2.47700 11.36300 21.08800
H  -2.59600 9.62200 20.69000
H  1.82800 13.74900 25.38500
H  2.25900 14.25700 27.05200
H  0.56400 14.17600 26.57400
H  0.73400 11.08000 31.06300
H  4.28900 12.21400 32.81000
H  4.52800 10.73100 33.51400
H  3.46500 11.92500 34.27200
Mg 41.99500 40.69500 26.28200
C  41.31900 43.07700 28.68900
C  43.01800 38.49900 28.64500
C  42.74000 38.57700 23.63000
C  40.83200 43.06400 23.83200
N  42.29400 40.82200 28.36700
C  41.75200 41.89100 29.18300
C  41.86100 41.54300 30.62300
C  42.48300 40.07000 30.65900
C  42.62900 39.75500 29.13000
C  43.83000 39.95800 31.42900
C  40.50200 41.71500 31.42800
C  40.51200 42.59600 32.79100
H  40.01500 41.97500 34.07300
N  42.81400 38.81000 26.15800
C  43.16200 38.03200 27.26300
C  43.58300 36.68900 26.75600
C  43.63100 36.70700 25.29900
C  42.99200 38.05400 25.00200
C  44.08500 35.61700 27.75100
C  44.13100 35.72400 24.30900
O  44.13100 36.02500 23.10900
C  44.67900 34.40300 24.75200
N  41.85000 40.84400 24.08100
C  42.25900 39.82400 23.25600
C  42.00300 40.14600 21.83300
C  41.21400 41.48400 21.86500
C  41.27400 41.82700 23.36100
C  43.17300 40.32200 20.85000
C  39.71000 41.32500 21.37500
C  38.85300 40.34500 22.13800
N  41.24600 42.70900 26.25300
C  40.87600 43.49900 25.20400
C  40.40300 44.72800 25.75100
C  40.61600 44.65500 27.12000
C  41.13900 43.37200 27.37700
C  39.93100 45.83400 24.90600
C  40.44900 45.39000 28.31300
O  40.09000 46.54600 28.56400
C  40.92300 44.32400 29.38900
C  42.07900 44.85900 30.20300
O  43.29800 44.67300 29.96500
O  41.66200 45.64300 31.34600
C  42.74800 46.21500 32.14400
H  43.27900 37.75400 29.40000
H  42.93200 37.88100 22.81100
H  40.56900 43.65900 22.95500
H  42.63900 42.22200 30.97200
H  41.85700 39.34400 31.17700
H  44.64100 39.68400 30.75400
H  43.80100 39.27500 32.27700
H  44.14300 40.90500 31.86900
H  40.23400 40.71300 31.76400
H  39.70100 41.88700 30.71000
H  39.75900 43.34800 32.55500
H  41.51500 43.01000 32.89200
H  43.91800 35.95000 28.77600
H  45.16300 35.53000 27.61500
H  43.65900 34.62400 27.60800
H  43.77300 33.80800 24.87200
H  45.27600 34.44000 25.66300
H  45.16300 33.98900 23.86800
H  41.40100 39.31400 21.46900
H  41.64800 42.32600 21.32500
H  43.76300 39.43200 20.62900
H  43.80500 41.17100 21.11100
H  42.68000 40.60800 19.92100
H  39.70700 40.99400 20.33600
H  39.25700 42.30800 21.50800
H  38.36600 39.64300 21.46200
H  38.07400 40.85700 22.70400
H  39.46100 39.78100 22.84500
H  40.09500 45.55200 23.86600
H  40.58700 46.69900 25.01600
H  38.89100 46.12000 25.06100
H  40.11300 44.15200 30.09700
H  42.85100 45.47600 32.93900
H  42.58900 47.17500 32.63500
H  43.72700 46.30300 31.67500

