158

Mg 26.18200 0.64800 29.01700
C  27.81500 0.43700 32.17100
C  23.35600 1.02400 30.77400
C  24.58900 0.82600 26.16100
C  29.19000 -0.29700 27.48400
N  25.67300 0.59600 31.29300
C  26.50400 0.80300 32.35200
C  25.67000 0.93200 33.67600
C  24.21100 0.94800 33.16700
C  24.43900 0.84300 31.65600
C  23.22500 -0.13800 33.63900
C  26.23500 2.12700 34.47300
C  26.90800 1.76000 35.85100
H  26.49700 2.60900 37.06500
N  24.18000 0.86200 28.48600
C  23.16200 0.98400 29.38500
C  21.88300 1.16700 28.70100
C  22.19200 1.18100 27.30300
C  23.66200 1.00200 27.23900
C  20.58000 1.17600 29.46600
C  21.27800 1.38100 26.09400
O  21.65900 1.26700 24.89300
C  19.83800 1.65200 26.30600
N  26.79500 0.29500 27.10800
C  25.97600 0.50500 26.08400
C  26.65800 0.59800 24.76800
C  28.10700 0.14200 25.10600
C  28.08300 0.02400 26.65600
C  25.99900 -0.04400 23.46900
C  29.29200 0.90000 24.55200
C  29.81200 0.61800 23.15000
N  28.10300 0.15700 29.63400
C  29.21500 -0.24800 28.87400
C  30.30600 -0.55700 29.75400
C  29.76800 -0.29400 31.03300
C  28.43100 0.14200 30.87500
C  31.72400 -0.86900 29.28600
C  30.09600 -0.34100 32.42200
O  31.18500 -0.70000 32.95700
C  28.89900 0.26200 33.19500
C  28.58000 -0.73100 34.23000
O  28.00600 -1.79000 34.01300
O  29.19200 -0.47100 35.43600
C  29.02300 -1.58100 36.39200
H  22.44600 1.19500 31.35300
H  24.05500 0.84900 25.20800
H  30.13700 -0.56000 27.00800
H  25.73500 -0.02200 34.19900
H  23.92600 1.97400 33.40300
H  23.70100 -0.67900 34.45700
H  23.01500 -0.83900 32.83100
H  22.38000 0.38900 34.08200
H  25.46500 2.89000 34.58800
H  27.09300 2.54700 33.94700
H  27.98700 1.91700 35.83600
H  26.67700 0.70100 35.97200
H  19.84800 1.82100 28.98100
H  20.80600 1.44200 30.49900
H  20.16600 0.17100 29.37900
H  19.36200 0.77300 26.74100
H  19.21600 1.63300 25.41100
H  19.66000 2.49000 26.97900
H  26.66900 1.66100 24.53000
H  28.24700 -0.88000 24.75600
H  25.70400 0.71400 22.74400
H  25.04700 -0.49600 23.74700
H  26.66700 -0.78900 23.03700
H  30.18100 0.74600 25.16300
H  28.88900 1.91200 24.51300
H  30.83800 0.24800 23.15700
H  29.86400 1.56700 22.61600
H  29.25100 -0.19600 22.69100
H  32.33300 -0.04700 28.91100
H  31.65500 -1.64300 28.52100
H  32.15500 -1.39500 30.13800
H  29.28600 1.14800 33.69700
H  27.96600 -1.71700 36.61900
H  29.55500 -1.29300 37.29900
H  29.36700 -2.59300 36.18200
Mg 47.08900 16.00300 28.26700
C  44.82200 15.44900 30.96900
C  49.25100 17.34500 30.68600
C  49.09900 16.81500 25.79300
C  44.72500 14.78300 26.20600
N  47.01200 16.44900 30.58600
C  46.04000 16.03800 31.43500
C  46.33800 16.44100 32.89700
C  47.65200 17.28500 32.75800
C  48.01800 17.09000 31.25700
C  47.47900 18.85700 32.99600
C  46.51100 15.20200 33.78500
C  46.08200 15.41900 35.26800
H  46.35600 16.94700 35.71200
N  48.98700 16.80100 28.27300
C  49.69200 17.27400 29.34700
C  50.99100 17.71200 28.85700
C  50.97300 17.50800 27.38700
C  49.69500 16.97300 27.06500
C  52.04600 18.10400 29.73300
C  52.11000 17.65800 26.26200
O  52.01400 17.21300 25.14400
C  53.41600 18.31900 26.68200
N  46.86000 15.85100 26.24300
C  47.82200 16.41400 25.39500
C  47.20100 16.52500 24.00800
C  46.05200 15.47700 24.03000
C  45.83400 15.32900 25.53900
C  46.69500 17.96500 23.84000
C  46.45000 14.01700 23.53500
C  45.31900 13.15700 22.83600
N  45.13200 15.29400 28.46400
C  44.31600 14.73600 27.54600
C  43.14700 14.19000 28.16000
C  43.27600 14.50300 29.53500
C  44.56300 15.09800 29.64600
C  41.96900 13.65300 27.36700
C  42.58300 14.49500 30.77600
O  41.45900 14.10300 31.05800
C  43.57500 15.04300 31.82800
C  42.90200 16.22600 32.48200
O  42.67900 17.21900 31.86000
O  42.65900 15.89300 33.77400
C  42.03700 16.97900 34.47900
H  49.94600 17.75300 31.42200
H  49.51500 17.45200 25.00900
H  44.02500 14.36600 25.47900
H  45.47500 17.04400 33.17900
H  48.42900 16.91800 33.42900
H  47.97200 19.31800 32.14000
H  47.99800 19.30500 33.84400
H  46.41900 19.09700 33.08100
H  47.49600 14.77300 33.60100
H  45.76200 14.52500 33.37400
H  46.81200 14.87200 35.86500
H  45.05700 15.08500 35.43000
H  52.71900 17.24700 29.68500
H  51.68900 18.40900 30.71600
H  52.60400 18.94200 29.31400
H  53.98700 18.53300 25.77800
H  53.98100 17.55800 27.22000
H  53.21800 19.22100 27.26100
H  47.95000 16.28000 23.25500
H  45.15500 15.84300 23.53000
H  45.61100 17.85900 23.84600
H  47.10200 18.34000 22.90100
H  47.03800 18.63900 24.62500
H  46.83300 13.52600 24.42900
H  47.28100 14.14800 22.84200
H  44.30300 13.55100 22.80700
H  45.19900 12.24800 23.42500
H  45.63900 12.88400 21.83000
H  41.28700 13.24400 28.11300
H  42.22500 12.84800 26.67900
H  41.65800 14.59600 26.91700
H  43.91400 14.19800 32.42800
H  41.62300 17.78800 33.87700
H  42.80600 17.36000 35.15100
H  41.23900 16.51600 35.05900

