158

Mg 48.49200 34.40800 26.07500
C  46.73100 33.16500 28.74300
C  48.79800 37.37300 27.72400
C  49.69800 35.71200 23.30700
C  47.67100 31.47600 24.20800
N  47.97300 35.03800 28.10200
C  47.30400 34.36500 29.05500
C  47.36500 35.09900 30.39000
C  47.78800 36.57500 29.98400
C  48.24900 36.33900 28.53100
C  46.61000 37.60600 29.95000
C  48.52500 34.50600 31.35300
C  48.45000 34.76800 32.83300
H  47.31300 35.58800 33.30900
N  49.21800 36.29800 25.59100
C  49.22100 37.37800 26.39900
C  49.90800 38.43700 25.71800
C  50.23400 38.01700 24.45900
C  49.67500 36.65700 24.35700
C  50.13400 39.79300 26.24900
C  50.86100 38.67600 23.31600
O  51.05300 38.13000 22.21500
C  51.37400 40.16500 23.48900
N  48.31200 33.85300 23.98700
C  48.99300 34.57900 23.10500
C  49.06200 33.87900 21.76100
C  49.03600 32.40000 22.17500
C  48.23200 32.54000 23.53600
C  47.86200 34.31000 20.81600
C  50.46800 31.71900 22.47300
C  50.90200 30.55800 21.56500
N  47.41700 32.69800 26.38000
C  47.12800 31.59900 25.51900
C  46.45700 30.54100 26.22100
C  46.17300 31.13700 27.45100
C  46.80600 32.44500 27.49100
C  46.08800 29.32700 25.70500
C  45.52500 30.98700 28.67200
O  44.74000 30.14400 28.97700
C  45.83500 32.21200 29.56400
C  46.46500 31.69400 30.76100
O  47.60500 31.25600 30.81600
O  45.59800 31.70100 31.87800
C  46.18300 31.55400 33.25000
H  48.66300 38.35400 28.18400
H  50.22100 36.05200 22.41100
H  47.67700 30.51800 23.68500
H  46.33400 35.11100 30.74600
H  48.54600 37.08500 30.57700
H  45.68300 37.13600 30.27800
H  46.38200 38.07200 28.99100
H  46.91500 38.39100 30.64200
H  49.45800 34.96900 31.03200
H  48.69100 33.44100 31.19500
H  49.44000 35.13800 33.09900
H  48.42600 33.90100 33.49400
H  51.20500 39.99200 26.25200
H  49.78000 39.77900 27.28000
H  49.54800 40.50300 25.66600
H  52.20100 40.26000 24.19300
H  50.59900 40.90500 23.68700
H  51.87200 40.50600 22.58200
H  50.00300 34.10400 21.25800
H  48.41900 31.78500 21.52000
H  47.41800 33.49400 20.24700
H  48.26700 35.05800 20.13500
H  47.07800 34.66400 21.48600
H  50.49200 31.40100 23.51500
H  51.16100 32.55800 22.39600
H  51.91600 30.76500 21.22100
H  50.42000 30.63300 20.59000
H  50.83600 29.57800 22.03600
H  45.34100 28.91100 26.38200
H  46.99200 28.71900 25.73800
H  45.71200 29.33600 24.68200
H  44.88600 32.66100 29.85700
H  47.23500 31.84000 33.24200
H  46.06800 30.64600 33.84200
H  45.66900 32.22000 33.94300
Mg -10.00800 39.77800 40.72900
C  -8.56500 36.69200 39.50700
C  -7.14500 41.35000 39.49800
C  -11.65400 42.72300 40.74900
C  -13.00800 38.06100 40.96800
N  -8.10200 39.07100 39.68700
C  -7.71100 37.79200 39.28100
C  -6.34500 37.79400 38.59000
C  -5.77200 39.20800 39.03300
C  -7.07200 39.94400 39.43500
C  -4.68600 39.20300 40.12500
C  -6.23800 37.49200 37.08400
C  -7.52800 37.71800 36.26400
H  -7.82500 36.79700 35.05500
N  -9.41100 41.80200 40.34600
C  -8.23900 42.21200 39.87300
C  -8.14400 43.63700 39.90300
C  -9.45400 44.04700 40.25800
C  -10.26300 42.87100 40.49400
C  -6.90500 44.47700 39.43500
C  -9.87700 45.49100 40.43000
O  -9.13400 46.40200 40.02700
C  -11.13100 45.83900 41.13100
N  -11.88200 40.35600 40.97400
C  -12.42800 41.59900 41.00800
C  -13.97600 41.63200 41.06500
C  -14.37100 40.19100 41.30900
C  -12.98100 39.48200 41.06500
C  -14.49700 42.60600 42.17100
C  -15.60400 39.74400 40.44500
C  -16.77700 38.98200 41.05700
N  -10.66200 37.69300 40.64400
C  -11.94400 37.22200 40.72300
C  -11.82400 35.75300 40.54900
C  -10.55800 35.49800 40.06500
C  -9.87600 36.74700 40.10500
C  -12.92900 34.73900 40.68700
C  -9.67100 34.52200 39.55000
O  -9.79300 33.31800 39.37400
C  -8.34900 35.19400 39.19500
C  -7.30300 34.59200 40.02500
O  -7.25100 34.68700 41.24300
O  -6.45400 33.86600 39.25800
C  -5.39300 33.10300 39.92600
H  -6.21700 41.87000 39.25000
H  -12.22900 43.64900 40.68200
H  -13.97500 37.55500 41.01400
H  -5.70900 37.15800 39.20600
H  -5.28500 39.64800 38.16200
H  -5.06900 39.14200 41.14400
H  -3.96800 39.99200 39.90200
H  -4.05100 38.31700 40.11700
H  -5.88400 36.46600 36.98300
H  -5.39800 38.10900 36.76300
H  -7.46500 38.73500 35.87700
H  -8.45800 37.59200 36.81800
H  -7.16000 45.48600 39.11200
H  -6.45600 43.87400 38.64500
H  -6.12900 44.40900 40.19700
H  -11.16200 45.49500 42.16500
H  -11.97600 45.64400 40.47100
H  -11.23900 46.91500 40.99400
H  -14.25500 42.05600 40.10000
H  -14.46900 39.90900 42.35800
H  -13.58200 43.13900 42.43200
H  -14.87300 42.16300 43.09200
H  -15.30700 43.23900 41.80800
H  -15.28500 39.04500 39.67300
H  -15.97600 40.67300 40.01200
H  -17.69700 39.52800 40.85000
H  -16.58200 38.79000 42.11200
H  -16.85300 38.03100 40.53000
H  -13.71500 34.88300 39.94600
H  -13.31200 34.77000 41.70700
H  -12.52200 33.73300 40.58100
H  -8.22100 35.07600 38.11900
H  -5.37400 32.10000 39.49900
H  -5.45100 33.16200 41.01300
H  -4.41500 33.55600 39.76300

