158

Mg -1.72100 18.40200 26.95000
C  -2.21400 16.06700 29.76300
C  -2.74100 20.93900 29.11700
C  -1.73300 20.33600 24.35800
C  -1.41400 15.58800 24.94000
N  -2.14600 18.46400 29.18600
C  -2.12800 17.47900 30.11700
C  -2.42700 18.00800 31.56900
C  -3.05600 19.43700 31.23100
C  -2.56800 19.66200 29.76400
C  -4.62200 19.52900 31.29000
C  -1.19900 18.20400 32.48000
C  -1.46600 17.66000 33.92700
H  -0.27500 17.37700 34.76200
N  -2.05800 20.29000 26.75800
C  -2.53800 21.24900 27.75700
C  -2.53500 22.59200 27.12500
C  -2.11500 22.41700 25.76900
C  -1.89900 20.98400 25.56100
C  -2.88400 23.90300 27.86200
C  -1.75000 23.43900 24.68000
O  -1.35000 23.18900 23.55200
C  -1.99500 24.91300 24.93600
N  -1.76100 17.98800 24.91000
C  -1.62400 19.01800 24.05300
C  -1.41700 18.50200 22.65500
C  -0.90900 17.02900 22.91700
C  -1.37100 16.83000 24.35700
C  -2.62200 18.54300 21.82100
C  0.64800 16.97700 22.71000
C  1.62500 17.62100 23.71100
N  -2.03700 16.23400 27.18500
C  -1.87000 15.29600 26.22700
C  -2.00500 13.96500 26.82900
C  -2.26500 14.20900 28.15100
C  -2.18200 15.63400 28.35900
C  -1.93100 12.65300 26.10000
C  -2.58300 13.65300 29.48800
O  -2.76600 12.48100 29.76000
C  -2.52500 14.83300 30.54400
C  -1.53900 14.55100 31.62400
O  -0.37900 14.87400 31.58500
O  -2.09800 13.87700 32.67900
C  -1.24300 13.39900 33.82900
H  -3.10800 21.73800 29.76400
H  -1.66600 20.96800 23.47000
H  -1.11900 14.83900 24.20200
H  -3.25900 17.42400 31.96200
H  -2.72100 20.22200 31.90900
H  -5.06300 18.64500 31.74900
H  -5.08600 19.73700 30.32600
H  -4.93800 20.35300 31.92900
H  -0.97400 19.26900 32.53700
H  -0.30800 17.67700 32.13700
H  -2.01200 16.72000 33.84600
H  -2.07700 18.35100 34.50800
H  -3.45700 24.53000 27.17900
H  -1.96500 24.40700 28.16100
H  -3.50900 23.69300 28.73000
H  -1.88600 25.36300 23.94900
H  -1.30200 25.28600 25.68900
H  -3.02100 25.19300 25.17500
H  -0.65900 19.06800 22.11200
H  -1.43000 16.30100 22.29400
H  -3.42000 19.20800 22.15200
H  -3.13100 17.59300 21.65500
H  -2.38200 18.88000 20.81300
H  0.82600 17.54900 21.79900
H  0.97800 15.94600 22.58400
H  1.11300 17.94700 24.61700
H  2.16200 18.52600 23.42600
H  2.32700 16.83400 23.98300
H  -1.28200 11.96100 26.63700
H  -1.55300 12.75100 25.08200
H  -2.90200 12.17800 25.96100
H  -3.52000 14.91200 30.98300
H  -0.16500 13.52000 33.72800
H  -1.57600 12.39700 34.09800
H  -1.63200 14.07100 34.59400
Mg 47.21500 35.30700 27.59200
C  45.69000 33.45800 30.41400
C  47.62500 37.92800 29.88300
C  48.64600 36.95100 25.12800
C  46.77600 32.49700 25.59700
N  46.91300 35.54100 30.01800
C  46.25600 34.65900 30.83500
C  46.37400 35.17000 32.29400
C  46.66700 36.72500 32.03300
C  47.10300 36.75100 30.54900
C  45.49500 37.72700 32.23600
C  47.54800 34.40700 32.92800
C  47.65700 34.50400 34.47000
H  46.72700 35.35600 35.30400
N  47.98000 37.22700 27.51100
C  48.06400 38.12800 28.51800
C  48.65700 39.28100 27.92300
C  49.11700 39.02600 26.61300
C  48.59300 37.67400 26.36400
C  48.85300 40.55800 28.68600
C  49.92000 39.87000 25.69200
O  50.09800 39.55800 24.52500
C  50.38700 41.16100 26.06900
N  47.51800 34.82100 25.65900
C  48.09800 35.72900 24.80500
C  48.29100 35.10800 23.42400
C  48.08100 33.62400 23.68900
C  47.36600 33.63500 25.03200
C  47.36900 35.74800 22.29900
C  49.34700 32.64700 23.60100
C  49.36900 31.69700 22.36900
N  46.43900 33.43500 27.94900
C  46.39600 32.35800 27.00900
C  45.71700 31.20800 27.63900
C  45.35000 31.66800 28.86000
C  45.79500 32.99600 29.06300
C  45.31900 29.86100 27.02800
C  44.73300 31.21600 30.19600
O  44.16600 30.15100 30.51300
C  44.85300 32.46900 31.11400
C  45.36300 32.01800 32.43000
O  46.35300 31.28200 32.62100
O  44.53200 32.47500 33.40200
C  44.89800 32.00700 34.76000
H  47.77900 38.68300 30.65600
H  49.07700 37.49200 24.28300
H  46.81600 31.59100 24.98900
H  45.43400 35.03300 32.82800
H  47.55700 37.09100 32.54500
H  45.65100 38.42800 33.05600
H  44.55100 37.22700 32.45300
H  45.25700 38.29400 31.33600
H  48.45800 34.97300 32.73000
H  47.59300 33.36300 32.61500
H  48.65600 34.80600 34.78500
H  47.49400 33.48400 34.82000
H  48.88600 40.48800 29.77300
H  48.00800 41.17500 28.38100
H  49.75900 41.05100 28.33400
H  51.08300 41.06400 26.90200
H  49.65200 41.91100 26.36300
H  50.82400 41.58500 25.16500
H  49.27100 35.31100 22.99400
H  47.29400 33.35300 22.98600
H  46.40100 35.95100 22.75600
H  47.18600 35.06600 21.46900
H  47.78600 36.67300 21.90000
H  49.32600 31.97500 24.45900
H  50.30100 33.17000 23.66100
H  48.50200 31.97200 21.76900
H  49.33300 30.67300 22.74100
H  50.19900 31.98300 21.72400
H  45.81800 29.78900 26.06200
H  44.23900 29.92700 26.89800
H  45.61900 29.02400 27.66000
H  43.82700 32.77400 31.32000
H  44.46100 31.04400 35.02300
H  44.43000 32.76800 35.38500
H  45.97400 32.05100 34.92700

