158

Mg 53.47500 23.82300 44.55500
C  50.81500 25.68500 43.69900
C  51.99000 21.00900 43.73500
C  56.50500 22.25800 44.89300
C  55.05700 26.87900 45.58800
N  51.60100 23.43200 43.62200
C  50.59800 24.31600 43.39800
C  49.36200 23.59100 42.93600
C  49.53500 22.15700 43.59400
C  51.11400 22.17300 43.68800
C  48.93100 21.85700 44.93900
C  49.41300 23.61900 41.35200
C  48.09400 23.93900 40.61900
H  47.37800 22.68700 40.09000
N  54.17500 21.88500 44.16700
C  53.39400 20.86100 43.74800
C  54.12500 19.67200 43.57200
C  55.44000 20.03900 43.97300
C  55.42500 21.43200 44.41700
C  53.52600 18.29500 43.17300
C  56.67900 19.09900 43.94500
O  56.54700 17.97600 43.58900
C  58.03100 19.54800 44.26400
N  55.57700 24.52900 44.94900
C  56.56500 23.60100 45.17600
C  57.91700 24.30200 45.64400
C  57.45000 25.78300 45.90000
C  55.92200 25.74200 45.46000
C  58.61200 23.66100 46.82600
C  58.27900 26.85500 45.19600
C  58.36600 28.27300 45.90400
N  53.11300 25.88500 44.58800
C  53.71300 26.95300 45.16100
C  52.83300 28.09300 45.26300
C  51.67300 27.65700 44.68500
C  51.91700 26.31800 44.27800
C  53.03300 29.41300 45.94800
C  50.31000 27.92900 44.35100
O  49.64400 28.92700 44.59300
C  49.68400 26.69400 43.68000
C  49.14500 27.07300 42.35400
O  49.81800 27.43200 41.40400
O  47.78800 27.18500 42.39500
C  47.26400 27.93200 41.24500
H  51.44300 20.06500 43.72300
H  57.45300 21.73300 45.02600
H  55.46600 27.79700 46.01600
H  48.51600 24.20600 43.24200
H  49.14000 21.43900 42.87600
H  49.65700 21.56100 45.69600
H  48.13000 21.11900 44.90200
H  48.43000 22.71700 45.38300
H  49.79500 22.62900 41.10100
H  50.14400 24.29000 40.90100
H  48.30600 24.58300 39.76500
H  47.54900 24.45900 41.40700
H  53.80800 18.05100 42.14900
H  52.44600 18.43500 43.22300
H  53.82500 17.48000 43.83300
H  58.38100 20.26900 43.52500
H  58.64800 18.65200 44.19100
H  58.13300 19.93200 45.27900
H  58.66500 24.43600 44.86200
H  57.35600 26.04700 46.95300
H  59.68600 23.79000 46.69300
H  58.58900 22.58400 46.99200
H  58.47500 24.18800 47.77000
H  57.96700 27.03900 44.16800
H  59.30600 26.49100 45.18400
H  59.27300 28.78500 45.58300
H  58.35700 28.20100 46.99100
H  57.48100 28.82600 45.59000
H  52.45800 29.40500 46.87400
H  52.77000 30.22100 45.26500
H  54.10600 29.53700 46.09900
H  48.86000 26.54800 44.37800
H  47.39200 27.25300 40.40200
H  47.78800 28.85400 40.99600
H  46.18100 28.05500 41.26300
Mg -0.28200 43.18900 26.26600
C  2.20300 42.48500 28.70800
C  -2.65300 41.82400 28.39400
C  -2.37500 43.19400 23.76700
C  2.41100 43.66000 23.90700
N  -0.22400 42.21400 28.36800
C  0.87500 42.24200 29.19300
C  0.44000 41.90400 30.65400
C  -1.06700 41.47200 30.46100
C  -1.37000 41.84900 28.95600
C  -1.26200 39.98500 30.69800
C  0.92100 43.12700 31.47800
C  0.27400 43.31200 32.93700
H  -0.25900 42.05500 33.71600
N  -2.28000 42.80200 26.18000
C  -3.10700 42.29400 27.15700
C  -4.48700 42.46300 26.71200
C  -4.39800 42.70100 25.32000
C  -2.97300 42.90600 25.01400
C  -5.66900 42.00300 27.49600
C  -5.48100 42.79600 24.25300
O  -5.25800 42.94500 23.09300
C  -6.91700 42.53600 24.60200
N  0.05600 43.37500 24.09600
C  -1.06500 43.48100 23.33300
C  -0.64300 44.02900 21.95100
C  0.84000 44.55000 22.11100
C  1.14700 43.82300 23.41100
C  -0.90600 42.81100 20.95100
C  1.09100 46.08300 22.40800
C  1.17700 46.97100 21.19400
N  1.87200 43.11000 26.22500
C  2.77800 43.32600 25.24500
C  4.07100 43.28500 25.83300
C  3.87900 42.83300 27.12400
C  2.56900 42.76800 27.38300
C  5.33100 43.50300 25.07100
C  4.61800 42.48100 28.32600
O  5.84200 42.33800 28.55000
C  3.57200 42.41200 29.45900
C  3.75800 41.09200 30.09900
O  3.43100 40.01800 29.63200
O  4.34600 41.21100 31.35600
C  4.54400 40.04900 32.24600
H  -3.43700 41.58300 29.11500
H  -2.97900 43.25800 22.85900
H  3.28100 43.91000 23.29600
H  1.11300 41.08400 30.90400
H  -1.61000 42.10200 31.16600
H  -0.37200 39.40300 30.93800
H  -1.72900 39.50400 29.83900
H  -1.82300 39.88600 31.62700
H  0.74800 44.02100 30.88000
H  1.99700 43.17200 31.64800
H  -0.50700 44.04300 32.73000
H  0.99700 43.70300 33.65200
H  -5.46500 41.59600 28.48600
H  -6.12100 41.19300 26.92400
H  -6.33300 42.86400 27.57200
H  -7.01300 41.53500 25.02200
H  -7.43100 42.52700 23.64200
H  -7.08800 43.24100 25.41600
H  -1.24600 44.88800 21.65400
H  1.53200 44.00800 21.46700
H  -1.38300 41.95400 21.42600
H  0.03500 42.33600 20.67300
H  -1.38000 43.19600 20.04800
H  1.94700 46.26200 23.05900
H  0.28900 46.51000 23.01000
H  0.88400 46.43200 20.29300
H  2.24300 47.15800 21.05900
H  0.61800 47.90400 21.26200
H  6.14400 43.88700 25.68800
H  5.29700 44.38300 24.42800
H  5.68800 42.65700 24.48500
H  3.60300 43.22200 30.18800
H  5.00800 39.25300 31.66400
H  3.54000 39.66900 32.43600
H  5.13000 40.24400 33.14400

