158

Mg 34.94000 3.53500 29.97300
C  32.57300 4.57600 32.21100
C  37.34400 3.84700 32.46600
C  37.25600 2.55100 27.74900
C  32.57300 3.60300 27.49200
N  34.94200 4.11500 32.06800
C  33.81700 4.36500 32.79200
C  34.26400 4.48300 34.28700
C  35.74800 4.75400 34.18600
C  36.06200 4.27000 32.79600
C  36.06200 6.20200 34.40600
C  33.72300 3.27900 35.18000
C  34.19200 3.39000 36.60400
H  34.35200 4.71300 37.35100
N  36.98300 3.28500 30.10000
C  37.76900 3.46100 31.16800
C  39.07600 3.12400 30.77900
C  39.14300 2.71200 29.40600
C  37.74000 2.84500 28.96500
C  40.23200 3.31000 31.69300
C  40.34200 2.11900 28.54200
O  40.18700 1.84500 27.36000
C  41.64900 1.96500 29.08400
N  34.96300 3.37300 27.87300
C  36.00400 2.83100 27.17500
C  35.68000 2.49300 25.66600
C  34.16500 2.72500 25.68200
C  33.85600 3.25900 27.06600
C  36.58300 3.26000 24.69600
C  33.51100 1.36700 25.34500
C  33.01900 0.53400 26.53200
N  33.01400 3.99700 29.83300
C  32.15600 3.99900 28.74600
C  30.84200 4.42000 29.13900
C  30.92900 4.64100 30.51600
C  32.28500 4.40300 30.85500
C  29.62200 4.61200 28.32100
C  30.19600 4.89300 31.71200
O  29.03800 5.14300 31.96700
C  31.27200 4.89900 32.92700
C  31.35600 6.17800 33.61400
O  32.20500 7.05100 33.42200
O  30.60000 6.19400 34.78700
C  31.03900 7.06800 35.89400
H  38.09800 3.93300 33.25100
H  37.83800 2.17900 26.90300
H  31.77900 3.55100 26.74400
H  33.63800 5.29200 34.66500
H  36.38400 4.15600 34.83900
H  36.16300 6.41100 35.47100
H  35.22000 6.77000 34.01200
H  36.96900 6.33400 33.81600
H  33.90100 2.28500 34.76900
H  32.65700 3.43300 35.34500
H  35.03200 2.72800 36.81100
H  33.38900 2.96600 37.20700
H  40.49200 2.31000 32.04100
H  40.17700 3.98400 32.54700
H  41.00100 3.73300 31.04600
H  41.74900 1.35100 29.97900
H  41.96800 3.00000 29.21100
H  42.27600 1.63700 28.25500
H  35.93400 1.43900 25.55700
H  33.85800 3.47500 24.95300
H  36.12200 4.02100 24.06700
H  37.01000 2.53600 24.00200
H  37.34600 3.78500 25.27100
H  34.01500 0.76300 24.59100
H  32.56200 1.69000 24.91700
H  31.98500 0.28900 26.29000
H  33.13300 0.97500 27.52200
H  33.63700 -0.36000 26.45600
H  29.69500 4.49000 27.24000
H  29.08100 5.49300 28.66700
H  29.00200 3.77000 28.62900
H  31.01900 4.17300 33.70000
H  30.32400 7.88200 36.01300
H  31.97200 7.61600 35.76400
H  31.05100 6.59400 36.87500
Mg 42.29600 41.35400 26.11100
C  41.55600 43.77200 28.53700
C  43.62900 39.43900 28.55400
C  43.51600 39.47500 23.68200
C  41.92000 44.00000 23.71900
N  42.48500 41.62200 28.34800
C  41.94400 42.59900 29.15000
C  41.97100 42.20900 30.67100
C  42.86300 40.98900 30.66500
C  43.01900 40.65700 29.11500
C  44.22500 41.20700 31.39800
C  40.55500 41.88200 31.23200
C  40.57500 41.51200 32.70600
H  39.90700 42.52000 33.67400
N  43.29200 39.65500 26.11700
C  43.77400 38.99200 27.22600
C  44.40500 37.83800 26.81800
C  44.41100 37.77700 25.38100
C  43.69100 38.98700 24.97700
C  45.04100 36.89400 27.84900
C  45.04600 36.78300 24.44100
O  45.14200 36.99400 23.24500
C  45.81000 35.49400 25.00100
N  42.48800 41.66900 23.97600
C  42.97700 40.67100 23.22000
C  42.87900 41.02300 21.73100
C  42.41400 42.47600 21.73400
C  42.18900 42.75900 23.22100
C  44.09900 40.74000 20.83700
C  41.10800 42.56400 20.89200
C  40.68500 43.92800 20.36500
N  41.64100 43.40600 26.06400
C  41.58700 44.34700 25.05100
C  41.24800 45.61900 25.51400
C  41.02700 45.37700 26.89100
C  41.38600 44.07800 27.15100
C  41.04600 46.85000 24.65100
C  40.70800 46.06300 28.16500
O  40.37400 47.21000 28.37200
C  40.96900 44.97100 29.24900
C  41.96800 45.53100 30.24400
O  43.16300 45.64800 30.01000
O  41.40600 45.61100 31.43300
C  42.31800 45.51100 32.59200
H  44.07300 38.84300 29.35400
H  43.60400 38.76800 22.85500
H  41.79100 44.86000 23.05900
H  42.51000 43.00400 31.18700
H  42.45000 40.09500 31.13300
H  44.21500 40.72100 32.37400
H  44.29300 42.27200 31.61600
H  45.02100 40.83900 30.75100
H  40.35100 40.97700 30.65900
H  39.80600 42.63100 30.97500
H  41.61400 41.59700 33.02300
H  40.18300 40.54400 33.02000
H  44.83900 35.86600 27.54900
H  44.56800 36.89300 28.83100
H  46.12600 37.00300 27.83900
H  46.48000 35.82900 25.79300
H  46.37900 35.09500 24.16200
H  45.20200 34.74900 25.51400
H  42.10500 40.37500 21.32000
H  43.18800 43.14400 21.35400
H  44.38400 41.52100 20.13200
H  43.89300 39.92400 20.14400
H  44.92600 40.49900 21.50500
H  40.33400 42.17000 21.55000
H  41.09800 41.81900 20.09600
H  41.23300 44.83300 20.62900
H  39.67100 44.27900 20.55700
H  40.89000 43.92500 19.29400
H  40.02100 46.94400 24.29400
H  41.82700 46.90000 23.89200
H  41.14200 47.71600 25.30600
H  40.07900 44.63900 29.78400
H  43.08400 46.27900 32.70000
H  42.85300 44.56300 32.55400
H  41.67900 45.57700 33.47300

