158

Mg 30.75500 58.55900 40.33800
C  27.85700 56.49900 39.48100
C  32.69200 55.91300 39.49600
C  33.31100 60.63100 40.43500
C  28.55000 61.26800 40.58900
N  30.28300 56.48100 39.49500
C  29.11600 55.80600 39.29500
C  29.37100 54.40900 38.68900
C  30.83600 54.17600 39.21000
C  31.30200 55.61900 39.45000
C  30.89600 53.36000 40.53600
C  29.27500 54.41000 37.15000
C  28.02800 53.52000 36.53300
H  27.15700 54.18800 35.53600
N  32.73600 58.37000 40.01700
C  33.30100 57.15900 39.65200
C  34.69100 57.32800 39.42400
C  35.04300 58.65700 39.86500
C  33.69900 59.31200 40.24600
C  35.69800 56.28000 38.82000
C  36.40800 59.28100 39.93800
O  37.35600 58.65900 39.38400
C  36.70000 60.72000 40.45200
N  30.94800 60.64500 40.71900
C  32.11200 61.31700 40.68800
C  31.96300 62.78100 40.52500
C  30.38400 63.03200 40.71500
C  29.87800 61.57500 40.70600
C  32.74700 63.73200 41.55100
C  29.73100 63.92200 39.61100
C  30.30500 65.28700 39.19700
N  28.59400 58.81900 40.20800
C  27.93000 60.02500 40.29600
C  26.54700 59.81400 40.02600
C  26.41700 58.44600 39.74900
C  27.72700 57.84900 39.83600
C  25.48000 60.89300 40.01600
C  25.55100 57.36900 39.29000
O  24.35600 57.41600 39.05500
C  26.44200 56.14800 39.11500
C  26.06300 55.09300 40.00500
O  26.58400 54.84000 41.08700
O  25.05600 54.27800 39.50700
C  24.46500 53.18300 40.23100
H  33.31100 55.04200 39.26900
H  34.08600 61.36900 40.21700
H  27.86100 62.11600 40.60100
H  28.69800 53.78800 39.28100
H  31.58100 53.78400 38.51800
H  30.00300 52.74100 40.62500
H  30.97400 54.04600 41.38000
H  31.69500 52.62100 40.48400
H  30.13600 53.99200 36.62900
H  29.14600 55.43100 36.79200
H  27.35700 53.02800 37.23800
H  28.54400 52.69400 36.04300
H  36.15400 56.45100 37.84500
H  35.41900 55.22700 38.81500
H  36.53900 56.23700 39.51200
H  36.38600 61.49400 39.75200
H  37.78500 60.71500 40.55700
H  36.13200 60.95500 41.35200
H  32.36200 63.07400 39.55400
H  30.17000 63.46900 41.69000
H  32.11500 63.97800 42.40400
H  32.90500 64.60000 40.91100
H  33.69300 63.28700 41.85900
H  28.71600 64.10600 39.96500
H  29.57000 63.34400 38.70100
H  29.68200 66.17600 39.28800
H  30.74200 65.30000 38.19900
H  31.17400 65.42100 39.84100
H  25.61400 61.55400 39.15900
H  25.45800 61.28600 41.03200
H  24.58300 60.34200 39.73200
H  26.58300 55.79900 38.09200
H  25.16800 52.58600 40.81200
H  24.04700 52.50200 39.48900
H  23.60800 53.48000 40.83500
Mg -1.37300 34.64100 26.79800
C  -3.14500 33.06700 29.19900
C  -0.42600 37.06300 29.10700
C  -0.45600 36.70700 24.27600
C  -2.66900 32.28700 24.49700
N  -1.80000 35.05600 28.87500
C  -2.45300 34.14800 29.69500
C  -2.30000 34.54300 31.20600
C  -1.66000 35.92500 31.13500
C  -1.28300 36.00600 29.63900
C  -2.62400 37.14900 31.60000
C  -1.44200 33.50200 32.01000
C  -2.21700 32.73200 33.10800
H  -1.34400 32.62900 34.47200
N  -0.49500 36.55500 26.75300
C  -0.05000 37.34900 27.76700
C  0.64100 38.42400 27.26500
C  0.61300 38.45300 25.84200
C  -0.14000 37.16900 25.54000
C  1.38100 39.37600 28.25200
C  1.05700 39.45600 24.84300
O  0.99700 39.40900 23.62100
C  1.70400 40.65700 25.41100
N  -1.51900 34.52700 24.71000
C  -0.98500 35.44600 23.82600
C  -1.05600 34.96600 22.32600
C  -1.57600 33.42900 22.48100
C  -2.03200 33.41100 23.97200
C  -1.99900 35.98700 21.52100
C  -0.56600 32.29500 22.05500
C  0.50100 31.95600 23.02100
N  -2.54800 32.97700 26.82400
C  -3.02100 32.11600 25.80300
C  -3.83500 31.06600 26.34200
C  -3.90700 31.34100 27.72800
C  -3.18400 32.59800 27.92500
C  -4.60500 30.07000 25.54800
C  -4.41300 31.02400 28.97500
O  -5.04300 29.98000 29.27300
C  -3.99600 32.07200 29.94200
C  -5.17100 32.66300 30.68800
O  -5.91900 33.51200 30.26200
O  -5.30300 32.11600 31.91500
C  -6.53100 32.39800 32.65400
H  -0.07500 37.75400 29.87600
H  -0.06500 37.21000 23.38900
H  -3.18200 31.64100 23.78200
H  -3.29800 34.62000 31.63800
H  -0.79900 36.04400 31.79300
H  -3.67800 36.97700 31.81800
H  -2.58300 37.93300 30.84300
H  -2.19700 37.64900 32.46900
H  -0.52500 33.85900 32.47900
H  -1.01700 32.71800 31.38300
H  -2.43600 31.69200 32.86500
H  -3.13400 33.28900 33.29600
H  2.32000 39.66200 27.77700
H  1.58000 39.14800 29.30000
H  0.77300 40.27900 28.28300
H  1.64900 41.34800 24.57000
H  2.72600 40.33400 25.61300
H  1.15400 40.96700 26.30000
H  -0.09800 35.08300 21.82000
H  -2.43500 33.27900 21.82700
H  -2.90900 35.39400 21.43600
H  -1.57400 36.09300 20.52300
H  -2.21800 36.90600 22.06700
H  -0.11200 32.70300 21.15200
H  -1.13700 31.39000 21.84500
H  0.38000 32.50700 23.95400
H  1.43600 32.29000 22.57200
H  0.55000 30.88200 23.19700
H  -4.13000 29.76100 24.61700
H  -5.52800 30.55700 25.23500
H  -4.88100 29.24400 26.20300
H  -3.34300 31.70800 30.73500
H  -6.28400 32.94100 33.56600
H  -6.97700 31.53900 33.15500
H  -7.31300 32.78000 31.99700

