158

Mg 2.04800 -2.31900 45.00800
C  5.56800 -1.41300 44.88900
C  1.36300 0.53100 43.28200
C  -0.92900 -3.52400 44.66300
C  3.14500 -5.59900 46.07500
N  3.35600 -0.79100 44.02100
C  4.71800 -0.54500 44.12600
C  5.14200 0.61500 43.23500
C  3.79200 1.24700 42.80500
C  2.75800 0.34200 43.43100
C  3.74900 2.68000 43.39200
C  5.88800 -0.00600 42.04800
C  7.16800 0.73000 41.68700
H  7.48000 0.70200 40.14900
N  0.35700 -1.49800 44.30100
C  0.22600 -0.32900 43.62800
C  -1.16200 -0.09900 43.21100
C  -1.79200 -1.38000 43.42500
C  -0.77500 -2.21000 44.12300
C  -1.56900 1.12200 42.60800
C  -3.23600 -1.68600 43.09800
O  -3.94100 -0.89200 42.62400
C  -3.85900 -3.10500 43.23800
N  1.23400 -4.32700 45.29700
C  -0.08800 -4.47800 45.18900
C  -0.57500 -5.87400 45.68000
C  0.77000 -6.46300 46.22200
C  1.77100 -5.39600 45.82100
C  -1.66800 -5.78100 46.87500
C  1.03400 -7.87100 45.58200
C  1.68900 -8.96300 46.37300
N  3.96500 -3.31200 45.47400
C  4.21800 -4.64300 45.90800
C  5.68000 -4.73800 46.08400
C  6.22800 -3.50600 45.73300
C  5.14400 -2.69300 45.39300
C  6.34000 -5.96100 46.54700
C  7.47600 -2.74900 45.71400
O  8.61900 -3.06900 46.10900
C  7.07200 -1.37900 45.02200
C  7.60100 -0.24800 45.91400
O  7.47600 -0.28400 47.13300
O  8.16500 0.78400 45.13300
C  8.42600 2.01100 45.95500
H  1.17300 1.41000 42.66200
H  -1.97100 -3.83200 44.55200
H  3.40100 -6.62500 46.34900
H  5.68600 1.32300 43.86000
H  3.60500 1.31700 41.73400
H  4.32700 3.43200 42.85600
H  3.95900 2.65700 44.46200
H  2.72700 3.05700 43.34500
H  5.33700 -0.04400 41.10800
H  6.17300 -1.03600 42.25800
H  7.99400 0.31500 42.26400
H  7.11700 1.77500 41.99400
H  -1.19900 1.12400 41.58200
H  -1.18000 1.93500 43.22100
H  -2.65500 1.21000 42.61200
H  -3.18100 -3.86300 42.84600
H  -4.78900 -3.09600 42.67000
H  -3.92200 -3.30500 44.30800
H  -0.88700 -6.44700 44.80700
H  0.68300 -6.54800 47.30500
H  -1.87800 -4.71800 46.99200
H  -1.23600 -6.15600 47.80300
H  -2.54600 -6.39500 46.67300
H  1.65800 -7.73000 44.70000
H  0.06400 -8.14700 45.16900
H  2.27900 -9.61200 45.72500
H  0.90500 -9.63400 46.72400
H  2.35300 -8.66300 47.18300
H  5.89000 -6.32300 47.47200
H  7.42700 -5.88100 46.56500
H  6.13200 -6.66600 45.74200
H  7.52800 -1.29100 44.03700
H  8.59300 2.84200 45.26900
H  9.35000 1.88700 46.52000
H  7.57200 2.19500 46.60600
Mg 49.60800 46.08400 42.70400
C  46.76000 47.70900 41.65600
C  48.47600 43.21900 41.12200
C  52.87000 45.00700 42.50300
C  50.78900 49.24400 43.80600
N  47.83200 45.58700 41.58500
C  46.84700 46.41800 41.16500
C  45.74900 45.69600 40.33900
C  46.16600 44.27000 40.46300
C  47.60900 44.37700 41.06600
C  45.14800 43.36900 41.16300
C  45.61000 46.14600 38.78500
C  44.15500 46.40500 38.28800
H  43.78100 46.18200 36.80700
N  50.54600 44.29000 41.92500
C  49.87100 43.23500 41.40300
C  50.83900 42.13300 41.23300
C  52.07900 42.61000 41.68900
C  51.89100 44.02100 42.02500
C  50.31500 40.75400 40.73500
C  53.33700 41.74100 41.63200
O  53.29400 40.59800 41.17000
C  54.67600 42.43500 41.80500
N  51.57000 47.05000 42.88100
C  52.69300 46.30600 42.96400
C  53.84800 47.05100 43.67900
C  53.22900 48.43900 44.04400
C  51.78700 48.27800 43.54500
C  54.60000 46.32300 44.84600
C  53.93700 49.72300 43.40000
C  54.17400 50.83700 44.41500
N  48.96400 48.05200 42.88100
C  49.48500 49.20700 43.32100
C  48.51700 50.21200 43.40200
C  47.33500 49.66200 42.74500
C  47.72700 48.33700 42.45400
C  48.72700 51.55800 44.02100
C  46.05300 49.96800 42.20000
O  45.35300 50.99600 42.22100
C  45.60600 48.69300 41.46300
C  44.39600 48.26300 42.07500
O  44.29100 47.61100 43.10100
O  43.35500 48.60300 41.27600
C  42.04500 48.16400 41.58700
H  47.92700 42.41800 40.62300
H  53.81800 44.59300 42.85300
H  51.01600 50.17200 44.33300
H  44.82900 45.87400 40.89600
H  46.36700 43.81400 39.49400
H  45.33200 43.36800 42.23700
H  45.04800 42.37100 40.73500
H  44.16200 43.82200 41.06500
H  46.19200 45.62900 38.02200
H  46.05000 47.14100 38.72700
H  43.78400 47.35300 38.67700
H  43.42700 45.78300 38.81000
H  49.30800 40.77700 40.31900
H  50.47700 39.96900 41.47400
H  50.83400 40.60100 39.78800
H  54.79300 43.41000 41.33200
H  55.43200 41.83100 41.30400
H  54.92900 42.53600 42.86000
H  54.68800 47.17600 42.99500
H  53.28700 48.60000 45.12000
H  54.29100 45.34600 45.21900
H  54.75200 47.04100 45.65100
H  55.59000 46.08500 44.45700
H  53.37100 50.04100 42.52500
H  54.86700 49.44100 42.90700
H  55.17300 51.27300 44.39400
H  53.88800 50.59300 45.43800
H  53.49800 51.66600 44.20800
H  49.33800 52.20300 43.38900
H  49.27400 51.46400 44.95900
H  47.82300 52.12400 44.24500
H  45.43500 48.97600 40.42400
H  41.48100 48.28200 40.66200
H  41.58000 48.73600 42.39000
H  42.12300 47.09200 41.76800

