158

Mg 23.84100 -6.57900 45.58100
C  26.38800 -4.53200 44.01500
C  21.63900 -4.97600 43.34400
C  21.59000 -8.81300 46.45400
C  26.28200 -8.20100 47.38200
N  24.10100 -4.99400 43.72900
C  25.16700 -4.29000 43.36900
C  24.86000 -3.35200 42.17400
C  23.31700 -3.23000 42.25300
C  22.95100 -4.45200 43.17400
C  22.71300 -1.93400 42.99000
C  25.51700 -3.96200 40.88000
C  26.45800 -2.97700 40.18400
H  26.10700 -2.75300 38.70700
N  21.87900 -6.81100 45.07800
C  21.16700 -6.08800 44.16100
C  19.78300 -6.59500 44.17100
C  19.72300 -7.71300 45.03700
C  21.11200 -7.84600 45.57400
C  18.80900 -5.96300 43.24900
C  18.53600 -8.56800 45.30600
O  17.47500 -8.40800 44.72300
C  18.53900 -9.64300 46.30300
N  23.94200 -8.35900 46.71800
C  22.85400 -9.09900 47.03100
C  23.26800 -10.31300 47.95300
C  24.70000 -9.97600 48.36500
C  25.00700 -8.79700 47.45000
C  22.26500 -10.63200 49.06200
C  25.70900 -11.20500 48.19700
C  26.70900 -11.48500 49.26600
N  25.91700 -6.43200 45.75800
C  26.75600 -7.11200 46.57700
C  28.12100 -6.53800 46.41400
C  28.03300 -5.55400 45.39100
C  26.60100 -5.50300 45.04600
C  29.30300 -7.03100 47.24600
C  28.74300 -4.61200 44.70300
O  29.93000 -4.27200 44.77700
C  27.79100 -3.99700 43.71000
C  27.92800 -2.46900 43.74400
O  28.62300 -1.78400 42.99700
O  27.27300 -1.94300 44.86800
C  27.44400 -0.46500 45.19900
H  20.88300 -4.38000 42.82900
H  20.92600 -9.65700 46.65000
H  27.06300 -8.58400 48.04100
H  25.18700 -2.35100 42.45600
H  22.94000 -3.32200 41.23400
H  23.52200 -1.36000 43.44300
H  21.99400 -2.09700 43.79300
H  22.25300 -1.30700 42.22600
H  24.75200 -4.16300 40.12900
H  25.99700 -4.91600 41.09500
H  27.48400 -3.34100 40.25000
H  26.39300 -1.99900 40.66000
H  18.62900 -6.35900 42.25000
H  19.04700 -4.90700 43.12400
H  17.85100 -6.02100 43.76700
H  18.92000 -9.29700 47.26400
H  19.09300 -10.48700 45.89200
H  17.55000 -10.02600 46.55200
H  23.34100 -11.14000 47.24700
H  24.73300 -9.61600 49.39300
H  22.69400 -10.45200 50.04700
H  22.09800 -11.70800 49.01600
H  21.32400 -10.08300 49.09400
H  26.17300 -11.19700 47.21100
H  25.06800 -12.07100 48.35900
H  27.71800 -11.68800 48.90600
H  26.39200 -12.34000 49.86300
H  26.71200 -10.67900 50.00000
H  29.12100 -7.62300 48.14300
H  29.86900 -6.13300 47.49400
H  29.97700 -7.52400 46.54600
H  28.04300 -4.24300 42.67800
H  27.82400 0.22200 44.44300
H  28.26600 -0.44600 45.91500
H  26.46900 -0.24700 45.63400
Mg 47.96600 34.70600 26.95500
C  46.51800 33.34500 29.70200
C  48.01500 37.82300 28.60800
C  49.09300 36.05100 24.19800
C  47.33000 31.61900 25.21500
N  47.37800 35.43200 28.97300
C  46.84900 34.67400 29.94700
C  46.76500 35.40600 31.29700
C  46.98300 36.83800 30.81900
C  47.46400 36.72800 29.34500
C  45.87800 37.76000 31.02200
C  47.81400 34.88700 32.35900
C  47.41000 34.84200 33.83300
H  46.33200 35.89000 34.35900
N  48.66600 36.61800 26.48600
C  48.63100 37.74500 27.31600
C  49.35700 38.80600 26.59800
C  49.64000 38.31900 25.25000
C  49.11400 36.94700 25.24900
C  49.63400 40.09700 27.38900
C  50.32500 38.89700 24.06600
O  50.64100 38.27000 23.06000
C  50.71300 40.28800 24.13400
N  47.95700 34.02100 24.95300
C  48.61100 34.80300 24.02900
C  48.80200 34.05700 22.72000
C  48.30400 32.62700 23.05600
C  47.79300 32.74900 24.47400
C  48.13400 34.74900 21.42100
C  49.40300 31.56100 22.99200
C  50.64000 31.72200 24.01500
N  47.13300 32.86100 27.37200
C  46.90600 31.67500 26.53400
C  46.29600 30.67800 27.40400
C  46.00500 31.33400 28.61700
C  46.58900 32.60300 28.53900
C  45.94700 29.20700 27.11400
C  45.29600 31.19800 29.83700
O  44.62200 30.27500 30.28400
C  45.49700 32.52100 30.58300
C  45.65700 32.26700 32.01100
O  46.51200 31.48300 32.47300
O  44.57100 32.74700 32.70700
C  44.21000 32.35900 34.16000
H  48.20500 38.77000 29.11800
H  49.45800 36.36900 23.21900
H  47.30800 30.71200 24.60700
H  45.76300 35.32400 31.71700
H  47.85500 37.28300 31.29900
H  46.20600 38.72900 31.39600
H  45.07400 37.40400 31.66600
H  45.30900 37.94200 30.11000
H  48.78600 35.32700 32.13800
H  47.99900 33.85700 32.05500
H  48.34800 34.85600 34.38700
H  47.04000 33.87800 34.18300
H  50.24000 39.69100 28.19900
H  48.69400 40.53800 27.72000
H  50.21700 40.82600 26.82500
H  51.55400 40.30100 24.82800
H  49.86500 40.85600 24.51800
H  50.98000 40.68500 23.15500
H  49.87700 33.93700 22.59100
H  47.46900 32.38700 22.39800
H  48.86000 35.22600 20.76200
H  47.46200 35.57000 21.66900
H  47.54900 33.98400 20.91100
H  49.73200 31.52900 21.95300
H  48.92800 30.58900 23.11800
H  51.54900 31.67600 23.41600
H  50.96900 30.83100 24.55000
H  50.66700 32.58700 24.67800
H  46.19900 28.55300 27.94900
H  46.52400 28.92400 26.23300
H  44.94400 29.12100 26.69600
H  44.58300 33.11000 30.51400
H  43.17100 32.03200 34.10400
H  44.29700 33.27000 34.75200
H  44.92700 31.71700 34.67200

