158

Mg -1.67200 18.06600 27.53300
C  -2.24400 15.82700 30.06500
C  -2.21200 20.66400 29.55500
C  -1.37500 20.05800 24.81700
C  -1.89000 15.28400 25.22300
N  -2.06300 18.21200 29.64200
C  -2.24300 17.18300 30.52400
C  -2.57000 17.66600 31.94500
C  -2.90700 19.19000 31.69100
C  -2.32500 19.39800 30.22800
C  -4.43400 19.63500 31.89200
C  -1.44500 17.45900 32.94200
C  -1.90100 16.92000 34.24800
H  -0.87200 16.81500 35.38600
N  -1.73500 20.08100 27.20600
C  -1.94100 20.99700 28.22600
C  -1.74200 22.36900 27.74300
C  -1.58100 22.27100 26.34700
C  -1.56300 20.73800 26.08100
C  -1.78500 23.58300 28.58400
C  -1.31900 23.30900 25.34700
O  -1.41100 23.13900 24.11500
C  -0.87700 24.53700 25.84100
N  -1.63200 17.70100 25.32100
C  -1.44100 18.71400 24.42100
C  -1.56700 18.33900 22.96500
C  -1.86600 16.78000 23.08800
C  -1.82400 16.52800 24.60800
C  -2.81200 19.04800 22.30300
C  -0.89900 16.00000 22.15200
C  0.63500 15.97200 22.55900
N  -1.89300 16.02200 27.58100
C  -1.94100 15.01900 26.61300
C  -2.06500 13.68200 27.20900
C  -2.16700 13.97000 28.58000
C  -2.10000 15.38600 28.72200
C  -1.97500 12.40000 26.53100
C  -2.33900 13.35900 29.86600
O  -2.52700 12.18600 30.10100
C  -2.39600 14.52600 30.87900
C  -1.09400 14.29100 31.65900
O  0.05600 14.42100 31.24900
O  -1.37500 13.81300 32.86400
C  -0.23700 13.68300 33.75500
H  -2.30000 21.33400 30.41300
H  -1.20300 20.72500 23.96900
H  -1.96900 14.49000 24.47700
H  -3.48600 17.18800 32.29000
H  -2.32600 19.68400 32.46900
H  -4.79900 20.08100 30.96700
H  -4.49200 20.38200 32.68400
H  -5.10300 18.81300 32.14800
H  -0.95300 18.41600 33.11600
H  -0.62500 16.81700 32.62100
H  -2.45900 15.98700 34.16600
H  -2.63400 17.59700 34.68800
H  -2.25300 23.42300 29.55600
H  -2.13000 24.49900 28.10400
H  -0.75200 23.78400 28.86700
H  -1.67600 25.27400 25.92300
H  -0.35700 25.10900 25.07200
H  -0.23300 24.41600 26.71200
H  -0.65100 18.61300 22.44100
H  -2.85900 16.44600 22.78700
H  -2.82100 18.62600 21.29900
H  -2.68600 20.12800 22.21900
H  -3.73700 18.88300 22.85500
H  -1.00800 16.44400 21.16200
H  -1.31500 14.99500 22.23300
H  0.84600 16.40600 23.53600
H  1.14700 16.65200 21.87800
H  1.17900 15.04600 22.37400
H  -1.20600 11.75900 26.96200
H  -1.65200 12.45900 25.49100
H  -2.98000 12.02800 26.72900
H  -3.28300 14.38200 31.49500
H  0.31300 14.62300 33.81700
H  0.40000 12.89500 33.35200
H  -0.57400 13.33200 34.73000
Mg 46.92800 23.78700 28.08200
C  47.89900 26.35600 30.62700
C  46.22300 21.78700 30.55600
C  46.18500 21.59500 25.73800
C  48.09400 25.99700 25.74300
N  46.98700 24.09100 30.41500
C  47.38600 25.15100 31.21100
C  46.97200 24.81900 32.66000
C  46.52200 23.31600 32.58900
C  46.53700 23.04200 31.12100
C  47.34400 22.32600 33.39500
C  46.04300 25.87000 33.35600
C  45.53000 25.48100 34.78500
H  45.35500 26.57700 35.86200
N  46.36100 21.95400 28.11300
C  46.09500 21.21700 29.22700
C  45.71100 19.87500 28.90800
C  45.53400 19.86400 27.50300
C  46.00900 21.22100 27.05900
C  45.46300 18.79600 29.99000
C  45.08500 18.78000 26.52100
O  44.93300 18.93700 25.27100
C  44.76000 17.42400 27.10800
N  47.17200 23.83300 26.04700
C  46.72900 22.84700 25.30100
C  47.03500 23.08400 23.80200
C  47.39000 24.60000 23.87400
C  47.53300 24.85800 25.31200
C  48.07600 22.11500 23.09500
C  46.22900 25.40100 23.12800
C  46.13300 25.18200 21.62900
N  47.79200 25.74000 28.10500
C  48.28900 26.47200 27.11100
C  48.87000 27.66500 27.56900
C  48.58700 27.70600 28.91900
C  48.06000 26.45200 29.24400
C  49.59600 28.66700 26.72400
C  48.75200 28.50100 30.07100
O  49.19800 29.63100 30.16200
C  48.20600 27.67300 31.28100
C  49.32800 27.60300 32.27900
O  50.33300 26.88400 32.12800
O  49.02100 28.30300 33.42800
C  49.82300 28.03400 34.69200
H  45.86800 21.08100 31.30900
H  45.87600 20.91600 24.94000
H  48.57000 26.69600 25.05200
H  47.95900 24.77000 33.11900
H  45.51800 23.20700 32.99900
H  46.78300 21.48600 33.80400
H  47.88000 22.78000 34.22900
H  48.01700 21.84000 32.68800
H  45.17700 25.96800 32.70100
H  46.64800 26.77300 33.44100
H  46.11800 24.67300 35.21900
H  44.49300 25.16700 34.66800
H  44.40000 18.57300 30.07900
H  45.70900 19.23900 30.95500
H  46.10900 17.93800 29.80200
H  45.69700 17.14900 27.59300
H  44.52900 16.73600 26.29500
H  43.97300 17.55900 27.85100
H  46.04200 22.98400 23.36400
H  48.39900 24.64000 23.46500
H  47.62300 21.95000 22.11800
H  48.08600 21.18100 23.65600
H  49.03800 22.58000 22.87900
H  46.37700 26.46400 23.31800
H  45.29400 25.06400 23.57600
H  46.89500 24.48700 21.27500
H  46.40100 26.13400 21.16900
H  45.17500 24.82300 21.25500
H  50.33600 28.12900 26.13200
H  50.15900 29.27100 27.43500
H  48.90400 29.22600 26.09400
H  47.32700 28.17700 31.68400
H  50.19100 28.98500 35.07800
H  50.59200 27.28400 34.50800
H  49.07500 27.62400 35.37100

