158

Mg 9.49300 3.51300 27.96400
C  10.61400 1.99100 31.06800
C  7.83700 5.72700 30.03300
C  7.94500 4.56800 25.25300
C  10.90800 0.82000 26.20700
N  9.18800 3.73100 30.41800
C  9.92700 3.15900 31.43100
C  9.61000 3.80500 32.82700
C  8.61100 4.91900 32.39500
C  8.46300 4.75900 30.83200
C  7.22300 5.03100 33.03500
C  10.91700 4.36300 33.55300
C  11.33500 3.51900 34.77200
H  11.56100 4.48000 35.95400
N  8.15600 4.95600 27.66400
C  7.61500 5.82400 28.58600
C  6.81000 6.81300 27.87100
C  6.79100 6.47200 26.49800
C  7.69400 5.39000 26.41400
C  5.91700 7.74800 28.58300
C  6.11600 7.19100 25.29100
O  6.12000 6.83900 24.15500
C  5.42100 8.47500 25.68700
N  9.41200 2.77400 26.03000
C  8.69100 3.39300 25.07800
C  8.78700 2.57900 23.71400
C  9.78200 1.51700 24.04600
C  10.03000 1.66300 25.56100
C  7.43400 2.14000 23.10300
C  11.05700 1.40100 23.16600
C  10.94700 0.85100 21.73300
N  10.59800 1.81500 28.46700
C  11.17800 0.84500 27.60800
C  11.88500 -0.13200 28.43700
C  11.68500 0.23800 29.81300
C  10.87300 1.40500 29.79800
C  12.59300 -1.42300 27.99700
C  12.01800 -0.04000 31.19800
O  12.72100 -0.89700 31.64600
C  11.33200 1.09500 32.06700
C  10.46400 0.55600 33.13700
O  9.24900 0.40600 33.06500
O  11.23000 0.27100 34.21500
C  10.53000 -0.27400 35.30700
H  7.26300 6.43200 30.63700
H  7.57400 4.92700 24.29000
H  11.40200 0.02400 25.64600
H  8.98900 3.30600 33.57100
H  9.08200 5.90100 32.41900
H  7.12900 4.74200 34.08200
H  6.52000 4.49000 32.40000
H  6.80900 6.02900 32.89300
H  10.87800 5.41500 33.83200
H  11.68100 4.22100 32.78800
H  12.22000 2.92500 34.54700
H  10.54700 2.82200 35.06000
H  4.91200 7.33700 28.48100
H  5.85300 8.76500 28.19400
H  6.02600 7.89100 29.65800
H  4.61500 8.23600 26.38100
H  4.80200 8.76800 24.83900
H  6.09600 9.27600 25.99100
H  9.22200 3.29000 23.01100
H  9.30400 0.53800 24.05300
H  6.78300 1.58300 23.77700
H  7.49900 1.59200 22.16300
H  6.90400 3.07600 22.93200
H  11.77400 0.75700 23.67600
H  11.42800 2.42500 23.13400
H  9.88200 0.84200 21.50200
H  11.31300 -0.17400 21.66800
H  11.58100 1.48300 21.11100
H  12.87600 -1.31200 26.95000
H  12.02500 -2.33100 28.19500
H  13.46700 -1.47400 28.64700
H  12.20300 1.64300 32.42500
H  9.69400 0.39800 35.50000
H  11.22300 -0.14300 36.13700
H  10.26500 -1.31800 35.13500
Mg 53.53400 24.20200 44.22800
C  50.82900 26.01000 43.31000
C  52.14500 21.31700 42.97900
C  56.57500 22.54100 44.65600
C  55.17500 27.16300 45.22100
N  51.85300 23.81100 43.04600
C  50.79500 24.66700 42.82300
C  49.66000 23.97000 42.04400
C  49.91900 22.48100 42.29300
C  51.37600 22.53800 42.85100
C  48.83900 21.77100 43.05900
C  49.77600 24.22000 40.46600
C  48.41300 24.23600 39.68600
H  47.86800 22.88600 39.19000
N  54.28900 22.21100 43.83700
C  53.48700 21.17700 43.37000
C  54.32100 20.00800 43.29800
C  55.57600 20.28800 43.84800
C  55.56200 21.72300 44.21300
C  53.71400 18.74500 42.78900
C  56.72100 19.32800 44.10900
O  56.64800 18.15800 43.77600
C  57.97500 19.75900 44.88000
N  55.60500 24.75600 44.87900
C  56.58000 23.91800 44.94800
C  57.81300 24.65300 45.43200
C  57.46300 26.17500 45.31400
C  56.00400 26.03600 45.14500
C  58.37900 24.03800 46.76900
C  58.24700 26.94300 44.21600
C  57.52900 27.66700 43.09100
N  52.99900 26.19500 44.42700
C  53.79800 27.27900 44.91400
C  52.84800 28.38300 45.04100
C  51.65300 27.97600 44.45400
C  51.83700 26.67300 43.98800
C  53.24900 29.70400 45.66100
C  50.27700 28.29000 44.10600
O  49.64000 29.28200 44.29400
C  49.71800 27.06600 43.32300
C  49.16400 27.71400 42.09200
O  49.86500 28.31200 41.27300
O  47.84900 27.44500 41.94300
C  47.22500 27.76700 40.67900
H  51.53800 20.45600 42.69300
H  57.57700 22.12200 44.76300
H  55.73100 28.08300 45.41800
H  48.71300 24.31000 42.46300
H  50.07000 21.87700 41.39800
H  48.72300 20.77400 42.63500
H  47.88600 22.27000 42.88500
H  49.08400 21.58900 44.10600
H  50.32900 23.42100 39.97200
H  50.39100 25.07500 40.18800
H  48.55000 24.95900 38.88100
H  47.62300 24.72400 40.25600
H  52.73400 18.50000 43.19700
H  54.25300 17.80100 42.88000
H  53.33700 18.93800 41.78500
H  58.39500 20.53800 44.24300
H  58.71200 18.96400 45.00200
H  57.68400 20.11400 45.86800
H  58.56800 24.52000 44.65700
H  57.80800 26.53100 46.28500
H  57.66500 23.25200 47.01800
H  58.48400 24.77700 47.56200
H  59.33900 23.56800 46.55300
H  59.13500 26.44900 43.82200
H  58.60200 27.75500 44.85100
H  58.18600 27.56000 42.22800
H  57.52200 28.72200 43.36600
H  56.53000 27.28100 42.88800
H  52.41500 30.10200 46.24000
H  53.38400 30.32800 44.77800
H  54.16000 29.51600 46.22800
H  48.78800 26.80000 43.82500
H  47.84600 27.53500 39.81300
H  47.12700 28.85000 40.61300
H  46.28600 27.23000 40.54300

