158

Mg 48.87400 34.20000 26.41900
C  46.70100 33.01500 28.81300
C  49.42600 37.11400 28.23200
C  50.57100 35.39100 23.77300
C  47.86400 31.46300 24.38100
N  48.10900 35.00600 28.29200
C  47.40400 34.22800 29.21200
C  47.66200 34.74700 30.61600
C  48.00700 36.25200 30.31400
C  48.58000 36.12800 28.87400
C  46.79000 37.29200 30.47300
C  48.72600 34.07400 31.51200
C  48.35300 33.82200 32.92600
H  47.35900 34.73200 33.70000
N  49.96300 36.02400 26.04400
C  50.11700 37.05700 26.95000
C  50.89900 38.08000 26.26700
C  51.24500 37.60300 25.04200
C  50.62000 36.25700 24.92800
C  51.22100 39.43300 26.89100
C  52.14900 38.13700 23.97700
O  52.56500 37.50300 22.97900
C  52.60300 39.57200 24.13300
N  49.06800 33.60300 24.31000
C  49.94200 34.20900 23.53500
C  50.17900 33.47300 22.19200
C  49.37500 32.13200 22.46800
C  48.73200 32.44000 23.80300
C  49.72600 34.32600 20.95400
C  50.10300 30.76500 22.48500
C  51.38800 30.64100 21.59200
N  47.65700 32.51400 26.53500
C  47.26800 31.49300 25.65400
C  46.41900 30.56500 26.34700
C  46.10100 31.15600 27.57600
C  46.90800 32.32500 27.64200
C  46.07300 29.20700 25.82300
C  45.38300 31.01600 28.76800
O  44.74000 30.05900 29.19200
C  45.73500 32.23300 29.61600
C  46.26200 31.66500 30.86400
O  47.33500 31.11700 31.07900
O  45.28700 31.84700 31.82400
C  45.39100 31.03100 33.02400
H  49.71600 37.97400 28.83900
H  51.11200 35.78100 22.90800
H  47.62200 30.56200 23.81400
H  46.74600 34.61600 31.19300
H  48.78700 36.52600 31.02400
H  45.92500 36.90800 31.01300
H  46.50600 37.55500 29.45400
H  47.19100 38.11300 31.06800
H  49.64100 34.66000 31.59900
H  49.07100 33.18100 30.99000
H  49.30500 33.62500 33.42000
H  48.01500 32.79000 33.01500
H  50.87500 39.52600 27.92100
H  50.76600 40.15300 26.21100
H  52.26300 39.75400 26.91800
H  53.55800 39.63100 24.65500
H  51.87700 40.27000 24.55000
H  52.71500 40.00100 23.13700
H  51.25400 33.30700 22.13000
H  48.61500 32.02900 21.69400
H  49.38400 35.32300 21.23000
H  48.97800 33.76800 20.39000
H  50.59500 34.30900 20.29600
H  49.51800 29.88700 22.20600
H  50.44200 30.74700 23.52100
H  52.30700 30.94200 22.09400
H  51.27500 31.09700 20.60800
H  51.55600 29.58800 21.36500
H  45.01000 29.20100 25.58100
H  46.27100 28.56900 26.68500
H  46.83900 28.97500 25.08400
H  44.85700 32.85900 29.77400
H  45.74600 30.05300 32.69800
H  44.57200 30.93000 33.73600
H  46.15900 31.41600 33.69500
Mg 29.29900 58.30300 40.20600
C  27.59700 55.30900 39.44800
C  32.24800 56.69600 39.51300
C  30.76700 61.17400 40.60900
C  26.07500 59.90300 40.22200
N  29.81600 56.30400 39.41800
C  28.94000 55.20100 39.24300
C  29.72300 54.00000 38.58400
C  31.18700 54.47900 38.77900
C  31.10100 55.92400 39.29400
C  32.14300 53.53500 39.55400
C  29.19700 53.72400 37.08900
C  29.14300 54.94000 36.11100
H  27.82100 55.50800 35.64500
N  31.27100 58.90700 40.18700
C  32.31700 58.09100 39.92700
C  33.50000 58.92700 39.93600
C  33.14900 60.25600 40.19000
C  31.66700 60.17200 40.34800
C  34.90000 58.42600 39.58400
C  34.10600 61.49800 40.21200
O  35.27400 61.34700 40.06500
C  33.63400 62.91200 40.39200
N  28.55500 60.21000 40.18800
C  29.40000 61.17300 40.55900
C  28.66100 62.46300 40.91800
C  27.24700 62.18600 40.30400
C  27.27500 60.63300 40.28300
C  28.73000 62.90200 42.46300
C  26.92900 62.76800 38.86600
C  25.48700 63.25600 38.61000
N  27.14800 57.74200 39.85700
C  25.99700 58.48700 40.03500
C  24.85100 57.57900 40.00500
C  25.39100 56.28500 39.86300
C  26.80300 56.45400 39.71400
C  23.41600 57.88100 40.34500
C  25.12900 54.89600 39.74400
O  24.11100 54.24200 39.81400
C  26.54100 54.16000 39.47700
C  26.89200 53.24600 40.59600
O  27.09000 52.07900 40.48100
O  27.05900 53.96500 41.72500
C  27.66700 53.27000 42.85300
H  33.22200 56.20500 39.44400
H  31.21600 62.13100 40.88100
H  25.15700 60.49500 40.21900
H  29.56000 53.11400 39.19800
H  31.58800 54.46300 37.76500
H  31.73400 52.52500 39.58600
H  32.17400 53.99600 40.54100
H  33.19300 53.55500 39.26100
H  28.25400 53.18000 37.03600
H  29.88900 52.93500 36.79400
H  29.77300 54.73700 35.24500
H  29.59300 55.83700 36.53900
H  35.27600 59.03000 38.75800
H  34.97900 57.34600 39.46000
H  35.50400 58.78000 40.42000
H  33.37600 62.99100 41.44800
H  32.90600 63.05200 39.59300
H  34.44500 63.61800 40.21100
H  29.14000 63.23500 40.31600
H  26.45200 62.44600 41.00200
H  27.72000 63.15500 42.78400
H  29.28800 63.82700 42.60400
H  28.94500 62.04300 43.10000
H  27.31800 62.00500 38.19200
H  27.56000 63.65000 38.75800
H  25.06400 62.62800 37.82600
H  25.51200 64.25500 38.17400
H  24.85000 63.30500 39.49300
H  22.76900 57.67500 39.49200
H  23.18500 58.86700 40.74800
H  23.15300 57.23300 41.18100
H  26.38300 53.55900 38.58200
H  27.41000 52.23700 43.08900
H  27.46100 53.70500 43.83100
H  28.74600 53.25800 42.69800

