158

Mg 41.46600 40.54900 26.96200
C  40.92400 43.06700 29.41100
C  42.22800 38.42300 29.45000
C  42.70700 38.46900 24.59400
C  41.20300 43.10500 24.51500
N  41.59600 40.82400 29.16800
C  41.19900 41.87900 30.01400
C  41.08500 41.45800 31.52400
C  41.67900 39.97100 31.41600
C  41.87800 39.72800 29.86600
C  43.00200 39.60200 32.25300
C  39.63400 41.51200 32.11500
C  39.34200 42.76700 33.02500
H  38.62100 42.59300 34.38700
N  42.13700 38.59700 27.06600
C  42.31400 37.86900 28.15100
C  42.59100 36.51500 27.74500
C  42.99600 36.49600 26.36900
C  42.60600 37.91100 25.95100
C  42.60000 35.31400 28.73600
C  43.72200 35.48800 25.56100
O  44.14000 35.64000 24.37800
C  43.98900 34.15300 26.13800
N  41.93000 40.74200 24.90000
C  42.32000 39.69100 24.11000
C  42.18300 39.95500 22.66400
C  41.46300 41.38100 22.62000
C  41.56100 41.78700 24.09500
C  43.44800 39.83100 21.92000
C  40.02400 41.50900 22.01200
C  38.93700 40.66200 22.63100
N  41.19000 42.62500 26.90100
C  40.93700 43.45100 25.80500
C  40.34500 44.68300 26.36000
C  40.39800 44.58700 27.72900
C  40.93000 43.35200 28.00400
C  39.71800 45.83300 25.56400
C  40.00900 45.32100 28.87400
O  39.67000 46.45400 29.11800
C  40.31500 44.29300 30.05800
C  41.30400 44.92400 31.00900
O  42.49200 44.71500 30.90000
O  40.68300 45.65600 32.00400
C  41.53700 46.24000 33.03700
H  42.42300 37.68300 30.22900
H  42.88700 37.66500 23.87700
H  40.84300 43.73700 23.70000
H  41.83100 42.00900 32.09700
H  40.97700 39.21700 31.77100
H  43.88600 39.57900 31.61600
H  42.85900 38.61800 32.69800
H  43.05300 40.39200 33.00200
H  39.33800 40.67200 32.74300
H  38.97400 41.65000 31.25900
H  38.62900 43.43900 32.54700
H  40.29300 43.28900 33.13200
H  43.63300 35.01800 28.92100
H  42.06800 34.47000 28.29700
H  42.14300 35.42000 29.72100
H  44.50500 34.25800 27.09200
H  44.51300 33.37800 25.57800
H  43.01900 33.74700 26.42400
H  41.49400 39.22200 22.24400
H  42.08400 42.02300 21.99600
H  43.38300 40.54400 21.09800
H  43.46300 38.80700 21.54500
H  44.32300 40.08500 22.51800
H  40.04700 41.23800 20.95700
H  39.83600 42.58200 21.97500
H  38.52000 39.99000 21.88000
H  38.19000 41.36700 22.99400
H  39.18700 39.89600 23.36600
H  39.33700 45.45900 24.61400
H  40.52500 46.54900 25.40700
H  38.87500 46.27800 26.09200
H  39.34500 44.15200 30.53400
H  42.37500 46.66500 32.48400
H  41.72000 45.40800 33.71700
H  40.91800 47.06800 33.38300
Mg -5.01500 25.23700 26.49100
C  -3.50600 26.86000 29.03700
C  -6.54700 23.09400 28.65700
C  -6.54400 23.59800 23.80900
C  -3.65200 27.48800 24.25700
N  -4.93700 24.96300 28.55200
C  -4.45100 25.88900 29.45300
C  -4.81600 25.48100 30.90000
C  -5.58800 24.14000 30.68800
C  -5.72600 24.10100 29.18300
C  -4.73400 22.96200 31.27500
C  -5.58800 26.68400 31.56700
C  -5.86700 26.69900 33.11200
H  -5.55700 25.41700 33.91800
N  -6.29100 23.53000 26.29500
C  -6.79000 22.84600 27.33300
C  -7.62400 21.72200 26.83300
C  -7.76700 21.87200 25.46300
C  -6.81800 22.99500 25.11600
C  -8.30200 20.70800 27.69900
C  -8.53200 21.09400 24.41600
O  -8.42300 21.42600 23.27200
C  -9.59000 20.04600 24.91700
N  -5.07600 25.53900 24.28900
C  -5.91200 24.81700 23.45900
C  -5.77300 25.30500 22.06000
C  -4.84900 26.66000 22.21500
C  -4.50700 26.55900 23.65900
C  -5.26300 24.40900 20.86500
C  -5.54800 27.96200 21.80200
C  -5.07600 28.54300 20.41700
N  -3.73800 26.70200 26.55000
C  -3.23300 27.53800 25.59500
C  -2.29800 28.49700 26.16100
C  -2.34100 28.24500 27.49600
C  -3.24700 27.15100 27.66200
C  -1.39900 29.54100 25.48000
C  -1.78900 28.66400 28.73800
O  -0.85000 29.46300 29.00700
C  -2.62900 27.83600 29.80900
C  -2.00200 27.19700 30.95600
O  -1.24000 26.26500 30.85600
O  -2.36800 27.88700 32.12700
C  -1.89200 27.22000 33.27800
H  -7.12900 22.55300 29.40600
H  -6.87700 23.14200 22.87400
H  -3.30300 28.35100 23.68500
H  -3.90500 25.27800 31.46300
H  -6.55300 24.28100 31.17500
H  -5.29400 22.39300 32.01600
H  -3.74500 23.18000 31.67800
H  -4.47200 22.35100 30.41100
H  -6.47000 26.87500 30.95600
H  -4.96400 27.56900 31.43800
H  -6.90500 26.99500 33.26400
H  -5.34400 27.58000 33.48500
H  -7.94100 19.70600 27.47000
H  -9.37000 20.79900 27.49800
H  -8.21100 20.83500 28.77800
H  -9.31800 19.23400 25.59000
H  -10.15700 19.72300 24.04300
H  -10.32900 20.68400 25.40200
H  -6.78700 25.59000 21.77800
H  -3.92800 26.48000 21.66100
H  -4.22700 24.50000 20.53800
H  -5.93000 24.76400 20.08000
H  -5.52400 23.35500 20.95400
H  -5.36200 28.71900 22.56400
H  -6.57700 27.60500 21.84800
H  -4.34800 29.30700 20.68900
H  -5.89000 28.99700 19.85100
H  -4.57500 27.76600 19.84100
H  -1.58700 29.49000 24.40800
H  -0.35000 29.33100 25.68900
H  -1.78300 30.52400 25.75400
H  -3.38800 28.50100 30.22100
H  -1.04700 27.74400 33.72400
H  -1.60600 26.18100 33.11400
H  -2.71700 27.09200 33.98000

