158

Mg 48.25800 15.67100 28.55900
C  46.06200 15.47900 31.21400
C  50.62400 16.93300 30.78100
C  50.30300 16.04500 25.90700
C  45.75000 14.49500 26.49800
N  48.29400 16.31000 30.79000
C  47.29600 16.00800 31.63900
C  47.73100 16.36000 33.05700
C  49.08700 17.13100 32.85800
C  49.37000 16.86000 31.37400
C  49.03700 18.65700 33.18100
C  47.94100 15.08600 33.94700
C  47.48300 15.12400 35.40400
H  47.33700 16.45300 36.14600
N  50.18900 16.39600 28.37900
C  50.97100 16.86900 29.35800
C  52.27200 17.22900 28.78500
C  52.35400 16.80500 27.40600
C  50.90100 16.35300 27.16400
C  53.43500 17.78200 29.72500
C  53.46100 16.87200 26.42800
O  53.32000 16.46800 25.27100
C  54.82400 17.46300 26.81700
N  48.02900 15.37400 26.50300
C  48.99000 15.66300 25.59200
C  48.46400 15.43400 24.17800
C  47.14100 14.68100 24.38500
C  46.95000 14.79800 25.89000
C  48.33800 16.71500 23.37300
C  47.16200 13.23400 23.68300
C  47.53300 11.99500 24.57100
N  46.32000 14.95600 28.75000
C  45.40500 14.49300 27.84700
C  44.21800 14.09400 28.55700
C  44.46000 14.36100 29.90200
C  45.78100 14.91300 29.93500
C  43.06300 13.48100 27.95400
C  43.90500 14.33200 31.26400
O  42.86400 13.83400 31.66700
C  45.02700 15.00100 32.13700
C  44.51600 16.08100 33.12600
O  44.47800 17.31600 32.90400
O  44.09100 15.39500 34.28100
C  43.49200 16.24500 35.30100
H  51.43500 17.38300 31.35800
H  50.99200 16.15900 25.06700
H  45.00200 14.17900 25.76700
H  47.08100 17.07900 33.55600
H  49.82200 16.69600 33.53500
H  49.23400 19.18400 32.24700
H  49.78700 18.91900 33.92800
H  48.01000 18.91400 33.44100
H  48.97200 14.73500 33.91300
H  47.55800 14.19100 33.45800
H  48.28300 14.67000 35.98900
H  46.52800 14.62800 35.57500
H  53.47900 17.40300 30.74600
H  53.37500 18.87000 29.69100
H  54.45800 17.54300 29.43600
H  54.78300 18.45400 27.26800
H  55.27600 17.74600 25.86600
H  55.50000 16.84100 27.40400
H  49.15800 14.78100 23.64900
H  46.31300 15.18800 23.89100
H  47.42300 16.83500 22.79300
H  49.17200 16.80300 22.67800
H  48.41900 17.54700 24.07200
H  47.82600 13.14900 22.82300
H  46.17300 13.05400 23.26100
H  48.12900 11.29300 23.98800
H  46.68000 11.44600 24.97100
H  48.05300 12.36500 25.45500
H  43.35700 12.55800 27.45400
H  42.68600 14.28300 27.31900
H  42.36300 13.23700 28.75300
H  45.51000 14.30400 32.82100
H  44.11000 17.12200 35.49500
H  43.28200 15.70700 36.22500
H  42.57300 16.71900 34.95500
Mg 26.10500 50.51400 27.55400
C  23.85600 51.91600 29.89900
C  28.21400 49.77800 29.99100
C  28.30600 49.74500 25.16200
C  23.93300 51.95800 25.00900
N  25.93100 50.72200 29.77900
C  25.00500 51.33200 30.56700
C  25.21100 51.02800 32.09000
C  26.69100 50.42200 32.04200
C  27.00100 50.34300 30.54500
C  27.86000 51.12300 32.84500
C  24.16000 50.10100 32.80600
C  23.78800 50.45600 34.24100
H  24.80600 50.76500 35.27500
N  28.02300 49.62100 27.59700
C  28.75300 49.51300 28.68100
C  30.09200 49.03900 28.35400
C  30.11700 48.90200 26.88800
C  28.77700 49.41000 26.45700
C  31.20600 48.86000 29.38700
C  31.24000 48.34300 25.98300
O  31.14100 48.37800 24.79800
C  32.41600 47.47400 26.55400
N  26.19100 50.91300 25.38100
C  27.16900 50.36800 24.60600
C  26.75000 50.40200 23.14000
C  25.23700 50.73300 23.22800
C  25.10000 51.27500 24.65600
C  27.73500 51.21100 22.37000
C  24.20200 49.64800 22.77900
C  24.25700 49.02700 21.38000
N  24.32800 51.80300 27.41800
C  23.56000 52.23200 26.37200
C  22.39100 52.88900 26.82500
C  22.51600 52.83200 28.24000
C  23.70700 52.14600 28.52900
C  21.27400 53.30100 25.87600
C  21.86200 53.24400 29.46700
O  20.76700 53.71800 29.76200
C  22.67500 52.60400 30.61400
C  23.07100 53.70700 31.57100
O  23.82900 54.59800 31.43400
O  22.42800 53.36400 32.75800
C  22.74900 54.27000 33.88000
H  28.95200 49.56300 30.76700
H  28.97800 49.63600 24.30800
H  23.33100 52.27200 24.15400
H  25.14900 51.99600 32.58700
H  26.59100 49.42700 32.47600
H  28.79000 51.14500 32.27700
H  27.94100 50.89900 33.90800
H  27.46300 52.13800 32.88600
H  24.51200 49.08200 32.96500
H  23.24800 49.95000 32.22800
H  23.17300 49.68500 34.70500
H  23.17500 51.35700 34.25800
H  32.22200 48.68600 29.03400
H  31.08500 47.89000 29.87000
H  31.19200 49.66900 30.11700
H  33.14100 48.22500 26.86900
H  32.68600 46.92100 25.65500
H  31.96200 46.85600 27.32900
H  26.68100 49.37300 22.78800
H  25.05400 51.60000 22.59300
H  27.39500 52.19300 22.04000
H  27.92600 50.61000 21.48100
H  28.73000 51.27300 22.81100
H  23.26500 50.19800 22.86600
H  24.13100 48.87000 23.53800
H  24.36900 47.95500 21.54800
H  25.05500 49.42600 20.75500
H  23.36300 49.38500 20.86800
H  21.12000 52.52500 25.12500
H  21.45300 54.26400 25.39800
H  20.47400 53.47500 26.59500
H  22.07100 51.86200 31.13700
H  22.97300 55.29700 33.59100
H  23.61900 53.80400 34.34300
H  21.94900 54.25800 34.62000

