158

Mg 40.53000 8.28200 29.68800
C  42.26800 9.57300 32.45300
C  37.98000 7.52300 31.88800
C  39.01100 6.48400 27.18700
C  43.28800 8.78600 27.74400
N  40.32800 8.38700 31.92600
C  41.00200 9.09000 32.81600
C  40.39200 9.17000 34.21900
C  39.06800 8.40800 34.02700
C  39.11500 8.06800 32.51300
C  38.85800 7.16300 34.89800
C  40.28700 10.66500 34.77300
C  39.34400 10.93600 35.99500
H  39.86000 11.63600 37.15400
N  38.72400 7.22700 29.52200
C  37.80200 7.15300 30.53000
C  36.58800 6.52700 29.99000
C  36.82700 6.19100 28.62400
C  38.24500 6.61200 28.41800
C  35.32600 6.24000 30.87500
C  35.93300 5.67900 27.57300
O  36.41900 5.32500 26.51200
C  34.51700 5.46700 27.83300
N  41.04600 7.77400 27.76500
C  40.28300 6.96700 26.94300
C  40.95900 6.88700 25.48500
C  42.33500 7.62300 25.68200
C  42.21100 8.15400 27.13300
C  41.08700 5.39400 24.98400
C  42.77300 8.69600 24.59800
C  42.17800 10.08600 24.82200
N  42.40200 9.08200 29.94800
C  43.38000 9.31600 29.03800
C  44.49100 10.00600 29.64200
C  44.10700 10.10700 31.01500
C  42.82800 9.59900 31.10900
C  45.76400 10.48600 29.00700
C  44.48800 10.54700 32.36700
O  45.61500 10.81800 32.77800
C  43.26500 10.32300 33.35900
C  43.63300 9.39100 34.47500
O  44.16000 8.31300 34.35900
O  43.48200 10.05400 35.65400
C  44.01100 9.30200 36.84400
H  37.15400 7.21200 32.53100
H  38.58400 6.03300 26.28900
H  44.24700 8.86400 27.22700
H  41.02900 8.57400 34.87200
H  38.24500 9.12100 34.07400
H  38.95500 6.23300 34.33900
H  37.89100 7.17300 35.40300
H  39.62800 7.14600 35.66900
H  39.95000 11.22700 33.90200
H  41.21500 11.15400 35.06800
H  39.08600 9.94500 36.36900
H  38.43200 11.43600 35.66800
H  34.59400 6.91900 30.43900
H  35.43600 6.52900 31.92000
H  34.94200 5.25300 30.61700
H  34.07600 6.32800 28.33500
H  34.31400 4.65800 28.53500
H  33.99200 5.03200 26.98300
H  40.34900 7.41000 24.74900
H  43.22000 7.00300 25.82400
H  42.08800 5.27800 24.56900
H  40.39900 5.26100 24.14900
H  40.96700 4.71800 25.83100
H  42.35100 8.43600 23.62700
H  43.86200 8.70100 24.54900
H  41.64500 10.40200 23.92500
H  43.01600 10.71700 25.11800
H  41.52100 10.24200 25.67700
H  45.64900 11.36300 28.36900
H  46.19800 9.68800 28.40500
H  46.58000 10.70900 29.69400
H  42.95600 11.30800 33.70900
H  44.01700 8.21600 36.75700
H  43.23800 9.39800 37.60600
H  44.94400 9.74300 37.19500
Mg 6.86600 53.95500 41.12300
C  6.23200 50.32600 40.73500
C  10.09000 53.30200 40.47700
C  7.17000 57.23500 41.07500
C  3.37900 54.20400 41.41000
N  7.97400 51.96000 40.54000
C  7.56000 50.64800 40.46900
C  8.74800 49.70400 40.38700
C  9.97500 50.64300 40.62500
C  9.31400 52.08800 40.51500
C  10.84600 50.47400 41.89500
C  8.80300 48.81000 38.99200
C  8.86600 49.48100 37.68600
H  7.63500 49.54900 36.83700
N  8.44200 55.19700 40.81000
C  9.74400 54.74100 40.58100
C  10.59500 55.92700 40.44800
C  9.77400 57.12400 40.63100
C  8.44800 56.58700 40.92800
C  12.09200 55.94100 40.26900
C  10.23500 58.55100 40.46100
O  11.41800 58.72200 40.08100
C  9.25000 59.60800 40.75500
N  5.46000 55.48200 41.19800
C  5.89300 56.72500 41.33000
C  4.65600 57.73000 41.52100
C  3.46800 56.77500 41.28800
C  4.10400 55.40800 41.29600
C  4.56400 58.47300 42.90600
C  2.62200 57.12300 40.07300
C  1.35500 57.90400 40.32800
N  5.12100 52.59500 41.10200
C  3.83300 52.88100 41.35300
C  3.01100 51.76800 41.45100
C  3.92800 50.67800 41.28000
C  5.19900 51.25000 40.95600
C  1.50600 51.69200 41.68800
C  4.05300 49.23600 41.34400
O  3.14400 48.43700 41.58300
C  5.43900 48.92400 40.72900
C  5.21200 48.33900 39.28700
O  4.79800 48.99600 38.32400
O  5.59300 46.99700 39.23800
C  5.41800 46.33800 38.00800
H  11.15900 53.20000 40.28100
H  7.22500 58.31400 40.91800
H  2.32000 54.36500 41.62200
H  8.74200 49.01700 41.23400
H  10.66400 50.53700 39.78700
H  10.72000 49.40500 42.06500
H  10.45900 51.10100 42.69800
H  11.87400 50.59700 41.55400
H  7.90500 48.21100 39.14100
H  9.77100 48.32000 39.09100
H  9.57700 48.97800 37.03100
H  9.36900 50.44200 37.58300
H  12.32800 56.45900 39.33900
H  12.46000 54.92500 40.12900
H  12.65800 56.35000 41.10600
H  8.45000 59.60500 40.01400
H  9.76300 60.53800 40.51000
H  8.95000 59.58800 41.80200
H  4.85500 58.39800 40.68300
H  2.82700 56.69700 42.16700
H  3.77100 58.11500 43.56400
H  4.44200 59.54500 42.74600
H  5.55200 58.50500 43.36400
H  2.31700 56.14900 39.69000
H  3.23300 57.71100 39.38800
H  0.90100 57.72900 41.30300
H  0.62100 57.51200 39.62500
H  1.49800 58.96200 40.10800
H  0.98400 51.31400 40.80900
H  1.07600 52.66200 41.93400
H  1.14600 51.08900 42.52200
H  6.11800 48.27800 41.28500
H  5.58800 47.05900 37.20900
H  4.39500 46.00300 37.83900
H  6.12900 45.52400 37.86600

