158

Mg 0.33200 7.59500 25.59000
C  0.88600 9.43800 28.52300
C  0.18700 4.72100 27.47600
C  0.35200 5.91600 22.69100
C  0.68300 10.58000 23.73500
N  0.49300 7.18100 27.79000
C  0.50500 8.11700 28.78500
C  0.46000 7.42100 30.16600
C  0.45100 5.87300 29.80300
C  0.35600 5.92000 28.23800
C  1.59000 5.02800 30.42700
C  -0.67800 7.84900 31.06300
C  -0.45700 7.92300 32.58600
H  0.71700 7.19400 33.28700
N  0.20300 5.59800 25.21700
C  0.08600 4.51900 26.08800
C  0.13300 3.25600 25.29100
C  0.20500 3.67100 23.90900
C  0.23800 5.10600 23.86000
C  0.27600 1.92300 25.79900
C  0.18700 2.84200 22.60900
O  -0.04000 3.25600 21.49000
C  0.29300 1.32500 22.73600
N  0.31600 8.17400 23.44200
C  0.43500 7.29300 22.46700
C  0.34700 8.03300 21.09900
C  0.43200 9.54900 21.40800
C  0.44800 9.45300 22.94000
C  1.36100 7.47400 20.07200
C  -0.66700 10.46600 20.82400
C  -1.90000 10.83900 21.63000
N  0.76600 9.51500 25.96800
C  0.92400 10.62400 25.08500
C  1.21700 11.80300 25.80800
C  1.32100 11.40700 27.19600
C  0.95000 9.98300 27.22900
C  1.47200 13.18500 25.29300
C  1.64500 11.85800 28.52000
O  1.97000 12.99300 28.91000
C  1.27400 10.58100 29.45700
C  2.42900 10.39600 30.36200
O  3.32400 9.58100 30.21300
O  2.31500 11.25600 31.45900
C  3.18300 10.93300 32.54400
H  0.09200 3.74700 27.96000
H  0.28900 5.45800 21.70200
H  0.61900 11.55000 23.23800
H  1.38900 7.48400 30.73200
H  -0.47100 5.42400 30.17300
H  1.13200 4.53700 31.28600
H  2.47500 5.54900 30.79200
H  1.93000 4.24000 29.75500
H  -1.51700 7.16500 30.94100
H  -1.00900 8.77200 30.58600
H  -1.32400 7.59800 33.15900
H  -0.34600 8.93600 32.97400
H  1.24000 1.50400 25.50800
H  -0.52400 1.25400 25.48300
H  0.18200 1.90900 26.88400
H  1.23200 1.06100 23.22300
H  0.43000 0.85700 21.76200
H  -0.57600 0.87600 23.21700
H  -0.63400 7.83300 20.66900
H  1.38400 9.89700 21.00600
H  2.06900 6.81700 20.57900
H  1.79600 8.36200 19.61200
H  0.90800 6.82900 19.32000
H  -0.87300 10.05200 19.83800
H  -0.18600 11.43600 20.69500
H  -2.69900 10.54900 20.94700
H  -2.06700 11.87700 21.91600
H  -2.04100 10.24200 22.53100
H  2.26200 13.08900 24.54800
H  1.92400 13.67100 26.15800
H  0.60700 13.76000 24.96500
H  0.45100 10.89200 30.09900
H  2.98200 11.44000 33.48700
H  4.17200 11.36100 32.37500
H  3.21900 9.87900 32.82000
Mg 36.61900 49.42400 25.50300
C  36.92200 47.65300 28.44200
C  35.08300 52.03600 27.22800
C  35.95400 51.08100 22.57700
C  37.84300 46.73800 23.69900
N  35.85700 49.75200 27.58000
C  36.33300 48.94700 28.62900
C  35.92500 49.47100 29.99200
C  35.14500 50.74100 29.56000
C  35.33900 50.88900 28.03800
C  33.64100 50.87900 29.95500
C  37.18600 49.83000 30.86300
C  37.07500 49.29400 32.32700
H  35.66400 49.27200 33.02200
N  35.82500 51.31500 24.98700
C  35.31100 52.23500 25.85100
C  35.05400 53.47100 25.21000
C  35.15100 53.21900 23.84100
C  35.70400 51.85100 23.72200
C  34.52100 54.67000 25.93800
C  34.86400 54.07000 22.64000
O  34.97600 53.60100 21.52000
C  34.36200 55.45500 22.69600
N  36.77400 48.94000 23.46500
C  36.45500 49.78900 22.44600
C  36.81000 49.08800 21.06100
C  37.54400 47.79700 21.43400
C  37.41700 47.81300 22.98700
C  35.65900 48.93100 20.15900
C  39.01200 47.81400 20.92800
C  40.16200 48.52600 21.78600
N  37.22300 47.51200 25.92200
C  37.71400 46.55600 25.09000
C  37.96600 45.42800 25.94800
C  37.79800 45.80800 27.29800
C  37.24400 47.01600 27.20800
C  38.53600 44.19200 25.40500
C  37.86900 45.44400 28.62900
O  38.20700 44.41700 29.22100
C  37.31600 46.62700 29.51500
C  36.15400 46.14000 30.35000
O  34.95900 46.23200 30.09000
O  36.70000 45.70700 31.59400
C  35.71300 45.30400 32.60500
H  34.73800 52.78200 27.94800
H  35.71600 51.46600 21.58400
H  38.23200 45.87300 23.15800
H  35.28600 48.80700 30.57500
H  35.59300 51.61500 30.03100
H  33.43700 51.72800 30.60700
H  33.40500 49.91900 30.41400
H  33.04700 51.12200 29.07400
H  37.32400 50.89700 31.03700
H  38.06400 49.36600 30.41400
H  37.77600 49.80200 32.98900
H  37.45400 48.27400 32.40000
H  35.02800 54.87900 26.88100
H  33.52800 54.33100 26.23200
H  34.30800 55.61000 25.42900
H  35.16400 56.00800 23.18400
H  33.43000 55.55200 23.25300
H  34.19400 55.85700 21.69600
H  37.62700 49.66800 20.63000
H  36.97500 46.97200 21.00500
H  35.93600 49.16000 19.13100
H  34.82500 49.55000 20.48900
H  35.23000 47.93000 20.21600
H  38.99400 48.15500 19.89300
H  39.45900 46.84700 20.70000
H  39.69800 48.93600 22.68300
H  40.65800 49.39300 21.34900
H  40.99100 47.89300 22.10200
H  39.51600 44.29700 24.94000
H  37.80200 43.91900 24.64700
H  38.51600 43.43200 26.18600
H  37.99700 46.96500 30.29600
H  35.55500 44.22800 32.67700
H  34.68400 45.65600 32.53200
H  36.08200 45.63100 33.57700

