158

Mg 40.47700 9.67600 29.68600
C  42.29600 10.62600 32.41100
C  38.05200 8.37400 31.80300
C  38.68800 8.40400 26.99000
C  43.17300 10.54300 27.58200
N  40.24900 9.52900 31.79900
C  41.08600 10.09400 32.72600
C  40.37300 10.10800 34.05300
C  39.01500 9.27600 33.94100
C  39.09400 9.01800 32.42800
C  38.88500 8.00300 34.73100
C  40.29300 11.60400 34.64900
C  39.56600 11.77100 35.92700
H  40.17200 12.62100 37.09600
N  38.55200 8.64300 29.43700
C  37.71600 8.22900 30.40900
C  36.51000 7.59200 29.83600
C  36.64200 7.68000 28.40000
C  38.01300 8.25200 28.22400
C  35.45300 6.91000 30.69000
C  35.64000 7.32700 27.36100
O  35.82400 7.38700 26.12300
C  34.18000 6.96900 27.75700
N  40.82900 9.45900 27.72600
C  39.94900 8.95600 26.73900
C  40.55200 9.12100 25.35300
C  41.84000 9.89500 25.57400
C  41.99100 9.97300 27.06000
C  40.56900 7.82000 24.50800
C  42.11500 11.21100 24.77200
C  41.46500 12.48900 25.33000
N  42.37400 10.45600 29.89500
C  43.34700 10.72800 28.97700
C  44.53500 11.20900 29.66800
C  44.11700 11.31600 31.02300
C  42.85200 10.71200 31.13200
C  45.84700 11.74200 29.09400
C  44.43100 11.72300 32.34000
O  45.49400 12.23300 32.69500
C  43.34600 11.38000 33.30200
C  43.77900 10.54000 34.42500
O  44.21700 9.42100 34.29200
O  43.97700 11.28500 35.57800
C  44.67600 10.65400 36.69200
H  37.24900 8.01500 32.45000
H  38.11600 7.97100 26.16600
H  43.96900 10.84600 26.89900
H  41.08300 9.69700 34.77000
H  38.14700 9.91000 34.11800
H  39.02800 7.16000 34.05500
H  37.93400 7.94800 35.26100
H  39.72200 7.90200 35.42200
H  39.67100 12.25500 34.03400
H  41.25300 12.03600 34.93000
H  39.36000 10.75800 36.27200
H  38.59200 12.22000 35.73400
H  35.27600 5.87000 30.41400
H  34.58800 7.57300 30.69900
H  35.71100 6.87600 31.74900
H  34.23500 5.99300 28.24000
H  33.68100 6.94000 26.78800
H  33.84000 7.79400 28.38200
H  39.93000 9.90900 24.92800
H  42.59000 9.19500 25.20600
H  40.11500 7.03500 25.11300
H  41.58300 7.49700 24.27200
H  40.06800 7.83800 23.54000
H  41.90200 11.02500 23.71900
H  43.17600 11.41300 24.91300
H  40.76800 12.32200 26.15100
H  41.00000 13.14900 24.59700
H  42.24800 13.07500 25.81200
H  46.67000 11.59300 29.79400
H  45.81200 12.75800 28.70200
H  46.06100 11.11100 28.23100
H  42.95100 12.29900 33.73400
H  44.93700 9.60900 36.52700
H  43.98800 10.92200 37.49400
H  45.52800 11.28000 36.95900
Mg 48.48900 35.20300 27.20200
C  46.87900 33.52000 29.59300
C  48.53400 37.94900 29.36000
C  50.03900 37.02200 24.92100
C  48.40400 32.40200 25.10700
N  47.88400 35.65800 29.19600
C  47.33300 34.75200 30.00300
C  47.19600 35.22000 31.50000
C  47.34500 36.77300 31.30200
C  47.92600 36.78800 29.82300
C  46.02300 37.49600 31.46900
C  48.23700 34.45100 32.41000
C  48.93700 35.16100 33.55600
H  48.03800 35.94800 34.55400
N  49.03300 37.26400 27.10100
C  49.05300 38.22900 28.10800
C  49.66800 39.46800 27.61300
C  50.03600 39.24300 26.25100
C  49.80600 37.74100 26.04700
C  49.72200 40.78400 28.40200
C  50.61400 40.17600 25.20300
O  50.91700 39.90000 24.07100
C  50.80100 41.67300 25.63500
N  49.06100 34.84600 25.23200
C  49.77100 35.77000 24.52900
C  50.32300 35.15700 23.19200
C  49.88200 33.64300 23.34400
C  49.04600 33.60100 24.61400
C  49.84300 35.82600 21.92700
C  51.13600 32.70700 23.37900
C  51.02200 31.34500 22.81700
N  47.81900 33.33500 27.26800
C  47.78000 32.30500 26.35400
C  47.00600 31.19000 26.89000
C  46.57800 31.62400 28.14400
C  47.12000 32.93000 28.38100
C  46.68100 29.88900 26.21000
C  45.83600 31.17900 29.31700
O  45.26800 30.12900 29.59600
C  45.83500 32.53900 30.19500
C  45.96200 32.19500 31.61200
O  46.77900 31.40700 32.05400
O  44.95200 32.78900 32.34000
C  44.79700 32.54300 33.77600
H  48.55300 38.77000 30.07900
H  50.72800 37.52500 24.24000
H  48.43700 31.43700 24.59600
H  46.18000 34.94400 31.78300
H  48.11400 37.20000 31.94500
H  46.23600 38.48200 31.05800
H  45.70900 37.77400 32.47500
H  45.19900 36.94900 31.01000
H  48.95600 33.92400 31.78300
H  47.80800 33.58300 32.91000
H  49.60900 35.85600 33.05300
H  49.66700 34.51000 34.03800
H  50.77100 41.06000 28.50800
H  49.46300 40.59100 29.44300
H  49.22900 41.64600 27.95100
H  49.85500 42.11800 25.94200
H  51.23200 42.23400 24.80600
H  51.57200 41.57700 26.40000
H  51.40300 35.29800 23.24700
H  49.16700 33.24900 22.62100
H  49.47300 35.09400 21.20900
H  50.71000 36.26800 21.43700
H  49.20100 36.65000 22.23900
H  51.40800 32.56100 24.42500
H  51.88600 33.20200 22.76300
H  50.02100 31.20800 22.40800
H  51.02000 30.61400 23.62600
H  51.80900 31.12900 22.09400
H  47.65400 29.53000 25.87600
H  45.97600 30.15400 25.42200
H  46.25600 29.11200 26.84600
H  44.85300 32.99700 30.07400
H  43.85300 32.02400 33.94100
H  44.69400 33.45700 34.36100
H  45.65300 31.97100 34.13400

