158

Mg 1.57200 -1.25100 44.18200
C  5.10300 -0.60200 43.56800
C  0.86600 1.64000 42.48000
C  -1.59000 -2.12700 44.27200
C  2.64500 -4.42900 45.40100
N  2.82600 0.22200 43.04800
C  4.20600 0.35000 42.99700
C  4.64200 1.58700 42.13800
C  3.34600 2.36500 42.03000
C  2.28900 1.37300 42.53400
C  3.23600 3.76200 42.80700
C  5.34900 1.20200 40.78300
C  6.77600 1.81900 40.48500
H  6.72300 2.66600 39.24800
N  -0.11500 -0.34400 43.53100
C  -0.22300 0.81800 42.78600
C  -1.65200 1.06500 42.54000
C  -2.33500 -0.02300 43.11100
C  -1.34900 -0.91600 43.64300
C  -2.22000 2.28800 41.76100
C  -3.84800 -0.22100 43.11400
O  -4.46000 0.77400 42.72000
C  -4.58900 -1.30300 43.84700
N  0.68700 -3.05200 44.69500
C  -0.66300 -3.03000 44.83300
C  -1.19600 -4.38800 45.34100
C  0.17600 -5.12300 45.75500
C  1.26700 -4.16400 45.21400
C  -2.35400 -4.32700 46.32400
C  0.43800 -6.49000 45.21600
C  -0.75500 -7.49200 45.03000
N  3.44600 -2.28300 44.51700
C  3.70200 -3.58600 45.06700
C  5.14700 -3.81500 45.11600
C  5.71800 -2.64700 44.56000
C  4.67100 -1.75400 44.20100
C  5.87300 -5.09600 45.47800
C  6.95600 -2.06200 44.11200
O  8.05900 -2.53600 44.08900
C  6.62300 -0.67600 43.46400
C  7.25500 0.34400 44.27700
O  7.00600 0.68400 45.39800
O  8.38100 0.81200 43.66700
C  9.21800 1.84300 44.26800
H  0.50700 2.60400 42.11400
H  -2.58800 -2.57100 44.29600
H  2.90500 -5.32400 45.97100
H  5.24200 2.25400 42.75700
H  3.17000 2.76700 41.03300
H  3.92700 3.56400 43.62600
H  2.37900 4.02600 43.42600
H  3.52100 4.63100 42.21400
H  4.68900 1.57400 39.99900
H  5.44300 0.11900 40.71000
H  7.45500 0.97000 40.41200
H  7.02000 2.43000 41.35400
H  -2.88900 1.90300 40.99200
H  -1.45800 2.97200 41.38700
H  -2.86000 2.81600 42.46800
H  -5.65200 -1.06200 43.85200
H  -4.13900 -1.32800 44.84000
H  -4.42600 -2.26200 43.35500
H  -1.49000 -4.85900 44.40300
H  0.29100 -5.13300 46.83900
H  -1.99600 -4.51200 47.33600
H  -3.09800 -5.08300 46.07100
H  -2.79000 -3.32900 46.29600
H  1.17300 -7.04500 45.79900
H  0.84600 -6.32100 44.22000
H  -1.57600 -7.31600 45.72600
H  -0.46000 -8.53900 45.09100
H  -1.09800 -7.47900 43.99600
H  5.97700 -5.86800 44.71600
H  5.33400 -5.42900 46.36500
H  6.82900 -4.80700 45.91600
H  6.94200 -0.67800 42.42200
H  9.89800 2.39600 43.62000
H  9.82700 1.36400 45.03500
H  8.68300 2.68400 44.70900
Mg 0.87100 7.29800 26.36200
C  1.89100 8.97600 29.12500
C  1.01100 4.43700 28.21300
C  0.62200 5.41600 23.49600
C  1.33900 10.16200 24.41600
N  1.36000 6.78700 28.45200
C  1.57200 7.69000 29.45300
C  1.53100 7.02600 30.81800
C  1.34900 5.49900 30.45100
C  1.26000 5.61200 28.91200
C  2.48000 4.57200 30.97600
C  0.29900 7.56400 31.57900
C  0.32900 7.73800 33.11800
H  1.43400 6.97900 33.91200
N  0.83500 5.24500 25.90100
C  0.85000 4.22500 26.85100
C  0.55500 2.93900 26.20900
C  0.48200 3.22600 24.80200
C  0.60700 4.65700 24.67400
C  0.19600 1.68800 26.94300
C  0.25900 2.24900 23.61400
O  0.45700 2.51200 22.46100
C  -0.10000 0.91400 23.91700
N  0.74400 7.71900 24.32300
C  0.59600 6.80200 23.33300
C  0.58900 7.53300 22.00200
C  0.45700 9.09100 22.29200
C  0.86500 8.98500 23.76300
C  1.72800 7.14500 21.11100
C  -0.99000 9.70900 22.23800
C  -1.00700 10.97700 21.40000
N  1.27400 9.22800 26.68500
C  1.58900 10.28500 25.82000
C  1.90500 11.45700 26.59500
C  1.99200 10.98300 27.86900
C  1.67300 9.60700 27.90000
C  2.10400 12.86900 26.13100
C  2.33100 11.40200 29.19500
O  2.66200 12.48000 29.63400
C  2.15500 10.10800 30.16400
C  3.30300 9.97900 31.09900
O  4.48000 9.98000 30.81200
O  2.79300 10.21900 32.41300
C  3.80300 10.38500 33.37700
H  1.08200 3.54900 28.84400
H  0.45800 4.74500 22.65000
H  1.54800 11.04400 23.80700
H  2.48400 7.14000 31.33500
H  0.52600 5.07100 31.02400
H  2.02300 3.62400 31.25800
H  2.89800 4.99800 31.88800
H  3.22500 4.40000 30.19900
H  -0.54000 6.91100 31.33800
H  0.11300 8.59100 31.26700
H  -0.63100 7.48100 33.56400
H  0.46700 8.80200 33.31200
H  0.81300 0.91900 26.47800
H  -0.87900 1.57600 26.80200
H  0.43900 1.71800 28.00600
H  0.68300 0.40600 24.48000
H  -0.18100 0.34600 22.99000
H  -0.99500 0.75700 24.52000
H  -0.34900 7.20800 21.55300
H  1.20900 9.62200 21.71000
H  2.59100 7.78300 21.30100
H  1.46700 7.13800 20.05300
H  2.00800 6.12800 21.38800
H  -1.47500 9.83300 23.20600
H  -1.64200 9.02400 21.69600
H  0.00300 11.36400 21.26100
H  -1.45500 11.76500 22.00400
H  -1.52400 10.89300 20.44400
H  3.01000 13.12900 25.58400
H  2.16400 13.42700 27.06600
H  1.16300 13.15700 25.66200
H  1.31600 10.26600 30.84200
H  4.50400 11.20600 33.22600
H  4.41700 9.53200 33.66600
H  3.32300 10.81100 34.25800

