158

Mg 47.10800 24.24200 27.78400
C  47.97700 26.44500 30.34800
C  46.15300 22.06500 30.11600
C  46.56300 22.16200 25.34700
C  48.10000 26.65000 25.46800
N  47.09000 24.28800 29.96600
C  47.42000 25.27800 30.84600
C  47.26900 24.85100 32.35400
C  46.55300 23.45200 32.20900
C  46.58800 23.30600 30.67200
C  47.41100 22.44000 32.99700
C  46.46500 25.87400 33.26300
C  45.89300 25.31000 34.57500
H  46.50600 26.07900 35.78500
N  46.46300 22.35600 27.74700
C  46.09000 21.59500 28.77800
C  45.61400 20.31800 28.36500
C  45.63400 20.35700 26.94800
C  46.30900 21.68300 26.63100
C  45.10500 19.27000 29.26800
C  45.33400 19.20800 25.96800
O  45.50400 19.17300 24.72300
C  44.84400 17.92900 26.61200
N  47.49500 24.32700 25.62300
C  46.99500 23.33100 24.89100
C  46.98800 23.78400 23.38000
C  47.36200 25.27200 23.39200
C  47.70200 25.46900 24.90400
C  47.89000 22.93900 22.44400
C  46.25400 26.24000 22.81500
C  46.73700 27.27400 21.80200
N  47.98100 26.04600 27.85600
C  48.29800 26.98400 26.83000
C  48.94500 28.14900 27.38600
C  48.89700 27.93500 28.77900
C  48.25000 26.70100 29.04200
C  49.56100 29.26600 26.68500
C  49.23900 28.60000 30.03000
O  49.73000 29.67600 30.34200
C  48.55800 27.68900 31.15800
C  49.54800 27.23100 32.12300
O  50.29800 26.27500 31.98600
O  49.49600 27.99800 33.30900
C  50.22000 27.53600 34.50100
H  45.71800 21.36200 30.83100
H  46.38900 21.33900 24.65100
H  48.30100 27.42900 24.72900
H  48.23800 24.69100 32.82700
H  45.55300 23.56900 32.62500
H  47.89000 22.82700 33.89700
H  48.15100 21.87500 32.43100
H  46.78400 21.67800 33.46000
H  45.70400 26.37900 32.66700
H  47.06200 26.74400 33.53700
H  46.04800 24.25000 34.77400
H  44.81200 25.44800 34.53900
H  44.06500 19.01200 29.06700
H  45.18300 19.59800 30.30400
H  45.69500 18.36000 29.15300
H  45.65400 17.53200 27.22300
H  44.54300 17.34300 25.74300
H  43.94600 18.06800 27.21400
H  45.99700 23.61800 22.95800
H  48.27500 25.51400 22.84800
H  48.59900 22.42600 23.09400
H  48.36600 23.62600 21.74400
H  47.32100 22.25600 21.81300
H  45.74600 26.79700 23.60200
H  45.43600 25.72000 22.31700
H  47.49200 26.72400 21.24000
H  47.21700 28.16100 22.21500
H  45.86900 27.62100 21.24100
H  49.90300 28.96800 25.69300
H  50.37300 29.59800 27.33200
H  48.84800 30.08500 26.58800
H  47.91300 28.36200 31.72100
H  51.25800 27.45100 34.18000
H  49.86500 26.57800 34.88100
H  50.10000 28.29400 35.27600
Mg 36.48300 49.04400 26.07700
C  36.22800 46.95300 28.90600
C  35.63700 51.65300 27.98400
C  36.40200 50.96800 23.11400
C  36.56400 46.10800 24.09000
N  36.05700 49.28100 28.30600
C  36.01100 48.36800 29.26700
C  35.80500 49.03200 30.65700
C  35.44500 50.47300 30.25600
C  35.76500 50.50600 28.76500
C  34.06900 51.05000 30.76300
C  37.00800 48.81400 31.68300
C  36.45400 48.44100 33.09300
H  35.04400 48.68600 33.63700
N  36.14600 51.01500 25.65800
C  35.84700 51.95600 26.62300
C  35.85000 53.25600 26.05400
C  36.01800 53.12800 24.65700
C  36.20900 51.61700 24.39000
C  35.55500 54.41300 26.94900
C  36.18000 54.15600 23.52100
O  36.25300 53.82300 22.35100
C  36.04300 55.60200 23.94400
N  36.29900 48.53700 23.88700
C  36.49400 49.52100 22.95800
C  36.77400 48.93200 21.48800
C  37.12600 47.44300 21.97000
C  36.60500 47.36200 23.41800
C  35.50500 48.92200 20.57300
C  38.64600 47.15900 22.00500
C  39.24500 45.81200 21.40800
N  36.44300 46.94400 26.35800
C  36.45000 45.90300 25.44600
C  36.54900 44.73800 26.21300
C  36.50100 45.10900 27.58500
C  36.45900 46.46700 27.64100
C  36.92800 43.37900 25.58500
C  36.60700 44.63200 28.85900
O  36.86900 43.52500 29.32600
C  36.34200 45.75300 29.81300
C  35.05000 45.47300 30.55500
O  33.87100 45.62900 30.14300
O  35.40800 44.97600 31.77800
C  34.42100 44.60500 32.80000
H  35.36400 52.52200 28.58700
H  36.29200 51.43600 22.13400
H  36.79800 45.22800 23.48700
H  34.95500 48.49800 31.08200
H  36.16800 51.17300 30.67500
H  33.61300 50.22900 31.31600
H  33.54900 51.26500 29.83000
H  34.07100 51.99000 31.31500
H  37.55600 49.74900 31.79300
H  37.66200 48.06400 31.23600
H  37.14500 48.84200 33.83500
H  36.54100 47.37200 33.28800
H  36.22200 55.24200 26.71200
H  35.84400 54.27800 27.99100
H  34.54900 54.79000 26.76800
H  36.05400 56.25600 23.07200
H  36.95000 55.96100 24.43000
H  35.16400 55.82400 24.55000
H  37.60500 49.32700 20.90300
H  36.64000 46.75100 21.28200
H  35.06100 47.95000 20.35800
H  35.92700 49.31900 19.65000
H  34.74500 49.59000 20.97800
H  38.93700 47.30600 23.04600
H  39.11800 47.93700 21.40500
H  39.84900 45.18600 22.06400
H  39.86400 45.93500 20.51900
H  38.33100 45.31900 21.07800
H  36.26600 43.08400 24.77100
H  36.92500 42.62400 26.37200
H  37.91200 43.41900 25.11800
H  37.20900 45.87100 30.46200
H  33.43000 44.57400 32.34700
H  34.51900 45.34800 33.59100
H  34.72500 43.63900 33.20300

