158

Mg 0.30100 8.36500 26.42500
C  0.86600 10.18300 29.50600
C  -0.06900 5.50000 28.37200
C  0.31000 6.73600 23.63100
C  1.23400 11.27400 24.80200
N  0.34600 7.96600 28.70300
C  0.56900 8.88300 29.72400
C  0.51600 8.11600 31.08800
C  0.46800 6.58000 30.62600
C  0.20300 6.64900 29.14200
C  1.71500 5.68100 30.99300
C  -0.66600 8.57300 32.00300
C  -0.47000 8.48300 33.58300
H  0.85900 7.89300 34.19400
N  0.08300 6.39100 26.04300
C  -0.00200 5.30900 26.88200
C  -0.03500 4.07300 26.09900
C  -0.08000 4.43900 24.75100
C  0.12400 5.89600 24.79100
C  -0.11400 2.68600 26.69800
C  -0.15600 3.59400 23.55500
O  -0.14400 4.07600 22.42400
C  -0.26300 2.09800 23.70800
N  0.43600 9.01900 24.46100
C  0.54100 8.10200 23.46400
C  0.69300 8.87600 22.13000
C  0.69700 10.37200 22.51600
C  0.91200 10.19600 24.03500
C  2.02200 8.43700 21.44000
C  -0.67900 11.06500 22.39700
C  -1.21200 11.23000 20.88800
N  0.89300 10.42100 26.97500
C  1.17100 11.42300 26.20500
C  1.43500 12.56200 27.00200
C  1.43600 12.06600 28.28400
C  0.97900 10.80900 28.27100
C  1.67700 13.93800 26.63900
C  1.66300 12.46600 29.68500
O  2.00100 13.54100 30.20000
C  1.24200 11.24000 30.50300
C  2.22900 10.86900 31.58800
O  3.27500 10.23000 31.46500
O  1.77800 11.35300 32.77300
C  2.70700 11.45100 33.91700
H  -0.02900 4.53900 28.88900
H  0.37800 6.21900 22.67100
H  1.48400 12.22100 24.31900
H  1.45500 8.33600 31.59500
H  -0.50700 6.20700 30.94200
H  2.41700 6.11400 31.70500
H  2.26700 5.42400 30.08900
H  1.44700 4.72900 31.45100
H  -1.48800 7.88900 31.79100
H  -0.94300 9.59600 31.75000
H  -1.25500 7.82300 33.95200
H  -0.67700 9.49700 33.92500
H  0.18800 2.65100 27.74500
H  0.49400 1.99200 26.11600
H  -1.16500 2.40500 26.63600
H  -0.64100 1.63100 22.79800
H  -1.00800 1.94200 24.48800
H  0.72900 1.74300 23.98700
H  -0.11100 8.77800 21.40100
H  1.48400 10.98000 22.07000
H  2.36700 7.67300 22.13600
H  2.73000 9.25600 21.31100
H  1.81400 7.92900 20.49800
H  -0.69500 12.06400 22.83300
H  -1.40100 10.44200 22.92400
H  -0.39400 11.08500 20.18300
H  -1.58700 12.24300 20.74500
H  -1.98100 10.50200 20.62900
H  1.90500 14.09000 25.58400
H  2.34300 14.39800 27.36800
H  0.71200 14.43600 26.73300
H  0.32400 11.55600 30.99700
H  2.93100 12.51100 34.04100
H  3.67600 11.04400 33.62900
H  2.34400 10.91700 34.79500
Mg 49.26900 44.76600 43.07800
C  45.92900 45.57000 42.11700
C  48.89200 41.64000 41.75100
C  52.61500 44.43700 43.37800
C  49.52400 48.19500 44.03000
N  47.62700 43.86900 41.92300
C  46.38500 44.36400 41.64100
C  45.51400 43.36900 40.79500
C  46.45000 42.05900 40.77100
C  47.73800 42.49000 41.60400
C  45.85800 40.77400 41.43100
C  45.17000 44.03800 39.41200
C  43.71600 43.73100 39.01000
H  43.55700 42.69700 37.85200
N  50.61100 43.19800 42.65700
C  50.21300 41.98000 42.14500
C  51.40400 41.16400 42.00900
C  52.50800 41.96000 42.39500
C  51.96800 43.26900 42.85800
C  51.40500 39.66000 41.69000
C  53.99900 41.65300 42.33500
O  54.37700 40.57900 41.83000
C  55.15000 42.54300 42.92300
N  50.79900 46.04300 43.75300
C  52.14700 45.69600 43.71200
C  53.11700 46.84000 44.15700
C  52.11900 47.89200 44.55500
C  50.71800 47.37500 44.05500
C  54.27900 46.41700 45.05000
C  52.34800 49.35700 44.09800
C  52.11300 50.54200 45.03700
N  48.06400 46.51000 43.23600
C  48.26200 47.82900 43.61200
C  47.11300 48.64600 43.45200
C  46.14700 47.78100 42.95300
C  46.75200 46.49700 42.83200
C  46.85900 50.06300 43.92000
C  44.77800 47.71700 42.55500
O  43.92500 48.55200 42.70600
C  44.58200 46.26100 42.01900
C  43.40400 45.56100 42.64400
O  43.41400 44.87900 43.66800
O  42.33600 45.92700 41.90500
C  41.10400 45.32600 42.39700
H  48.70000 40.64800 41.33700
H  53.70700 44.40800 43.40800
H  49.59400 49.26400 44.24600
H  44.59300 43.10300 41.31400
H  46.62400 41.83800 39.71800
H  45.46500 40.04800 40.71900
H  45.05800 41.11700 42.08700
H  46.45300 40.27400 42.19500
H  45.81900 43.52100 38.70500
H  45.48900 45.08000 39.40400
H  43.24400 44.64300 38.64500
H  43.05600 43.50100 39.84700
H  51.72000 39.40100 40.67900
H  50.34100 39.42700 41.64800
H  51.93000 39.12700 42.48200
H  54.95900 42.90700 43.93300
H  55.46700 43.35000 42.26300
H  56.03100 41.93000 43.11300
H  53.51400 47.14900 43.19000
H  52.23900 47.96600 45.63600
H  54.35400 45.33000 45.07900
H  54.16500 46.72000 46.09100
H  55.18900 46.79900 44.58700
H  51.74300 49.49500 43.20200
H  53.41500 49.29500 43.88100
H  51.79900 50.17700 46.01400
H  51.23900 51.10100 44.70300
H  52.96900 51.17100 45.28000
H  47.34500 50.19000 44.88700
H  45.77300 50.11000 43.99800
H  47.24900 50.78800 43.20600
H  44.24300 46.45500 41.00200
H  40.72800 45.99500 43.17000
H  41.32300 44.32800 42.77400
H  40.38400 45.12300 41.60500

