158

Mg 46.48600 25.20000 28.31500
C  46.92200 27.35800 31.08100
C  45.46700 22.88000 30.65100
C  47.15400 22.87300 26.11500
C  48.01300 27.56900 26.25300
N  46.38000 25.09600 30.67300
C  46.47800 26.12800 31.52500
C  46.15000 25.71300 33.02400
C  46.00600 24.21200 32.80700
C  45.82600 24.06100 31.24700
C  47.02300 23.23900 33.41600
C  44.97500 26.54000 33.65400
C  45.16300 27.05000 35.04000
H  44.09300 27.00800 36.12800
N  46.13600 23.22600 28.23700
C  45.66000 22.46600 29.26900
C  45.34600 21.15300 28.69300
C  45.92900 21.07600 27.39500
C  46.37600 22.40800 27.17400
C  44.71300 20.04900 29.51600
C  46.08800 19.89400 26.35400
O  46.59300 20.01000 25.30100
C  45.63500 18.54200 26.76800
N  47.63200 25.19600 26.53100
C  47.85300 24.04200 25.84700
C  48.66700 24.23600 24.49200
C  48.63100 25.77400 24.47000
C  48.00200 26.25700 25.81000
C  50.11400 23.47200 24.48100
C  48.14400 26.49900 23.19100
C  46.64100 26.81100 23.24700
N  47.29000 27.12300 28.57200
C  47.82300 28.02500 27.60200
C  48.11000 29.25100 28.30500
C  47.80400 28.99000 29.64400
C  47.27400 27.67500 29.75700
C  48.76300 30.40000 27.63800
C  47.82800 29.61900 30.92100
O  48.16400 30.73800 31.34800
C  47.34800 28.52200 31.92600
C  48.47800 28.22400 32.87000
O  49.43400 27.50300 32.50200
O  48.38700 28.81400 34.07000
C  49.39000 28.31000 35.04300
H  45.15100 22.12300 31.37100
H  47.30400 22.09900 25.36000
H  48.38600 28.36900 25.61000
H  47.09600 25.92300 33.52200
H  45.03000 23.93800 33.20700
H  47.87200 23.65700 33.95600
H  47.40600 22.58000 32.63600
H  46.52500 22.53100 34.07800
H  44.11900 25.86700 33.61000
H  44.67300 27.39600 33.04900
H  45.26400 28.11900 34.85500
H  46.05500 26.60200 35.47900
H  45.39400 19.19900 29.47900
H  43.76100 19.70100 29.11300
H  44.51500 20.40700 30.52600
H  45.79900 17.88400 25.91400
H  44.57200 18.55400 27.00600
H  46.22700 18.04300 27.53500
H  48.02600 23.86300 23.69400
H  49.69700 25.99700 24.51700
H  49.96100 22.61100 23.83000
H  50.48100 23.20500 25.47200
H  50.87500 24.15300 24.09900
H  48.37300 25.89100 22.31500
H  48.72500 27.41200 23.06300
H  46.10400 26.10500 23.88000
H  46.22200 26.76300 22.24200
H  46.38000 27.81800 23.57300
H  49.73300 30.17300 27.19700
H  49.10700 31.11600 28.38500
H  48.11100 30.90900 26.92700
H  46.45400 28.85200 32.45500
H  48.96400 27.74900 35.87400
H  50.01300 29.12900 35.40200
H  50.13500 27.68900 34.54500
Mg -0.35700 43.10900 25.77000
C  2.22300 42.52500 28.27000
C  -2.63800 41.96000 28.11000
C  -2.66500 43.45800 23.41300
C  2.25000 43.66200 23.51700
N  -0.15100 42.34400 27.93400
C  0.94400 42.29200 28.74600
C  0.58000 41.95200 30.20500
C  -0.89200 41.47900 29.97500
C  -1.27300 41.91400 28.55600
C  -1.23500 39.93600 30.16200
C  0.77100 43.14700 31.17300
C  1.18700 42.72300 32.59100
H  0.57600 41.44500 33.13900
N  -2.42000 42.85200 25.80400
C  -3.23000 42.35700 26.84700
C  -4.62600 42.60700 26.49800
C  -4.65100 43.00600 25.11300
C  -3.20900 43.12100 24.68400
C  -5.73200 42.56600 27.55200
C  -5.79400 43.43400 24.29800
O  -5.63000 43.86700 23.17400
C  -7.18900 43.36300 24.79800
N  -0.22900 43.53000 23.83800
C  -1.30100 43.50000 22.99300
C  -0.93100 43.97400 21.52100
C  0.59100 44.36800 21.71700
C  0.90500 43.86700 23.09000
C  -1.33400 42.99800 20.39100
C  1.06800 45.83500 21.53500
C  2.30800 46.09200 20.63500
N  1.78900 43.24000 25.83100
C  2.67100 43.44900 24.81700
C  4.09800 43.44500 25.32300
C  3.92400 43.10700 26.69900
C  2.57800 42.90800 26.94500
C  5.33100 43.64300 24.64100
C  4.57400 42.92000 27.91700
O  5.78900 42.92600 28.22400
C  3.50600 42.55000 28.97700
C  3.84000 41.36400 29.77200
O  3.77000 40.18700 29.40500
O  4.37800 41.69300 31.00300
C  4.58900 40.57400 31.92900
H  -3.31400 41.56200 28.87000
H  -3.42000 43.63300 22.64300
H  3.01100 43.83900 22.75400
H  1.22100 41.12900 30.51900
H  -1.57000 41.95600 30.68300
H  -0.35100 39.40300 30.51500
H  -1.40200 39.57100 29.14900
H  -2.05100 39.74000 30.85700
H  -0.23700 43.53200 31.32500
H  1.38200 43.95600 30.77100
H  0.95400 43.58000 33.22300
H  2.25700 42.54200 32.48200
H  -6.70800 42.20200 27.23000
H  -5.91000 43.54600 27.99500
H  -5.48900 41.85600 28.34200
H  -7.43500 43.62600 25.82700
H  -7.52300 42.33500 24.65600
H  -7.86200 43.85400 24.09500
H  -1.45900 44.90800 21.32700
H  1.15800 43.82700 20.95900
H  -2.14100 42.30800 20.63600
H  -0.51700 42.28600 20.27400
H  -1.68800 43.46100 19.47000
H  1.24400 46.22600 22.53700
H  0.21300 46.43900 21.23300
H  3.19700 45.79000 21.18900
H  2.43200 47.11800 20.28800
H  2.19200 45.37800 19.82000
H  5.33200 44.39500 23.85100
H  5.57500 42.66600 24.22400
H  6.10100 43.89100 25.37200
H  3.46100 43.32100 29.74600
H  5.18100 39.77500 31.48500
H  3.57800 40.38000 32.28800
H  5.05200 40.92400 32.85300

