158

Mg 47.33300 15.91300 28.27700
C  45.18400 15.78400 30.96100
C  49.63300 17.41800 30.38800
C  49.06800 16.58400 25.56200
C  44.79600 14.57500 26.25100
N  47.32000 16.71900 30.39900
C  46.33000 16.41600 31.31600
C  46.70000 16.99900 32.67500
C  48.05900 17.72700 32.37100
C  48.40200 17.25900 30.97000
C  47.90600 19.31300 32.38800
C  46.91100 15.89100 33.71000
C  46.66400 16.32000 35.23900
H  46.28100 17.71300 35.56200
N  49.11300 16.74300 28.08200
C  49.95500 17.19100 29.08000
C  51.22300 17.55700 28.40200
C  51.06500 17.40400 26.98100
C  49.75000 16.85700 26.82000
C  52.39900 18.04600 29.23100
C  52.04500 17.76700 25.81700
O  51.81000 17.56500 24.66400
C  53.39100 18.41500 26.07600
N  46.86600 15.78300 26.09600
C  47.80400 16.07100 25.22900
C  47.42200 15.70400 23.79500
C  46.01600 15.01900 24.03500
C  45.88400 15.10400 25.54600
C  47.38400 16.88900 22.83300
C  45.93700 13.54000 23.53100
C  44.96900 13.46200 22.38600
N  45.45100 15.24300 28.53600
C  44.51200 14.71900 27.62400
C  43.29300 14.27700 28.27400
C  43.50700 14.66000 29.63700
C  44.82100 15.26700 29.70900
C  41.99000 13.83100 27.58500
C  42.95300 14.73000 30.96400
O  41.86200 14.35900 31.42600
C  43.99300 15.42000 31.87400
C  43.23300 16.55800 32.44200
O  43.06100 17.62900 31.86400
O  42.67200 16.33800 33.65600
C  41.84600 17.43900 34.23200
H  50.43100 17.82900 31.01000
H  49.68700 16.69300 24.67000
H  44.06900 13.99700 25.67700
H  45.81600 17.59800 32.89400
H  48.76100 17.44500 33.15700
H  48.79300 19.89500 32.63900
H  47.18000 19.71400 33.09500
H  47.63700 19.61100 31.37500
H  47.96900 15.64700 33.61600
H  46.31000 14.98400 33.64100
H  47.65500 16.09100 35.62900
H  46.00700 15.58400 35.70100
H  52.82100 18.89600 28.69500
H  53.04500 17.16900 29.18800
H  52.22900 18.39900 30.24900
H  53.29100 19.49700 25.98600
H  54.13700 18.19200 25.31400
H  53.89200 18.17600 27.01400
H  48.08600 14.89900 23.47900
H  45.17600 15.61700 23.68300
H  47.39500 17.83100 23.38200
H  46.42900 16.83900 22.31100
H  48.24800 16.91400 22.16900
H  45.70800 12.81700 24.31400
H  46.90000 13.20600 23.14500
H  45.58600 12.94000 21.65500
H  44.59000 14.42300 22.03900
H  44.05700 12.90700 22.60700
H  41.96500 12.78800 27.26900
H  41.94000 14.44600 26.68600
H  41.12600 13.97400 28.23400
H  44.20100 14.67800 32.64400
H  42.04000 18.47900 33.96900
H  41.91400 17.27300 35.30700
H  40.79000 17.40300 33.96300
Mg -11.68800 15.98100 42.00600
C  -8.46800 14.89800 41.09900
C  -10.93600 19.02100 40.47900
C  -14.93900 16.50000 41.64900
C  -12.40900 12.69200 42.99500
N  -9.89200 16.81400 40.71200
C  -8.69300 16.21500 40.53600
C  -7.71200 17.11900 39.73600
C  -8.41100 18.50600 39.93600
C  -9.84900 18.13600 40.38400
C  -7.67200 19.45800 40.98000
C  -7.63100 16.65900 38.20700
C  -6.26000 16.59200 37.59900
H  -6.01800 17.17900 36.22700
N  -12.81900 17.62500 41.22100
C  -12.32900 18.79200 40.72000
C  -13.44000 19.64500 40.49900
C  -14.62100 18.96200 40.86800
C  -14.18000 17.57300 41.28600
C  -13.27500 21.01000 39.99200
C  -16.07200 19.53900 40.76100
O  -16.33700 20.64100 40.21000
C  -17.31700 18.80700 41.30100
N  -13.48100 14.65000 42.08500
C  -14.68600 15.19900 42.09700
C  -15.77400 14.19500 42.48300
C  -14.89200 13.01000 42.86600
C  -13.49300 13.56300 42.74500
C  -16.67500 14.66400 43.63600
C  -15.21800 11.78400 41.90800
C  -15.49200 10.46700 42.63600
N  -10.66700 14.21300 42.34300
C  -11.06700 12.98600 42.67800
C  -9.92800 12.07300 42.67300
C  -8.87800 12.85900 42.20600
C  -9.39400 14.09400 41.84900
C  -9.98500 10.66700 43.19600
C  -7.45800 12.79700 41.91900
O  -6.62000 11.93800 42.16000
C  -7.16300 14.08100 41.02200
C  -6.05800 14.83400 41.63800
O  -6.07400 15.21700 42.78600
O  -5.12600 15.07300 40.69500
C  -4.01800 15.86700 41.19800
H  -10.81300 20.03900 40.10500
H  -16.01500 16.67100 41.73400
H  -12.64100 11.65700 43.25800
H  -6.74200 17.23400 40.21900
H  -8.59000 19.12000 39.05400
H  -8.39000 20.10800 41.48000
H  -6.99200 20.01900 40.33900
H  -7.14000 18.84500 41.70700
H  -8.20400 17.37600 37.62000
H  -8.00400 15.64200 38.07900
H  -5.95300 15.54700 37.54700
H  -5.54300 17.13800 38.21200
H  -12.26600 21.42100 39.95000
H  -13.89100 21.63900 40.63500
H  -13.79700 21.02600 39.03600
H  -18.18800 19.46200 41.30000
H  -17.11300 18.46700 42.31700
H  -17.43700 17.98600 40.59400
H  -16.38900 13.90300 41.63300
H  -15.05000 12.86400 43.93500
H  -16.44100 14.47500 44.68400
H  -17.68000 14.28100 43.45400
H  -16.73800 15.74700 43.52900
H  -14.32700 11.56800 41.31800
H  -16.09800 11.95700 41.28900
H  -14.86900 9.63900 42.29800
H  -16.55300 10.22800 42.70800
H  -15.17600 10.51300 43.67900
H  -10.77900 10.09200 42.71900
H  -10.32400 10.68600 44.23100
H  -9.00300 10.21600 43.04800
H  -6.90700 13.62000 40.06700
H  -3.21900 15.17300 41.46100
H  -4.29800 16.61300 41.94200
H  -3.81800 16.50300 40.33500

