158

Mg 7.50800 3.23200 28.08700
C  8.93800 1.75000 30.92600
C  5.59600 5.19400 30.29000
C  5.71500 4.22600 25.46500
C  9.20800 0.86400 26.05400
N  7.17000 3.34500 30.40200
C  8.05500 2.82000 31.27900
C  7.84600 3.49400 32.64700
C  6.40900 4.20400 32.57900
C  6.41400 4.25400 30.97500
C  5.27900 3.25300 33.09300
C  9.00500 4.39400 33.06000
C  10.02200 4.02300 34.17900
H  10.12600 4.95200 35.41700
N  5.95800 4.60400 27.86400
C  5.38700 5.33000 28.87600
C  4.41700 6.18700 28.25400
C  4.52400 6.09500 26.84200
C  5.44700 4.94700 26.68700
C  3.52400 7.04200 29.14100
C  3.85300 6.86400 25.75000
O  4.14700 6.57500 24.64200
C  2.88000 7.91500 26.03600
N  7.39700 2.57800 26.13700
C  6.65800 3.25000 25.18300
C  6.97500 2.73100 23.76400
C  8.10100 1.71000 23.97100
C  8.30200 1.76800 25.44700
C  5.68200 2.19500 23.09300
C  9.45200 2.06600 23.26200
C  10.51100 2.90900 24.01300
N  8.86300 1.57300 28.35300
C  9.44400 0.71400 27.44000
C  10.23700 -0.24500 28.19100
C  10.20000 0.13700 29.55000
C  9.24700 1.22100 29.62400
C  10.92700 -1.46400 27.71600
C  10.66100 -0.10700 30.88500
O  11.46400 -0.93500 31.40600
C  10.01100 1.06000 31.74000
C  9.36900 0.53100 32.95200
O  8.18600 0.15000 32.95800
O  10.29600 0.50900 34.02300
C  9.81100 0.05700 35.41600
H  5.04600 5.82600 30.99000
H  5.07400 4.44400 24.60900
H  9.70100 0.11200 25.43400
H  7.76700 2.69900 33.38800
H  6.30700 5.17600 33.06200
H  5.03700 3.59900 34.09800
H  5.63000 2.22600 33.19400
H  4.41600 3.28200 32.42800
H  8.62400 5.38200 33.31500
H  9.71100 4.54600 32.24400
H  10.99500 3.96000 33.69200
H  9.84300 2.99800 34.50500
H  2.58200 6.49200 29.15300
H  3.56600 8.06900 28.77900
H  3.86700 7.14900 30.17000
H  1.94800 7.42500 26.31800
H  2.61800 8.45500 25.12600
H  3.09100 8.65700 26.80500
H  7.37600 3.55600 23.17500
H  7.83200 0.70300 23.65100
H  4.87700 2.32700 23.81600
H  5.74300 1.11700 22.93900
H  5.52100 2.88100 22.26200
H  9.13400 2.59800 22.36600
H  9.96300 1.14100 22.99400
H  11.21200 2.18800 24.43200
H  9.95400 3.50600 24.73600
H  11.04300 3.65600 23.42300
H  10.83200 -1.58900 26.63700
H  10.68400 -2.38100 28.25300
H  12.00600 -1.36500 27.83200
H  10.72500 1.79700 32.10900
H  9.03300 -0.65500 35.14100
H  9.53900 0.87600 36.08200
H  10.66900 -0.41600 35.89400
Mg 50.63000 48.04300 43.70000
C  47.49100 49.03700 42.41900
C  50.41900 45.12700 41.88900
C  53.83000 47.40600 44.24600
C  51.02400 51.31300 45.03600
N  49.11400 47.14200 42.42700
C  47.93000 47.73300 41.94300
C  47.12800 46.71600 41.08600
C  48.10100 45.42600 41.05300
C  49.28600 45.93500 41.85100
C  47.47000 44.09300 41.58900
C  46.59000 47.23800 39.65000
C  45.06700 47.23200 39.46400
H  44.59200 46.60300 38.14600
N  51.85600 46.25800 43.46400
C  51.61400 45.26300 42.62100
C  52.73900 44.44000 42.51700
C  53.70000 45.00100 43.38000
C  53.18900 46.30000 43.72000
C  52.76600 43.17200 41.62300
C  55.04400 44.43600 43.71700
O  55.27700 43.27700 43.29600
C  56.10900 45.13700 44.56600
N  52.23100 49.29700 44.45200
C  53.50000 48.73600 44.63900
C  54.35800 49.67400 45.46900
C  53.48800 51.01000 45.66500
C  52.19000 50.56200 45.01200
C  55.04800 49.12200 46.85400
C  54.00700 52.24800 44.95100
C  54.29100 53.48200 45.85800
N  49.43700 49.77800 43.85200
C  49.77000 51.02000 44.47600
C  48.64700 51.89800 44.27300
C  47.74700 51.19200 43.50900
C  48.29400 49.88400 43.21400
C  48.49500 53.30200 44.68100
C  46.39100 51.16700 42.92000
O  45.51500 52.01500 42.90400
C  46.18800 49.80000 42.25300
C  45.02700 49.04700 42.75700
O  45.07600 48.26600 43.68500
O  43.91100 49.16600 41.94500
C  42.74700 48.37000 42.25300
H  50.26300 44.32000 41.17100
H  54.90500 47.21300 44.26900
H  50.94700 52.32800 45.43100
H  46.36700 46.50600 41.83800
H  48.50200 45.26600 40.05200
H  47.56500 43.34600 40.80000
H  46.41600 44.28600 41.79300
H  47.93100 43.70100 42.49500
H  46.97700 46.58900 38.86400
H  46.93200 48.27100 39.58900
H  44.82900 48.29500 39.45000
H  44.59000 46.65800 40.25900
H  53.80300 42.92200 41.39800
H  52.23200 43.40000 40.70100
H  52.25200 42.38400 42.17400
H  56.47600 45.97100 43.96900
H  56.89400 44.39400 44.71000
H  55.61200 45.51400 45.45900
H  55.20700 49.94500 44.84200
H  53.31000 51.13400 46.73300
H  56.13300 49.17400 46.94100
H  54.71500 48.08700 46.93600
H  54.64900 49.63600 47.72800
H  53.39500 52.62800 44.13300
H  55.00900 52.05400 44.57000
H  53.80700 53.29000 46.81600
H  53.83300 54.35100 45.38500
H  55.37300 53.48700 45.99100
H  48.55600 54.00900 43.85400
H  49.28300 53.52900 45.39900
H  47.57100 53.51500 45.21800
H  45.87600 49.92000 41.21500
H  42.46200 48.26500 43.30000
H  42.96100 47.40100 41.80300
H  41.94800 48.84100 41.67900

