158

Mg 48.21400 46.24700 42.69900
C  44.98300 46.86000 41.51400
C  48.08800 43.13900 41.17100
C  51.53800 46.06100 42.96400
C  48.31000 49.83600 43.31800
N  46.77000 45.16800 41.31500
C  45.47400 45.61300 41.16900
C  44.63000 44.54100 40.49900
C  45.49500 43.29000 40.68500
C  46.87600 43.94200 41.02700
C  44.95700 42.21800 41.65100
C  44.32900 45.00200 39.00200
C  43.01100 44.40700 38.56200
H  43.11600 43.49700 37.21400
N  49.62100 44.81600 42.15700
C  49.35100 43.56400 41.60400
C  50.56700 42.75700 41.67800
C  51.55800 43.56100 42.10800
C  50.95100 44.92500 42.42800
C  50.56800 41.32300 41.23000
C  53.04300 43.06700 42.24300
O  53.48300 42.00600 41.82700
C  53.97500 43.91100 42.99700
N  49.70600 47.75000 42.92600
C  51.00900 47.36600 43.16700
C  51.89400 48.62100 43.51700
C  50.87400 49.78100 43.50200
C  49.56900 49.11900 43.22100
C  52.72200 48.52600 44.83800
C  51.30900 51.00500 42.56700
C  51.63000 52.31000 43.21500
N  46.89500 47.90900 42.77200
C  47.03900 49.25300 43.10900
C  45.83300 49.91700 43.09000
C  44.95000 48.98100 42.55400
C  45.63700 47.79400 42.25100
C  45.59500 51.35600 43.69800
C  43.62400 48.79400 42.08800
O  42.60600 49.46100 42.12600
C  43.54100 47.38900 41.40600
C  42.54800 46.61500 42.14500
O  42.71700 45.91900 43.15300
O  41.43700 46.71400 41.41200
C  40.35600 45.78700 41.85500
H  47.94800 42.06400 41.04200
H  52.57700 46.02200 43.29600
H  48.31000 50.90600 43.53300
H  43.70700 44.43500 41.06700
H  45.57200 42.80100 39.71400
H  44.76000 41.37500 40.98800
H  44.05800 42.61200 42.12400
H  45.75600 41.96800 42.34800
H  45.14800 44.70800 38.34500
H  44.25000 46.08600 39.09300
H  42.31100 45.23800 38.48100
H  42.62400 43.70600 39.30200
H  50.73100 41.31900 40.15200
H  49.68500 40.76800 41.54700
H  51.39000 40.74800 41.65700
H  54.22100 44.81900 42.44800
H  54.93000 43.39400 43.09500
H  53.53300 43.99300 43.99000
H  52.65800 48.74200 42.74900
H  50.75600 50.16600 44.51400
H  52.55500 47.47700 45.08100
H  52.29400 49.04900 45.69400
H  53.76900 48.78700 44.68400
H  50.54300 51.28300 41.84300
H  52.25200 50.77700 42.07100
H  51.46600 52.28400 44.29200
H  50.98800 53.08200 42.79000
H  52.66600 52.52900 42.95800
H  44.89900 51.74400 42.95500
H  46.46800 52.00600 43.76100
H  45.02500 51.23800 44.61900
H  43.15500 47.53300 40.39700
H  39.53700 45.72200 41.13800
H  39.92400 46.05500 42.81900
H  40.80300 44.79300 41.85200
Mg -1.38400 34.28100 28.10300
C  -3.16000 32.55700 30.47100
C  -0.26600 36.44300 30.63300
C  0.32200 36.00000 25.64200
C  -2.79600 32.22400 25.57200
N  -1.73700 34.38600 30.28100
C  -2.46400 33.56700 31.03700
C  -2.32400 33.89700 32.56700
C  -1.59700 35.26300 32.55900
C  -1.11700 35.35100 31.07800
C  -2.62700 36.43100 32.90900
C  -1.53000 32.83200 33.42400
C  -2.36300 32.22100 34.57800
H  -1.51600 32.07500 35.84500
N  -0.10700 36.02400 28.12500
C  0.11900 36.83000 29.26500
C  0.98000 37.85500 28.82700
C  1.29900 37.69000 27.47400
C  0.51900 36.55100 26.98800
C  1.33300 38.87000 29.88100
C  2.25800 38.53300 26.56900
O  2.33400 38.31200 25.36400
C  3.03800 39.64700 27.17400
N  -1.22100 34.19800 25.90800
C  -0.38400 34.89600 25.18300
C  -0.44800 34.42300 23.71600
C  -1.18000 33.06000 23.80000
C  -1.79500 33.12700 25.19300
C  -1.14100 35.42300 22.78500
C  -0.39000 31.69400 23.64200
C  0.73000 31.43900 24.68100
N  -2.73100 32.74900 27.98400
C  -3.28000 32.07000 26.94000
C  -4.21400 31.07800 27.39100
C  -4.07800 31.10600 28.79000
C  -3.26000 32.20900 29.09400
C  -5.03900 30.19800 26.57000
C  -4.49500 30.47900 30.06900
O  -5.23600 29.56000 30.39600
C  -3.95900 31.40200 31.15900
C  -5.17800 31.89100 31.95700
O  -6.14800 32.48300 31.41400
O  -5.07700 31.52400 33.24200
C  -6.20000 31.82900 34.17000
H  0.06200 36.98300 31.52300
H  0.98800 36.45000 24.90300
H  -3.20300 31.55000 24.81500
H  -3.37000 33.94900 32.86900
H  -0.76300 35.36000 33.25400
H  -3.01000 36.89200 31.99900
H  -2.02300 37.15400 33.45800
H  -3.42000 36.01000 33.52700
H  -0.59600 33.28100 33.76100
H  -1.25000 32.03000 32.74200
H  -2.76500 31.23900 34.32800
H  -3.14900 32.94500 34.79300
H  0.74600 39.77400 29.71900
H  2.38700 39.07400 29.69000
H  1.19500 38.59400 30.92600
H  3.53300 40.40000 26.56000
H  3.80300 39.19100 27.80200
H  2.30200 40.19600 27.76200
H  0.59200 34.25400 23.43700
H  -2.03200 32.96500 23.12700
H  -0.60700 35.51800 21.84000
H  -1.26200 36.42700 23.19100
H  -2.14500 35.14800 22.46100
H  0.05200 31.74800 22.64700
H  -0.97600 30.77500 23.65300
H  0.89500 30.45400 25.11800
H  0.74300 32.15100 25.50700
H  1.67000 31.62000 24.16000
H  -5.72000 30.76800 25.93800
H  -5.63700 29.68500 27.32400
H  -4.38100 29.52100 26.02600
H  -3.30500 30.88700 31.86300
H  -6.57300 30.91200 34.62700
H  -7.00300 32.37900 33.68100
H  -5.85500 32.49400 34.96200

