158

Mg -1.61700 17.07000 27.27000
C  -2.16600 14.79600 29.86700
C  -1.95100 19.61400 29.26400
C  -1.63300 19.09300 24.50800
C  -1.36600 14.31400 25.00100
N  -2.08700 17.15600 29.25100
C  -2.31500 16.14100 30.25200
C  -2.61200 16.75000 31.63600
C  -2.47200 18.28100 31.35000
C  -2.08600 18.37800 29.84800
C  -3.70700 19.08500 31.88400
C  -1.59100 16.32900 32.81400
C  -1.63200 17.12500 34.18400
H  -1.54200 16.19600 35.44600
N  -1.67400 19.03600 26.96100
C  -1.78500 19.95600 27.92900
C  -1.77000 21.32200 27.35400
C  -1.72300 21.14700 25.93300
C  -1.66600 19.69600 25.71900
C  -1.87000 22.61800 28.23000
C  -1.82200 22.23400 24.83800
O  -1.77900 21.94700 23.62000
C  -1.82500 23.71100 25.22000
N  -1.48000 16.71300 25.07700
C  -1.54200 17.74300 24.16000
C  -1.41700 17.25400 22.69600
C  -1.14000 15.74800 22.90500
C  -1.31000 15.57900 24.42700
C  -2.53300 17.62100 21.69700
C  0.15700 15.28800 22.26100
C  1.42700 16.05200 22.85300
N  -1.71000 14.99600 27.35700
C  -1.57900 13.98900 26.39400
C  -1.84000 12.73700 26.92800
C  -1.95800 12.96800 28.36700
C  -1.89100 14.34400 28.55400
C  -1.77400 11.40600 26.27600
C  -2.20500 12.29600 29.63800
O  -2.31300 11.10000 29.94500
C  -2.26500 13.46500 30.66200
C  -1.03500 13.34900 31.39500
O  0.02400 13.78000 31.10100
O  -1.28500 12.80300 32.62900
C  -0.17000 12.76500 33.60700
H  -2.04100 20.33700 30.07800
H  -1.61300 19.67200 23.58200
H  -1.10700 13.43800 24.40300
H  -3.55900 16.39100 32.04000
H  -1.58200 18.67500 31.84100
H  -4.13600 18.50600 32.70200
H  -4.47900 19.45700 31.21000
H  -3.16900 19.89900 32.37000
H  -0.55600 16.18800 32.50000
H  -1.87800 15.32600 33.13100
H  -2.49400 17.78200 34.29200
H  -0.76200 17.77800 34.24200
H  -2.88100 22.98500 28.05200
H  -1.24300 23.47100 27.97200
H  -1.83100 22.27700 29.26500
H  -0.86100 23.91300 25.68700
H  -2.59500 24.01600 25.92900
H  -1.95100 24.38300 24.37100
H  -0.55600 17.72900 22.22700
H  -2.01800 15.29500 22.44500
H  -3.13200 18.42200 22.12900
H  -3.28900 16.87800 21.44100
H  -2.13700 17.90300 20.72100
H  0.14000 15.30100 21.17100
H  0.36100 14.28800 22.64300
H  1.14200 16.83800 23.55300
H  2.08300 16.47200 22.09000
H  2.00900 15.36800 23.47000
H  -1.08900 10.78600 26.85400
H  -1.49100 11.50600 25.22800
H  -2.77000 10.96500 26.27600
H  -3.06100 13.41200 31.40500
H  0.30500 13.74400 33.56000
H  0.60600 12.01100 33.47400
H  -0.63900 12.66700 34.58600
Mg 34.69600 3.38100 29.22600
C  32.39100 4.21300 31.78900
C  37.25700 4.01300 31.67400
C  37.03400 2.94700 26.94000
C  32.12900 3.59900 27.00900
N  34.77900 4.26200 31.45200
C  33.68800 4.40900 32.25000
C  34.04600 4.47200 33.77600
C  35.65400 4.56800 33.68100
C  35.92500 4.33800 32.18200
C  36.15500 5.93300 34.26300
C  33.60700 3.15000 34.52900
C  33.32000 3.28700 36.00900
H  33.99400 4.42600 36.78000
N  36.79100 3.32400 29.33100
C  37.60700 3.61500 30.37600
C  38.98300 3.30400 29.96100
C  38.99200 3.08400 28.51700
C  37.60500 3.12800 28.21200
C  40.12700 3.41600 30.95900
C  40.05000 2.68300 27.59600
O  39.82600 2.36600 26.41300
C  41.51900 2.52400 28.05400
N  34.55900 3.29400 27.23800
C  35.70200 2.98500 26.51600
C  35.26300 2.75900 25.03700
C  33.74100 3.14600 24.98600
C  33.41900 3.33600 26.46600
C  36.13300 3.55100 23.98900
C  32.74000 2.22200 24.20900
C  32.07600 1.04900 24.95300
N  32.67000 3.71900 29.34300
C  31.75600 3.75100 28.33300
C  30.38700 4.04600 28.84300
C  30.60500 4.20600 30.22400
C  32.00800 4.04900 30.47800
C  29.09600 4.10000 28.04000
C  29.91900 4.46800 31.43000
O  28.75600 4.64900 31.68200
C  31.07500 4.48300 32.50100
C  30.91600 5.69300 33.31400
O  31.30800 6.82700 33.04000
O  30.43500 5.34100 34.58100
C  30.20600 6.43200 35.47000
H  38.08900 4.12400 32.37200
H  37.70400 2.72100 26.10700
H  31.23100 3.60900 26.38700
H  33.59100 5.35300 34.22900
H  36.08000 3.72700 34.22900
H  36.88100 5.69600 35.04100
H  35.35100 6.58900 34.59400
H  36.63500 6.50000 33.46500
H  34.22900 2.27400 34.34500
H  32.70400 2.69900 34.11700
H  33.83700 2.39400 36.35900
H  32.23700 3.29800 36.13000
H  41.12400 3.25300 30.55000
H  40.08500 2.53200 31.59600
H  40.09300 4.37900 31.46800
H  42.10700 2.04200 27.27300
H  41.55900 1.88800 28.93800
H  41.97500 3.48000 28.31200
H  35.34900 1.68700 24.85800
H  33.67800 4.13300 24.52700
H  36.88300 4.14700 24.50900
H  35.51300 4.08500 23.26800
H  36.72700 2.79500 23.47600
H  33.26700 1.86000 23.32600
H  32.05300 3.00400 23.88400
H  31.06400 0.91600 24.57200
H  31.96500 1.18900 26.02800
H  32.50400 0.06600 24.75800
H  29.26800 4.89200 27.31100
H  28.27000 4.44700 28.66100
H  28.91700 3.22200 27.42000
H  30.81300 3.55600 33.01100
H  29.56800 7.22900 35.08800
H  31.13400 6.78500 35.91900
H  29.70300 5.93000 36.29700

