158

Mg -0.01500 7.84800 26.46900
C  0.84000 9.84400 29.39900
C  -0.28900 5.15800 28.59200
C  -0.42100 6.11900 23.78900
C  0.42400 10.74800 24.63100
N  0.48900 7.51400 28.72900
C  0.59200 8.49000 29.75900
C  0.44500 7.83900 31.11300
C  0.20600 6.32600 30.73100
C  0.13500 6.32400 29.24700
C  1.33500 5.39100 31.33300
C  -0.71300 8.39200 31.94300
C  -0.39800 8.74000 33.40300
H  0.83500 8.11900 33.99200
N  -0.28000 5.91400 26.22800
C  -0.41800 4.93500 27.18800
C  -0.83600 3.67300 26.58400
C  -0.81000 3.92600 25.18400
C  -0.55400 5.39000 25.01400
C  -1.23600 2.45600 27.38600
C  -1.04500 3.00100 24.01100
O  -1.02600 3.30600 22.82200
C  -1.29400 1.50300 24.21200
N  0.02500 8.26800 24.51300
C  -0.14700 7.37100 23.49800
C  0.05100 8.05300 22.14000
C  -0.26600 9.56800 22.44600
C  0.00500 9.53500 23.99700
C  1.36300 7.91300 21.36100
C  -1.71500 9.95500 22.30400
C  -2.10600 10.60600 20.99800
N  0.55100 9.90700 26.79400
C  0.76400 10.93200 25.97300
C  1.21700 12.15800 26.67700
C  1.13700 11.73900 28.02300
C  0.81600 10.36700 28.02000
C  1.54400 13.46800 26.02400
C  1.34900 12.19400 29.30400
O  1.68300 13.31700 29.64900
C  1.16000 10.97700 30.28600
C  2.33500 10.95000 31.13800
O  3.31500 10.28100 30.81100
O  2.20300 11.73900 32.24700
C  3.28000 11.82200 33.29800
H  -0.63300 4.27500 29.13400
H  -0.41400 5.56000 22.85000
H  0.61300 11.53500 23.89900
H  1.43300 7.85700 31.57300
H  -0.73100 5.91500 31.10600
H  0.99200 5.11000 32.32900
H  2.30500 5.87300 31.21200
H  1.48700 4.48300 30.74900
H  -1.58600 7.74500 32.03200
H  -1.01400 9.28600 31.39800
H  -1.27600 8.41100 33.95900
H  -0.28600 9.81300 33.55400
H  -0.90000 1.56400 26.85600
H  -2.31700 2.50200 27.25200
H  -0.87800 2.39200 28.41400
H  -0.53500 0.93800 24.75300
H  -1.54600 1.11300 23.22600
H  -2.20900 1.44700 24.80300
H  -0.72100 7.66800 21.47400
H  0.40700 10.25900 21.94000
H  2.05200 8.74100 21.53000
H  1.19300 7.71400 20.30300
H  1.94200 7.11100 21.81700
H  -1.97200 10.74000 23.01600
H  -2.33800 9.07900 22.48900
H  -1.55200 10.41700 20.07800
H  -2.01600 11.69100 21.06600
H  -3.10300 10.31000 20.67100
H  0.60600 14.02000 25.96000
H  2.06200 13.28900 25.08200
H  2.11800 14.07200 26.72600
H  0.27100 11.21900 30.86900
H  4.16900 11.41700 32.81500
H  3.18800 11.22000 34.20300
H  3.44600 12.86100 33.58100
Mg 41.24700 8.89700 29.96700
C  43.01200 10.34400 32.62100
C  38.82400 7.89100 32.12700
C  39.73500 7.34000 27.27800
C  43.87100 9.89100 27.81500
N  41.00200 9.06400 32.14700
C  41.78200 9.78900 33.01400
C  41.15600 9.91700 34.40000
C  39.74700 9.22100 34.18800
C  39.79000 8.72200 32.70400
C  39.33900 8.17100 35.26700
C  40.99400 11.37100 34.85400
C  40.17200 11.56500 36.18400
H  40.89300 12.29600 37.31300
N  39.63600 7.72900 29.77100
C  38.67400 7.47700 30.76400
C  37.49800 6.83800 30.18100
C  37.71000 6.82800 28.78300
C  39.10800 7.30900 28.55600
C  36.25100 6.44300 30.93100
C  36.71000 6.41400 27.60600
O  36.96600 6.69800 26.41500
C  35.26000 6.02600 27.99800
N  41.72000 8.57800 27.79900
C  40.91900 7.96600 26.92300
C  41.46000 8.02700 25.44800
C  42.74600 8.87500 25.68100
C  42.80500 9.17600 27.19000
C  41.67800 6.67200 24.68600
C  42.79500 10.05100 24.81700
C  42.30400 11.43700 25.33500
N  43.10000 9.90900 30.16800
C  44.00000 10.25300 29.19400
C  45.11500 10.92100 29.80500
C  44.81200 10.92600 31.21100
C  43.52400 10.39900 31.34700
C  46.40700 11.35700 29.11700
C  45.30100 11.20700 32.50000
O  46.43500 11.47900 32.93800
C  44.08900 10.96300 33.44000
C  44.51500 10.21700 34.70100
O  44.95300 9.05000 34.65900
O  44.49700 11.11900 35.78000
C  44.94800 10.57300 37.07900
H  37.94400 7.77000 32.76200
H  39.21400 6.92500 26.41200
H  44.72800 10.02300 27.15100
H  41.67800 9.29900 35.13000
H  39.00700 10.01800 34.26400
H  39.91100 8.42600 36.15900
H  39.58300 7.18000 34.88400
H  38.28000 8.18500 35.52600
H  40.68900 12.00500 34.02200
H  42.01800 11.64600 35.11000
H  39.70500 10.64700 36.54200
H  39.23200 12.09100 36.01400
H  36.10400 5.36300 30.90400
H  35.33300 6.78700 30.45500
H  36.21700 6.80800 31.95700
H  35.20700 5.20000 28.70800
H  34.90500 5.58000 27.06900
H  34.72600 6.94800 28.22900
H  40.70300 8.71400 25.06900
H  43.63100 8.28500 25.44000
H  41.82900 5.78900 25.30600
H  42.54400 6.64600 24.02500
H  40.76800 6.52800 24.10400
H  42.22300 9.79300 23.92600
H  43.80300 10.17800 24.42200
H  41.64800 11.80400 24.54600
H  43.10300 12.16800 25.45400
H  41.60000 11.39000 26.16600
H  46.49400 12.38500 29.46700
H  46.19400 11.19800 28.05900
H  47.25800 10.75800 29.44300
H  43.72800 11.94300 33.75100
H  44.17200 10.78800 37.81400
H  45.84300 11.12300 37.37000
H  45.22500 9.52000 37.12600

