158

Mg 17.17300 -0.56500 27.54200
C  16.06800 1.55900 30.06700
C  19.24200 -2.22700 29.60000
C  18.66400 -1.76600 24.77400
C  15.27100 1.68600 25.35800
N  17.66800 -0.27600 29.61600
C  17.09400 0.58600 30.45800
C  17.61900 0.34000 31.86700
C  18.68300 -0.88000 31.74700
C  18.56800 -1.15900 30.23400
C  20.15800 -0.62000 32.35800
C  16.55900 0.08800 32.91700
C  16.71700 0.68300 34.28400
H  18.03600 1.03800 34.85100
N  18.59000 -2.01900 27.24200
C  19.37400 -2.60800 28.23100
C  20.24200 -3.51700 27.63700
C  20.04000 -3.41100 26.21800
C  19.06000 -2.37100 25.98400
C  21.02100 -4.41700 28.53200
C  20.73100 -4.23200 25.07700
O  20.47100 -4.11700 23.86300
C  21.71900 -5.33300 25.43700
N  16.95600 -0.13800 25.39300
C  17.65600 -0.82900 24.50600
C  17.41400 -0.35100 23.11100
C  16.23200 0.61300 23.21700
C  16.20000 0.81600 24.74700
C  18.66600 0.16400 22.40600
C  14.88400 0.08100 22.61100
C  13.75700 -0.27900 23.56200
N  15.85800 1.17600 27.68300
C  15.10400 1.97600 26.69400
C  14.30100 3.01800 27.34700
C  14.72300 2.88100 28.68300
C  15.61400 1.80200 28.79200
C  13.39900 4.08900 26.86100
C  14.55400 3.51200 29.98000
O  13.93400 4.57900 30.27400
C  15.39500 2.63400 30.92000
C  16.35400 3.47200 31.67000
O  17.50800 3.62300 31.33100
O  15.75500 4.01400 32.74500
C  16.45500 5.06200 33.45800
H  19.84900 -2.85000 30.26000
H  19.16500 -2.08500 23.85800
H  14.56700 2.30000 24.79200
H  18.25800 1.20600 32.03500
H  18.36200 -1.81000 32.21500
H  20.12800 0.26900 32.98900
H  20.97500 -0.42000 31.66400
H  20.45700 -1.49000 32.94300
H  16.38900 -0.98800 32.93600
H  15.63700 0.52300 32.52900
H  16.42400 -0.08900 34.99500
H  16.11600 1.59200 34.33000
H  21.09500 -5.44100 28.16700
H  20.66000 -4.62400 29.53900
H  21.99600 -3.97300 28.73100
H  21.22400 -6.27000 25.69300
H  22.43700 -5.11500 26.22700
H  22.42000 -5.64500 24.66200
H  17.09100 -1.22200 22.54100
H  16.42000 1.56600 22.72100
H  19.41700 0.70600 22.98000
H  18.38200 0.77400 21.54800
H  19.24300 -0.73800 22.20400
H  15.07800 -0.52500 21.72600
H  14.34400 0.87400 22.09300
H  13.35400 0.60100 24.06500
H  14.09200 -0.95600 24.34700
H  12.94600 -0.73200 22.99000
H  12.63100 4.19600 27.62700
H  13.05500 3.99500 25.83200
H  13.95400 5.02700 26.88500
H  14.71200 2.26100 31.68300
H  17.34300 4.64400 33.93300
H  15.87300 5.50800 34.26500
H  16.69100 5.79400 32.68500
Mg 48.31600 34.82100 26.28800
C  46.21100 33.36000 28.85400
C  48.59500 37.52000 28.31200
C  49.47800 36.40500 23.72300
C  47.40700 32.02100 24.34600
N  47.47700 35.26900 28.36100
C  46.83600 34.52000 29.23700
C  46.90900 35.02200 30.70600
C  47.33600 36.51700 30.39900
C  47.90400 36.39700 28.95400
C  46.34100 37.73300 30.61300
C  48.05100 34.24700 31.47200
C  47.80300 33.99200 32.99000
H  46.89000 34.89500 33.70000
N  49.14800 36.66000 26.13400
C  49.16400 37.63500 27.03400
C  49.93100 38.75800 26.49300
C  50.24200 38.45600 25.18100
C  49.59900 37.17300 24.97000
C  50.26200 39.92800 27.36200
C  51.02100 39.29600 24.14800
O  51.04100 39.04900 22.95400
C  51.74100 40.57400 24.56100
N  48.21800 34.41500 24.15100
C  48.85400 35.21100 23.32600
C  49.39000 34.34200 22.13500
C  48.87800 32.85500 22.46000
C  48.13700 33.10300 23.74800
C  49.02000 34.89500 20.75600
C  49.98200 31.82000 22.61900
C  50.04500 30.60700 21.60600
N  47.15700 32.96500 26.50500
C  46.81500 32.02600 25.67200
C  46.00900 31.01000 26.25800
C  45.75000 31.51400 27.48000
C  46.37800 32.78400 27.59800
C  45.52400 29.70500 25.72200
C  45.11200 31.22700 28.73200
O  44.60400 30.18800 29.13500
C  45.29300 32.42400 29.62600
C  45.74500 31.84200 30.94800
O  46.80300 31.20400 31.15200
O  44.73300 32.06500 31.82700
C  44.81200 31.46300 33.18600
H  48.91300 38.30900 28.99600
H  50.07400 36.91500 22.96300
H  47.31300 31.12100 23.73400
H  46.05200 34.89500 31.36700
H  48.18900 36.85100 30.99000
H  46.81500 38.65900 30.94000
H  45.57600 37.57400 31.37400
H  45.91400 37.90900 29.62600
H  48.99900 34.78500 31.42900
H  48.23800 33.31900 30.93200
H  48.77100 34.29200 33.39100
H  47.61100 32.94800 33.23700
H  51.30000 40.20400 27.18000
H  50.15500 39.76500 28.43400
H  49.52300 40.68900 27.11300
H  52.39700 41.06200 23.84000
H  52.40700 40.19000 25.33400
H  51.06500 41.37100 24.87200
H  50.47800 34.36600 22.19100
H  48.28200 32.46000 21.63800
H  48.77800 35.94900 20.89300
H  48.11400 34.50400 20.29400
H  49.82000 34.82200 20.02000
H  49.99200 31.50500 23.66300
H  50.94300 32.32900 22.55200
H  50.95200 30.71300 21.01100
H  49.20900 30.59000 20.90600
H  50.04800 29.72300 22.24300
H  46.01700 29.53900 24.76400
H  44.46400 29.63700 25.47500
H  45.63200 28.95700 26.50700
H  44.29800 32.84900 29.76000
H  45.76200 30.97900 33.41000
H  43.94800 30.82400 33.37000
H  44.65000 32.25000 33.92300

