158

Mg 1.52500 8.62000 27.63000
C  1.89800 11.09200 30.21200
C  1.66000 6.21400 30.26600
C  1.88100 6.34500 25.39400
C  2.02500 11.23000 25.38800
N  1.67800 8.69700 29.99500
C  1.77300 9.81500 30.81800
C  1.52700 9.46800 32.34300
C  1.79400 7.84700 32.22600
C  1.70900 7.53000 30.69400
C  3.19100 7.31300 32.72900
C  0.11900 9.81900 32.79400
C  -0.19100 9.58800 34.31000
H  0.86100 9.15100 35.31200
N  1.50100 6.59300 27.76600
C  1.57600 5.78700 28.90700
C  1.44200 4.44600 28.51300
C  1.58800 4.39700 27.08600
C  1.70300 5.80900 26.69200
C  1.43800 3.34500 29.50300
C  1.67500 3.15600 26.06600
O  1.78200 3.35800 24.87400
C  1.53200 1.74100 26.67600
N  1.85400 8.72900 25.65200
C  2.01800 7.65300 24.91700
C  2.21800 8.06000 23.43500
C  2.16900 9.57700 23.47500
C  1.93800 9.88400 24.92900
C  3.42300 7.45800 22.64100
C  1.23300 10.27000 22.42200
C  -0.18000 10.41300 22.96900
N  1.83500 10.75700 27.71600
C  1.99200 11.62000 26.69700
C  1.99200 12.95200 27.20100
C  1.97100 12.80500 28.63200
C  1.88500 11.44300 28.85100
C  2.14100 14.25400 26.43200
C  2.04500 13.48700 29.96400
O  2.02900 14.64700 30.26900
C  2.03900 12.30700 31.02400
C  3.18600 12.38200 31.93200
O  4.36600 12.09300 31.76000
O  2.71600 12.85500 33.16900
C  3.57700 12.73200 34.38200
H  1.44500 5.52200 31.08300
H  2.22900 5.62600 24.64900
H  2.10800 11.97600 24.59400
H  2.22700 10.06600 32.92600
H  0.96100 7.32500 32.69600
H  3.42400 8.01600 33.52800
H  3.94300 7.36800 31.94200
H  3.17100 6.31200 33.16000
H  -0.53500 9.15900 32.22500
H  0.03400 10.88900 32.60400
H  -0.98700 8.84600 34.24800
H  -0.55900 10.49800 34.78200
H  2.26200 2.63100 29.46400
H  0.52300 2.75600 29.43800
H  1.40600 3.65400 30.54700
H  0.49100 1.53700 26.92700
H  2.14200 1.53100 27.55500
H  1.86900 1.10700 25.85700
H  1.26500 7.72900 23.02300
H  3.16900 9.97200 23.30000
H  3.97000 8.37400 22.41800
H  3.08400 6.91900 21.75600
H  4.12600 6.76500 23.10200
H  1.08200 9.74900 21.47700
H  1.53400 11.29300 22.20000
H  -0.17100 11.21800 23.70300
H  -0.59600 9.48200 23.35400
H  -0.84200 10.73500 22.16500
H  1.83200 14.06200 25.40500
H  3.20400 14.48600 26.49200
H  1.63300 15.04300 26.98800
H  1.10300 12.51100 31.54300
H  3.35900 13.63600 34.95000
H  4.63000 12.81300 34.11200
H  3.39100 11.79000 34.89900
Mg 44.90700 4.77200 47.22600
C  42.82800 7.50200 47.21100
C  42.04700 2.75400 46.73100
C  46.88300 2.05500 46.55400
C  47.56300 6.84000 47.02700
N  42.62700 5.07600 47.04200
C  42.10200 6.29800 47.06200
C  40.59600 6.23300 46.78600
C  40.30400 4.69500 46.58500
C  41.76500 4.10600 46.72600
C  39.28800 3.83100 47.41800
C  39.97300 7.10000 45.62700
C  40.74300 7.04200 44.28300
H  39.98600 6.45500 43.09200
N  44.47900 2.69300 46.79800
C  43.26000 2.09800 46.71700
C  43.46100 0.70700 46.49100
C  44.85700 0.47200 46.57200
C  45.50300 1.76800 46.62000
C  42.42000 -0.36500 46.21300
C  45.42900 -0.89900 46.58400
O  44.79600 -1.95000 46.69500
C  46.84000 -1.10300 46.66500
N  46.94300 4.46700 46.80000
C  47.58100 3.28300 46.60000
C  49.10400 3.45800 46.47500
C  49.23400 4.95200 46.82800
C  47.81700 5.48000 46.82300
C  49.83700 2.50300 47.43600
C  50.25600 5.70500 45.94300
C  49.85200 5.89900 44.57200
N  45.21800 6.73700 47.22700
C  46.34800 7.49500 47.14900
C  46.05500 8.87900 47.15500
C  44.70200 8.90900 47.30200
C  44.23500 7.62000 47.27300
C  47.06200 10.01600 47.00000
C  43.56600 9.79500 47.47500
O  43.55900 11.02600 47.44100
C  42.29900 8.91100 47.36000
C  41.36500 8.97600 48.52400
O  41.45800 8.39100 49.58300
O  40.27700 9.73200 48.14400
C  39.33700 10.05900 49.20300
H  41.14200 2.14400 46.70500
H  47.54300 1.19900 46.39500
H  48.42300 7.50600 47.12600
H  40.19000 6.55100 47.74600
H  40.18800 4.48100 45.52300
H  38.47500 4.44300 47.80700
H  39.80900 3.44400 48.29400
H  38.86500 2.99400 46.86300
H  39.95000 8.12700 45.99300
H  38.90600 6.91200 45.50500
H  41.64300 6.43900 44.39900
H  41.06200 8.07400 44.13900
H  42.68500 -0.87100 45.28400
H  41.43600 0.10100 46.25700
H  42.46200 -1.03700 47.07000
H  47.23800 -0.47700 47.46400
H  47.32100 -0.72500 45.76300
H  47.10600 -2.13400 46.89800
H  49.44800 3.30700 45.45200
H  49.57700 5.19200 47.83500
H  50.76500 2.95800 47.78400
H  49.86900 1.44700 47.16800
H  49.23400 2.32100 48.32500
H  51.18700 5.16300 46.11200
H  50.25100 6.71200 46.35900
H  50.66400 5.66100 43.88500
H  49.40200 6.86500 44.34600
H  49.06000 5.20800 44.28400
H  48.05500 9.82400 47.40800
H  46.69300 10.86700 47.57200
H  47.16900 10.15500 45.92400
H  41.77700 9.20500 46.45000
H  38.59600 9.26400 49.12600
H  39.02800 11.07600 48.96100
H  39.80000 9.94700 50.18300

