158

Mg 48.60700 16.19300 29.22800
C  46.37700 15.63400 31.94800
C  50.58100 17.93500 31.22800
C  50.35900 16.83800 26.50000
C  46.09900 14.57000 27.17300
N  48.44500 16.70900 31.37400
C  47.55300 16.32900 32.32400
C  47.95200 16.76900 33.73100
C  49.04900 17.77200 33.31500
C  49.39100 17.49400 31.89800
C  48.54100 19.25800 33.48800
C  48.50300 15.52600 34.58900
C  48.23700 15.72700 36.10200
H  48.28100 17.12800 36.72700
N  50.28700 17.10400 28.94500
C  50.98100 17.77100 29.88000
C  52.26500 18.19600 29.28600
C  52.27800 17.80700 27.91000
C  50.90400 17.26600 27.74000
C  53.44100 18.75900 30.05500
C  53.30600 17.93500 26.87800
O  53.18900 17.65400 25.68900
C  54.66000 18.47800 27.21400
N  48.38100 15.61500 27.12000
C  49.16200 16.16300 26.21600
C  48.72300 15.81400 24.75300
C  47.38600 14.98700 25.02600
C  47.23500 15.07000 26.54200
C  48.64700 17.03200 23.76700
C  47.29000 13.66200 24.31000
C  47.69900 12.39200 25.12300
N  46.58500 15.41100 29.40400
C  45.77200 14.76700 28.53300
C  44.55700 14.39800 29.20900
C  44.71200 14.72600 30.58500
C  46.04200 15.28400 30.67700
C  43.47000 13.53700 28.54100
C  44.16100 14.59300 31.91700
O  43.04500 14.22300 32.28100
C  45.23100 15.22100 32.87200
C  44.57900 16.50500 33.46200
O  44.04100 17.36300 32.82500
O  44.54500 16.42100 34.81600
C  43.68200 17.39200 35.40200
H  51.25200 18.37900 31.96600
H  50.85000 17.10000 25.56000
H  45.40500 14.01500 26.53800
H  47.03800 17.15500 34.18200
H  50.01500 17.67800 33.81300
H  47.54500 19.31500 33.92600
H  48.48000 19.79300 32.54000
H  49.17500 19.76200 34.21700
H  49.55400 15.28300 34.43600
H  47.85500 14.68000 34.36000
H  48.95100 15.17200 36.71000
H  47.29600 15.20400 36.27200
H  53.95200 19.59600 29.57900
H  54.02000 17.83700 30.09400
H  53.21300 19.22900 31.01200
H  54.48300 19.53000 27.44000
H  55.22200 18.50800 26.28100
H  55.15400 17.86400 27.96800
H  49.33500 15.03300 24.30300
H  46.53600 15.47100 24.54600
H  48.00500 16.96300 22.88900
H  49.65800 17.20800 23.40000
H  48.52400 17.95100 24.33900
H  47.93600 13.66200 23.43200
H  46.27200 13.60400 23.92600
H  48.17500 11.58800 24.56200
H  46.89000 11.90100 25.66400
H  48.42100 12.69600 25.88000
H  42.72700 14.20000 28.09700
H  42.85000 12.96000 29.22800
H  43.88500 12.90800 27.75400
H  45.46900 14.53600 33.68700
H  44.13700 18.37200 35.26200
H  43.50600 17.15700 36.45200
H  42.72400 17.40200 34.88300
Mg 9.54600 48.52000 25.37900
C  7.65100 48.69200 28.45600
C  12.13300 49.64900 27.12100
C  11.45700 48.19000 22.52800
C  6.62700 48.13700 23.61700
N  9.86800 48.95700 27.60400
C  8.97100 48.94000 28.66900
C  9.70000 49.33100 29.99200
C  10.99700 50.04300 29.47100
C  11.01900 49.59800 27.97400
C  11.03800 51.57400 29.50400
C  10.07700 48.04600 30.75600
C  9.99300 48.13400 32.30000
H  9.92600 46.78900 33.02400
N  11.54800 48.79300 24.88500
C  12.49900 49.13400 25.78400
C  13.83700 49.17500 25.17700
C  13.63400 48.65700 23.83900
C  12.15300 48.60300 23.68100
C  15.17700 49.41400 25.96200
C  14.65200 48.25200 22.79400
O  14.41300 47.83000 21.68500
C  16.05000 48.42500 23.04900
N  9.12700 48.54700 23.34300
C  10.04400 48.18700 22.38400
C  9.37100 47.83000 21.04400
C  7.84200 47.63700 21.44500
C  7.86200 48.22400 22.92000
C  9.73900 48.68400 19.84400
C  7.25400 46.23900 21.35500
C  7.51100 45.24600 22.49000
N  7.50900 48.48100 25.90600
C  6.46300 48.31700 25.02600
C  5.19400 48.24500 25.85200
C  5.66000 48.35800 27.18900
C  7.05100 48.47700 27.14800
C  3.86200 47.95200 25.30700
C  5.17300 48.35400 28.51700
O  4.04000 48.30100 28.91800
C  6.47800 48.59200 29.44900
C  6.70600 47.34300 30.24100
O  7.06100 46.25800 29.80400
O  6.39700 47.64000 31.57400
C  6.67700 46.64200 32.57900
H  12.95800 50.09000 27.68400
H  12.13500 47.89700 21.72400
H  5.74700 47.82100 23.05300
H  9.17600 50.04200 30.63000
H  11.96100 49.74800 29.88500
H  10.62200 52.02000 28.60000
H  12.01300 52.03000 29.68000
H  10.34800 51.95800 30.25500
H  11.13400 47.86600 30.55700
H  9.47400 47.20400 30.41700
H  9.15100 48.75700 32.60100
H  10.83900 48.68600 32.71000
H  15.04300 49.67700 27.01200
H  15.78900 50.18300 25.49100
H  15.78300 48.50900 25.98800
H  16.36900 49.45600 23.20000
H  16.64100 47.99100 22.24200
H  16.21200 47.87600 23.97600
H  9.82100 46.83800 21.02000
H  7.06600 48.18600 20.91100
H  10.48400 49.40500 20.18200
H  8.94700 49.31200 19.43800
H  10.09100 48.06200 19.02200
H  7.65000 45.81800 20.43100
H  6.18800 46.25300 21.12600
H  8.05900 45.56800 23.37600
H  7.94600 44.30200 22.15900
H  6.49000 45.02700 22.80100
H  3.58100 48.57600 24.45800
H  3.09200 48.13200 26.05800
H  3.84800 46.90200 25.01500
H  6.46200 49.46000 30.10800
H  7.15300 47.15900 33.41200
H  7.21100 45.76000 32.22400
H  5.68000 46.34700 32.90500

