158

Mg 1.35900 7.12400 25.84000
C  2.23100 9.05100 28.61200
C  1.77400 4.29400 27.85900
C  0.69000 5.30000 23.20200
C  2.18300 9.88000 23.80600
N  1.97300 6.74200 28.02400
C  2.04100 7.73600 29.00900
C  2.09500 7.07100 30.38200
C  2.19700 5.54500 30.10200
C  2.01600 5.53700 28.54300
C  3.46200 4.79000 30.56800
C  0.84300 7.42200 31.33600
C  1.24400 7.77400 32.77700
H  2.48100 7.13000 33.43600
N  1.13500 5.09900 25.59200
C  1.41800 4.13300 26.50600
C  1.23400 2.81400 25.90200
C  0.82200 3.01200 24.51300
C  0.88200 4.51500 24.36800
C  1.34400 1.55700 26.74200
C  0.60300 2.01000 23.46500
O  0.46100 2.31600 22.30100
C  0.39300 0.60800 23.81600
N  1.48500 7.51800 23.78300
C  1.01700 6.63000 22.89200
C  0.98300 7.18800 21.43100
C  1.79200 8.50800 21.60200
C  1.84200 8.70200 23.14700
C  1.41500 6.30600 20.26700
C  1.32000 9.78000 20.82500
C  -0.05000 10.41000 21.18800
N  1.94200 9.06000 26.13400
C  2.23600 10.07000 25.20400
C  2.59800 11.28700 25.88800
C  2.58500 10.93400 27.21400
C  2.22300 9.57100 27.28300
C  2.79800 12.67300 25.25500
C  2.76600 11.41000 28.62500
O  3.00600 12.52100 29.09600
C  2.42900 10.25500 29.54400
C  3.55700 10.12000 30.53100
O  4.61800 9.56400 30.26200
O  3.31400 10.68500 31.73500
C  4.38500 10.75700 32.68600
H  1.79400 3.35900 28.42100
H  0.39200 4.65500 22.37300
H  2.47100 10.74500 23.20700
H  2.96500 7.49300 30.88700
H  1.37500 4.94400 30.49100
H  4.25200 4.66300 29.82700
H  3.17000 3.80800 30.94100
H  3.94000 5.34900 31.37300
H  0.29100 6.49600 31.50200
H  0.18800 8.16100 30.87600
H  0.38300 7.74300 33.44500
H  1.55300 8.81400 32.67100
H  0.40500 1.02700 26.90000
H  1.97900 1.69700 27.61700
H  1.88700 0.91300 26.05000
H  -0.29400 0.49800 24.65500
H  1.35800 0.19600 24.11300
H  -0.03400 0.13800 22.93000
H  -0.07700 7.34700 21.23400
H  2.83600 8.30500 21.36000
H  1.83400 5.46400 20.81800
H  2.09800 6.81400 19.58500
H  0.48300 6.06500 19.75500
H  1.47600 9.64600 19.75500
H  1.92900 10.68300 20.86400
H  -0.42400 10.68400 20.20100
H  0.04400 11.23200 21.89700
H  -0.70700 9.66800 21.64100
H  2.34200 12.72000 24.26600
H  3.87000 12.85500 25.16800
H  2.38700 13.37900 25.97600
H  1.48500 10.50300 30.02900
H  3.95100 10.96300 33.66500
H  5.10900 11.49900 32.35200
H  4.98200 9.84800 32.74300
Mg 47.45600 16.31600 27.93100
C  45.27000 15.69800 30.68900
C  49.54400 17.77800 30.34300
C  49.09700 17.80700 25.51300
C  45.12300 15.09300 25.87300
N  47.35400 16.76700 30.26000
C  46.46100 16.30700 31.13200
C  46.80900 16.56800 32.61500
C  48.02500 17.57300 32.41100
C  48.38100 17.33900 30.95500
C  47.73100 19.06000 32.73400
C  47.02800 15.23100 33.44000
C  46.69800 15.30600 34.91500
H  46.27600 16.62900 35.62600
N  49.19700 17.41700 27.92800
C  49.96800 17.81100 29.00000
C  51.22100 18.29900 28.48600
C  51.02800 18.47700 27.04600
C  49.69000 17.87600 26.78400
C  52.39200 18.69400 29.34000
C  51.97000 18.99700 25.91700
O  51.68200 19.10200 24.70600
C  53.34300 19.29600 26.31800
N  47.13500 16.51700 26.02700
C  47.90800 17.26700 25.14300
C  47.44900 17.17300 23.63100
C  46.41600 15.98600 23.80000
C  46.15800 15.87000 25.34000
C  46.73700 18.48600 23.14100
C  46.97000 14.62700 23.19600
C  45.94400 13.71600 22.61300
N  45.58300 15.53600 28.14500
C  44.76100 14.96400 27.21800
C  43.58900 14.39800 27.80600
C  43.74100 14.64900 29.19200
C  44.99200 15.35400 29.35000
C  42.43100 13.70800 27.14400
C  43.11500 14.50600 30.48000
O  42.09100 13.91200 30.78500
C  44.05500 15.19900 31.48000
C  43.32200 16.24100 32.29100
O  42.75200 17.19400 31.86500
O  43.31200 15.77700 33.59700
C  42.65200 16.72200 34.55100
H  50.31700 18.32900 30.88300
H  49.49700 18.29300 24.62100
H  44.47700 14.60800 25.13800
H  45.93600 17.07300 33.02900
H  48.90400 17.20800 32.94200
H  46.70900 19.29500 33.03000
H  48.05300 19.64800 31.87500
H  48.33200 19.48500 33.53800
H  48.09900 15.05700 33.33600
H  46.43400 14.42500 33.00800
H  47.63600 15.03400 35.39900
H  46.02600 14.52400 35.26800
H  53.21700 18.04700 29.04200
H  52.20700 18.49400 30.39600
H  52.70800 19.73700 29.33000
H  53.75200 18.37200 26.72900
H  53.46900 20.06000 27.08500
H  53.84900 19.67100 25.42800
H  48.27800 16.86600 22.99300
H  45.42700 16.19100 23.39100
H  47.09500 19.34000 23.71600
H  45.64900 18.42600 23.16800
H  47.00700 18.67800 22.10300
H  47.59100 14.14600 23.95200
H  47.59200 14.96200 22.36500
H  46.19500 13.36500 21.61200
H  45.02300 14.30000 22.60000
H  45.89400 12.84400 23.26500
H  42.22200 14.09200 26.14500
H  41.52300 13.86300 27.72700
H  42.66200 12.64200 27.13400
H  44.41300 14.48400 32.22100
H  42.94200 17.73700 34.28000
H  42.89700 16.47500 35.58400
H  41.58200 16.54800 34.43500

