158

Mg 41.06100 9.48700 29.75700
C  42.63300 10.32400 32.83000
C  38.57100 7.94200 31.59800
C  39.65600 8.70600 26.92400
C  43.88600 10.66600 27.95900
N  40.75900 9.14300 31.93700
C  41.42600 9.65200 32.96600
C  40.79600 9.20800 34.28100
C  39.58500 8.41300 33.91400
C  39.67200 8.47200 32.34300
C  39.45100 7.03800 34.56600
C  40.49000 10.39000 35.26800
C  40.80800 10.14600 36.77400
H  41.16800 11.39100 37.67400
N  39.39600 8.46600 29.30400
C  38.46400 7.89700 30.16100
C  37.30800 7.49700 29.44500
C  37.51400 7.80700 28.08000
C  38.93300 8.34800 28.07900
C  36.08200 6.78200 30.06900
C  36.69000 7.46900 26.89900
O  37.00300 7.70600 25.72600
C  35.26000 6.83300 27.01500
N  41.78000 9.49600 27.74500
C  40.90000 9.17700 26.80900
C  41.37700 9.47200 25.43500
C  42.79900 10.11800 25.73600
C  42.86400 10.13000 27.21400
C  41.26400 8.28800 24.45400
C  43.11800 11.45300 25.05700
C  41.98400 12.49600 25.40700
N  42.91800 10.30300 30.25800
C  43.95000 10.70700 29.41800
C  45.00300 11.30700 30.26500
C  44.48100 11.23600 31.60500
C  43.23100 10.60100 31.55800
C  46.27100 11.92400 29.76200
C  44.74300 11.51900 33.01000
O  45.61900 12.19900 33.46400
C  43.57400 10.90200 33.84400
C  44.18400 10.02300 34.87600
O  44.68400 8.93200 34.63900
O  44.14500 10.63300 36.11100
C  44.66800 9.74000 37.15200
H  37.69900 7.54400 32.12000
H  39.08300 8.53200 26.01000
H  44.72800 11.15000 27.45900
H  41.61000 8.63000 34.71900
H  38.65900 8.90800 34.20800
H  38.45700 7.04300 35.01300
H  40.30300 6.95600 35.24100
H  39.47300 6.30600 33.75900
H  39.45100 10.70700 35.17700
H  41.07200 11.25700 34.95500
H  41.63100 9.44700 36.92400
H  40.05000 9.72000 37.43100
H  35.20700 7.43100 30.06900
H  36.30800 6.60600 31.12100
H  35.80200 5.81000 29.66200
H  35.36900 5.86400 27.50400
H  35.01900 6.71600 25.95900
H  34.44200 7.37000 27.49300
H  40.69700 10.25100 25.09200
H  43.60200 9.45100 25.42300
H  40.82600 7.35500 24.80700
H  42.22100 8.02800 24.00000
H  40.64700 8.66300 23.63700
H  43.12000 11.21900 23.99200
H  44.10400 11.80500 25.36000
H  41.21000 12.49300 24.63900
H  42.45500 13.47100 25.52500
H  41.53500 12.33900 26.38700
H  46.79400 12.27300 30.65200
H  46.04600 12.69800 29.02800
H  46.79800 11.15300 29.20100
H  42.96500 11.66900 34.32400
H  45.74100 9.73000 36.95800
H  44.16300 8.77400 37.14300
H  44.36500 10.18300 38.10100
Mg 47.52000 16.54700 28.32900
C  45.68300 16.23500 31.35700
C  49.74700 18.48200 30.11400
C  48.85600 17.37400 25.36700
C  44.80300 15.14600 26.75500
N  47.66800 17.37800 30.45500
C  46.93000 16.95300 31.49500
C  47.38900 17.48700 32.84900
C  48.53400 18.43900 32.37900
C  48.63400 18.11500 30.87200
C  48.38200 19.94700 32.72600
C  47.91000 16.29900 33.79600
C  47.63900 16.36200 35.30200
H  47.16500 17.63500 35.97400
N  49.21400 17.55000 27.88600
C  49.96900 18.26400 28.71400
C  51.09900 18.81300 27.91400
C  50.83100 18.48000 26.56400
C  49.56900 17.76700 26.55200
C  52.28900 19.45300 28.62600
C  51.72000 18.88000 25.34100
O  51.40900 18.61300 24.16900
C  53.00900 19.67600 25.50900
N  46.99600 16.18300 26.33000
C  47.63600 16.67700 25.23700
C  46.82500 16.39400 23.98900
C  45.77100 15.32400 24.40500
C  45.93000 15.47000 25.95000
C  46.19600 17.60600 23.22100
C  46.07900 13.92800 23.76800
C  45.04900 13.41800 22.68800
N  45.68200 15.86200 28.88900
C  44.69400 15.29500 28.12600
C  43.61900 14.78800 28.85900
C  43.99100 15.16700 30.15500
C  45.22300 15.81000 30.11800
C  42.43100 14.07100 28.38200
C  43.53200 15.10100 31.54300
O  42.50600 14.70000 32.03300
C  44.66500 15.78900 32.34200
C  44.07300 16.83600 33.13100
O  43.81300 17.98400 32.70700
O  43.78200 16.37300 34.39300
C  43.04300 17.25300 35.35000
H  50.41200 19.17800 30.63000
H  49.27100 17.71900 24.41700
H  43.93300 14.64400 26.32600
H  46.67000 18.12500 33.36200
H  49.48200 18.10400 32.80000
H  47.58000 20.11800 33.44400
H  48.34600 20.60300 31.85600
H  49.25900 20.25900 33.29200
H  48.95100 15.99000 33.70000
H  47.34800 15.51100 33.29500
H  48.54700 16.02200 35.80000
H  46.92200 15.54700 35.40700
H  52.18500 19.28300 29.69800
H  52.39000 20.52700 28.46900
H  53.21400 19.01600 28.25100
H  53.43100 19.95100 24.54200
H  53.70900 18.99400 25.99200
H  52.82800 20.53200 26.16000
H  47.40600 15.96400 23.17400
H  44.74300 15.54700 24.11700
H  46.32400 18.48700 23.85100
H  45.13800 17.51100 22.97900
H  46.60700 17.96200 22.27700
H  46.20700 13.21800 24.58500
H  47.09500 13.94600 23.37400
H  44.96600 12.33200 22.65600
H  45.35600 13.78800 21.71000
H  44.05000 13.82400 22.85200
H  42.76100 13.03200 28.37900
H  42.06400 14.42000 27.41700
H  41.61000 14.14900 29.09500
H  45.06500 15.01400 32.99700
H  42.00700 17.28100 35.01400
H  43.44400 18.26700 35.32600
H  43.11500 16.94100 36.39200

