158

Mg 8.99200 3.32100 27.37200
C  10.31900 1.97400 30.35200
C  6.76300 5.31600 29.33600
C  7.49100 4.35000 24.50200
C  10.90900 0.98000 25.65100
N  8.58300 3.53200 29.57400
C  9.41900 3.00800 30.60700
C  9.17900 3.75200 31.90500
C  7.90700 4.58900 31.65000
C  7.64300 4.45800 30.11800
C  6.66200 4.32300 32.59400
C  10.35800 4.59700 32.43800
C  10.10800 5.22700 33.84700
H  10.88000 4.58200 35.01600
N  7.38500 4.62900 27.03700
C  6.66200 5.45000 27.97200
C  5.79900 6.31300 27.22400
C  6.02500 6.03800 25.83200
C  6.98500 4.90500 25.74500
C  4.93100 7.40900 27.91100
C  5.36000 6.71800 24.63900
O  5.57500 6.44100 23.43500
C  4.41800 7.83000 24.88200
N  9.09100 2.68200 25.30000
C  8.44600 3.32700 24.29300
C  8.89300 2.84500 22.99000
C  10.22700 2.05900 23.36600
C  10.13200 1.90000 24.86000
C  7.73000 2.05400 22.24300
C  11.60900 2.61900 22.95500
C  12.06100 3.94200 23.66200
N  10.34700 1.77700 27.88900
C  11.02000 0.92300 27.05500
C  11.88000 0.04600 27.85100
C  11.61000 0.39100 29.19200
C  10.67400 1.46600 29.13700
C  12.88000 -0.96800 27.22900
C  12.01300 0.25500 30.58900
O  12.89100 -0.39100 31.01500
C  11.21000 1.25600 31.41700
C  10.45000 0.53100 32.33200
O  9.27600 0.15800 32.12300
O  11.13700 0.31800 33.42600
C  10.27600 -0.21200 34.57400
H  6.32200 6.15200 29.88200
H  6.90800 4.59500 23.61200
H  11.52300 0.27800 25.08200
H  9.07300 2.91800 32.59900
H  8.05800 5.64800 31.86000
H  5.84200 3.82500 32.07700
H  6.40300 5.33800 32.89500
H  7.07900 3.80200 33.45500
H  10.55800 5.40200 31.73100
H  11.29700 4.04300 32.44600
H  9.07600 5.01400 34.12500
H  10.30400 6.29900 33.84400
H  5.45600 8.35700 27.79800
H  4.76000 7.22000 28.97100
H  3.94500 7.38400 27.44600
H  3.37800 7.54300 25.03800
H  4.56800 8.51000 24.04400
H  4.75200 8.47800 25.69300
H  9.25500 3.70900 22.43200
H  10.21900 1.04700 22.96000
H  6.76900 2.01500 22.75400
H  8.11200 1.05800 22.01700
H  7.49000 2.47400 21.26600
H  11.58300 2.60300 21.86600
H  12.38400 1.87300 23.13100
H  11.83200 4.03000 24.72400
H  11.65800 4.84000 23.19500
H  13.15000 4.00300 23.66500
H  13.66200 -0.96200 27.98800
H  13.11900 -0.65200 26.21300
H  12.47200 -1.97800 27.19200
H  11.90300 1.87800 31.98300
H  9.80700 -1.18400 34.42000
H  9.51600 0.50700 34.87900
H  10.99500 -0.42800 35.36400
Mg 41.92200 41.11600 27.31600
C  41.05800 43.34300 29.61200
C  43.02600 38.92800 29.72700
C  42.64700 38.90900 24.82200
C  41.08300 43.53100 24.77700
N  41.88900 41.06200 29.36600
C  41.48000 42.13500 30.14100
C  41.56300 41.81200 31.67900
C  42.50200 40.57000 31.62500
C  42.49400 40.15400 30.18100
C  43.89900 40.67800 32.32300
C  40.18400 41.57900 32.38100
C  39.96700 42.57000 33.52500
H  39.15100 41.85800 34.72700
N  42.71800 39.14600 27.29800
C  43.08000 38.37800 28.40600
C  43.40400 37.11900 27.91400
C  43.25400 37.03700 26.50700
C  42.88000 38.39500 26.12300
C  43.74800 36.03900 28.88800
C  43.49700 35.89100 25.54300
O  43.40500 36.00500 24.30500
C  43.95700 34.52700 26.03700
N  42.16700 41.32400 25.07500
C  42.33700 40.16100 24.31900
C  42.40500 40.55700 22.85100
C  41.66300 41.86700 22.76000
C  41.62600 42.31200 24.29600
C  43.84000 40.48800 22.21800
C  40.25700 41.76400 22.06100
C  39.10900 41.23000 22.95300
N  41.14300 43.06500 27.15700
C  40.82800 43.91400 26.10900
C  40.36700 45.17300 26.67600
C  40.38300 44.98300 28.04700
C  40.85700 43.66700 28.27600
C  39.95000 46.40200 25.89400
C  40.18400 45.61800 29.26300
O  39.79700 46.76100 29.48000
C  40.59300 44.58700 30.33000
C  41.57300 45.10600 31.26300
O  42.75100 44.87700 31.28300
O  40.87300 45.75500 32.29600
C  41.64200 46.18200 33.47900
H  43.29400 38.22300 30.51800
H  42.80900 38.20000 24.00700
H  40.84600 44.31700 24.05700
H  42.10800 42.71200 31.96300
H  41.98300 39.82700 32.23000
H  43.90200 40.08300 33.23600
H  44.18700 41.68400 32.62900
H  44.69700 40.36200 31.65000
H  40.19000 40.55200 32.74700
H  39.35700 41.72800 31.68800
H  39.43000 43.48100 33.26300
H  40.96200 42.86100 33.86200
H  42.93200 35.32000 28.81900
H  43.65900 36.41400 29.90800
H  44.71000 35.59300 28.63600
H  44.15400 33.72600 25.32400
H  43.18700 34.18600 26.72900
H  44.82200 34.69800 26.67800
H  41.87200 39.76000 22.33300
H  42.24700 42.58500 22.18500
H  44.54800 40.70500 23.01700
H  43.96200 41.13500 21.34900
H  44.06900 39.47500 21.88800
H  40.35100 41.07300 21.22400
H  39.95000 42.70500 21.60500
H  39.41100 40.74400 23.88100
H  38.49900 40.53700 22.37400
H  38.37100 42.01400 23.12500
H  39.51200 45.94500 25.00600
H  40.76900 47.11200 25.77500
H  39.14400 46.89300 26.43900
H  39.69200 44.21500 30.81800
H  41.90100 45.31100 34.08100
H  41.14100 46.89200 34.13800
H  42.63000 46.58100 33.24900

