158

Mg 45.77900 16.66100 28.29700
C  44.10900 16.21800 31.29500
C  47.97700 18.79200 30.13900
C  47.17700 17.77300 25.45400
C  43.17700 15.20000 26.48100
N  46.04300 17.30100 30.49400
C  45.29900 16.90700 31.55700
C  45.99300 17.23900 32.89200
C  47.10100 18.32300 32.45400
C  47.10600 18.04700 30.88000
C  46.81300 19.74600 32.84900
C  46.67100 15.99500 33.68700
C  46.48700 15.98100 35.27200
H  46.43600 17.33400 35.97000
N  47.40300 17.96500 27.88000
C  48.09600 18.78700 28.71600
C  48.99900 19.59000 27.99600
C  48.79000 19.38900 26.63400
C  47.76500 18.32100 26.60300
C  50.02600 20.51400 28.70500
C  49.39000 19.99400 25.50600
O  49.31800 19.53700 24.38300
C  50.34500 21.17600 25.58700
N  45.31300 16.37500 26.25100
C  46.11500 16.86600 25.26400
C  45.56800 16.41100 23.84800
C  44.28400 15.63400 24.20700
C  44.27200 15.65100 25.74800
C  45.31300 17.59400 22.81700
C  44.18600 14.21600 23.56000
C  44.62000 12.99700 24.32200
N  44.05100 15.79500 28.76600
C  43.03600 15.23500 27.93100
C  42.04000 14.66600 28.75900
C  42.46000 14.93600 30.05900
C  43.60800 15.74200 30.02200
C  41.00900 13.78500 28.36500
C  42.09600 14.77500 31.50300
O  40.99000 14.31400 31.88700
C  43.19300 15.50100 32.31400
C  42.59100 16.52800 33.18400
O  41.86400 17.43100 32.84500
O  42.81500 16.23300 34.50800
C  42.21300 17.19500 35.52500
H  48.64800 19.50100 30.62800
H  47.61400 17.93200 24.46500
H  42.33900 14.80400 25.90400
H  45.26800 17.66800 33.58400
H  48.07800 17.98600 32.79800
H  46.35300 20.26300 32.00800
H  47.75400 20.28300 32.96500
H  46.30600 19.88200 33.80400
H  47.69300 15.74800 33.40000
H  46.06000 15.14700 33.37700
H  47.41600 15.48000 35.54400
H  45.60200 15.36400 35.43100
H  50.92800 20.77700 28.15200
H  50.32400 20.12200 29.67700
H  49.52900 21.48400 28.73800
H  49.97000 22.04900 26.12200
H  50.63500 21.43700 24.56900
H  51.34800 20.93700 25.94100
H  46.41700 15.76600 23.62300
H  43.38800 16.22500 24.01700
H  45.87800 17.24900 21.95100
H  45.68900 18.56300 23.14300
H  44.27100 17.73700 22.52800
H  44.72100 14.18700 22.61100
H  43.13300 14.14500 23.28800
H  43.77700 12.61400 24.89700
H  45.41900 13.25400 25.01800
H  45.04800 12.26200 23.64100
H  41.40000 12.95400 27.77700
H  40.29600 14.33800 27.75500
H  40.51300 13.49500 29.29200
H  43.75100 14.79500 32.92900
H  41.14600 17.14200 35.30600
H  42.59800 18.18400 35.27500
H  42.42800 16.86900 36.54200
Mg 42.96800 42.80400 26.19900
C  41.88600 45.01400 28.68300
C  44.11500 40.65200 28.74600
C  44.31900 40.92100 23.84800
C  42.34300 45.33400 23.83600
N  42.98900 42.85200 28.44300
C  42.43100 43.80900 29.27900
C  42.41900 43.34100 30.79000
C  43.46200 42.18100 30.78900
C  43.63600 41.90400 29.24000
C  44.81000 42.36800 31.57900
C  40.97500 43.07400 31.27700
C  40.42300 43.69500 32.56200
H  41.38500 43.92800 33.69100
N  43.86100 40.97700 26.31400
C  44.31300 40.29100 27.40500
C  44.99500 39.11800 26.93500
C  44.91800 39.10700 25.56200
C  44.33000 40.35900 25.20300
C  45.64100 38.08800 27.88200
C  45.39500 38.02600 24.58400
O  44.94100 37.96100 23.48600
C  46.37400 37.01300 24.94700
N  43.38000 43.20100 24.13100
C  43.84800 42.18200 23.37500
C  43.72900 42.49200 21.93700
C  43.04700 43.89400 21.85100
C  42.84600 44.17000 23.33700
C  45.08200 42.28200 21.17200
C  41.74000 43.99300 20.96300
C  40.54100 43.20700 21.52900
N  42.23500 44.72500 26.21300
C  42.03100 45.61500 25.15900
C  41.56200 46.89600 25.68900
C  41.38100 46.67600 27.06500
C  41.88900 45.34200 27.36500
C  41.39700 48.13600 24.86500
C  40.94900 47.22900 28.31900
O  40.44200 48.30300 28.58400
C  41.20500 46.14100 29.43400
C  42.14200 46.75300 30.44700
O  43.19500 47.35400 30.20700
O  41.55800 46.71600 31.66400
C  42.00000 47.94300 32.43200
H  44.35300 39.99900 29.58800
H  44.65700 40.15600 23.14600
H  41.88500 46.01500 23.11500
H  42.84200 44.08000 31.47000
H  42.84600 41.32200 31.05400
H  45.60900 42.29700 30.84100
H  44.88900 41.69300 32.43100
H  44.76900 43.33300 32.08400
H  40.93100 41.98700 31.35300
H  40.25400 43.27300 30.48400
H  39.73000 42.92700 32.90700
H  39.84600 44.59700 32.35900
H  45.55900 38.49600 28.89000
H  46.66900 37.77200 27.70800
H  45.11700 37.13300 27.85200
H  47.17200 37.60700 25.39300
H  46.66200 36.61300 23.97500
H  46.00400 36.24000 25.61900
H  43.06200 41.76900 21.46800
H  43.73900 44.61400 21.41600
H  46.05700 42.39700 21.64500
H  45.27200 43.04500 20.41700
H  45.07200 41.30300 20.69400
H  41.97200 43.88700 19.90300
H  41.38900 45.00500 21.16600
H  39.79600 43.96800 21.76200
H  40.92700 42.69200 22.40900
H  40.11600 42.48600 20.83100
H  42.40300 48.52900 24.71300
H  40.77800 48.77700 25.49200
H  40.84100 47.85500 23.97100
H  40.25100 45.93200 29.91600
H  41.53800 47.91800 33.41900
H  41.71900 48.90700 32.01000
H  43.08800 47.99300 32.46600

