158

Mg 36.48700 49.92700 26.00900
C  36.86400 47.84100 28.77400
C  35.64800 52.52800 28.19200
C  36.18700 51.91900 23.36000
C  37.30500 47.20900 23.91400
N  36.07000 50.05400 28.24600
C  36.49700 49.15700 29.14900
C  36.34600 49.67100 30.57800
C  35.93800 51.19500 30.31800
C  35.87100 51.27900 28.80700
C  34.56700 51.63200 30.95400
C  37.73300 49.46700 31.24000
C  37.84100 49.27200 32.72800
H  36.49500 49.10400 33.48600
N  35.92400 51.92900 25.77600
C  35.65200 52.82900 26.79900
C  35.30600 54.13200 26.17000
C  35.44200 53.98900 24.77900
C  35.80100 52.57100 24.55000
C  35.05000 55.35700 27.03000
C  35.36900 55.07500 23.71800
O  35.43900 54.88200 22.48500
C  35.17800 56.56300 24.15000
N  36.75600 49.55500 23.89000
C  36.56800 50.57600 23.04000
C  36.91600 50.09800 21.60200
C  37.34900 48.63600 21.77100
C  37.11300 48.44100 23.27700
C  35.83000 50.24000 20.56000
C  38.85300 48.33300 21.45600
C  39.22800 46.84600 21.07100
N  36.88600 47.91100 26.20900
C  37.14800 46.89800 25.29800
C  37.38200 45.64700 26.03500
C  37.17300 45.98300 27.39700
C  36.88500 47.36500 27.45000
C  37.86800 44.36300 25.44000
C  37.40600 45.44700 28.66900
O  37.78500 44.34600 29.03800
C  37.02800 46.64100 29.71500
C  35.76100 46.11200 30.31200
O  34.66000 46.19200 29.79200
O  36.04900 45.41400 31.49500
C  34.96100 44.84400 32.34300
H  35.43500 53.38800 28.83100
H  36.18200 52.59300 22.50000
H  37.45600 46.35800 23.24600
H  35.55800 49.11200 31.08200
H  36.73000 51.77300 30.79400
H  33.99900 52.29800 30.30500
H  34.83600 52.19000 31.85000
H  33.97000 50.73800 31.13300
H  38.33600 50.35000 31.02400
H  38.33100 48.70300 30.74400
H  38.53300 49.98600 33.17500
H  38.28700 48.27900 32.78200
H  34.03800 55.67100 26.77100
H  35.71600 56.16600 26.72900
H  34.93800 55.24300 28.10800
H  35.00100 57.13100 23.23600
H  36.09700 56.85100 24.66000
H  34.22200 56.65800 24.66500
H  37.80500 50.67700 21.35000
H  36.63000 47.92200 21.36800
H  34.82700 50.28600 20.98600
H  35.73300 49.31100 19.99700
H  35.94100 51.11000 19.91200
H  39.43200 48.70200 22.30200
H  39.07500 49.01900 20.63900
H  39.69700 46.84700 20.08700
H  38.34800 46.21000 20.97300
H  39.82500 46.44500 21.89000
H  36.99000 43.89700 24.99300
H  38.26800 43.74700 26.24500
H  38.63800 44.44800 24.67200
H  37.76100 46.63500 30.52200
H  34.12000 44.43600 31.78200
H  34.74700 45.62300 33.07500
H  35.40700 44.02200 32.90400
Mg -11.98500 38.37700 41.66300
C  -9.89800 35.69800 40.54700
C  -9.70300 40.52400 39.93200
C  -14.10800 41.01900 42.18800
C  -14.28600 36.12900 42.88700
N  -10.07700 38.07900 40.40800
C  -9.40800 36.89800 40.09800
C  -8.08300 37.10200 39.44900
C  -7.93600 38.65900 39.50500
C  -9.30900 39.12800 39.89100
C  -6.81600 39.21500 40.40600
C  -7.98400 36.55500 37.98300
C  -6.79700 35.56400 37.74800
H  -5.68100 36.02100 36.78100
N  -11.92200 40.48400 41.13700
C  -10.93200 41.14000 40.44500
C  -11.20600 42.57300 40.44300
C  -12.39800 42.77500 41.17700
C  -12.89800 41.40900 41.51700
C  -10.19800 43.60800 40.01200
C  -12.93900 44.17900 41.53000
O  -12.51600 45.23900 41.03100
C  -14.12100 44.31500 42.38600
N  -13.92700 38.49400 42.30300
C  -14.60500 39.74500 42.46700
C  -16.07300 39.44900 42.89200
C  -16.15600 37.88400 43.07400
C  -14.76800 37.44400 42.61300
C  -16.59100 40.23900 44.11900
C  -17.21400 37.15600 42.16200
C  -18.63300 37.05900 42.66600
N  -12.10600 36.29500 41.82900
C  -13.05900 35.49800 42.47000
C  -12.58800 34.13400 42.51900
C  -11.42200 34.18400 41.66600
C  -11.10900 35.46900 41.36400
C  -13.23600 32.92500 43.10700
C  -10.42200 33.29600 41.04600
O  -10.32000 32.08900 40.97100
C  -9.42100 34.23000 40.29500
C  -8.00100 34.00600 40.87800
O  -7.48200 34.55500 41.84500
O  -7.29600 32.99400 40.18500
C  -5.93000 32.64800 40.50000
H  -8.90000 41.18500 39.60100
H  -14.79800 41.85700 42.30100
H  -14.99100 35.44100 43.35900
H  -7.46400 36.52500 40.13700
H  -7.72900 39.06300 38.51400
H  -7.06500 39.18200 41.46700
H  -6.51200 40.21600 40.10000
H  -5.97700 38.51800 40.38600
H  -7.81300 37.39300 37.30800
H  -8.86700 35.93300 37.83300
H  -7.11800 34.64700 37.25300
H  -6.37700 35.32700 38.72600
H  -9.23900 43.26000 40.39600
H  -10.32700 44.61600 40.40700
H  -10.12100 43.73200 38.93200
H  -15.10600 44.37000 41.92100
H  -14.05900 45.31000 42.82600
H  -14.06200 43.50500 43.11400
H  -16.64000 39.80600 42.03200
H  -16.35300 37.53300 44.08700
H  -17.13500 41.14000 43.83600
H  -15.76500 40.36400 44.81900
H  -17.27600 39.48600 44.51000
H  -16.87400 36.12300 42.09700
H  -17.26500 37.57100 41.15600
H  -18.99100 37.99200 43.10100
H  -18.94100 36.17700 43.22800
H  -19.34100 36.89600 41.85300
H  -12.68900 32.45000 43.92200
H  -13.43600 32.23400 42.28800
H  -14.17000 33.27800 43.54400
H  -9.29600 33.91200 39.26000
H  -5.27200 33.50100 40.33200
H  -5.67400 31.73000 39.97000
H  -5.81200 32.27600 41.51800

