158

Mg 1.43500 -1.55400 44.17400
C  4.87700 -0.97600 43.51000
C  0.68500 1.23900 42.41100
C  -1.72300 -2.56800 44.40000
C  2.40400 -4.68400 45.70400
N  2.61500 -0.10100 43.05900
C  3.96300 -0.07000 42.86100
C  4.39000 1.15600 42.03600
C  3.06200 1.91900 41.85200
C  2.04600 0.98200 42.43800
C  3.13000 3.24700 42.60200
C  5.00500 0.63200 40.73900
C  6.46000 1.10000 40.55200
H  6.63700 2.22800 39.53400
N  -0.30300 -0.75400 43.53500
C  -0.40800 0.46200 42.89400
C  -1.81200 0.79300 42.69800
C  -2.61000 -0.28300 43.37500
C  -1.54100 -1.24100 43.79300
C  -2.21600 2.09300 42.08300
C  -4.10200 -0.24900 43.42600
O  -4.69000 0.67000 42.86200
C  -5.06600 -1.34000 44.02900
N  0.45900 -3.47200 44.91200
C  -0.85200 -3.58700 44.83100
C  -1.35300 -4.95300 45.38400
C  -0.03900 -5.60300 45.89400
C  1.02100 -4.53200 45.43500
C  -2.40700 -4.81800 46.48100
C  0.28700 -7.03800 45.37000
C  0.25200 -8.25600 46.25800
N  3.24300 -2.62800 44.60800
C  3.45200 -3.82800 45.22000
C  4.90000 -4.08500 45.26100
C  5.48800 -2.94700 44.69900
C  4.47700 -2.11500 44.20900
C  5.59800 -5.24900 45.98400
C  6.86400 -2.34900 44.43500
O  7.97600 -2.63300 44.70400
C  6.42000 -1.03400 43.56800
C  6.94300 0.09500 44.36800
O  6.49200 0.52700 45.37600
O  7.99500 0.73800 43.71200
C  8.59300 1.95900 44.30000
H  0.33000 2.13100 41.89100
H  -2.78600 -2.79700 44.49100
H  2.81200 -5.59700 46.14100
H  5.14200 1.72700 42.58100
H  2.77700 2.18400 40.83400
H  4.12600 3.58200 42.89100
H  2.54700 3.19100 43.52100
H  2.59500 3.93800 41.95100
H  4.30600 0.80200 39.92000
H  4.98900 -0.45500 40.66200
H  7.13600 0.30400 40.23900
H  6.99500 1.47800 41.42300
H  -3.19800 1.92400 41.64200
H  -1.58200 2.41500 41.25700
H  -2.37400 2.87400 42.82600
H  -4.64600 -1.85000 44.89600
H  -5.30900 -2.10300 43.28900
H  -5.86900 -0.71700 44.42100
H  -1.69100 -5.64100 44.61000
H  -0.10800 -5.63200 46.98200
H  -2.81500 -3.81200 46.56600
H  -2.04600 -5.06500 47.47900
H  -3.24800 -5.50400 46.38000
H  1.17400 -7.08800 44.73900
H  -0.51500 -7.18900 44.64800
H  -0.39800 -8.95100 45.72600
H  -0.16800 -7.98400 47.22700
H  1.27300 -8.63500 46.29700
H  6.59600 -5.24300 45.54600
H  5.10900 -6.19300 45.74100
H  5.63300 -5.18200 47.07100
H  6.86700 -1.04800 42.57400
H  8.86200 1.88200 45.35400
H  7.92300 2.80500 44.14400
H  9.50900 2.06800 43.72000
Mg 26.55000 49.77400 26.90600
C  24.35200 51.10800 29.53600
C  28.89700 49.19900 29.36600
C  28.68500 48.94900 24.53200
C  24.28000 50.96800 24.61200
N  26.56900 50.06600 29.20800
C  25.56600 50.55600 30.03800
C  26.03400 50.42900 31.44500
C  27.53600 49.88100 31.45000
C  27.69300 49.59200 29.94100
C  28.62500 50.75700 32.04900
C  25.04400 49.38100 32.20400
C  24.34100 49.97000 33.51100
H  24.30800 49.06900 34.75500
N  28.52900 49.26400 26.95200
C  29.31700 48.95800 28.01200
C  30.60100 48.45300 27.64900
C  30.57300 48.53500 26.20300
C  29.23100 48.91400 25.83700
C  31.68300 47.74700 28.52900
C  31.67500 48.19400 25.22300
O  31.46800 48.29800 24.04500
C  32.99000 47.63200 25.73700
N  26.47800 49.94300 24.87200
C  27.42100 49.37500 24.09000
C  26.98500 49.24500 22.59000
C  25.55500 49.97800 22.58600
C  25.37800 50.33100 24.10700
C  28.03500 49.94900 21.58400
C  24.42200 49.14200 21.97700
C  24.07800 49.43200 20.53700
N  24.66000 50.78500 26.98300
C  23.82700 51.05500 25.93000
C  22.62600 51.70200 26.44900
C  22.77200 51.63300 27.83700
C  24.02300 51.09700 28.16000
C  21.54600 52.39500 25.58700
C  22.12100 51.95800 29.09700
O  21.01700 52.47200 29.28500
C  23.09800 51.65600 30.22000
C  23.42700 52.84100 31.06000
O  24.13800 53.81800 30.76900
O  22.89900 52.70100 32.33700
C  23.07300 53.63300 33.34700
H  29.50900 48.74700 30.14900
H  29.24700 48.42800 23.75400
H  23.51000 51.18200 23.86700
H  25.97300 51.42500 31.88200
H  27.71900 48.91400 31.91900
H  29.27800 51.11300 31.25300
H  29.21600 50.14500 32.73000
H  28.20000 51.64200 32.52300
H  25.69100 48.57700 32.55400
H  24.23900 49.12700 31.51400
H  23.29700 50.21100 33.31100
H  24.68700 50.96000 33.80700
H  31.64300 46.68100 28.30100
H  31.42400 47.98200 29.56100
H  32.66200 48.17300 28.31000
H  33.51500 48.30700 26.41400
H  33.65600 47.33400 24.92800
H  32.68900 46.71100 26.23600
H  26.94100 48.19900 22.28700
H  25.72000 50.91800 22.05900
H  28.92200 50.40100 22.02700
H  27.74600 50.69500 20.84400
H  28.45700 49.19500 20.92000
H  23.51400 49.36100 22.53900
H  24.63700 48.07700 22.05900
H  23.09300 49.90000 20.55200
H  24.02400 48.50500 19.96600
H  24.83800 50.06800 20.08400
H  20.57700 52.18000 26.03900
H  21.61600 52.22000 24.51400
H  21.73100 53.45800 25.74000
H  22.72400 50.82400 30.81700
H  23.61200 54.55200 33.11700
H  23.36400 53.23200 34.31800
H  22.01700 53.89300 33.42500

