158

Mg 9.34500 3.61100 28.18200
C  10.58500 1.84800 30.88600
C  6.97100 5.06200 30.23200
C  7.81000 5.05200 25.47300
C  11.09900 1.50000 25.98200
N  8.75200 3.28900 30.33400
C  9.53900 2.71000 31.25600
C  9.14000 3.18700 32.67600
C  7.95500 4.22100 32.47500
C  7.80100 4.16900 30.89000
C  6.66200 3.85400 33.23500
C  10.43900 3.74200 33.52600
C  10.18900 4.64600 34.75700
H  10.73500 4.19300 36.10200
N  7.69200 4.98900 27.89700
C  6.89400 5.45300 28.89600
C  5.93100 6.41400 28.34800
C  6.12800 6.37400 26.90200
C  7.18300 5.40400 26.67700
C  4.90300 7.23900 29.09600
C  5.48800 7.19200 25.78600
O  5.82000 7.07500 24.57300
C  4.29300 8.12400 26.11600
N  9.41200 3.24000 26.05200
C  8.82500 4.06200 25.13500
C  9.30700 3.91000 23.66400
C  10.39400 2.81200 23.94800
C  10.31700 2.46200 25.41200
C  8.21500 3.40100 22.71300
C  11.80500 3.25600 23.49800
C  12.51800 4.26700 24.36500
N  10.58600 2.01400 28.33900
C  11.19300 1.22600 27.31600
C  11.94100 0.21000 27.99800
C  11.79000 0.49900 29.40600
C  10.89300 1.55500 29.51300
C  12.81500 -0.79100 27.29100
C  12.32400 0.16200 30.76700
O  13.16500 -0.62100 31.10800
C  11.54600 1.09300 31.73900
C  10.83300 0.22900 32.66800
O  9.89700 -0.49100 32.37800
O  11.32800 0.29300 33.91100
C  10.54200 -0.35600 34.96700
H  6.29000 5.61700 30.88100
H  7.35100 5.52000 24.59900
H  11.85500 1.04700 25.33700
H  8.82600 2.27200 33.17700
H  8.18800 5.25300 32.73600
H  5.90100 3.62100 32.49000
H  6.29800 4.74100 33.75400
H  6.87900 3.03100 33.91600
H  11.10700 4.22400 32.81200
H  10.90300 2.83000 33.90300
H  9.11900 4.73000 34.94900
H  10.43300 5.65500 34.42500
H  4.88300 6.98200 30.15500
H  3.89500 7.06700 28.71800
H  5.11000 8.26900 28.80800
H  3.89300 8.49500 25.17200
H  4.51800 8.96200 26.77500
H  3.39900 7.59700 26.44700
H  9.76700 4.82500 23.29300
H  10.00600 1.97500 23.36700
H  7.38800 3.02900 23.31800
H  8.55800 2.51200 22.18400
H  8.03000 4.06300 21.86700
H  11.73300 3.74300 22.52600
H  12.43500 2.37600 23.36500
H  12.09700 4.50500 25.34200
H  12.74100 5.17200 23.79900
H  13.50000 3.89000 24.65100
H  13.39700 -0.32700 26.49500
H  12.25800 -1.58400 26.79400
H  13.49200 -1.31500 27.96500
H  12.12800 1.88800 32.20600
H  9.71300 -0.99800 34.66700
H  10.16000 0.49900 35.52400
H  11.16100 -0.99800 35.59400
Mg 36.40800 2.00200 30.07800
C  33.89900 2.72400 32.29400
C  38.62600 2.09900 32.60300
C  38.89000 1.39600 27.82600
C  34.10400 2.29100 27.47900
N  36.26400 2.45800 32.21400
C  35.11500 2.62800 32.94200
C  35.42200 2.65700 34.41900
C  36.96500 2.70700 34.48300
C  37.28300 2.46300 32.97600
C  37.54600 4.01900 34.95600
C  34.77200 1.48200 35.13000
C  34.62200 1.51900 36.67400
H  35.43400 2.56200 37.50900
N  38.51500 1.80400 30.22000
C  39.23600 1.80700 31.35700
C  40.57000 1.61900 31.09300
C  40.70100 1.32900 29.64900
C  39.33100 1.47400 29.18700
C  41.70500 1.79800 32.08000
C  41.89900 0.90500 28.69100
O  41.72900 0.54500 27.54500
C  43.29600 0.84600 29.32200
N  36.43900 1.69800 27.96000
C  37.59200 1.60300 27.27300
C  37.30600 1.58500 25.78100
C  35.77100 1.65500 25.64700
C  35.41000 1.92100 27.13700
C  38.04700 2.66100 25.02900
C  35.11400 0.33000 25.13700
C  33.89000 0.48100 24.18700
N  34.38100 2.35200 29.85900
C  33.59500 2.41900 28.80400
C  32.21300 2.73100 29.14700
C  32.26900 2.88500 30.59800
C  33.60000 2.63800 30.92500
C  31.20400 2.79100 28.17600
C  31.52200 3.11000 31.83100
O  30.31400 3.30700 32.02600
C  32.59400 3.08900 32.92300
C  32.59400 4.39800 33.60500
O  33.30100 5.31600 33.22600
O  31.74700 4.49000 34.68000
C  31.85800 5.75000 35.52800
H  39.30700 2.17500 33.45400
H  39.58400 1.32000 26.98700
H  33.41500 2.26200 26.63300
H  34.91800 3.50200 34.88800
H  37.23400 1.84100 35.08900
H  36.91600 4.50500 35.70000
H  37.63200 4.77400 34.17500
H  38.56800 4.01200 35.33200
H  35.45900 0.63900 35.05200
H  33.87800 1.13800 34.61100
H  34.80100 0.52600 37.08600
H  33.58300 1.65800 36.97100
H  42.00100 0.83100 32.48600
H  41.50600 2.48200 32.90500
H  42.59700 2.16800 31.57400
H  43.39500 0.18600 30.18400
H  43.60600 1.86600 29.55200
H  44.01100 0.58000 28.54300
H  37.70800 0.63600 25.42500
H  35.47500 2.48300 25.00200
H  38.60600 2.26200 24.18300
H  38.56900 3.37100 25.67100
H  37.30200 3.31600 24.57700
H  34.75700 -0.21600 26.01100
H  35.84200 -0.36800 24.72400
H  34.13200 0.12000 23.18700
H  33.69300 1.53400 23.98400
H  33.01700 -0.06000 24.55000
H  31.08200 1.86700 27.61200
H  31.43400 3.55800 27.43600
H  30.27800 3.08500 28.67200
H  32.40700 2.32000 33.67200
H  31.12900 6.46800 35.15000
H  32.85000 6.20000 35.48700
H  31.65300 5.66700 36.59500

