158

Mg 24.01600 -6.70400 47.58300
C  26.12200 -4.12400 46.43300
C  21.66000 -5.57000 45.39300
C  22.16700 -9.39000 48.40200
C  26.79800 -8.11600 49.23800
N  23.95700 -5.05200 46.06700
C  24.85500 -4.09400 45.87300
C  24.35200 -3.03900 44.79000
C  22.77600 -3.41600 44.65000
C  22.76300 -4.71900 45.45000
C  21.83300 -2.33000 45.32900
C  25.15300 -3.11800 43.54800
C  25.69900 -1.82400 42.93800
H  25.05700 -1.40700 41.58000
N  22.10600 -7.30400 47.12400
C  21.38000 -6.78300 46.04600
C  20.06700 -7.55500 45.92000
C  20.15100 -8.57100 46.93800
C  21.49700 -8.42200 47.58800
C  18.89700 -7.10400 45.08000
C  19.06500 -9.60200 47.26000
O  18.08000 -9.59800 46.50200
C  19.23300 -10.56900 48.42200
N  24.33300 -8.47300 48.71000
C  23.48200 -9.42000 48.92200
C  23.92500 -10.46900 49.96400
C  25.45500 -10.07300 50.15500
C  25.58800 -8.82800 49.32600
C  23.03700 -10.51000 51.27400
C  26.51800 -11.05200 49.76600
C  26.58100 -11.43100 48.29800
N  26.08700 -6.29100 47.79800
C  27.02300 -6.88300 48.59900
C  28.23100 -6.05300 48.54500
C  27.96900 -4.97200 47.70300
C  26.61000 -5.17200 47.26800
C  29.53100 -6.23600 49.17600
C  28.40100 -3.73800 47.13100
O  29.48000 -3.08600 47.23100
C  27.24900 -3.19200 46.19100
C  26.95200 -1.85700 46.62200
O  26.13600 -1.56500 47.50900
O  27.77000 -0.96100 46.00500
C  27.64000 0.48100 46.38300
H  20.97200 -5.27300 44.59800
H  21.70000 -10.37300 48.48800
H  27.49500 -8.57500 49.94200
H  24.48500 -2.07600 45.28400
H  22.40900 -3.68100 43.65800
H  22.52300 -1.67700 45.86300
H  21.16100 -2.71300 46.09700
H  21.40400 -1.65600 44.58700
H  24.53400 -3.56100 42.76900
H  25.96800 -3.83400 43.65800
H  26.75200 -2.08300 42.82400
H  25.58100 -0.95400 43.58500
H  18.40200 -7.90500 44.53000
H  19.17200 -6.39400 44.30100
H  18.14800 -6.55100 45.64700
H  18.27200 -11.05800 48.58500
H  19.40600 -10.12500 49.40200
H  19.92200 -11.36700 48.14500
H  23.98400 -11.45600 49.50600
H  25.56900 -9.95100 51.23300
H  22.68800 -11.49100 51.59400
H  22.15000 -9.88100 51.19100
H  23.62900 -10.20100 52.13500
H  26.25900 -11.98700 50.26300
H  27.49900 -10.78900 50.16100
H  26.85900 -12.48200 48.21000
H  27.40300 -10.90600 47.81300
H  25.62500 -11.21700 47.82000
H  29.92400 -5.31900 49.61500
H  30.22400 -6.62100 48.42900
H  29.59700 -6.98500 49.96500
H  27.65100 -3.13800 45.17900
H  27.79200 1.14900 45.53500
H  28.30800 0.68900 47.21800
H  26.67100 0.89800 46.65700
Mg 16.17300 52.37500 27.13000
C  18.15700 50.99700 29.73100
C  13.77500 53.09800 29.44700
C  14.53000 53.58100 24.73600
C  18.56400 51.03000 24.80100
N  15.96400 51.95900 29.31900
C  16.93400 51.53000 30.20800
C  16.38600 51.33000 31.60700
C  14.97500 52.00900 31.49100
C  14.83600 52.34400 29.98800
C  13.73800 51.17000 31.98300
C  17.34100 51.81900 32.75400
C  17.16400 53.13500 33.61200
H  16.29700 53.04500 34.90100
N  14.33400 53.32400 27.15100
C  13.44800 53.57900 28.19300
C  12.31600 54.25800 27.69000
C  12.57700 54.52200 26.27700
C  13.85000 53.84800 25.98500
C  11.18500 54.57000 28.61000
C  11.80900 55.36800 25.29000
O  12.24900 55.68900 24.17500
C  10.38400 55.66200 25.53400
N  16.49600 52.26900 24.98800
C  15.66000 52.99600 24.18800
C  16.03500 52.92000 22.64800
C  17.47900 52.39000 22.82100
C  17.49600 51.77500 24.20800
C  15.03100 51.97000 21.87800
C  18.68200 53.32500 22.54500
C  19.91200 52.70000 21.79800
N  17.98200 51.02500 27.19500
C  18.87100 50.61200 26.16100
C  20.02400 49.92700 26.70200
C  19.76900 50.03400 28.07500
C  18.52300 50.75500 28.34600
C  21.24500 49.41800 26.04400
C  20.30800 49.67300 29.36000
O  21.26100 48.98600 29.62800
C  19.33600 50.31000 30.43600
C  18.82600 49.18000 31.33500
O  18.10100 48.25000 30.99600
O  19.42500 49.25500 32.58100
C  18.91500 48.34100 33.62400
H  13.02700 53.38700 30.18800
H  13.78700 53.89400 23.99900
H  19.30000 50.88100 24.00800
H  16.31400 50.25900 31.79500
H  14.90800 52.94200 32.05100
H  12.78200 51.68800 31.90200
H  13.97300 50.74700 32.96000
H  13.67200 50.31200 31.31400
H  18.27800 52.02800 32.23800
H  17.49000 51.00800 33.46700
H  16.80200 53.91700 32.94500
H  18.15200 53.45400 33.94600
H  10.54000 55.36200 28.22900
H  11.65700 54.88800 29.53900
H  10.60000 53.66600 28.77700
H  9.82900 54.78000 25.85400
H  10.01200 55.93500 24.54700
H  10.22800 56.44100 26.28100
H  16.00800 53.93800 22.25900
H  17.62200 51.52900 22.16800
H  14.40100 51.41400 22.57300
H  15.54100 51.33400 21.15500
H  14.43300 52.68700 21.31500
H  19.10300 53.64200 23.49900
H  18.40300 54.23100 22.00500
H  19.68000 51.72400 21.37300
H  20.79100 52.48200 22.40400
H  20.26800 53.37800 21.02300
H  21.49300 50.16300 25.28900
H  21.05200 48.49600 25.49600
H  22.00300 49.33800 26.82400
H  19.88600 50.99200 31.08400
H  18.59600 48.85000 34.53400
H  19.65900 47.59200 33.89500
H  18.07300 47.69300 33.37800

