158

Mg 0.38800 7.70900 26.31700
C  1.03200 9.88900 28.96000
C  0.78200 5.02700 28.69200
C  0.10300 5.63300 23.84700
C  0.74000 10.36700 24.11300
N  0.94600 7.43600 28.55100
C  0.98900 8.55100 29.43700
C  1.24500 8.06300 30.85700
C  1.16800 6.49000 30.74800
C  0.94400 6.25500 29.23900
C  2.38200 5.76100 31.31400
C  0.11600 8.57000 31.83100
C  0.49000 8.59100 33.35000
H  1.72200 7.88500 33.87400
N  0.35000 5.63600 26.28400
C  0.43600 4.71400 27.34400
C  0.29400 3.36600 26.87800
C  0.08300 3.49400 25.42900
C  0.19700 4.93900 25.14300
C  0.43600 2.12800 27.80600
C  -0.11700 2.41800 24.36700
O  -0.39300 2.67300 23.18700
C  -0.10500 1.03000 24.77500
N  0.65900 7.97400 24.19400
C  0.29600 6.92700 23.41800
C  0.03700 7.36200 22.02200
C  0.42700 8.86000 22.05200
C  0.55600 9.12800 23.52300
C  0.68200 6.53800 20.87800
C  -0.57100 9.81300 21.31500
C  -2.01400 9.82800 21.77600
N  0.69700 9.63300 26.48600
C  0.75600 10.63000 25.52000
C  0.89500 11.91100 26.08600
C  0.93900 11.63200 27.46700
C  0.90600 10.23400 27.63900
C  0.97000 13.23600 25.36400
C  1.05100 12.29600 28.76900
O  1.19200 13.49500 28.99500
C  1.24500 11.18100 29.79900
C  2.46100 11.14800 30.63900
O  3.59900 11.18300 30.20800
O  2.12000 11.30000 31.98300
C  3.17600 11.23200 33.00000
H  0.73500 4.21300 29.41800
H  -0.18000 5.00400 23.00100
H  0.93000 11.15900 23.38500
H  2.15100 8.46500 31.31000
H  0.28000 6.03300 31.18300
H  2.79700 5.24700 30.44700
H  2.03700 5.02100 32.03600
H  3.06100 6.44500 31.82200
H  -0.78500 7.98000 31.66300
H  -0.20700 9.55800 31.50300
H  -0.43600 8.32100 33.85800
H  0.56700 9.61600 33.71300
H  0.33300 1.13600 27.36600
H  -0.35600 2.19800 28.55100
H  1.36900 2.25700 28.35400
H  -0.52300 0.31600 24.06500
H  -0.67400 0.90100 25.69700
H  0.92700 0.77000 25.00900
H  -1.04000 7.19800 21.96600
H  1.32400 9.00900 21.45100
H  1.39600 5.84900 21.33000
H  1.29000 7.18000 20.24000
H  0.04200 5.99200 20.18600
H  -0.65000 9.46700 20.28500
H  -0.23200 10.84800 21.26100
H  -2.76800 9.60700 21.02000
H  -2.14600 10.85600 22.11200
H  -2.24600 9.14900 22.59700
H  0.20100 13.25200 24.59100
H  1.93300 13.23300 24.85400
H  0.94100 14.14200 25.97000
H  0.41700 11.25200 30.50400
H  3.10200 10.48200 33.78700
H  3.22700 12.18800 33.52200
H  4.10200 11.03500 32.45900
Mg 36.22800 49.44100 24.58600
C  36.62400 47.62600 27.53500
C  34.95600 52.06800 26.46300
C  35.44500 50.99600 21.68200
C  37.50500 46.84100 22.81900
N  35.67000 49.74600 26.80700
C  36.10700 48.88900 27.76400
C  35.82800 49.54300 29.15100
C  35.25700 50.91100 28.80500
C  35.33800 50.94100 27.27400
C  33.88800 51.29600 29.39000
C  37.14600 49.47900 30.04400
C  36.86700 49.45500 31.54400
H  35.43300 49.41700 32.12200
N  35.32200 51.24400 24.10400
C  34.92700 52.13100 25.03400
C  34.56800 53.35300 24.36300
C  34.55800 53.04500 22.96600
C  35.13000 51.71200 22.83000
C  34.38500 54.65200 25.06000
C  34.25300 53.99400 21.76900
O  34.33600 53.63200 20.60200
C  33.63200 55.33000 22.05600
N  36.30400 48.88100 22.48500
C  36.05900 49.77300 21.48900
C  36.43400 49.23600 20.15500
C  36.97700 47.73400 20.52700
C  36.93500 47.77900 22.01400
C  35.26000 49.15800 19.15200
C  38.37800 47.47200 19.86800
C  39.62600 48.26400 20.43800
N  36.95200 47.60600 24.99300
C  37.48300 46.69400 24.19500
C  38.01700 45.58300 25.01600
C  37.56100 45.89400 26.32100
C  37.01500 47.16800 26.27700
C  38.69700 44.34200 24.51900
C  37.59300 45.41400 27.61200
O  38.01500 44.37800 28.08000
C  36.84100 46.49100 28.44700
C  35.58800 45.97200 29.01400
O  34.63500 45.51600 28.33100
O  35.66200 46.02700 30.37700
C  34.53000 45.34400 31.04300
H  34.59300 52.93100 27.02500
H  35.18400 51.55000 20.77800
H  38.06600 45.99300 22.42100
H  35.02200 48.93200 29.55700
H  35.95400 51.69000 29.11700
H  33.30800 51.91800 28.70700
H  34.02700 51.79600 30.34800
H  33.40200 50.36500 29.68300
H  37.51200 50.47800 29.80800
H  37.83900 48.69600 29.73400
H  37.29900 50.41100 31.83900
H  37.41100 48.63600 32.01500
H  33.33000 54.78700 25.29800
H  34.82700 55.48800 24.51800
H  35.02200 54.59200 25.94300
H  34.48300 55.93600 22.36900
H  32.89400 55.05700 22.81100
H  33.06000 55.57300 21.16100
H  37.31600 49.76600 19.79400
H  36.28700 46.95600 20.19900
H  35.28500 50.14400 18.68700
H  34.34200 49.04500 19.72900
H  35.42100 48.26100 18.55300
H  38.38800 47.72200 18.80700
H  38.67600 46.42700 19.94800
H  39.41100 49.14900 21.03700
H  40.16100 48.69100 19.59000
H  40.28700 47.62300 21.02100
H  37.96000 43.69600 24.04300
H  39.28200 44.01800 25.38100
H  39.30400 44.47100 23.62300
H  37.50100 46.63200 29.30300
H  34.33200 44.38600 30.56300
H  33.64300 45.96000 30.89000
H  34.84900 45.16800 32.07000

