158

Mg 9.22100 3.00200 27.70100
C  10.60600 1.44000 30.44100
C  7.45500 5.02500 29.82200
C  7.69800 4.24200 24.95500
C  10.56300 0.43100 25.68400
N  8.83100 3.07500 29.91900
C  9.75600 2.50100 30.85400
C  9.56600 3.02300 32.29400
C  8.46800 4.10800 32.03900
C  8.16400 4.06100 30.52300
C  7.21900 3.98800 32.94800
C  10.84200 3.69700 32.88200
C  10.73700 4.20100 34.29600
H  11.59600 3.64500 35.40800
N  7.86400 4.45600 27.46900
C  7.27000 5.22100 28.44200
C  6.49000 6.26700 27.82400
C  6.51000 6.02700 26.43000
C  7.37000 4.84200 26.24500
C  5.95500 7.48300 28.52900
C  5.74900 6.74600 25.32400
O  5.81300 6.41800 24.11800
C  4.89600 7.89600 25.63400
N  9.27800 2.52300 25.64200
C  8.56500 3.17700 24.72900
C  8.78500 2.66900 23.32200
C  9.71900 1.49600 23.55600
C  10.00800 1.51200 25.05400
C  7.44400 2.20500 22.60200
C  11.06400 1.58400 22.70200
C  11.04700 1.09000 21.23800
N  10.33900 1.35400 27.98100
C  10.75200 0.36800 27.06600
C  11.46400 -0.71900 27.73700
C  11.44700 -0.27800 29.06600
C  10.72400 0.97600 29.12000
C  11.94400 -2.03200 27.17200
C  11.84300 -0.56500 30.42200
O  12.43000 -1.53500 30.87700
C  11.46700 0.59900 31.29200
C  10.84300 0.03000 32.52100
O  9.81400 -0.62300 32.61900
O  11.58200 0.36600 33.58400
C  11.14600 -0.21200 34.84000
H  7.01700 5.86400 30.36600
H  7.24500 4.70200 24.07500
H  10.92000 -0.46200 25.16700
H  9.23000 2.17700 32.89300
H  9.02500 5.02600 32.23100
H  7.00300 4.89300 33.51500
H  7.43600 3.20100 33.67000
H  6.38400 3.57200 32.38400
H  11.21300 4.45300 32.19000
H  11.61600 2.92900 32.87800
H  9.68100 4.08200 34.54100
H  10.84000 5.28400 34.35400
H  6.22800 8.30800 27.87100
H  6.24200 7.53000 29.57900
H  4.87000 7.38400 28.57400
H  3.99300 7.68500 26.20700
H  4.54300 8.34300 24.70500
H  5.41600 8.75800 26.05200
H  9.22300 3.41900 22.66300
H  9.32900 0.50400 23.32800
H  7.45700 1.11900 22.51200
H  7.46600 2.49300 21.55100
H  6.57200 2.45000 23.20900
H  11.75100 0.92800 23.23700
H  11.52800 2.56900 22.73900
H  10.04800 0.86700 20.86400
H  11.69400 0.21800 21.13800
H  11.41400 1.77600 20.47500
H  12.73300 -2.46400 27.78800
H  12.30000 -2.07100 26.14300
H  11.25300 -2.87500 27.20900
H  12.28000 1.14400 31.77100
H  12.06200 -0.58400 35.29900
H  10.46000 -1.05200 34.73000
H  10.64100 0.54300 35.44300
Mg 36.44800 49.43500 24.35600
C  36.18300 47.79600 27.58000
C  35.13600 52.20800 25.78800
C  36.11600 50.84700 21.24700
C  37.36200 46.36900 22.97100
N  35.77500 49.95600 26.39900
C  35.91400 49.17200 27.56500
C  35.52000 49.99900 28.83400
C  35.05600 51.34900 28.15700
C  35.25900 51.18600 26.71500
C  33.60600 51.90900 28.62100
C  36.69500 50.22900 29.88100
C  36.30100 50.14000 31.38400
H  34.82600 50.25000 31.76700
N  35.78100 51.29000 23.60800
C  35.31300 52.31400 24.41000
C  35.02300 53.49000 23.57400
C  35.22700 53.05000 22.22600
C  35.70600 51.65300 22.30200
C  34.40800 54.80600 24.13000
C  35.11200 53.79400 20.89900
O  35.46500 53.32700 19.84600
C  34.38500 55.19800 20.88500
N  36.62800 48.70900 22.45900
C  36.48600 49.52100 21.30400
C  36.89800 48.79300 20.04500
C  37.52300 47.49100 20.59600
C  37.11000 47.50000 22.10500
C  35.60700 48.59700 19.22400
C  39.10800 47.43000 20.44400
C  40.07500 48.17200 21.47000
N  36.81600 47.50100 25.02500
C  37.24400 46.32900 24.38900
C  37.46500 45.30200 25.39400
C  37.04800 45.85200 26.56800
C  36.63700 47.15400 26.36200
C  37.82300 43.87600 25.10000
C  36.85000 45.48700 27.98700
O  37.03900 44.43300 28.58700
C  36.24400 46.73900 28.69900
C  34.91100 46.35300 29.37700
O  33.76400 46.57000 28.81300
O  35.11900 45.84900 30.61400
C  33.97800 45.41800 31.29300
H  34.62700 53.10700 26.14300
H  36.15400 51.23000 20.22500
H  37.73800 45.43200 22.55300
H  34.64200 49.49500 29.23800
H  35.73100 52.19500 28.27900
H  33.18000 51.23300 29.36200
H  33.06200 51.88300 27.67700
H  33.68400 52.97100 28.85800
H  37.17100 51.20900 29.89400
H  37.41400 49.51800 29.47500
H  36.92300 50.87800 31.89100
H  36.56900 49.16700 31.79600
H  33.32500 54.76900 24.01500
H  34.97600 55.65700 23.75500
H  34.54400 54.90400 25.20700
H  34.15400 55.45000 19.85000
H  35.09700 55.93900 21.24800
H  33.40700 55.12100 21.36100
H  37.56200 49.36900 19.40100
H  37.19500 46.58900 20.08000
H  34.73000 48.67400 19.86700
H  35.62700 47.61500 18.75100
H  35.48000 49.24900 18.35900
H  39.41600 47.88800 19.50400
H  39.41600 46.38600 20.38300
H  39.42600 48.24400 22.34400
H  40.57000 49.07100 21.10200
H  40.81500 47.43300 21.77700
H  38.85900 43.98500 24.77900
H  37.13400 43.42000 24.38900
H  37.80000 43.40600 26.08400
H  36.82600 47.06500 29.56200
H  34.21200 44.86300 32.20100
H  33.30900 44.83300 30.66100
H  33.26400 46.19500 31.56400

