158

Mg 49.20500 35.39400 27.23200
C  46.98400 34.01100 29.68200
C  49.59300 38.09800 29.35200
C  51.32400 36.51000 25.06800
C  48.06900 32.90000 25.06700
N  48.48500 35.95000 29.31200
C  47.60600 35.18500 30.11400
C  47.60900 35.78800 31.57400
C  48.09900 37.25500 31.27300
C  48.70300 37.13100 29.84400
C  47.03300 38.38800 31.33700
C  48.56600 34.98200 32.47300
C  49.71300 35.70600 33.20100
H  49.23400 36.76100 34.31900
N  50.37700 37.07000 27.20200
C  50.46300 38.08000 28.13900
C  51.42800 39.04800 27.76000
C  51.97300 38.57000 26.49700
C  51.18400 37.35500 26.15600
C  51.68300 40.40500 28.56500
C  53.05500 39.35900 25.61900
O  53.21700 39.04200 24.42500
C  53.82700 40.56400 26.16200
N  49.42900 34.95500 25.19200
C  50.47300 35.52400 24.58700
C  50.83000 34.77700 23.24400
C  49.67000 33.75300 23.14100
C  49.00400 33.84500 24.52600
C  50.86600 35.60300 21.94100
C  50.00500 32.38900 22.61400
C  49.10100 31.68900 21.53400
N  47.87100 33.80000 27.32100
C  47.53200 32.83400 26.40300
C  46.56800 31.92900 26.89000
C  46.29700 32.36600 28.15700
C  47.09300 33.50700 28.39500
C  46.11700 30.69900 26.18400
C  45.59100 32.03100 29.38800
O  44.76700 31.13300 29.50800
C  45.98100 33.02300 30.40900
C  46.48400 32.42400 31.66800
O  47.43800 31.63600 31.83100
O  45.58800 32.70300 32.70500
C  45.87300 32.23800 34.09500
H  49.71500 38.90300 30.07900
H  52.09500 36.67600 24.31300
H  47.83900 32.06600 24.40100
H  46.54300 35.71700 31.79000
H  48.87200 37.62900 31.94400
H  47.42500 39.18300 31.97000
H  46.10700 37.91500 31.66300
H  46.93000 38.83500 30.34800
H  48.81500 34.05000 31.96600
H  47.86700 34.79400 33.28800
H  50.31200 36.15500 32.40900
H  50.33800 34.92700 33.63900
H  52.66400 40.28700 29.02500
H  51.00200 40.44900 29.41500
H  51.57300 41.16800 27.79500
H  53.27600 41.45400 26.46600
H  54.79200 40.65100 25.66100
H  54.12200 40.13400 27.12000
H  51.74500 34.22600 23.46000
H  48.88700 34.24500 22.56300
H  50.23500 36.47800 22.10000
H  50.44200 35.10000 21.07100
H  51.91100 35.90400 21.87900
H  50.16100 31.84400 23.54600
H  50.95500 32.49500 22.09000
H  48.39700 32.49300 21.32100
H  48.65600 30.76600 21.90700
H  49.53700 31.40200 20.57600
H  45.51600 31.05000 25.34500
H  45.51900 30.02900 26.80200
H  46.93800 30.04100 25.90100
H  44.99100 33.45000 30.56400
H  44.95200 32.05300 34.64700
H  46.36300 33.09200 34.56300
H  46.47700 31.33300 34.16100
Mg 26.85500 49.70600 25.79500
C  24.96800 50.61600 28.52400
C  29.27400 48.43200 28.13900
C  29.00200 48.85500 23.20900
C  24.68400 50.98700 23.56900
N  27.22000 49.70600 28.16500
C  26.14200 49.90900 29.01100
C  26.42900 49.40100 30.45100
C  27.92600 49.06800 30.30400
C  28.11000 48.90700 28.72300
C  28.87500 50.13000 30.83200
C  25.51700 48.28800 31.02000
C  25.01700 48.32900 32.45900
H  25.67600 49.26700 33.62500
N  28.85800 48.80400 25.68500
C  29.62600 48.41800 26.76800
C  30.88600 47.93700 26.22000
C  30.89300 48.24900 24.83400
C  29.48200 48.57500 24.54400
C  31.88800 47.27700 27.13300
C  32.05600 48.10500 23.84300
O  31.96200 48.41300 22.66300
C  33.37800 47.62000 24.40200
N  26.87600 50.02900 23.69600
C  27.80400 49.45500 22.85300
C  27.46100 49.67900 21.38700
C  25.94800 50.27500 21.51600
C  25.78900 50.43200 23.01100
C  28.52400 50.49200 20.66800
C  24.76400 49.31000 21.00700
C  23.74200 49.88200 19.95100
N  25.24800 50.71000 26.00800
C  24.43300 51.23100 24.94900
C  23.35300 51.99500 25.59600
C  23.48900 51.62000 26.95300
C  24.68300 50.90900 27.16200
C  22.25000 52.80300 24.93800
C  22.82600 51.75100 28.20300
O  21.74100 52.24400 28.54800
C  23.68400 51.00700 29.29500
C  23.94500 51.92000 30.51700
O  24.04800 53.12000 30.54300
O  23.78900 51.11100 31.67100
C  23.32400 51.80400 32.89200
H  29.98400 47.91100 28.78600
H  29.56100 48.30700 22.44800
H  23.93200 51.31700 22.84900
H  26.10400 50.25100 31.05100
H  28.42400 48.19000 30.71500
H  29.29300 49.74800 31.76400
H  28.41500 51.06700 31.14400
H  29.66900 50.28200 30.10100
H  26.04600 47.34000 30.92500
H  24.71800 48.28000 30.27900
H  25.16200 47.34400 32.90200
H  23.93800 48.47900 32.51700
H  32.66400 47.95800 27.48200
H  32.38000 46.37800 26.76100
H  31.49500 46.88700 28.07300
H  34.08700 47.60300 23.57400
H  33.24600 46.58400 24.71300
H  33.74700 48.20700 25.24300
H  27.39800 48.67700 20.96400
H  25.91200 51.19200 20.92600
H  29.43100 50.42900 21.26800
H  28.21100 51.53600 20.66400
H  28.58900 50.09900 19.65300
H  24.18700 48.95300 21.86100
H  25.25600 48.45300 20.54700
H  23.85500 50.96300 19.87300
H  22.75200 49.54700 20.26100
H  23.87000 49.68700 18.88600
H  22.60400 53.16700 23.97300
H  22.10200 53.66700 25.58600
H  21.36300 52.19100 24.77500
H  23.17200 50.14900 29.73000
H  23.96400 52.67400 33.03900
H  23.31600 51.15700 33.77000
H  22.27000 52.04900 32.76200

