158

Mg 30.37100 58.20700 38.95700
C  27.82000 56.05400 38.22000
C  32.63600 55.59400 38.02800
C  32.99800 60.47700 38.83200
C  28.10400 60.81100 39.14900
N  30.25700 56.09900 38.12300
C  29.05300 55.40800 38.01100
C  29.30400 53.92200 37.60200
C  30.88800 53.79400 37.99500
C  31.33200 55.26500 38.03000
C  31.12700 53.00000 39.29300
C  29.08000 53.61300 36.11900
C  29.34900 54.69400 35.03800
H  28.14700 55.13900 34.09300
N  32.49000 58.05400 38.54300
C  33.19200 56.86500 38.23900
C  34.59400 57.23400 38.24200
C  34.73500 58.63200 38.50400
C  33.36600 59.10900 38.62600
C  35.63500 56.20200 38.11500
C  36.09100 59.35200 38.66400
O  37.22000 58.80800 38.63800
C  36.17900 60.92000 38.88700
N  30.58100 60.38000 38.85500
C  31.76600 61.03000 39.00900
C  31.53800 62.50800 39.14400
C  29.97600 62.61900 39.06500
C  29.46200 61.18100 39.05000
C  32.21100 63.30200 40.27300
C  29.40600 63.40300 37.86300
C  29.30900 64.92500 38.12500
N  28.38400 58.36600 38.91600
C  27.60600 59.47500 38.99700
C  26.19900 59.03500 38.99000
C  26.19800 57.69600 38.70900
C  27.56200 57.36100 38.61400
C  25.04900 59.90700 39.14600
C  25.40300 56.53500 38.42200
O  24.19900 56.37000 38.26000
C  26.51800 55.35000 38.19500
C  26.33100 54.44100 39.33700
O  26.86500 54.51200 40.41300
O  25.47900 53.42800 38.95100
C  24.98800 52.56100 40.01400
H  33.36400 54.79600 37.86100
H  33.78600 61.22400 38.94200
H  27.41700 61.64500 39.30600
H  28.74000 53.18500 38.17300
H  31.41300 53.20500 37.24300
H  30.26700 52.74600 39.91100
H  31.88400 53.36200 39.98900
H  31.66900 52.09900 39.00600
H  28.02800 53.33500 36.05100
H  29.69900 52.75900 35.84500
H  30.14200 54.21200 34.46600
H  29.84800 55.60400 35.37200
H  35.38600 55.55000 37.27800
H  35.54000 55.65400 39.05200
H  36.66500 56.54200 38.00500
H  35.65200 61.10900 39.82200
H  35.76600 61.49600 38.05900
H  37.18700 61.33100 38.94800
H  31.84700 62.96000 38.20200
H  29.66100 63.01500 40.03000
H  32.91600 64.05400 39.91800
H  32.86000 62.69100 40.90000
H  31.46800 63.76400 40.92300
H  28.41100 63.02300 37.63100
H  30.01100 63.18300 36.98300
H  29.86800 65.09200 39.04600
H  28.24500 65.16300 38.14000
H  29.82800 65.48300 37.34600
H  24.17900 59.37600 38.76000
H  25.19700 60.82700 38.58100
H  24.98100 60.13000 40.21100
H  26.37400 54.80000 37.26400
H  25.82400 52.34500 40.67900
H  24.75400 51.54700 39.68900
H  24.10000 52.86000 40.57200
Mg 1.49800 42.58200 26.57100
C  3.12300 42.75900 29.65000
C  -1.37900 41.61500 28.24500
C  0.12500 41.87600 23.66800
C  4.56700 43.10600 25.06600
N  0.95000 42.31400 28.61500
C  1.73400 42.51900 29.73300
C  0.86600 42.29700 31.03100
C  -0.38700 41.73500 30.52700
C  -0.32400 41.89500 29.02800
C  -0.77300 40.34700 31.11500
C  0.82300 43.69300 31.73100
C  1.12700 43.65300 33.25900
H  0.83800 42.35400 34.00600
N  -0.45700 41.92500 26.01700
C  -1.46200 41.54500 26.83100
C  -2.50600 40.95300 26.00500
C  -2.12600 41.07600 24.63800
C  -0.78000 41.64400 24.73600
C  -3.60500 40.21500 26.61800
C  -2.81200 40.68200 23.37100
O  -2.27500 40.78800 22.23400
C  -4.28900 40.18900 23.48600
N  2.38300 42.35400 24.65700
C  1.50100 42.14300 23.61400
C  2.25400 42.09000 22.26500
C  3.62900 42.68500 22.64100
C  3.56500 42.74400 24.20900
C  2.47700 40.63800 21.67300
C  3.85800 44.15500 22.01700
C  2.84200 45.24700 22.45700
N  3.51100 43.07900 27.16700
C  4.60300 43.19300 26.46800
C  5.67000 43.55300 27.34600
C  5.14800 43.40300 28.59300
C  3.77300 43.13500 28.47300
C  7.09400 43.83100 26.96200
C  5.46400 43.30800 30.05400
O  6.56300 43.44600 30.60300
C  4.11400 43.04500 30.72400
C  4.33500 42.09200 31.74500
O  4.04800 40.95100 31.57100
O  4.68700 42.66300 32.96400
C  4.93300 41.61500 33.97300
H  -2.27100 41.36400 28.82300
H  -0.21900 41.77800 22.63600
H  5.56100 43.27600 24.64700
H  1.29400 41.66700 31.81100
H  -1.20700 42.42000 30.74400
H  -0.97600 39.75700 30.22100
H  -1.73100 40.42800 31.62700
H  -0.05800 39.88700 31.79700
H  -0.16100 44.12200 31.53700
H  1.56500 44.33200 31.25200
H  0.69800 44.56800 33.66800
H  2.17700 43.94800 33.25900
H  -4.50300 40.37600 26.02100
H  -3.84400 40.45600 27.65400
H  -3.35900 39.15600 26.68700
H  -4.98700 40.89300 23.93800
H  -4.42000 39.18400 23.88600
H  -4.69200 40.10600 22.47600
H  1.90400 42.77300 21.49100
H  4.56200 42.12200 22.60500
H  3.50700 40.28400 21.72200
H  2.08400 40.67000 20.65700
H  1.86900 39.87000 22.15200
H  3.81500 43.98400 20.94100
H  4.87200 44.43600 22.30200
H  2.40000 45.05400 23.43400
H  2.07900 45.31100 21.68000
H  3.42200 46.16800 22.51800
H  7.15500 44.91500 26.86600
H  7.29000 43.37800 25.99000
H  7.76100 43.36600 27.68700
H  3.81700 44.01900 31.11200
H  5.96100 41.29700 33.79600
H  4.26100 40.78200 33.76700
H  4.68200 42.03800 34.94600

