158

Mg 41.52600 40.51200 26.61600
C  40.62100 43.02100 28.83300
C  42.14700 38.37800 29.26400
C  42.56400 38.24000 24.34000
C  41.06100 42.82400 24.00300
N  41.38800 40.68000 28.74300
C  41.00100 41.80100 29.48100
C  40.98900 41.54700 30.98000
C  41.50900 40.07900 31.08700
C  41.80000 39.70100 29.62800
C  42.81300 39.77300 31.93600
C  39.54600 41.62200 31.66500
C  39.44200 42.77100 32.74200
H  38.81000 42.34400 34.04300
N  42.35500 38.57000 26.80000
C  42.36200 37.85800 27.96000
C  42.69300 36.47500 27.65000
C  43.00600 36.42500 26.20700
C  42.69700 37.79000 25.74400
C  42.69600 35.31900 28.64000
C  43.48700 35.33700 25.34400
O  43.88800 35.58600 24.23300
C  43.56700 33.90400 25.98300
N  41.81000 40.52200 24.51400
C  42.13500 39.46700 23.79400
C  42.18200 39.74000 22.27200
C  41.51000 41.12700 22.19800
C  41.49000 41.56100 23.67300
C  43.57800 39.43400 21.54000
C  40.04500 41.26000 21.54000
C  38.80600 40.70900 22.33600
N  40.96500 42.55900 26.41200
C  40.77500 43.32600 25.24800
C  40.27600 44.65100 25.61000
C  40.22500 44.58100 27.02400
C  40.61300 43.29900 27.41500
C  39.93000 45.82400 24.68900
C  39.95200 45.29800 28.23600
O  39.52800 46.41800 28.40300
C  40.16100 44.31800 29.44900
C  41.21600 44.94100 30.27000
O  42.39900 45.13600 29.98200
O  40.60100 45.52000 31.27900
C  41.49700 45.98100 32.37200
H  42.03100 37.74700 30.14900
H  42.96900 37.49100 23.65600
H  40.79500 43.51800 23.20200
H  41.70300 42.25600 31.40100
H  40.72100 39.44800 31.49800
H  42.91400 40.72200 32.46400
H  43.69300 39.59700 31.31800
H  42.56700 38.91100 32.55600
H  39.17400 40.67300 32.05100
H  38.81700 41.95600 30.92600
H  38.82700 43.60800 32.41000
H  40.36300 43.27300 33.03800
H  41.97900 34.60500 28.23300
H  42.23000 35.48700 29.61100
H  43.64300 34.81100 28.82100
H  44.17000 33.90800 26.89100
H  44.05100 33.24300 25.26400
H  42.54300 33.57800 26.16300
H  41.39400 39.02900 22.02200
H  42.17300 41.82700 21.68800
H  43.97600 40.43800 21.38900
H  43.55000 38.99900 20.54100
H  44.18700 38.83300 22.21500
H  40.24000 40.78400 20.57900
H  39.89300 42.32900 21.39200
H  39.12000 40.30000 23.29700
H  38.33800 39.91800 21.75100
H  38.15200 41.56000 22.52500
H  38.85900 45.78700 24.49100
H  40.59000 45.73700 23.82600
H  40.13900 46.75700 25.21200
H  39.18700 44.31000 29.93900
H  40.84100 46.46800 33.09300
H  42.25600 46.71200 32.09500
H  41.98100 45.10900 32.81200
Mg -0.99100 43.89600 26.85900
C  1.71100 43.73100 29.16400
C  -2.98900 43.04200 29.37500
C  -3.26500 43.45500 24.47100
C  1.46100 44.20500 24.39000
N  -0.65300 43.23800 29.02200
C  0.45600 43.53200 29.76700
C  0.14400 43.41200 31.28300
C  -1.33900 42.86400 31.28000
C  -1.69700 43.12400 29.81000
C  -1.57500 41.35600 31.65700
C  0.36600 44.80600 31.88000
C  0.69000 44.78100 33.44900
H  0.45100 43.52800 34.26400
N  -2.92000 43.32300 26.95800
C  -3.56500 42.92900 28.06300
C  -4.92600 42.52000 27.69600
C  -4.95300 42.54200 26.23700
C  -3.65200 43.07700 25.78300
C  -5.99900 42.16100 28.75500
C  -6.10300 42.14000 25.28800
O  -5.89300 42.24400 24.10800
C  -7.53300 41.56000 25.74600
N  -0.84400 43.98700 24.75600
C  -1.97800 43.78600 24.01600
C  -1.66900 43.82900 22.50000
C  -0.20000 44.33500 22.47500
C  0.16000 44.22300 23.97700
C  -1.81100 42.44900 21.86600
C  0.16800 45.74700 22.01200
C  1.57900 45.98000 21.34100
N  1.16800 43.97900 26.78300
C  1.98900 44.11400 25.64300
C  3.35300 44.36200 26.12400
C  3.28500 44.13800 27.49700
C  1.91200 43.98700 27.85000
C  4.46700 44.64500 25.32900
C  4.06100 44.04000 28.71300
O  5.28300 43.90400 28.92600
C  3.00600 43.97600 29.87000
C  3.45800 42.73000 30.57900
O  3.40000 41.65100 30.05100
O  4.05500 42.88700 31.80500
C  4.36300 41.77700 32.73700
H  -3.64800 42.81100 30.21400
H  -3.99400 43.26400 23.68000
H  2.21600 44.30800 23.60800
H  0.79000 42.66100 31.73600
H  -1.87900 43.55600 31.92600
H  -2.60800 41.30600 31.99900
H  -0.97100 41.02300 32.50100
H  -1.49000 40.70600 30.78600
H  -0.57500 45.34800 31.78900
H  1.09500 45.40600 31.33500
H  0.23800 45.62900 33.96500
H  1.76800 44.93500 33.40400
H  -5.52300 41.97300 29.71700
H  -6.44100 41.20500 28.47600
H  -6.71500 42.95600 28.96500
H  -7.45000 40.47800 25.65200
H  -8.32500 41.95700 25.11100
H  -7.96800 41.86700 26.69700
H  -2.30100 44.56600 22.00300
H  0.40900 43.64900 21.88700
H  -0.86200 42.05000 21.50800
H  -2.52500 42.53600 21.04700
H  -2.13000 41.71300 22.60400
H  0.13300 46.52400 22.77500
H  -0.58100 46.00400 21.26300
H  2.15100 45.05600 21.42100
H  2.17600 46.69000 21.91300
H  1.59600 46.30900 20.30200
H  4.21400 45.25300 24.46100
H  4.84200 43.73700 24.85700
H  5.25800 45.06900 25.94700
H  3.21200 44.91900 30.37600
H  4.61100 40.92500 32.10400
H  3.46000 41.69300 33.34100
H  5.28700 42.00200 33.27000

