158

Mg 35.43100 3.34500 29.17400
C  33.36600 4.19800 31.77600
C  38.09400 3.34600 31.26400
C  37.34800 3.04300 26.44600
C  32.70500 3.75200 26.89300
N  35.76000 3.45600 31.36600
C  34.67900 3.85300 32.24400
C  35.20200 3.78700 33.67800
C  36.77500 3.71900 33.45900
C  36.94700 3.42900 31.96100
C  37.50900 4.98300 33.88600
C  34.51000 2.51500 34.27900
C  34.14200 2.54000 35.77200
H  34.86900 3.63900 36.56700
N  37.43100 3.05400 28.94900
C  38.40800 3.12800 29.91600
C  39.71200 2.88000 29.30300
C  39.50200 2.77400 27.88700
C  38.04000 2.97000 27.70800
C  40.98100 2.87500 30.09700
C  40.45000 2.38800 26.73900
O  40.10600 2.27000 25.56100
C  41.82200 1.86700 27.10800
N  34.99100 3.08400 26.90800
C  36.03600 3.13000 26.07300
C  35.51400 2.98000 24.60800
C  33.96000 3.18800 24.76400
C  33.87200 3.44700 26.25400
C  36.20200 3.89100 23.51400
C  33.01100 2.09300 24.25300
C  31.92900 2.68400 23.34400
N  33.45900 3.80900 29.31300
C  32.47600 3.95400 28.28400
C  31.21000 4.32900 28.91300
C  31.51900 4.47700 30.28200
C  32.89600 4.17900 30.46100
C  29.96300 4.63600 28.13400
C  30.97500 4.78000 31.60500
O  29.86000 5.15500 31.89900
C  32.13700 4.42500 32.59300
C  32.31000 5.56900 33.53100
O  32.89700 6.63700 33.32100
O  31.80200 5.22200 34.76900
C  31.51800 6.26500 35.70500
H  38.99500 3.42300 31.87700
H  37.91700 3.00000 25.51500
H  31.89700 3.93200 26.18100
H  34.84900 4.72800 34.10000
H  37.19500 2.80300 33.87500
H  38.17700 5.43300 33.15200
H  38.21300 4.60000 34.62400
H  36.97100 5.74300 34.45400
H  35.04200 1.60300 34.00900
H  33.50000 2.34400 33.90600
H  34.59300 1.62600 36.15800
H  33.06200 2.60300 35.90100
H  40.89400 3.42100 31.03600
H  41.79100 3.31400 29.51400
H  41.23200 1.82400 30.24500
H  42.12100 1.14100 26.35200
H  41.88800 1.27000 28.01800
H  42.49200 2.72700 27.09500
H  35.70100 1.97700 24.22500
H  33.75100 4.11000 24.22000
H  36.49600 3.23700 22.69200
H  37.02200 4.44700 23.96800
H  35.59200 4.71000 23.13300
H  32.49800 1.70600 25.13400
H  33.62200 1.32100 23.78400
H  31.73500 1.94000 22.57200
H  32.15600 3.68600 22.97900
H  31.00300 2.80900 23.90600
H  29.85000 4.36300 27.08500
H  29.71500 5.69200 28.23700
H  29.19800 4.11300 28.70900
H  31.84900 3.49500 33.08300
H  32.20900 6.17700 36.54300
H  30.50100 6.03000 36.01900
H  31.43300 7.26400 35.27700
Mg 10.69800 46.76900 25.61000
C  8.60800 47.27800 28.35400
C  13.20900 48.42900 27.30700
C  12.71600 46.21200 22.97300
C  7.92000 45.65400 23.78500
N  10.92900 47.56200 27.70400
C  9.95600 47.67900 28.71100
C  10.56100 48.18000 29.97800
C  11.81400 48.98800 29.42000
C  12.00700 48.27500 28.08200
C  11.77500 50.52900 29.49700
C  10.85800 46.98700 30.87200
C  10.42000 47.15500 32.33100
H  10.32500 45.98500 33.19600
N  12.79600 47.16900 25.23500
C  13.62300 47.84700 26.06000
C  14.95000 47.84800 25.45200
C  14.82000 47.28700 24.15400
C  13.44100 46.85100 24.06500
C  16.16500 48.44900 26.27300
C  15.89600 47.15100 23.13900
O  15.76600 46.49800 22.14000
C  17.19300 47.65300 23.38300
N  10.27100 46.24500 23.60600
C  11.35600 45.99300 22.76500
C  10.79300 45.49200 21.36900
C  9.31500 45.15900 21.70400
C  9.13000 45.67900 23.11300
C  10.96600 46.54900 20.24900
C  9.02200 43.61500 21.54600
C  9.43400 42.60300 22.68100
N  8.75800 46.42300 25.97400
C  7.73200 45.97900 25.11800
C  6.48400 46.01800 25.82000
C  6.84000 46.39700 27.14500
C  8.17500 46.73700 27.11200
C  5.13400 45.68100 25.34700
C  6.24800 46.62900 28.45500
O  5.09800 46.47400 28.89300
C  7.51200 47.04500 29.35200
C  7.76700 45.87400 30.15200
O  8.31700 44.82900 29.83800
O  7.14700 46.04100 31.41700
C  7.29000 44.92500 32.38300
H  14.07600 48.98600 27.66700
H  13.25400 45.89400 22.07800
H  7.03800 45.42900 23.18100
H  9.94900 48.89600 30.52800
H  12.67000 48.73800 30.04700
H  10.75300 50.83700 29.71800
H  12.06800 50.95000 28.53500
H  12.48800 50.79600 30.27700
H  11.94700 46.99100 30.92700
H  10.54500 45.98700 30.57000
H  9.41700 47.58200 32.31500
H  11.10700 47.80000 32.87900
H  15.92000 48.39000 27.33300
H  16.28900 49.50600 26.03700
H  17.05500 47.82700 26.17600
H  17.16600 48.71900 23.60700
H  17.81500 47.64200 22.48800
H  17.56500 46.97600 24.15300
H  11.28200 44.57000 21.05500
H  8.58100 45.68800 21.09700
H  11.85700 47.09400 20.55900
H  10.17600 47.28600 20.39000
H  11.22500 46.14100 19.27200
H  9.60700 43.28100 20.68900
H  7.95700 43.50100 21.34100
H  10.19800 41.89700 22.35600
H  8.58500 42.04000 23.07100
H  9.81900 43.15300 23.53900
H  5.33500 44.88200 24.63300
H  4.69700 46.51300 24.79500
H  4.47600 45.42400 26.17700
H  7.46900 47.90000 30.02800
H  7.39200 45.28300 33.40700
H  8.06200 44.17600 32.20700
H  6.32900 44.41600 32.30300

