158

Mg 1.22900 8.66400 27.11300
C  1.85700 10.75400 29.82000
C  1.47900 5.95500 29.47700
C  1.28800 6.47000 24.60800
C  1.62600 11.22600 25.01000
N  1.51700 8.43900 29.31000
C  1.64400 9.42100 30.24900
C  1.69500 8.93800 31.67100
C  1.90500 7.44200 31.52200
C  1.53700 7.23200 30.03200
C  3.33000 6.82500 31.90400
C  0.33200 9.27500 32.41200
C  0.14500 8.97800 33.91900
H  1.38800 8.51000 34.65800
N  1.23600 6.49600 27.05400
C  1.35000 5.55500 28.10300
C  1.39500 4.23300 27.53500
C  1.55700 4.41000 26.11500
C  1.32800 5.82400 25.84400
C  1.42400 3.00700 28.41600
C  1.82400 3.38000 25.04400
O  1.99200 3.64100 23.84800
C  1.94300 1.91300 25.49400
N  1.23700 8.82800 25.24700
C  1.22700 7.84000 24.32000
C  1.12900 8.35900 22.91300
C  0.93000 9.85300 23.09800
C  1.33100 9.98900 24.52800
C  2.12300 7.83200 21.84800
C  -0.45700 10.49300 22.83300
C  -0.52200 11.53800 21.72700
N  1.54100 10.69300 27.31400
C  1.67300 11.66300 26.36300
C  2.14000 12.86300 27.06700
C  2.15500 12.60100 28.40800
C  1.75300 11.29600 28.55300
C  2.41100 14.16600 26.38000
C  2.32800 13.17500 29.70800
O  2.59800 14.31600 30.08000
C  2.11700 11.97100 30.66500
C  3.32400 11.84200 31.47500
O  4.40000 11.32800 31.14700
O  3.09800 12.32600 32.74000
C  4.23900 12.26600 33.73100
H  1.69000 5.20300 30.24000
H  1.57000 5.84600 23.75700
H  1.66800 12.10100 24.35800
H  2.54000 9.43900 32.14300
H  1.20000 6.90500 32.15600
H  3.27500 5.98500 32.59700
H  3.83800 7.64500 32.41100
H  3.73300 6.50200 30.94400
H  -0.31500 8.59200 31.86300
H  0.03900 10.29700 32.16900
H  -0.59500 8.18400 34.02100
H  -0.25500 9.83400 34.46200
H  0.56100 2.43600 28.07200
H  1.26600 3.29100 29.45700
H  2.33200 2.47300 28.13700
H  2.46900 1.33200 24.73600
H  1.02300 1.36200 25.69100
H  2.68300 1.67300 26.25800
H  0.11600 8.05500 22.65000
H  1.68300 10.36500 22.49900
H  2.63900 8.71900 21.48000
H  1.55700 7.31800 21.07100
H  2.85800 7.12300 22.22900
H  -0.79100 10.98700 23.74500
H  -1.16800 9.70600 22.58200
H  -0.05200 12.45400 22.08400
H  -1.53400 11.79200 21.41100
H  -0.04000 11.26800 20.78700
H  1.60800 14.42500 25.69000
H  3.41300 14.22900 25.95500
H  2.34700 14.90100 27.18200
H  1.30400 12.11900 31.37600
H  5.03500 12.96600 33.47500
H  4.78100 11.32200 33.78000
H  3.82000 12.43400 34.72300
Mg 35.59800 1.89600 30.20800
C  33.21100 2.66400 32.66200
C  38.02400 1.66100 32.65400
C  37.91400 1.42200 27.82800
C  33.22700 2.39400 27.74900
N  35.64700 2.25000 32.41700
C  34.51500 2.45800 33.22200
C  34.93000 2.45900 34.69700
C  36.46800 2.38400 34.68000
C  36.75100 2.08700 33.16100
C  37.14600 3.79600 35.00000
C  34.26700 1.21700 35.44300
C  33.79300 1.49200 36.88300
H  34.50000 2.51800 37.77600
N  37.73200 1.52600 30.24100
C  38.47500 1.41000 31.34300
C  39.80900 1.03000 30.93200
C  39.86700 1.13200 29.51400
C  38.44600 1.36400 29.14100
C  40.85200 0.88000 31.97600
C  41.06400 1.00900 28.61300
O  40.94700 1.21900 27.40500
C  42.39300 0.70000 29.14700
N  35.50700 1.67800 28.17500
C  36.63500 1.52900 27.36500
C  36.33500 1.52500 25.91900
C  34.73600 1.65900 25.88300
C  34.48100 1.98200 27.28700
C  36.95200 2.64500 25.07900
C  33.99300 0.53000 25.12100
C  33.47400 -0.68900 25.97900
N  33.64800 2.32700 30.15600
C  32.80100 2.59800 29.01900
C  31.52200 2.89300 29.51500
C  31.61600 2.96500 30.89300
C  32.89100 2.59400 31.25600
C  30.33600 3.15900 28.59800
C  30.89200 3.33300 32.11100
O  29.75900 3.77600 32.34100
C  31.86200 2.94900 33.30600
C  32.00400 4.19300 34.20100
O  32.30500 5.31500 33.80000
O  31.69100 3.88500 35.52800
C  31.61000 5.09900 36.38000
H  38.72800 1.54000 33.48000
H  38.54700 0.99100 27.05000
H  32.55000 2.54100 26.90400
H  34.63200 3.41700 35.12200
H  36.83400 1.62300 35.36900
H  38.16800 3.61100 35.32900
H  36.57500 4.35600 35.74000
H  37.21100 4.49000 34.16200
H  34.89100 0.32800 35.34500
H  33.38800 0.90100 34.88100
H  33.74600 0.51600 37.36600
H  32.78200 1.87400 36.74500
H  41.74500 0.31700 31.70600
H  40.36800 0.22000 32.69500
H  41.13000 1.79300 32.50400
H  42.75900 1.52300 29.76100
H  43.08700 0.59300 28.31400
H  42.49200 -0.25700 29.66000
H  36.68200 0.56000 25.54900
H  34.37200 2.56100 25.39200
H  37.30300 3.44700 25.72900
H  36.19400 3.12800 24.46300
H  37.69800 2.17200 24.44100
H  34.73100 -0.02900 24.54700
H  33.14500 0.82300 24.50200
H  33.87200 -1.62900 25.59700
H  32.39800 -0.79100 25.83500
H  33.69700 -0.66600 27.04600
H  30.37700 2.50500 27.72800
H  30.59100 4.09900 28.10900
H  29.34700 3.06200 29.04400
H  31.48100 2.06200 33.81200
H  30.56000 5.38700 36.42500
H  32.21500 5.99200 36.22400
H  31.74200 4.67100 37.37400

