158

Mg -2.37300 17.06300 26.43000
C  -2.76300 14.70500 28.95600
C  -3.22300 19.49500 28.66200
C  -2.60500 19.15500 23.85300
C  -1.78100 14.40600 24.14500
N  -2.69100 17.02800 28.57800
C  -2.65100 16.01200 29.45100
C  -2.90400 16.44900 30.94200
C  -3.03700 18.00400 30.73200
C  -3.09700 18.16800 29.24400
C  -4.11400 18.78800 31.53500
C  -1.93300 15.94900 32.04200
C  -1.61500 16.90800 33.23100
H  -0.95700 16.33200 34.51600
N  -2.75600 19.06600 26.27100
C  -3.10200 19.91500 27.28700
C  -3.28000 21.31100 26.77500
C  -3.07200 21.22300 25.35000
C  -2.89500 19.75800 25.09800
C  -3.59900 22.52000 27.64000
C  -3.18000 22.30700 24.37200
O  -2.85500 22.13600 23.16300
C  -3.39000 23.75800 24.76700
N  -2.45600 16.71900 24.20800
C  -2.37700 17.81600 23.43900
C  -1.91800 17.44400 22.02000
C  -1.61900 15.92000 22.11900
C  -1.93700 15.65300 23.59600
C  -2.79500 17.94300 20.90200
C  -0.16800 15.49900 21.72800
C  1.05800 16.29700 22.32600
N  -2.34900 14.94700 26.47200
C  -2.09600 14.02900 25.46100
C  -2.24300 12.69000 26.00300
C  -2.56000 12.91400 27.38500
C  -2.59300 14.29300 27.59700
C  -2.07500 11.43700 25.25400
C  -2.74100 12.20000 28.63900
O  -2.66500 10.99800 28.91300
C  -3.05700 13.35700 29.67300
C  -2.12300 13.19300 30.83400
O  -0.85900 13.28800 30.71800
O  -2.78900 12.68500 31.94400
C  -1.98800 12.10700 33.01600
H  -3.36000 20.28900 29.39800
H  -2.69800 19.80300 22.97800
H  -1.41900 13.64900 23.44700
H  -3.84900 16.05700 31.31600
H  -2.10600 18.48500 31.03400
H  -3.64600 19.66200 31.98900
H  -4.53100 18.14300 32.30800
H  -4.95800 19.16500 30.95600
H  -0.99900 15.82000 31.49600
H  -2.31200 15.04200 32.51500
H  -2.59500 17.36500 33.37100
H  -0.93600 17.72200 32.98000
H  -2.77400 23.20000 27.42700
H  -3.56200 22.26100 28.69800
H  -4.61900 22.88700 27.53200
H  -4.36600 23.75200 25.25200
H  -3.49900 24.31400 23.83600
H  -2.55600 23.94600 25.44300
H  -0.97300 17.98400 21.95900
H  -2.33600 15.42400 21.46500
H  -2.54900 18.96600 20.61600
H  -3.86600 17.79000 21.02900
H  -2.61400 17.31700 20.02800
H  -0.12700 15.45500 20.64000
H  -0.14300 14.44700 22.01200
H  0.77900 17.24000 22.79700
H  1.76400 16.64000 21.57000
H  1.51100 15.73900 23.14600
H  -1.37400 11.58200 24.43200
H  -3.05100 11.13900 24.87000
H  -1.68400 10.64600 25.89500
H  -4.08500 13.07300 29.89700
H  -1.01100 11.75900 32.68000
H  -2.57400 11.23900 33.31900
H  -1.98400 12.79800 33.85900
Mg 24.27200 -6.59100 46.18000
C  26.72900 -4.32000 45.04400
C  22.03500 -5.10500 43.96100
C  22.20200 -9.35900 46.44700
C  26.69900 -8.23400 47.87300
N  24.44600 -5.03400 44.64400
C  25.51400 -4.12300 44.47300
C  25.10600 -3.02100 43.47400
C  23.54300 -3.12000 43.52400
C  23.32200 -4.53200 44.07800
C  22.90500 -2.01600 44.45500
C  25.77400 -3.37300 42.08700
C  26.27500 -2.22800 41.13300
H  25.53100 -2.11000 39.73700
N  22.34000 -7.13800 45.42700
C  21.54500 -6.29800 44.62400
C  20.20200 -6.77900 44.57500
C  20.23000 -8.06400 45.21800
C  21.65600 -8.27200 45.72500
C  19.11100 -6.10800 43.70500
C  19.04200 -9.06700 45.15500
O  17.95600 -8.68400 44.70800
C  19.19400 -10.46700 45.57600
N  24.48900 -8.55700 46.83300
C  23.48600 -9.49200 46.89900
C  24.02000 -10.77300 47.62500
C  25.25400 -10.23100 48.44500
C  25.53000 -8.96000 47.62500
C  23.09900 -11.61200 48.50100
C  26.40600 -11.28600 48.52500
C  26.69900 -11.83700 49.88100
N  26.36100 -6.32200 46.59100
C  27.16000 -7.07600 47.26800
C  28.52900 -6.49600 47.29800
C  28.37800 -5.36100 46.43600
C  27.05000 -5.36100 46.02800
C  29.70200 -7.12300 47.91800
C  29.07500 -4.24200 45.77800
O  30.19700 -3.82400 45.80900
C  28.04000 -3.57300 44.79400
C  27.99100 -2.10300 44.91100
O  28.51900 -1.33000 44.10700
O  27.37300 -1.71800 46.09300
C  27.22600 -0.29100 46.22400
H  21.34500 -4.49800 43.36900
H  21.48800 -10.16500 46.62700
H  27.42800 -8.73900 48.51000
H  25.38300 -1.99700 43.72200
H  23.08700 -2.92900 42.55300
H  23.70100 -1.44500 44.93300
H  22.52300 -2.45600 45.37600
H  22.35700 -1.28400 43.86100
H  25.04100 -4.03100 41.62200
H  26.62400 -4.02200 42.30000
H  27.34100 -2.28900 40.91500
H  25.97100 -1.35300 41.70800
H  18.80400 -5.12900 44.07400
H  18.18200 -6.60200 43.42100
H  19.52100 -5.83100 42.73300
H  19.39400 -10.70800 46.62000
H  20.00000 -10.82300 44.93400
H  18.31100 -10.99400 45.21400
H  24.40300 -11.40200 46.82100
H  24.95500 -9.80100 49.40100
H  22.39800 -10.86800 48.87900
H  23.55200 -12.15400 49.33100
H  22.45300 -12.25200 47.90000
H  27.36300 -10.79500 48.34700
H  26.24500 -12.07700 47.79200
H  25.78900 -12.06200 50.43700
H  27.44700 -11.19600 50.34600
H  27.08800 -12.84300 49.72700
H  29.80200 -8.10700 47.46000
H  29.68100 -7.22600 49.00300
H  30.56300 -6.48300 47.72800
H  28.29100 -3.73000 43.74500
H  26.37800 0.06100 45.63700
H  28.09900 0.31200 45.97400
H  26.91900 0.00600 47.22700

