158

Mg 46.68900 25.40700 27.88000
C  47.80700 27.46700 30.54000
C  45.56500 23.14600 30.36300
C  46.22500 23.17600 25.51400
C  48.16900 27.61700 25.68700
N  46.60000 25.37000 30.16000
C  47.13100 26.31800 30.98000
C  46.92300 25.97500 32.46400
C  46.33200 24.52600 32.34300
C  46.18200 24.31200 30.87700
C  47.22000 23.48100 33.03100
C  45.90700 26.96200 33.10400
C  46.44000 27.62800 34.40100
H  45.30500 27.91400 35.42500
N  45.81800 23.47300 27.89400
C  45.37600 22.70600 29.00500
C  44.65000 21.52900 28.48400
C  44.91300 21.46700 27.04400
C  45.68600 22.72900 26.75400
C  43.82200 20.58300 29.29600
C  44.54900 20.41700 25.98400
O  44.91500 20.53300 24.81600
C  43.59300 19.26400 26.31100
N  47.16400 25.42600 25.93200
C  46.83400 24.39800 25.07700
C  47.09300 24.78400 23.57400
C  47.31500 26.36000 23.62200
C  47.58500 26.51700 25.17300
C  48.24100 24.01400 22.86500
C  46.14700 27.36100 23.22100
C  46.72300 28.54900 22.36200
N  47.84400 27.12900 28.04200
C  48.38000 27.92600 27.03500
C  49.18500 29.00800 27.61500
C  49.01500 28.80700 29.00300
C  48.10000 27.69800 29.18500
C  49.81800 30.12900 26.88600
C  49.22400 29.41700 30.25900
O  49.87700 30.40600 30.52300
C  48.51200 28.55400 31.30700
C  49.62400 28.08900 32.18100
O  50.26000 27.02700 32.01700
O  49.76600 28.93300 33.28500
C  50.82900 28.57200 34.21100
H  45.18300 22.46100 31.12300
H  46.27500 22.41000 24.73800
H  48.41600 28.26100 24.84100
H  47.80000 26.04400 33.10800
H  45.30000 24.38600 32.66400
H  47.90700 23.03200 32.31400
H  46.53500 22.66500 33.26300
H  47.56600 23.78300 34.02000
H  44.92200 26.52500 33.26600
H  45.72900 27.74500 32.36700
H  46.94400 28.56700 34.17300
H  47.16900 26.99100 34.90200
H  42.87800 20.42400 28.77400
H  43.67400 21.01900 30.28400
H  44.37300 19.64700 29.38800
H  43.81400 18.55300 25.51600
H  42.54100 19.54000 26.25100
H  43.74100 18.86400 27.31400
H  46.18900 24.47900 23.04700
H  48.23900 26.72500 23.17500
H  48.04000 23.47100 21.94200
H  48.62700 23.39100 23.67200
H  49.08500 24.65400 22.60500
H  45.57200 27.64800 24.10200
H  45.45200 26.75300 22.64200
H  46.24300 28.53600 21.38300
H  47.80400 28.44000 22.27600
H  46.47000 29.49200 22.84800
H  50.09800 29.79600 25.88600
H  50.65700 30.54900 27.44000
H  49.12900 30.97100 26.95500
H  47.81200 29.15200 31.89100
H  50.38100 27.85100 34.89400
H  51.00500 29.37200 34.93000
H  51.75300 28.14600 33.82200
Mg 1.79100 42.31500 25.44800
C  2.90000 42.71100 28.72600
C  -1.26000 41.18200 26.63500
C  0.82000 41.53800 22.33900
C  4.99800 43.06500 24.38600
N  1.07200 41.90000 27.47500
C  1.58500 42.29000 28.64500
C  0.67900 42.09700 29.84600
C  -0.64700 41.55600 29.16500
C  -0.30500 41.53700 27.59700
C  -1.18900 40.22800 29.76200
C  0.34500 43.34700 30.70300
C  0.89900 43.28800 32.15100
H  -0.08000 43.23100 33.27100
N  0.01400 41.48100 24.62800
C  -1.16100 41.09800 25.25000
C  -2.12800 40.61700 24.31900
C  -1.50200 40.67500 23.03500
C  -0.16500 41.32500 23.28600
C  -3.51600 40.15400 24.83100
C  -2.01900 40.31500 21.66500
O  -1.41000 40.45400 20.60500
C  -3.46800 39.76600 21.55200
N  2.72600 42.40300 23.67800
C  2.16000 42.05500 22.51500
C  3.09500 42.21700 21.30100
C  4.40900 42.84700 21.93700
C  4.04900 42.60100 23.44000
C  3.34400 41.01200 20.35900
C  4.56200 44.31700 21.57000
C  4.86400 44.67800 20.06800
N  3.62100 42.95100 26.33100
C  4.80900 43.19700 25.76600
C  5.72300 43.60800 26.83000
C  5.03900 43.39600 28.03100
C  3.76200 42.98700 27.67200
C  7.15200 44.05600 26.71000
C  5.10400 43.50300 29.44500
O  6.04600 43.84300 30.12200
C  3.68400 43.04500 30.03600
C  4.02100 41.75700 30.81300
O  4.04100 40.61200 30.38700
O  4.38400 42.15500 32.10300
C  4.65300 41.08000 33.07100
H  -2.23100 41.02800 27.11000
H  0.55800 41.39600 21.28800
H  6.03000 43.20900 24.05900
H  1.04300 41.41000 30.61000
H  -1.39900 42.33800 29.27000
H  -1.41400 39.44300 29.04000
H  -2.12100 40.56400 30.21800
H  -0.59200 39.88400 30.60700
H  -0.71100 43.59500 30.81100
H  0.83200 44.20300 30.23500
H  1.44800 44.21200 32.33100
H  1.54900 42.45900 32.42800
H  -3.45300 39.66200 25.80100
H  -3.97100 39.37800 24.21400
H  -4.15500 41.02600 24.97100
H  -3.70800 39.78900 20.48900
H  -4.16500 40.43100 22.06200
H  -3.46900 38.75200 21.95300
H  2.64500 43.01500 20.71000
H  5.37000 42.37800 21.72700
H  3.32200 41.55000 19.41100
H  2.61400 40.20300 20.36200
H  4.33900 40.62300 20.57500
H  5.25800 44.70600 22.31300
H  3.64600 44.88000 21.74700
H  5.26700 43.81200 19.54300
H  5.60800 45.46400 19.93600
H  3.96600 44.89400 19.48900
H  7.10500 44.59600 25.76400
H  7.80500 43.18400 26.75400
H  7.35500 44.77200 27.50600
H  3.34100 43.88700 30.63700
H  4.01600 41.17400 33.95100
H  5.71200 41.09900 33.32900
H  4.53200 40.08300 32.64600

