158

Mg 16.78300 -2.13800 27.29900
C  16.09600 -0.38100 30.25400
C  18.79400 -4.28000 29.24800
C  18.04400 -3.60300 24.49500
C  15.21500 0.22100 25.40300
N  17.41600 -2.24000 29.55800
C  16.95200 -1.48000 30.57400
C  17.46000 -1.92900 31.94100
C  18.49800 -3.09700 31.51100
C  18.20700 -3.24700 30.01600
C  20.05200 -2.72800 31.84900
C  16.29800 -2.42200 32.87000
C  16.21600 -1.89100 34.35100
H  17.40300 -1.06400 34.95100
N  18.02600 -3.82300 26.95700
C  18.73500 -4.57700 27.85400
C  19.31700 -5.77100 27.19600
C  19.04400 -5.59900 25.83400
C  18.33000 -4.32400 25.68800
C  20.07700 -6.80600 27.97300
C  19.50300 -6.48800 24.71000
O  19.12600 -6.24900 23.59600
C  20.43400 -7.69700 24.95000
N  16.71700 -1.73300 25.26800
C  17.34500 -2.42000 24.31300
C  17.16400 -1.83700 22.88700
C  16.15700 -0.62600 23.17600
C  15.94100 -0.72200 24.70500
C  18.49800 -1.43200 22.23700
C  14.83300 -0.76700 22.43700
C  14.71300 -0.06400 20.97800
N  15.77500 -0.50300 27.70900
C  15.10400 0.33700 26.82600
C  14.35900 1.27500 27.61800
C  14.68400 1.03700 28.97900
C  15.58900 -0.00900 28.97200
C  13.52100 2.42400 27.12900
C  14.48800 1.52500 30.33000
O  13.72800 2.41400 30.70000
C  15.45500 0.62400 31.30600
C  16.53000 1.57900 31.75600
O  17.66300 1.70200 31.23600
O  16.17400 2.24600 32.89400
C  17.06400 3.28500 33.44400
H  19.48000 -4.93300 29.79200
H  18.24400 -4.13300 23.56100
H  14.66600 1.02800 24.91300
H  17.99400 -1.05500 32.31500
H  18.15900 -4.07300 31.86000
H  20.59600 -2.42300 30.95500
H  20.60300 -3.55000 32.30500
H  20.09500 -1.93200 32.59300
H  16.31700 -3.51200 32.87100
H  15.36300 -2.03000 32.46900
H  16.04000 -2.75800 34.98800
H  15.30200 -1.31200 34.47800
H  19.81900 -7.75500 27.50300
H  19.77700 -6.93000 29.01400
H  21.13800 -6.57500 27.89100
H  21.28800 -7.45600 25.58400
H  20.89200 -8.02000 24.01500
H  19.79300 -8.48400 25.34600
H  16.75900 -2.63600 22.26600
H  16.57700 0.33900 22.88900
H  18.45800 -0.37000 21.99500
H  18.80500 -2.02000 21.37200
H  19.30400 -1.61000 22.94900
H  13.95900 -0.48900 23.02700
H  14.76100 -1.84800 22.32300
H  14.51900 -0.89100 20.29500
H  15.64800 0.32800 20.57900
H  13.99900 0.74600 20.83200
H  12.54000 2.16900 27.53000
H  13.56100 2.26000 26.05300
H  13.95500 3.38800 27.39400
H  14.83600 0.18600 32.08900
H  18.06000 3.13900 33.02600
H  17.03200 3.19200 34.53000
H  16.72800 4.26300 33.09900
Mg 0.43300 42.82800 25.96400
C  3.00900 42.73000 28.31900
C  -1.77500 42.38200 28.50100
C  -2.03700 42.79400 23.63300
C  2.85000 43.10000 23.47600
N  0.63100 42.58800 28.16200
C  1.79100 42.57600 28.91100
C  1.42000 42.42400 30.34100
C  -0.08100 41.93800 30.34800
C  -0.47500 42.28600 28.96500
C  -0.33800 40.39100 30.74600
C  1.75200 43.75700 31.10400
C  1.31100 43.88900 32.59000
H  1.03700 42.63900 33.39900
N  -1.68200 42.52200 26.05100
C  -2.37000 42.43800 27.23000
C  -3.83800 42.43400 26.84200
C  -3.86500 42.53600 25.43400
C  -2.50300 42.60800 24.98600
C  -4.79000 42.48600 27.88200
C  -5.09300 42.53700 24.51500
O  -5.06400 42.65100 23.31200
C  -6.44000 42.60700 25.05500
N  0.38000 42.87700 23.85700
C  -0.74000 42.93600 23.09100
C  -0.43700 43.17900 21.62300
C  1.06500 43.19600 21.56300
C  1.52100 43.10700 23.03300
C  -1.08300 42.09200 20.66700
C  1.62700 44.35500 20.74000
C  1.81000 45.76000 21.44900
N  2.50600 42.87100 25.84100
C  3.33500 43.05200 24.77700
C  4.71000 43.02300 25.17000
C  4.63600 42.80800 26.57800
C  3.26100 42.82700 26.93400
C  5.92400 43.04900 24.28100
C  5.42300 42.55800 27.77500
O  6.62500 42.39100 27.90900
C  4.37600 42.58200 28.93400
C  4.61300 41.38000 29.79500
O  4.20300 40.25700 29.60200
O  5.31900 41.69500 30.91600
C  5.36800 40.69300 31.98300
H  -2.43000 42.29100 29.37000
H  -2.73700 42.95800 22.81100
H  3.46100 43.24300 22.58200
H  1.99500 41.65600 30.85800
H  -0.67400 42.52500 31.04900
H  -0.87000 40.33700 31.69600
H  0.46900 39.68700 30.94900
H  -1.03900 39.98700 30.01600
H  1.22800 44.57200 30.60300
H  2.78200 44.11600 31.08000
H  0.36900 44.43400 32.64000
H  2.08600 44.50100 33.05200
H  -5.76000 42.85200 27.54500
H  -4.54000 43.23900 28.63000
H  -4.79100 41.47600 28.29300
H  -6.48700 41.83900 25.82800
H  -7.21200 42.29500 24.35200
H  -6.60500 43.60900 25.45100
H  -0.69200 44.17800 21.26900
H  1.41500 42.26700 21.11400
H  -1.45900 41.30200 21.31700
H  -0.36400 41.51700 20.08400
H  -1.90600 42.40800 20.02500
H  1.05400 44.48700 19.82100
H  2.61500 43.96500 20.49800
H  1.37300 45.59400 22.43300
H  1.22800 46.54000 20.95700
H  2.86000 46.05200 21.45900
H  6.73200 42.50800 24.77400
H  6.27000 44.06800 24.10700
H  5.66100 42.47800 23.39100
H  4.68600 43.40900 29.57300
H  5.88800 39.77500 31.71000
H  4.38600 40.43400 32.37900
H  5.91200 41.24700 32.74800

