158

Mg 36.23300 49.03300 25.40900
C  36.40900 46.96600 28.23000
C  34.78700 51.41400 27.49000
C  35.90400 50.95700 22.68900
C  37.22400 46.29400 23.44800
N  35.49300 49.06100 27.61600
C  35.96400 48.25600 28.55800
C  35.57600 48.74800 29.99900
C  34.91400 50.17500 29.68700
C  35.03000 50.19600 28.14400
C  33.43000 50.47300 30.20800
C  36.81600 48.85000 30.89600
C  36.57000 48.44700 32.35500
H  36.67300 49.52400 33.51000
N  35.56500 50.97100 25.16500
C  34.92400 51.77800 26.11400
C  34.60300 53.03800 25.39800
C  35.10500 52.95400 24.05400
C  35.51400 51.55000 23.91800
C  33.95000 54.18500 26.20500
C  34.99700 54.03900 23.02400
O  35.39100 53.84100 21.89800
C  34.35800 55.36900 23.33900
N  36.53900 48.64500 23.36800
C  36.29500 49.62000 22.47500
C  36.56600 48.97300 21.06700
C  37.23400 47.61300 21.32000
C  37.04000 47.52700 22.81100
C  35.35400 48.86200 20.11800
C  38.66000 47.57700 20.83800
C  39.11500 46.17100 20.34300
N  36.79000 46.99000 25.74300
C  37.14600 45.98300 24.81100
C  37.46900 44.72800 25.56500
C  37.10200 45.01400 26.90700
C  36.75500 46.39500 26.96800
C  38.03900 43.44100 24.89700
C  37.07700 44.53100 28.24600
O  37.48500 43.45000 28.70500
C  36.65100 45.80200 29.20200
C  35.45700 45.45200 30.02300
O  34.29400 45.46400 29.63100
O  35.91600 45.26600 31.32100
C  34.99600 44.79500 32.32900
H  34.44000 52.21900 28.14000
H  35.70500 51.53400 21.78300
H  37.52200 45.44700 22.82700
H  34.81900 48.03700 30.32800
H  35.57900 50.95400 30.06000
H  32.87100 49.65700 30.66500
H  32.88400 50.78200 29.31700
H  33.41000 51.42700 30.73600
H  37.31700 49.81100 31.01500
H  37.55100 48.12700 30.54200
H  37.31200 47.69800 32.63200
H  35.60900 47.95000 32.49600
H  33.00600 54.57500 25.82500
H  34.67100 54.99900 26.27200
H  33.68700 53.90100 27.22400
H  34.69300 56.06200 22.56700
H  34.88000 55.60300 24.26700
H  33.28300 55.33300 23.51300
H  37.24800 49.68900 20.60800
H  36.72100 46.78400 20.83100
H  34.64700 49.58800 20.52100
H  34.97800 47.85900 19.92000
H  35.71400 49.35200 19.21300
H  39.32100 47.93100 21.63000
H  38.82700 48.28700 20.02700
H  39.88000 45.80000 21.02400
H  39.61700 46.38400 19.39900
H  38.29900 45.46300 20.20100
H  38.79000 43.60200 24.12400
H  37.28900 42.75500 24.50400
H  38.47100 42.88300 25.72700
H  37.51400 46.01200 29.83500
H  34.33500 44.06900 31.85600
H  34.39200 45.60700 32.73600
H  35.59200 44.36400 33.13400
Mg 27.11200 50.75100 25.63600
C  25.02900 51.90900 28.26700
C  29.49700 49.93600 28.15900
C  29.23300 50.23300 23.06900
C  24.97100 52.37700 23.34700
N  27.27900 50.89300 27.95100
C  26.23100 51.34500 28.77200
C  26.61900 51.02400 30.25600
C  28.18000 50.79400 30.20000
C  28.37700 50.52700 28.68900
C  29.15000 51.92100 30.62500
C  25.91400 49.81000 30.99900
C  25.23800 49.98700 32.35800
H  25.97100 50.63600 33.52500
N  29.08800 49.99300 25.63500
C  29.88400 49.65800 26.75700
C  31.03100 49.00100 26.18700
C  30.91500 49.10000 24.74700
C  29.71200 49.81600 24.40700
C  32.15500 48.38000 27.01200
C  31.86400 48.53800 23.64900
O  31.68100 48.74600 22.44200
C  33.09400 47.72000 23.98200
N  27.09900 51.14000 23.56100
C  28.09300 50.88100 22.76400
C  27.84700 51.22600 21.26000
C  26.39300 51.77000 21.39100
C  26.09700 51.76700 22.89400
C  28.90000 52.26000 20.65700
C  25.28400 51.12800 20.52600
C  24.85900 49.72300 20.90300
N  25.36400 51.96900 25.72000
C  24.61000 52.49300 24.70300
C  23.44100 53.14800 25.25900
C  23.53000 52.87000 26.66500
C  24.69800 52.11200 26.90200
C  22.40800 53.82400 24.41700
C  22.90400 53.02800 27.95900
O  21.81400 53.56700 28.21100
C  23.78400 52.20700 29.01200
C  24.00200 53.07100 30.11200
O  24.78800 53.92800 30.19300
O  23.27800 52.58700 31.18600
C  23.57700 53.15400 32.50300
H  30.36200 49.68400 28.77700
H  29.97000 50.09400 22.27500
H  24.34700 52.97100 22.67600
H  26.36900 51.90900 30.84000
H  28.46000 49.90500 30.76600
H  28.61500 52.86200 30.75700
H  29.94400 52.20000 29.93300
H  29.62800 51.78500 31.59600
H  26.52500 48.91100 31.08600
H  25.19500 49.48900 30.24500
H  25.03400 48.95700 32.65100
H  24.29000 50.50400 32.20600
H  32.07900 47.31900 26.77500
H  31.99400 48.46800 28.08700
H  33.13900 48.72300 26.69600
H  33.97400 48.30200 24.25200
H  33.29000 47.07700 23.12400
H  32.76600 47.04200 24.77000
H  27.96200 50.29800 20.69900
H  26.35200 52.83700 21.17300
H  28.37100 53.15200 20.32200
H  29.48100 51.96200 19.78500
H  29.66600 52.43900 21.41100
H  25.72600 51.04800 19.53300
H  24.48300 51.82400 20.27700
H  24.86000 49.07400 20.02700
H  23.90000 49.72200 21.42200
H  25.55500 49.23100 21.58200
H  22.73300 54.86200 24.48600
H  21.48200 53.69900 24.97900
H  22.37900 53.45900 23.39100
H  23.34300 51.27900 29.37500
H  24.54100 53.66300 32.52600
H  23.76000 52.37100 33.24000
H  22.75700 53.79900 32.81900

