158

Mg 2.86400 -0.70600 44.38700
C  6.34900 0.10400 43.91400
C  2.15000 2.13200 42.68200
C  -0.21800 -1.92500 43.93800
C  3.93800 -3.88800 45.54700
N  4.17100 0.96600 43.35300
C  5.50700 1.11500 43.39400
C  5.87500 2.56900 43.10400
C  4.56800 3.27700 42.87300
C  3.56500 2.09300 42.96200
C  4.20900 4.42300 43.87800
C  7.00100 2.89800 42.06100
C  6.70300 2.43600 40.61900
H  6.30900 3.53600 39.61800
N  1.16000 0.05200 43.54000
C  1.04500 1.24300 42.85200
C  -0.31500 1.44700 42.47200
C  -1.03300 0.23400 42.77900
C  -0.02000 -0.61600 43.46800
C  -0.76100 2.70200 41.83000
C  -2.46300 0.05200 42.36600
O  -3.09800 0.84500 41.77700
C  -3.12100 -1.27500 42.52000
N  1.95800 -2.58400 44.90300
C  0.63300 -2.75200 44.64600
C  0.24700 -4.21900 45.04500
C  1.55200 -4.94200 45.42500
C  2.57200 -3.75100 45.37600
C  -0.89600 -4.30200 46.14700
C  1.90600 -6.17100 44.45500
C  2.72900 -7.36300 44.96000
N  4.71700 -1.60200 44.94800
C  4.94400 -2.91700 45.36700
C  6.33300 -3.15400 45.37100
C  6.95600 -2.01000 44.88600
C  5.91000 -1.10100 44.53000
C  7.02600 -4.39500 45.90000
C  8.27100 -1.38800 44.68800
O  9.39500 -1.86500 44.88400
C  7.87600 -0.02300 43.99600
C  8.39200 1.13100 44.81700
O  9.17300 1.97500 44.47500
O  7.83900 0.99300 46.07800
C  8.31600 2.01700 47.03600
H  1.83800 3.14800 42.42900
H  -1.21500 -2.36800 43.89800
H  4.16300 -4.92300 45.81300
H  6.40700 2.98600 43.96000
H  4.40300 3.68500 41.87600
H  5.15200 4.91400 44.12000
H  3.74000 4.18000 44.83100
H  3.63400 5.17600 43.33800
H  7.92700 2.45500 42.42800
H  7.19800 3.97000 42.02100
H  5.97000 1.63500 40.52100
H  7.64200 1.97800 40.30900
H  -0.40600 3.61200 42.31300
H  -1.82000 2.87700 42.02100
H  -0.62600 2.68000 40.74800
H  -3.55800 -1.33100 43.51700
H  -2.47700 -2.12300 42.28500
H  -3.98000 -1.37100 41.85600
H  -0.08900 -4.70600 44.12900
H  1.59400 -5.39800 46.41400
H  -1.68200 -4.95200 45.76500
H  -1.38500 -3.36000 46.39400
H  -0.40500 -4.71500 47.02900
H  2.48000 -5.86800 43.57900
H  0.99000 -6.64400 44.10400
H  2.94700 -7.36900 46.02800
H  3.71500 -7.39700 44.49800
H  2.30700 -8.32300 44.66200
H  6.40900 -4.96800 46.59100
H  7.87000 -4.15000 46.54400
H  7.32500 -5.12100 45.14300
H  8.26300 0.11800 42.98600
H  7.65700 2.88600 47.05200
H  9.29100 2.48700 46.90700
H  8.25000 1.57000 48.02800
Mg 41.02600 41.23800 27.56200
C  40.14800 43.71200 29.79300
C  41.72400 39.26200 30.12700
C  41.83900 38.73000 25.21100
C  40.60100 43.35000 24.89900
N  40.84500 41.49500 29.78100
C  40.34400 42.53100 30.50100
C  40.07300 42.21200 31.97400
C  40.63600 40.72300 31.98100
C  41.08700 40.42300 30.53400
C  41.68100 40.37000 33.06100
C  38.59300 42.37500 32.41800
C  38.41500 41.93500 33.82300
H  38.75400 42.83500 35.06900
N  41.67300 39.27100 27.70400
C  41.92900 38.62300 28.91600
C  42.34400 37.28900 28.63400
C  42.41600 37.19000 27.20900
C  41.95200 38.46000 26.59500
C  42.58800 36.26400 29.78200
C  42.96300 36.03500 26.39500
O  43.22100 36.05500 25.22800
C  43.20700 34.66500 27.08600
N  41.17900 41.05000 25.39700
C  41.41800 39.91400 24.66100
C  41.36000 40.12300 23.13200
C  40.71200 41.54200 23.07200
C  40.79900 42.03400 24.55300
C  42.73100 40.04900 22.46800
C  39.24700 41.63500 22.52800
C  38.12500 41.13700 23.48300
N  40.52500 43.17600 27.35100
C  40.47200 43.92200 26.19300
C  40.14600 45.31000 26.57500
C  40.02800 45.25100 27.99400
C  40.24900 43.94800 28.40200
C  39.92500 46.51400 25.59500
C  39.79200 46.02000 29.19800
O  39.71400 47.23000 29.29500
C  39.78100 45.07100 30.37000
C  40.87800 45.46600 31.29200
O  42.04900 45.26800 31.15800
O  40.35700 46.08900 32.40100
C  41.30700 46.24800 33.54300
H  41.86100 38.69700 31.05100
H  42.24500 38.02600 24.48100
H  40.61600 44.01900 24.03600
H  40.68100 42.84100 32.62300
H  39.74100 40.10400 32.03800
H  41.24500 39.65200 33.75600
H  41.99200 41.27600 33.58200
H  42.58200 39.88200 32.69000
H  37.86800 41.82600 31.81600
H  38.41500 43.44800 32.47900
H  39.00000 41.03400 34.00400
H  37.35500 41.71500 33.95100
H  43.62400 35.94900 29.90600
H  41.91500 35.41900 29.63300
H  42.39400 36.71900 30.75300
H  42.35100 34.46400 27.73100
H  44.14700 34.92400 27.57200
H  43.36000 33.87200 26.35300
H  40.67900 39.41900 22.65300
H  41.37500 42.21700 22.53000
H  42.95500 40.71800 21.63700
H  42.88700 39.06200 22.03300
H  43.43800 40.08200 23.29700
H  39.22900 41.13400 21.56000
H  39.02100 42.67500 22.29000
H  38.61500 40.83400 24.40900
H  37.55500 40.30000 23.08000
H  37.46600 41.95300 23.77800
H  39.81900 46.17800 24.56300
H  40.70900 47.22500 25.85300
H  38.99700 46.93200 25.98400
H  38.83100 45.07300 30.90400
H  42.16900 46.76600 33.12300
H  41.59200 45.26800 33.92600
H  40.81300 46.74500 34.37800

