158

Mg -1.81600 17.07400 27.18000
C  -2.56000 14.94100 30.09900
C  -2.57300 19.66500 29.11200
C  -1.67100 18.80400 24.47300
C  -1.62600 14.10900 25.30800
N  -2.62900 17.22100 29.47700
C  -2.62800 16.29300 30.46800
C  -3.02800 16.91500 31.84000
C  -3.01800 18.55300 31.43700
C  -2.69400 18.48700 29.91700
C  -4.22600 19.46800 31.92900
C  -2.12800 16.46800 33.05800
C  -1.46800 17.42800 34.05900
H  -1.14500 16.80100 35.42600
N  -1.81700 19.03900 26.88400
C  -2.17400 19.90400 27.78900
C  -2.24900 21.23000 27.09600
C  -1.83600 21.02000 25.75000
C  -1.76500 19.56900 25.62800
C  -2.86200 22.45200 27.69400
C  -1.62200 22.01800 24.64600
O  -1.43300 21.72400 23.48700
C  -1.55600 23.36200 25.06500
N  -1.66900 16.50400 25.25100
C  -1.61000 17.42400 24.22900
C  -1.33500 16.86400 22.79900
C  -1.09500 15.39100 23.20300
C  -1.43300 15.31600 24.69400
C  -2.43700 17.02400 21.68600
C  0.31800 14.80100 22.95000
C  1.65000 15.38700 23.51200
N  -2.19600 14.98800 27.58000
C  -2.03500 13.87300 26.67900
C  -2.25200 12.66300 27.41100
C  -2.36900 12.98600 28.74200
C  -2.32200 14.44800 28.79900
C  -2.17600 11.29600 26.75000
C  -2.61400 12.46600 30.04200
O  -2.76300 11.29400 30.36700
C  -2.51800 13.77100 30.97700
C  -1.22900 13.81700 31.70200
O  -0.17000 14.26700 31.32300
O  -1.53500 13.27700 32.89500
C  -0.49500 13.18000 33.92700
H  -2.81200 20.58000 29.65800
H  -1.52500 19.30300 23.51300
H  -1.32200 13.21300 24.76200
H  -4.05800 16.69200 32.11800
H  -2.21000 19.13100 31.88700
H  -4.61300 19.88100 30.99800
H  -3.72200 20.29000 32.43800
H  -5.05500 19.03000 32.48500
H  -1.21500 16.18500 32.53500
H  -2.51900 15.59500 33.58100
H  -2.07500 18.32600 34.16700
H  -0.55700 17.68700 33.51900
H  -2.14800 23.26400 27.82700
H  -3.31000 22.29200 28.67500
H  -3.62500 22.74800 26.97500
H  -0.83700 23.42200 25.88200
H  -2.59100 23.66800 25.21500
H  -1.31300 24.02300 24.23400
H  -0.41800 17.30000 22.40200
H  -1.76800 14.71500 22.67600
H  -3.00800 17.94700 21.79000
H  -3.05900 16.12900 21.65600
H  -2.01000 17.00800 20.68300
H  0.51500 14.90400 21.88300
H  0.16000 13.73200 23.09400
H  2.19100 15.78700 22.65500
H  2.38000 14.69100 23.92400
H  1.34200 16.21200 24.15400
H  -1.57300 11.40000 25.84800
H  -3.16000 11.05600 26.34700
H  -1.68300 10.48500 27.28700
H  -3.40100 13.90500 31.60100
H  0.20300 14.01600 33.96700
H  0.00100 12.22200 33.77000
H  -0.97400 13.07700 34.90000
Mg 41.25700 9.54900 28.84800
C  43.09000 10.83100 31.52300
C  39.00300 8.27400 31.10000
C  39.48400 8.45600 26.28000
C  43.82500 10.42600 26.66600
N  41.24500 9.37500 31.10200
C  42.00000 10.14200 31.95100
C  41.45300 9.99900 33.37800
C  40.28500 8.96100 33.24600
C  40.15800 8.85300 31.71900
C  40.53500 7.53900 33.75400
C  41.08500 11.34300 34.02200
C  40.62300 11.20100 35.48600
H  40.93800 12.39600 36.38400
N  39.47900 8.57200 28.71600
C  38.68200 8.16600 29.69200
C  37.50500 7.60600 29.15300
C  37.54500 7.67300 27.77500
C  38.85400 8.25900 27.53200
C  36.46900 6.90800 30.11000
C  36.54800 7.22600 26.80400
O  36.66100 7.20400 25.59800
C  35.20900 6.90600 27.31600
N  41.65300 9.46200 26.80600
C  40.76800 8.93300 25.93400
C  41.24600 9.02500 24.47700
C  42.72200 9.63300 24.60900
C  42.73900 9.92800 26.09400
C  41.13400 7.72800 23.67900
C  42.87200 10.88600 23.67700
C  42.30800 12.23100 24.26000
N  43.09100 10.46600 28.94500
C  44.06100 10.70900 28.01500
C  45.17400 11.39700 28.61900
C  44.82000 11.60200 29.98800
C  43.60800 10.88200 30.15000
C  46.43500 11.78700 27.94200
C  45.20300 12.26100 31.32300
O  46.12100 13.04000 31.60500
C  44.05500 11.77000 32.26800
C  44.76600 11.06900 33.37300
O  45.21000 9.88600 33.39900
O  44.64200 11.79100 34.53300
C  44.83300 11.01300 35.77500
H  38.33100 7.83800 31.84300
H  39.00100 8.15300 25.34900
H  44.66700 10.70200 26.02900
H  42.28200 9.70900 34.02400
H  39.38600 9.32300 33.74500
H  41.57900 7.41100 34.04000
H  40.24400 6.75900 33.05100
H  39.94100 7.29900 34.63600
H  40.27700 11.68000 33.37200
H  41.94800 12.00600 33.97100
H  41.03900 10.31000 35.95700
H  39.54000 11.14800 35.37500
H  36.73000 6.77900 31.16100
H  36.31900 5.89100 29.74900
H  35.52500 7.43700 29.98000
H  34.54500 6.75900 26.46400
H  34.82000 7.71600 27.93300
H  35.16700 5.99600 27.91600
H  40.57100 9.74100 24.00900
H  43.45400 8.85800 24.38100
H  40.79500 6.91400 24.32000
H  42.03300 7.26200 23.27500
H  40.50800 7.83700 22.79400
H  42.21100 10.61500 22.85300
H  43.91400 10.82200 23.36300
H  43.16900 12.73600 24.69700
H  41.52000 12.13300 25.00800
H  41.92500 12.80300 23.41500
H  46.75700 10.93800 27.33900
H  47.13100 12.03400 28.74500
H  46.33300 12.66600 27.30600
H  43.39500 12.56500 32.61600
H  44.17300 10.15200 35.88000
H  44.48100 11.60900 36.61700
H  45.90400 10.83600 35.87600

