158

Mg 17.58300 0.03500 28.11800
C  16.57800 1.73300 31.12400
C  19.62100 -2.01500 29.97200
C  18.90200 -1.05200 25.29900
C  16.05200 2.77700 26.42000
N  17.93000 -0.11300 30.31700
C  17.41400 0.67600 31.36300
C  17.96800 0.10100 32.73500
C  19.17900 -0.75100 32.26400
C  18.90600 -1.09100 30.74900
C  20.65500 -0.15200 32.36800
C  16.80200 -0.63500 33.46600
C  16.55800 -0.50500 35.01400
H  17.64500 0.23000 35.81400
N  18.91100 -1.53900 27.67500
C  19.64200 -2.23800 28.54200
C  20.15100 -3.43700 27.81500
C  20.11800 -3.05800 26.39200
C  19.28800 -1.81800 26.35100
C  20.99900 -4.51100 28.59400
C  20.63100 -3.75800 25.15200
O  20.53000 -3.33100 23.97900
C  21.42200 -5.08200 25.51100
N  17.55700 0.81100 26.16400
C  18.12700 0.09200 25.12100
C  17.93500 0.90600 23.81800
C  16.96100 2.04100 24.20400
C  16.78500 1.80900 25.66400
C  19.25600 1.50500 23.25900
C  15.60400 2.03600 23.45700
C  15.57500 1.59100 22.00500
N  16.55500 1.80700 28.60900
C  15.92000 2.77600 27.79900
C  15.17800 3.67800 28.63800
C  15.46400 3.33400 29.89500
C  16.23700 2.18300 29.84800
C  14.17700 4.82200 28.17200
C  15.07000 3.64500 31.26000
O  14.33500 4.46100 31.67200
C  15.96100 2.66800 32.13800
C  16.95100 3.49700 32.88500
O  18.01000 3.95100 32.56100
O  16.23000 4.00500 33.90300
C  16.92700 4.98200 34.76500
H  20.24300 -2.60600 30.64700
H  19.31500 -1.31800 24.32300
H  15.59300 3.63900 25.93100
H  18.30700 0.93800 33.34600
H  19.17900 -1.60000 32.94700
H  21.17700 -0.86700 33.00400
H  20.57000 0.76400 32.95400
H  21.21700 -0.01800 31.44400
H  16.97000 -1.66400 33.14700
H  15.87800 -0.43300 32.92400
H  16.26300 -1.43200 35.50500
H  15.64200 0.06700 35.15900
H  22.07500 -4.38700 28.46900
H  20.64800 -5.47900 28.23600
H  20.66000 -4.46500 29.62900
H  20.78800 -5.94700 25.70400
H  22.18000 -4.95600 26.28400
H  21.86800 -5.33000 24.54800
H  17.60700 0.16500 23.08900
H  17.26600 3.08500 24.28000
H  20.11900 1.24200 23.87100
H  19.11900 2.56700 23.06000
H  19.48900 1.05400 22.29500
H  15.11100 3.00200 23.56300
H  14.96600 1.29700 23.94200
H  15.25400 2.36300 21.30600
H  14.78200 0.84300 22.02700
H  16.49400 1.15100 21.61800
H  14.39900 5.02700 27.12500
H  14.51500 5.65500 28.78800
H  13.15100 4.52200 28.38400
H  15.27500 2.16900 32.82200
H  16.96300 6.01300 34.41200
H  17.95100 4.69900 35.01100
H  16.40300 5.00300 35.72100
Mg 26.52200 49.55000 26.44900
C  24.43800 50.61200 28.85200
C  28.81000 48.57500 28.74200
C  28.45500 48.40500 23.91900
C  24.36800 50.99400 24.01800
N  26.66000 49.72300 28.65600
C  25.61700 50.04500 29.44100
C  25.92200 49.92200 30.93200
C  27.42300 49.41900 30.84700
C  27.66600 49.16500 29.32100
C  28.50800 50.32800 31.53300
C  24.97600 48.93000 31.73000
C  24.54700 49.32600 33.12100
H  25.64900 49.93100 34.09100
N  28.40900 48.59700 26.33100
C  29.19200 48.30100 27.40600
C  30.38600 47.65000 26.91500
C  30.29400 47.60500 25.49300
C  29.05200 48.16900 25.18300
C  31.52600 47.31100 27.78300
C  31.13100 46.92100 24.42800
O  30.88300 46.92000 23.22400
C  32.34600 46.24900 24.83900
N  26.36400 49.65300 24.28800
C  27.34500 49.06200 23.48000
C  27.02100 49.26400 21.95000
C  25.67900 50.14000 21.96400
C  25.38000 50.18100 23.45300
C  28.05000 49.97700 21.10800
C  24.53200 49.63700 21.09100
C  23.89800 48.31400 21.53300
N  24.79000 50.68300 26.41600
C  23.97300 51.14400 25.38800
C  22.75300 51.74300 25.94000
C  22.89800 51.49700 27.35300
C  24.10100 50.89200 27.55800
C  21.70500 52.43000 25.24400
C  22.26500 51.71500 28.59500
O  21.17100 52.17100 28.82800
C  23.23300 51.18700 29.62900
C  23.43700 52.38100 30.51900
O  24.10500 53.37500 30.24300
O  22.76400 52.10900 31.70600
C  23.16300 52.95000 32.83300
H  29.49700 48.21400 29.51000
H  29.00500 48.16000 23.00900
H  23.66100 51.35400 23.26800
H  25.83800 50.92500 31.35000
H  27.47200 48.51500 31.45400
H  28.29000 51.35400 31.23400
H  29.47100 50.07400 31.09200
H  28.53100 50.01500 32.57700
H  25.41500 47.93300 31.77200
H  24.11600 48.90400 31.06100
H  24.18400 48.41000 33.58700
H  23.74800 50.06700 33.09100
H  31.59800 46.25500 28.04300
H  31.41100 47.71800 28.78800
H  32.44700 47.72900 27.37700
H  32.11200 45.49400 25.58900
H  33.11900 46.96900 25.10700
H  32.71800 45.66000 24.00000
H  26.80800 48.26700 21.56500
H  25.75800 51.21800 21.81900
H  28.79800 50.52200 21.68400
H  27.56700 50.52600 20.30000
H  28.61100 49.27200 20.49400
H  24.85300 49.51700 20.05700
H  23.78800 50.39800 20.85800
H  22.89300 48.43500 21.93900
H  24.51300 47.85600 22.30800
H  23.80400 47.59800 20.71700
H  21.51900 51.75600 24.40800
H  22.03000 53.38600 24.83200
H  20.85900 52.61600 25.90500
H  22.86600 50.38300 30.26600
H  24.10800 52.60900 33.25600
H  22.33200 52.90900 33.53700
H  23.34700 53.99400 32.57600

