158

Mg 0.94800 8.79500 26.73700
C  1.41700 10.73300 29.46200
C  1.28900 6.02900 28.64200
C  0.77300 7.02800 23.90200
C  0.59400 11.76700 24.84000
N  1.46400 8.43300 28.86100
C  1.42900 9.39800 29.82300
C  1.26300 8.81200 31.24300
C  1.62400 7.28800 30.87200
C  1.41800 7.21000 29.37400
C  2.97100 6.72600 31.51600
C  -0.08900 9.08400 31.85700
C  -0.23100 9.22200 33.35300
H  0.94300 8.74500 34.26200
N  1.02700 6.79600 26.32900
C  1.15100 5.81500 27.27700
C  1.22200 4.54700 26.64700
C  1.10400 4.78100 25.20700
C  0.93800 6.21800 25.07900
C  1.26000 3.22500 27.46000
C  0.90600 3.80200 23.98900
O  0.74100 4.13200 22.81500
C  1.13200 2.31000 24.23700
N  0.66400 9.36300 24.72800
C  0.64000 8.40900 23.72600
C  0.48300 8.97800 22.30200
C  0.22800 10.47600 22.62200
C  0.49100 10.56900 24.15800
C  1.68900 8.72500 21.39400
C  -1.22100 10.98800 22.24900
C  -1.34000 12.06200 21.17000
N  1.13100 10.79700 27.04000
C  0.95600 11.90500 26.19800
C  1.16100 13.13600 26.97000
C  1.35700 12.70300 28.25600
C  1.31200 11.31700 28.23600
C  1.11300 14.56100 26.42300
C  1.64900 13.11000 29.53100
O  1.95500 14.18700 29.93700
C  1.40100 11.86000 30.45100
C  2.46700 11.83100 31.49900
O  3.61700 11.51900 31.24400
O  1.90100 12.06300 32.69600
C  2.76800 11.94200 33.90700
H  1.44000 5.14000 29.25900
H  0.73600 6.65300 22.87800
H  0.56400 12.68200 24.24600
H  2.13600 9.12900 31.81400
H  0.82500 6.69600 31.31800
H  2.70100 5.88900 32.16100
H  3.53500 7.53600 31.97800
H  3.60200 6.35700 30.70700
H  -0.84000 8.34300 31.58300
H  -0.53100 9.95400 31.37100
H  -1.13300 8.69400 33.66500
H  -0.52300 10.23600 33.62600
H  1.27600 2.34400 26.82000
H  0.34700 3.21700 28.05500
H  2.14500 3.27700 28.09500
H  0.23600 1.89000 24.69300
H  2.06400 2.30800 24.80200
H  1.27000 1.76200 23.30500
H  -0.39300 8.50600 21.85600
H  0.97000 11.07500 22.09500
H  2.59400 8.45100 21.93700
H  1.92200 9.60100 20.78900
H  1.42100 7.88900 20.74800
H  -1.71900 11.24200 23.18500
H  -1.83100 10.17600 21.85200
H  -0.61600 11.86900 20.37800
H  -1.11900 12.96200 21.74400
H  -2.31300 12.19000 20.69600
H  1.90500 14.65600 25.67900
H  1.01000 15.36400 27.15300
H  0.11600 14.60200 25.98600
H  0.50200 12.00200 31.05100
H  3.15400 12.96100 33.92500
H  3.53700 11.17300 33.83100
H  2.17300 11.73500 34.79600
Mg 24.18300 -4.85700 45.02600
C  26.17200 -2.16400 43.79600
C  21.65800 -3.64700 43.13900
C  22.41900 -7.65300 45.90300
C  26.97800 -6.08200 46.67300
N  23.99500 -3.09700 43.48500
C  24.86500 -2.09300 43.30200
C  24.32200 -1.15800 42.20200
C  22.77400 -1.45100 42.27100
C  22.75000 -2.79400 43.03800
C  22.14000 -0.34200 43.09400
C  24.97900 -1.55400 40.85000
C  25.69900 -0.47700 40.02100
H  25.41000 -0.36200 38.60900
N  22.27500 -5.61200 44.53000
C  21.38900 -4.90300 43.79900
C  20.13200 -5.72400 43.74700
C  20.30600 -6.81900 44.69200
C  21.69300 -6.70300 45.14300
C  19.01300 -5.30900 42.82900
C  19.26700 -7.83700 45.02100
O  18.21900 -7.70500 44.41700
C  19.47700 -8.96000 46.07000
N  24.68000 -6.62600 45.96700
C  23.76600 -7.66400 46.20200
C  24.45800 -8.88900 46.89300
C  25.81200 -8.31700 47.25300
C  25.86200 -6.94200 46.58300
C  23.70400 -9.46800 48.11500
C  26.99800 -9.23400 46.82000
C  27.71600 -10.06500 47.92300
N  26.18900 -4.34000 45.20100
C  27.19700 -4.89400 45.95000
C  28.42200 -4.18400 45.74700
C  28.08900 -3.19300 44.90100
C  26.71100 -3.24500 44.66800
C  29.69600 -4.53100 46.40100
C  28.59400 -1.99700 44.25500
O  29.78200 -1.59500 44.31000
C  27.37300 -1.32300 43.45500
C  27.16700 0.14100 43.95100
O  26.41300 0.48100 44.85100
O  27.91600 1.04400 43.25300
C  28.03900 2.37400 43.88400
H  20.75000 -3.26900 42.66500
H  21.86600 -8.51200 46.28900
H  27.81500 -6.37500 47.31000
H  24.58700 -0.12200 42.41100
H  22.33900 -1.48500 41.27200
H  21.51800 -0.80600 43.86000
H  21.60000 0.26800 42.37000
H  22.91100 0.27800 43.55300
H  24.21500 -1.92200 40.16500
H  25.78300 -2.26000 41.05400
H  26.77000 -0.60000 40.17600
H  25.46700 0.51600 40.40800
H  19.06600 -4.32700 42.35800
H  18.08200 -5.45600 43.37500
H  18.91500 -5.96100 41.96000
H  19.71100 -8.52200 47.04000
H  20.25700 -9.65300 45.75700
H  18.55600 -9.52000 46.23900
H  24.37900 -9.60700 46.07700
H  25.85500 -8.20800 48.33700
H  23.12000 -10.28500 47.69100
H  22.89400 -8.80600 48.42100
H  24.33900 -9.81200 48.93200
H  27.73100 -8.57400 46.35700
H  26.67200 -9.77600 45.93200
H  28.76400 -10.25000 47.68700
H  27.22100 -11.03500 47.96700
H  27.67200 -9.51200 48.86200
H  29.90900 -5.42700 45.81800
H  29.51200 -4.81100 47.43900
H  30.46000 -3.77300 46.23000
H  27.44800 -1.29300 42.36800
H  27.11600 2.93400 44.03700
H  28.70700 3.03500 43.33100
H  28.38800 2.14500 44.89100

