158

Mg 35.27500 1.47700 29.05200
C  32.90700 2.28000 31.59700
C  37.58000 1.20800 31.42400
C  37.45900 1.26500 26.57600
C  32.96000 2.65400 26.77500
N  35.22600 1.73700 31.21900
C  34.18000 2.04900 32.10200
C  34.60700 1.99100 33.60200
C  36.17800 1.88100 33.42700
C  36.33900 1.52600 31.96300
C  36.93400 3.13700 33.90900
C  34.06700 0.80400 34.49000
C  34.19700 1.03900 36.00900
H  35.00800 2.18500 36.63400
N  37.26000 1.15200 29.01400
C  38.04100 0.99400 30.12200
C  39.40200 0.77700 29.73400
C  39.35400 0.67200 28.24900
C  37.96800 1.08600 27.87400
C  40.54000 0.55300 30.70500
C  40.59100 0.20800 27.31500
O  40.47800 0.24400 26.09200
C  41.90000 -0.29100 27.82700
N  35.14500 1.81700 26.91300
C  36.20600 1.60200 26.16200
C  36.04400 2.04500 24.71900
C  34.54600 2.41100 24.71300
C  34.17200 2.22000 26.17800
C  37.03500 3.11700 24.27900
C  33.70800 1.56800 23.69900
C  33.46800 0.03000 24.07000
N  33.28600 2.14200 29.11300
C  32.45800 2.49700 28.03300
C  31.08800 2.71100 28.51200
C  31.23000 2.73800 29.91100
C  32.54500 2.32500 30.22100
C  29.93200 2.99900 27.69500
C  30.56000 3.03100 31.15900
O  29.42100 3.43100 31.39700
C  31.60000 2.72300 32.28700
C  31.72700 4.04300 33.00700
O  32.32700 4.99600 32.59200
O  31.23200 3.86300 34.27100
C  31.51600 4.95100 35.18900
H  38.31200 1.12600 32.23000
H  38.17100 1.15500 25.75500
H  32.32500 2.84700 25.90800
H  34.47100 2.95900 34.08500
H  36.54500 0.92700 33.80700
H  36.31800 3.77000 34.54800
H  37.47000 3.69400 33.14100
H  37.64300 2.70700 34.61700
H  34.44200 -0.17100 34.17800
H  33.00700 0.71300 34.25500
H  34.35400 0.12800 36.58700
H  33.15800 1.20300 36.29300
H  40.22200 0.20400 31.68800
H  41.02600 1.51600 30.86300
H  41.25100 -0.06900 30.16200
H  41.63800 -1.12600 28.47700
H  42.31800 0.59500 28.30600
H  42.61400 -0.52700 27.03800
H  36.17500 1.28800 23.94600
H  34.30800 3.46200 24.54800
H  37.70500 2.78900 23.48400
H  37.59100 3.41000 25.16900
H  36.56000 3.99400 23.83800
H  34.44100 1.50900 22.89500
H  32.80100 2.06100 23.34800
H  34.15400 -0.21600 24.88100
H  33.76000 -0.62000 23.24600
H  32.40600 -0.09800 24.27900
H  30.05700 3.84100 27.01400
H  29.01000 2.98200 28.27700
H  30.14800 2.12700 27.07700
H  31.12700 1.97100 32.91900
H  30.98200 5.85100 34.88300
H  32.56100 5.12200 34.93300
H  31.42800 4.64200 36.23100
Mg 7.14300 56.76400 41.18600
C  6.59700 53.41100 40.59500
C  10.48400 56.29700 40.00900
C  7.64200 60.13300 41.16000
C  3.83200 57.28300 41.87600
N  8.46000 55.05300 40.33200
C  8.02400 53.75500 40.34200
C  9.15400 52.85400 39.86300
C  10.36900 53.67400 40.36800
C  9.76100 55.07500 40.22900
C  10.87600 53.38300 41.79800
C  8.98800 52.52000 38.37400
C  10.36100 52.24300 37.57300
H  10.49900 50.96900 36.70800
N  8.81000 58.03300 40.63900
C  10.03200 57.62600 40.19600
C  10.88200 58.80500 40.04800
C  10.11000 59.87700 40.52200
C  8.79500 59.37900 40.74600
C  12.27600 58.68000 39.46200
C  10.69800 61.27700 40.73800
O  11.86300 61.53900 40.44400
C  9.95200 62.37200 41.45300
N  5.80000 58.47600 41.10800
C  6.27800 59.71800 41.30200
C  5.09100 60.74700 41.31000
C  3.94100 59.83500 41.59600
C  4.51500 58.45800 41.54300
C  5.15000 61.99700 42.28300
C  2.74400 60.15600 40.61300
C  1.26100 59.94000 40.93600
N  5.56600 55.61300 41.30700
C  4.23600 55.92200 41.71800
C  3.59100 54.71000 42.07400
C  4.45500 53.72900 41.61000
C  5.63500 54.27800 41.09400
C  2.27900 54.53100 42.81900
C  4.58200 52.26700 41.49700
O  3.79300 51.35100 41.80700
C  5.86700 52.04400 40.65400
C  5.46700 51.43400 39.35000
O  5.55600 52.01700 38.29600
O  5.00700 50.14200 39.58200
C  4.54600 49.50000 38.35200
H  11.56000 56.12200 39.94200
H  7.72700 61.21900 41.23800
H  2.80600 57.41600 42.22700
H  9.34200 51.95100 40.44400
H  11.30000 53.51900 39.82200
H  10.31200 52.56100 42.23900
H  10.89500 54.21800 42.49800
H  11.90900 53.05000 41.69400
H  8.44200 53.28200 37.81800
H  8.37100 51.63300 38.23100
H  11.16400 52.08200 38.29100
H  10.80000 53.02600 36.95500
H  12.78900 59.36800 40.13400
H  12.32600 58.96300 38.41100
H  12.78900 57.72200 39.54500
H  9.48000 61.93800 42.33400
H  9.29300 62.88900 40.75600
H  10.70400 63.11200 41.72300
H  5.12600 61.11500 40.28500
H  3.65800 60.01700 42.63300
H  6.14100 62.07900 42.73000
H  4.41400 61.93600 43.08400
H  5.03700 62.86600 41.63500
H  2.76700 59.36800 39.86100
H  2.89400 61.18100 40.27400
H  0.83200 59.13500 40.34000
H  0.70700 60.85100 40.71000
H  1.13100 59.75300 42.00200
H  1.63500 54.11100 42.04700
H  1.84200 55.40800 43.29700
H  2.41700 53.88600 43.68700
H  6.55000 51.32600 41.10700
H  3.93500 50.19600 37.77700
H  4.01500 48.58500 38.61400
H  5.34500 49.13500 37.70700

