158

Mg 24.80600 -7.50900 48.55200
C  27.24200 -5.26700 46.91900
C  22.56600 -6.28100 46.24700
C  22.81000 -9.72000 49.83000
C  27.57900 -9.08000 50.07600
N  24.94300 -5.85700 46.77200
C  25.98500 -5.03500 46.39700
C  25.49600 -4.02800 45.32900
C  23.93400 -4.39200 45.25800
C  23.73500 -5.50800 46.24500
C  23.07200 -3.09100 45.40400
C  26.22700 -4.06800 43.94300
C  26.64600 -2.70700 43.34900
H  26.53900 -2.51000 41.86800
N  22.94500 -7.93300 48.12800
C  22.26700 -7.32000 47.08500
C  20.95100 -7.96700 47.09900
C  20.92600 -8.88200 48.20000
C  22.23800 -8.83600 48.81600
C  19.75600 -7.62100 46.11000
C  19.78800 -9.78600 48.55100
O  18.63700 -9.62200 48.07100
C  19.93100 -10.90500 49.54500
N  25.17300 -9.19100 49.76200
C  24.12600 -9.91800 50.21600
C  24.57200 -10.97600 51.18700
C  26.11500 -10.87900 51.14200
C  26.28800 -9.62600 50.29300
C  24.04500 -10.88600 52.67300
C  26.90900 -12.08300 50.56800
C  28.04600 -12.69200 51.47500
N  26.96600 -7.26800 48.62000
C  27.93300 -7.93800 49.35000
C  29.21200 -7.40000 49.10300
C  28.99300 -6.26200 48.34700
C  27.57000 -6.31600 47.91500
C  30.50300 -8.03800 49.62600
C  29.70500 -5.13900 47.67600
O  30.85800 -4.83100 47.71500
C  28.49800 -4.39200 46.74800
C  28.26800 -3.02200 47.26600
O  27.86500 -2.65500 48.36400
O  28.64600 -2.15700 46.35700
C  28.21600 -0.80700 46.56100
H  21.77200 -5.93300 45.58300
H  22.24600 -10.54300 50.27500
H  28.34300 -9.69600 50.55600
H  25.63100 -3.02400 45.73100
H  23.50200 -4.79000 44.34000
H  22.73700 -2.85700 46.41400
H  22.13900 -3.32300 44.88900
H  23.51100 -2.24700 44.87200
H  25.49500 -4.43100 43.22200
H  27.09600 -4.72600 43.91800
H  27.67000 -2.45200 43.62300
H  25.95300 -1.96800 43.75400
H  19.88800 -8.22100 45.21000
H  19.82400 -6.60000 45.73500
H  18.76200 -7.87300 46.47800
H  20.57700 -11.63400 49.05500
H  18.95000 -11.33700 49.74100
H  20.29500 -10.57300 50.51800
H  24.21500 -11.97200 50.92500
H  26.52700 -10.69000 52.13400
H  23.99500 -9.86100 53.04100
H  24.68500 -11.50300 53.30400
H  23.05100 -11.32300 52.76100
H  27.35500 -11.89300 49.59100
H  26.22000 -12.92700 50.56800
H  29.06500 -12.61700 51.09500
H  27.79900 -13.72600 51.71500
H  27.92300 -12.18200 52.43100
H  30.31800 -9.09300 49.42700
H  30.46500 -7.89700 50.70700
H  31.42400 -7.65700 49.18600
H  28.81700 -4.26700 45.71300
H  28.65200 -0.29300 47.41700
H  27.13000 -0.71500 46.53500
H  28.45500 -0.23800 45.66300
Mg 6.49000 53.92000 41.40100
C  6.09700 50.31800 41.17200
C  9.80500 53.43700 40.25200
C  6.65700 57.23800 40.89100
C  2.97600 54.08100 41.65100
N  7.75700 52.02300 40.52700
C  7.42400 50.75600 40.79500
C  8.64500 49.88500 40.47700
C  9.80300 50.90600 40.54900
C  9.08900 52.24500 40.45600
C  10.91100 50.63100 41.63200
C  8.59400 49.00700 39.20500
C  7.84700 49.75700 37.95400
H  7.20000 48.97600 36.82100
N  8.00000 55.13800 40.69600
C  9.28900 54.79200 40.31500
C  9.95800 55.91600 39.86000
C  9.18300 57.03600 40.14400
C  7.85900 56.52300 40.59200
C  11.33100 55.97300 39.17800
C  9.58800 58.49300 39.82300
O  10.72100 58.76000 39.49700
C  8.74100 59.68000 40.14600
N  4.96900 55.40500 41.17300
C  5.38500 56.75900 41.24200
C  4.18800 57.66700 41.54100
C  3.02100 56.60900 41.87400
C  3.63500 55.30400 41.53300
C  4.38700 58.73300 42.60600
C  1.74000 56.94700 41.22000
C  0.47900 57.07400 42.15600
N  4.76900 52.54000 41.52400
C  3.44100 52.77500 41.69100
C  2.73500 51.49300 41.80500
C  3.75500 50.55000 41.73200
C  4.92900 51.20500 41.46400
C  1.21300 51.21500 42.01600
C  4.07500 49.17500 41.74400
O  3.33900 48.20400 41.90400
C  5.59900 48.89500 41.44200
C  5.49600 48.03100 40.17500
O  5.06900 48.47200 39.10600
O  5.66900 46.69600 40.33600
C  5.22600 45.87700 39.20500
H  10.86800 53.28500 40.05600
H  6.60800 58.32200 40.77100
H  1.91600 54.15800 41.90300
H  8.65900 49.14900 41.28100
H  10.47900 50.84800 39.69700
H  11.01000 51.47500 42.31600
H  11.84800 50.60700 41.07600
H  10.66700 49.75500 42.23200
H  8.03800 48.12100 39.51300
H  9.56900 48.66400 38.86000
H  8.62400 50.24200 37.36300
H  7.20600 50.58700 38.24800
H  11.32400 56.10800 38.09600
H  11.65000 54.93200 39.22600
H  12.00600 56.65000 39.70200
H  7.99900 59.81200 39.35900
H  9.51200 60.44700 40.22100
H  8.29600 59.47600 41.12000
H  3.97000 58.24900 40.64600
H  2.93400 56.53800 42.95800
H  4.32200 59.73600 42.18400
H  5.37000 58.54500 43.03500
H  3.69500 58.75200 43.44800
H  1.47700 56.26300 40.41300
H  1.87000 57.88000 40.67100
H  -0.29900 57.63100 41.63400
H  0.82200 57.53700 43.08200
H  0.05600 56.10100 42.40500
H  1.06500 50.33600 42.64400
H  0.58400 51.10200 41.13400
H  0.65400 52.00700 42.51500
H  6.21300 48.37500 42.17700
H  5.42900 44.84300 39.48700
H  5.73500 46.04700 38.25600
H  4.15000 46.04000 39.16200

