158

Mg 24.42400 -5.67200 45.61800
C  26.35600 -3.18500 44.17300
C  21.91200 -4.74800 43.47600
C  22.82000 -8.63000 46.25400
C  27.28100 -6.87400 47.30300
N  24.19000 -4.12900 43.94300
C  25.05100 -3.12200 43.72100
C  24.46600 -2.00100 42.78200
C  22.97500 -2.49200 42.63800
C  22.99400 -3.92000 43.42400
C  21.83700 -1.54900 43.21300
C  25.33800 -1.72100 41.47100
C  25.44900 -0.30800 40.81000
H  24.79800 -0.16300 39.42500
N  22.54500 -6.53000 45.01300
C  21.68300 -5.94800 44.18900
C  20.48000 -6.74200 44.11700
C  20.63300 -7.82600 45.08200
C  22.05200 -7.70400 45.53700
C  19.34700 -6.31200 43.33400
C  19.53200 -8.75200 45.52000
O  18.34400 -8.52000 45.20800
C  19.89900 -9.79000 46.54700
N  24.90600 -7.47100 46.63500
C  24.07000 -8.56400 46.78600
C  24.81400 -9.77500 47.43100
C  26.09600 -9.08500 47.95800
C  26.11900 -7.68200 47.29100
C  23.92200 -10.46400 48.46100
C  27.32800 -9.97700 47.66300
C  28.19300 -10.08300 48.93000
N  26.39200 -5.12600 45.84600
C  27.40500 -5.61400 46.65000
C  28.64700 -4.90800 46.41700
C  28.24600 -3.90300 45.49900
C  26.87100 -4.08200 45.16000
C  29.98600 -5.18000 47.10100
C  28.72200 -2.72700 44.75600
O  29.86200 -2.29800 44.66500
C  27.57700 -2.22800 43.87500
C  27.33700 -0.84500 44.40700
O  26.54000 -0.54800 45.28100
O  27.92600 0.08000 43.61900
C  27.39800 1.48500 43.64600
H  21.09600 -4.43100 42.82400
H  22.41000 -9.58500 46.59100
H  28.21600 -7.21800 47.75000
H  24.41100 -1.14300 43.45300
H  22.74600 -2.83900 41.63000
H  22.38600 -0.62700 43.40500
H  21.36400 -1.91100 44.12600
H  21.00500 -1.37500 42.53000
H  24.75800 -2.23800 40.70600
H  26.30100 -2.20600 41.62700
H  26.46400 0.06200 40.66500
H  24.81100 0.29300 41.45800
H  18.64600 -7.09400 43.04200
H  19.66000 -5.80800 42.41900
H  18.88800 -5.51100 43.91400
H  19.06400 -10.26600 47.06000
H  20.49900 -9.52800 47.41900
H  20.51500 -10.56000 46.08300
H  25.11000 -10.50200 46.67400
H  26.04400 -8.95400 49.03900
H  22.94700 -9.98200 48.52300
H  24.20700 -10.56700 49.50800
H  23.62500 -11.47000 48.16300
H  27.94000 -9.45700 46.92600
H  27.03800 -10.97000 47.32100
H  28.47500 -9.06500 49.19700
H  29.15800 -10.51300 48.66200
H  27.68100 -10.64000 49.71400
H  30.63900 -4.30800 47.09000
H  30.54000 -6.08800 46.86400
H  29.75000 -5.45100 48.13000
H  27.95600 -2.24400 42.85300
H  28.24500 2.10300 43.94500
H  26.68900 1.70600 44.44400
H  27.07200 1.78000 42.64900
Mg 53.55700 24.72700 45.69100
C  51.07900 26.93500 44.38400
C  52.08400 22.26600 43.75600
C  56.06600 22.85000 46.47100
C  54.99000 27.54400 47.13600
N  51.87200 24.70800 44.06100
C  51.04900 25.69700 43.72100
C  50.05000 25.24600 42.74700
C  50.24400 23.70100 42.77100
C  51.45000 23.49700 43.61800
C  48.92600 22.83600 43.16200
C  50.07400 25.81000 41.31400
C  51.42600 26.37100 40.92100
H  52.14200 25.53600 39.81000
N  54.04100 22.83100 45.13800
C  53.29700 21.92500 44.51000
C  53.70800 20.56200 44.71400
C  54.85200 20.73900 45.57300
C  55.05700 22.18600 45.76000
C  52.85000 19.37600 44.30700
C  55.68100 19.58200 46.09800
O  55.33000 18.42400 45.89700
C  56.82800 19.78700 46.99400
N  55.31500 25.21200 46.38100
C  56.25500 24.23500 46.69900
C  57.40500 24.75100 47.49300
C  57.14700 26.24000 47.42800
C  55.74000 26.34600 46.95800
C  57.57700 24.16300 48.90400
C  58.27600 26.94600 46.60300
C  57.88400 27.68400 45.25500
N  53.09100 26.84000 45.86400
C  53.71300 27.76000 46.57000
C  52.94800 28.99500 46.61800
C  51.83000 28.68000 45.82400
C  52.00500 27.36500 45.28600
C  53.27000 30.20000 47.42300
C  50.60500 29.21000 45.27300
O  50.08800 30.31100 45.45000
C  50.01000 28.08800 44.40500
C  49.85400 28.66700 43.03000
O  50.74400 29.07200 42.26600
O  48.49900 28.81300 42.81100
C  48.02700 29.35500 41.53000
H  51.64500 21.48000 43.13800
H  56.89700 22.32100 46.94000
H  55.36600 28.45100 47.61400
H  49.05400 25.51600 43.10000
H  50.37600 23.35400 41.74600
H  48.32100 22.73800 42.26100
H  48.30600 23.35700 43.89100
H  49.28400 21.92100 43.63400
H  49.38300 26.64900 41.23500
H  49.84000 25.02900 40.59200
H  52.20400 26.45400 41.68000
H  51.36200 27.36900 40.48700
H  52.78000 19.14900 43.24300
H  51.91700 19.53300 44.84800
H  53.23600 18.52400 44.86600
H  57.18400 18.83100 47.37900
H  56.59500 20.41300 47.85500
H  57.62600 20.27500 46.43400
H  58.30800 24.46800 46.95300
H  57.01300 26.69900 48.40800
H  58.55200 23.67700 48.87800
H  56.68600 23.55500 49.05800
H  57.56000 24.83200 49.76500
H  59.08300 26.24900 46.38100
H  58.66500 27.68300 47.30600
H  56.92200 27.38200 44.84200
H  58.57200 27.42600 44.44900
H  57.90300 28.74200 45.51400
H  53.87500 30.81000 46.75300
H  53.73200 30.02800 48.39500
H  52.39800 30.84000 47.56200
H  49.05100 27.73700 44.78500
H  47.10000 29.90500 41.68900
H  47.79100 28.54300 40.84200
H  48.76900 30.01800 41.08500

