158

Mg 23.18800 -7.86200 45.47500
C  25.58200 -5.55800 44.52800
C  21.01300 -6.28000 43.29000
C  21.07200 -10.40900 45.89700
C  25.69500 -9.59500 47.16800
N  23.32900 -6.18800 44.01800
C  24.37500 -5.31400 43.84900
C  24.06500 -4.20900 42.81000
C  22.50600 -4.41300 42.60300
C  22.28500 -5.72200 43.28000
C  21.55600 -3.25500 43.13200
C  24.95700 -4.25000 41.51700
C  25.64400 -2.94100 41.08700
H  25.83000 -2.57700 39.55400
N  21.25400 -8.24100 44.87500
C  20.52600 -7.49200 43.94600
C  19.17500 -7.97700 43.89000
C  19.21300 -9.18500 44.71300
C  20.50800 -9.28800 45.26200
C  18.09900 -7.39100 43.01600
C  17.96300 -9.99300 45.03100
O  16.98800 -9.76200 44.34500
C  17.77700 -10.92300 46.14200
N  23.50100 -9.92800 46.17300
C  22.39400 -10.68100 46.39300
C  22.75000 -11.86900 47.31000
C  24.12500 -11.47300 47.81500
C  24.50300 -10.29000 47.00800
C  21.64900 -12.29800 48.34000
C  25.20300 -12.72800 47.91000
C  25.65600 -13.36400 46.53800
N  25.20800 -7.58700 45.86000
C  26.04100 -8.40500 46.63500
C  27.31400 -7.70800 46.67900
C  27.23700 -6.62000 45.87500
C  25.91600 -6.61600 45.39900
C  28.60800 -8.26800 47.34300
C  27.91800 -5.42200 45.36200
O  29.00900 -5.00200 45.66100
C  26.88300 -4.79100 44.33700
C  26.63700 -3.42400 44.75500
O  26.10600 -3.08400 45.85200
O  27.27000 -2.60000 43.87700
C  27.19000 -1.22700 44.18500
H  20.25500 -5.69100 42.77100
H  20.42100 -11.25300 46.13400
H  26.48300 -10.12200 47.71000
H  24.29100 -3.27600 43.32600
H  22.42100 -4.56000 41.52600
H  20.88700 -2.98800 42.31300
H  22.04300 -2.30600 43.35400
H  20.94500 -3.52700 43.99200
H  24.41300 -4.64400 40.65900
H  25.70900 -5.00600 41.74500
H  26.67300 -2.83100 41.43100
H  24.99400 -2.11900 41.38700
H  17.47100 -8.17500 42.59300
H  18.64800 -6.87300 42.23000
H  17.64200 -6.54200 43.52400
H  18.36300 -10.47200 46.94300
H  18.24000 -11.82800 45.74800
H  16.82800 -11.15300 46.62500
H  22.95600 -12.70200 46.63900
H  23.99200 -11.04700 48.81000
H  21.26200 -13.28700 48.09500
H  20.73600 -11.70400 48.39600
H  22.00500 -12.17100 49.36300
H  24.73800 -13.50700 48.51400
H  26.06300 -12.49300 48.53700
H  26.65200 -12.99300 46.30000
H  24.97400 -13.22600 45.69900
H  25.75900 -14.44100 46.67200
H  29.10200 -9.02500 46.73300
H  28.48200 -8.50100 48.40000
H  29.31000 -7.43500 47.31000
H  27.26900 -4.82400 43.31800
H  26.20600 -0.80600 44.39200
H  27.48400 -0.53600 43.39500
H  27.78500 -1.01100 45.07200
Mg 9.19500 47.32300 28.04700
C  7.49000 46.93500 31.06700
C  12.03600 47.61800 29.80000
C  10.62800 48.43200 25.13900
C  6.06200 47.36100 26.40700
N  9.65700 47.41100 30.29300
C  8.85500 47.02000 31.24400
C  9.58800 46.98800 32.60700
C  11.04400 47.33800 32.14500
C  10.94600 47.47500 30.65800
C  11.69300 48.53600 32.84200
C  9.50900 45.66100 33.45500
C  9.31900 45.85300 34.96700
H  10.00900 44.94100 35.96500
N  11.12600 47.70600 27.45000
C  12.15000 47.77400 28.36400
C  13.40700 47.99700 27.55000
C  13.02300 48.17300 26.18200
C  11.58300 48.12100 26.20300
C  14.89600 47.86800 28.19600
C  13.85100 48.25500 24.91900
O  13.41300 48.15200 23.79100
C  15.32000 48.36800 25.17900
N  8.38200 47.93700 26.05800
C  9.22800 48.37800 25.04100
C  8.39800 48.88600 23.81800
C  7.05000 48.23900 24.09000
C  7.14500 47.70900 25.59700
C  8.41800 50.40100 23.64800
C  6.70800 47.11500 23.01500
C  6.56200 47.65000 21.57500
N  7.10400 47.18700 28.49700
C  5.97600 47.31700 27.77600
C  4.79200 47.20300 28.67200
C  5.30900 47.02900 29.97700
C  6.75400 47.07700 29.82000
C  3.34900 47.19300 28.27600
C  4.98100 46.86600 31.41000
O  3.90300 46.82300 31.94300
C  6.32400 46.60300 32.10900
C  6.25000 45.16200 32.55000
O  6.66700 44.22100 31.96900
O  5.63700 45.17200 33.75400
C  5.76200 43.81800 34.46100
H  12.94800 47.73800 30.38800
H  11.13500 48.73900 24.22200
H  5.18300 47.43100 25.76300
H  9.22900 47.81500 33.22000
H  11.74300 46.51400 32.29000
H  11.52500 49.43600 32.25000
H  12.72400 48.20100 32.73500
H  11.39800 48.58300 33.89100
H  10.41500 45.06300 33.36200
H  8.65400 45.08100 33.10700
H  8.26700 45.82800 35.25300
H  9.68800 46.85100 35.20200
H  14.90700 48.02300 29.27500
H  15.44800 48.74000 27.84500
H  15.26200 46.85900 28.00500
H  15.59900 49.30300 25.66500
H  15.74100 48.35000 24.17400
H  15.70700 47.50700 25.72400
H  8.82500 48.37700 22.95400
H  6.20600 48.91600 23.95800
H  8.81200 50.82200 24.57300
H  7.37000 50.65000 23.48300
H  8.96200 50.82100 22.80100
H  5.73500 46.67400 23.23300
H  7.43200 46.30200 23.05800
H  7.34500 47.23900 20.93800
H  6.69400 48.73100 21.62100
H  5.61300 47.32100 21.15400
H  3.26200 47.25100 27.19100
H  2.85600 47.98500 28.83900
H  2.82300 46.26900 28.51600
H  6.46800 47.18800 33.01700
H  6.63200 43.21200 34.20600
H  4.90500 43.21200 34.17000
H  5.71000 43.83900 35.54900

