158

Mg 0.78400 8.35400 25.24100
C  1.51200 10.24100 28.12000
C  0.95700 5.48800 27.17200
C  0.82000 6.61700 22.40000
C  0.97400 11.40100 23.39700
N  1.09000 7.92400 27.41500
C  1.29500 8.83400 28.36000
C  1.32000 8.18100 29.82100
C  1.32100 6.69700 29.48100
C  1.04900 6.67300 27.92500
C  2.61500 5.94900 29.80300
C  0.29900 8.69700 30.84000
C  0.62800 8.41700 32.34000
H  1.90900 7.62200 32.71700
N  0.77600 6.32800 24.83200
C  0.82600 5.31300 25.75900
C  0.85400 3.98000 25.06600
C  0.77500 4.28100 23.67800
C  0.82800 5.81000 23.59300
C  0.90300 2.62900 25.75800
C  0.63600 3.37700 22.46700
O  0.62500 3.80200 21.29400
C  0.36200 1.92300 22.66600
N  0.85900 8.95500 23.24400
C  0.86100 8.01900 22.25700
C  0.55600 8.65900 20.84700
C  0.71600 10.15900 21.17200
C  0.80500 10.18300 22.69200
C  1.43000 8.21100 19.70400
C  -0.40500 11.00200 20.53200
C  -1.71000 11.18300 21.36700
N  0.95400 10.52000 25.70100
C  1.08900 11.54000 24.79900
C  1.45200 12.76000 25.55000
C  1.62200 12.33900 26.88500
C  1.26500 10.94400 26.93900
C  1.64600 14.13000 24.91800
C  1.91800 12.72600 28.20300
O  2.20900 13.81100 28.67200
C  1.98600 11.45100 29.11200
C  3.25600 11.04600 29.81200
O  3.90300 10.13600 29.43600
O  3.40600 11.89600 30.90300
C  4.62300 11.53000 31.73400
H  1.09000 4.58700 27.77400
H  0.77600 6.01800 21.48900
H  1.04500 12.33200 22.83100
H  2.27400 8.43400 30.28400
H  0.40700 6.31200 29.93400
H  2.27600 5.09800 30.39300
H  3.35200 6.49400 30.39400
H  3.13600 5.52200 28.94600
H  -0.68400 8.24500 30.70400
H  0.21600 9.78000 30.75900
H  -0.19900 7.81100 32.70900
H  0.69000 9.32100 32.94700
H  -0.07000 2.17300 25.58000
H  0.99600 2.71200 26.84100
H  1.70500 1.95700 25.45100
H  1.14100 1.48500 23.29100
H  0.41900 1.35600 21.73800
H  -0.63500 1.87300 23.10200
H  -0.48000 8.43100 20.60000
H  1.69300 10.42200 20.76500
H  0.86100 7.46200 19.15300
H  2.35600 7.69900 19.96700
H  1.59000 9.07600 19.06000
H  -0.58500 10.44300 19.61400
H  -0.09800 12.01500 20.27300
H  -2.51700 11.18500 20.63300
H  -1.66500 12.06300 22.00900
H  -1.88100 10.26400 21.92700
H  1.73800 14.16300 23.83300
H  2.50300 14.53600 25.45500
H  0.70600 14.66000 25.07300
H  1.37000 11.68900 29.97900
H  4.71000 12.29900 32.50100
H  5.50600 11.56700 31.09700
H  4.53300 10.55700 32.21600
Mg -10.92100 16.37300 41.90400
C  -7.56700 15.66900 41.72400
C  -10.32000 19.47400 40.64200
C  -14.21800 16.70000 41.70800
C  -11.43600 12.93300 42.80000
N  -9.13100 17.38200 41.14200
C  -7.86500 16.97400 41.21600
C  -6.95400 18.13100 40.73800
C  -7.84200 19.37200 40.61200
C  -9.19900 18.71600 40.86800
C  -7.58400 20.61600 41.56600
C  -6.17500 17.80000 39.36100
C  -4.76900 18.23200 39.21200
H  -4.17600 18.59700 37.86900
N  -12.14500 17.94400 41.20600
C  -11.71700 19.18000 40.71100
C  -12.86200 20.02300 40.44200
C  -14.03700 19.28200 40.85000
C  -13.51500 17.88900 41.23900
C  -12.74400 21.46000 39.91300
C  -15.49300 19.80400 40.83200
O  -15.69400 20.93700 40.38000
C  -16.68100 19.07800 41.20200
N  -12.58400 14.95100 42.04700
C  -13.86500 15.40100 42.04100
C  -14.81800 14.27000 42.43700
C  -13.99600 13.02700 42.34700
C  -12.56600 13.66100 42.51800
C  -15.35100 14.48400 43.87800
C  -14.15900 12.28500 41.01200
C  -15.58200 11.64700 40.68300
N  -9.78300 14.62300 42.24000
C  -10.10900 13.29600 42.54200
C  -8.96000 12.50800 42.71900
C  -7.93100 13.45200 42.43900
C  -8.44500 14.76700 42.27000
C  -8.92900 11.07700 43.20400
C  -6.47500 13.50000 42.37200
O  -5.61500 12.63300 42.52700
C  -6.17700 14.97700 41.91700
C  -5.17500 15.67300 42.87100
O  -5.29700 15.95500 44.06400
O  -4.15300 16.08100 42.06000
C  -2.90300 16.79000 42.58600
H  -9.99100 20.44100 40.25700
H  -15.29300 16.89400 41.70600
H  -11.63300 11.88800 43.04800
H  -6.24300 18.26400 41.55400
H  -7.87200 19.81300 39.61500
H  -7.87400 21.51400 41.02000
H  -6.51800 20.74200 41.75100
H  -8.20800 20.54500 42.45700
H  -6.80800 18.28500 38.61700
H  -6.33800 16.74000 39.16600
H  -4.16200 17.36500 39.47400
H  -4.51100 19.03800 39.89800
H  -13.31000 21.59200 38.99100
H  -11.70100 21.77100 39.95700
H  -13.24500 22.06000 40.67300
H  -17.60600 19.65500 41.23800
H  -16.55000 18.85300 42.26100
H  -16.86900 18.17100 40.62700
H  -15.66700 14.17500 41.76100
H  -14.15300 12.26400 43.10800
H  -16.44000 14.53000 43.84800
H  -14.91100 15.38200 44.31200
H  -15.07700 13.74400 44.63000
H  -13.26500 11.69200 40.81700
H  -13.99100 13.03600 40.24000
H  -15.56800 10.56700 40.83000
H  -15.83900 11.80600 39.63600
H  -16.32900 12.03200 41.37800
H  -7.99000 10.58900 42.94400
H  -9.73300 10.42900 42.85400
H  -8.98500 10.90700 44.27900
H  -5.63700 14.86900 40.97600
H  -3.07100 17.15900 43.59700
H  -2.66800 17.58100 41.87300
H  -2.10800 16.04900 42.50300

