158

Mg 44.78400 4.00100 47.58200
C  42.30600 6.64600 47.15300
C  42.13800 1.76800 47.29300
C  46.93700 1.73500 47.43100
C  47.32400 6.50800 47.20500
N  42.54200 4.23300 47.23400
C  41.73300 5.35400 47.13400
C  40.25200 5.02000 46.97400
C  40.26300 3.53500 47.33400
C  41.71200 3.10500 47.27700
C  39.50300 3.26700 48.66900
C  39.54600 5.28100 45.58900
C  38.55800 6.46200 45.42400
H  38.42500 7.16100 43.99200
N  44.59500 2.02900 47.52600
C  43.44100 1.19800 47.38300
C  43.84600 -0.12900 47.58500
C  45.27600 -0.17000 47.61100
C  45.66700 1.24500 47.52000
C  42.87100 -1.23900 47.66000
C  46.17500 -1.44700 47.88600
O  45.72200 -2.53100 48.07100
C  47.66900 -1.39100 47.88300
N  46.87200 4.15700 47.29200
C  47.49800 2.98100 47.33800
C  49.05100 3.18700 47.37100
C  49.17300 4.71600 47.24000
C  47.70200 5.17200 47.25300
C  49.94600 2.62200 48.44000
C  49.93900 5.22000 45.94400
C  51.19800 6.00700 46.28300
N  44.89000 6.16900 47.30600
C  45.96200 7.05400 47.18200
C  45.49900 8.40800 46.98200
C  44.07000 8.26000 47.04000
C  43.75800 6.91500 47.27500
C  46.27200 9.73100 46.72000
C  42.85600 9.02800 46.86600
O  42.71600 10.23000 46.66500
C  41.65900 7.97800 46.91200
C  40.63500 8.46700 47.95300
O  40.54400 7.97600 49.09000
O  39.78200 9.42800 47.41800
C  38.65500 9.93800 48.20300
H  41.22600 1.18800 47.14100
H  47.79100 1.06400 47.53700
H  48.17000 7.19500 47.27200
H  39.64400 5.60400 47.66600
H  39.87100 2.91600 46.52700
H  40.23300 2.77600 49.31200
H  38.58200 2.68400 48.65200
H  39.19200 4.16000 49.21100
H  39.03200 4.37700 45.26300
H  40.24000 5.51500 44.78200
H  38.93000 7.17700 46.15800
H  37.52900 6.15300 45.60700
H  41.87100 -0.85200 47.46300
H  43.01200 -1.69300 48.64100
H  42.96800 -1.94800 46.83700
H  48.03300 -1.00100 46.93200
H  48.01500 -2.41600 48.01600
H  48.00700 -0.76800 48.71200
H  49.44300 2.81500 46.42400
H  49.59100 5.02600 48.19800
H  49.33300 1.96900 49.06000
H  50.39800 3.37300 49.08800
H  50.81100 2.10000 48.03100
H  49.31000 5.91800 45.39100
H  50.17900 4.43000 45.23200
H  51.24000 6.36000 47.31300
H  51.42000 6.83500 45.61000
H  52.00300 5.27400 46.33500
H  46.79100 9.65800 45.76500
H  47.08200 9.80600 47.44600
H  45.66600 10.63700 46.73400
H  41.31800 7.92100 45.87800
H  38.39700 10.96800 47.95700
H  38.91800 9.90300 49.26100
H  37.75600 9.33600 48.07400
Mg 1.04700 43.51600 25.91600
C  2.57300 43.78500 29.06800
C  -1.71500 42.08200 27.32700
C  0.05000 42.84400 22.85400
C  4.13200 44.68600 24.49300
N  0.49300 43.02200 28.00200
C  1.26600 43.26600 29.11400
C  0.46100 42.77600 30.39700
C  -0.82300 42.26000 29.74400
C  -0.69200 42.44200 28.29500
C  -1.11000 40.78100 30.09500
C  0.26000 43.95600 31.47900
C  -0.73600 43.74100 32.70800
H  -1.00900 42.36000 33.20500
N  -0.63900 42.71300 25.21400
C  -1.66200 42.16900 25.90400
C  -2.66000 41.62300 25.01700
C  -2.22300 41.94300 23.73000
C  -0.91900 42.57600 23.89100
C  -3.89200 41.02900 25.48700
C  -2.88400 41.53600 22.36000
O  -2.28200 41.66100 21.32000
C  -4.19800 40.83600 22.37100
N  2.03100 43.73700 23.96300
C  1.40400 43.27800 22.87200
C  2.08500 43.79900 21.60100
C  3.32000 44.58300 22.04600
C  3.14700 44.39000 23.60800
C  2.33100 42.65000 20.61500
C  3.40400 46.06600 21.52900
C  2.10400 46.92800 21.75100
N  2.97900 44.00700 26.60100
C  4.10000 44.42400 25.88100
C  5.25500 44.48500 26.79700
C  4.73100 44.29000 28.13100
C  3.30000 44.01800 27.92300
C  6.70700 44.72100 26.40400
C  4.95500 44.20600 29.51400
O  5.99200 44.47900 30.16400
C  3.61100 43.87900 30.14500
C  3.74000 42.71400 30.96000
O  3.90800 41.62700 30.48100
O  3.63200 42.90600 32.29100
C  3.43400 41.70400 33.07700
H  -2.59000 41.53400 27.68300
H  -0.26700 42.46000 21.88200
H  4.91400 45.31500 24.06200
H  1.14900 41.98800 30.70300
H  -1.68200 42.81300 30.12500
H  -2.07300 40.64400 30.58800
H  -0.32200 40.42500 30.75800
H  -1.06800 40.21700 29.16300
H  -0.08700 44.80000 30.88200
H  1.21100 44.29600 31.88900
H  -1.67300 44.28900 32.60900
H  -0.32200 44.17300 33.61900
H  -4.15700 41.30700 26.50700
H  -3.84000 39.94300 25.41900
H  -4.78200 41.30000 24.92000
H  -4.96200 41.56200 22.65000
H  -4.18900 39.95700 23.01500
H  -4.57600 40.36700 21.46200
H  1.34400 44.41100 21.08700
H  4.21300 44.07700 21.67900
H  2.27800 41.64400 21.03000
H  3.22900 42.91300 20.05500
H  1.58200 42.70500 19.82600
H  3.47400 46.04000 20.44100
H  4.21900 46.59400 22.02500
H  1.45200 46.30400 22.36300
H  1.51200 47.04900 20.84400
H  2.25900 47.90000 22.22100
H  7.27200 44.16000 27.14900
H  6.93400 45.78400 26.47400
H  6.87700 44.39700 25.37600
H  3.34700 44.65600 30.86300
H  4.31800 41.29200 33.56300
H  2.99000 40.93200 32.44800
H  2.62900 41.92900 33.77600

