158

Mg 1.77500 -1.05300 43.97900
C  5.13100 -0.40200 43.59100
C  0.95900 1.95500 42.26000
C  -1.41400 -1.81000 43.94100
C  2.61400 -4.29400 44.87000
N  2.94500 0.61000 43.05000
C  4.30200 0.60900 43.05100
C  4.74000 1.85800 42.30600
C  3.42100 2.81200 42.23100
C  2.32200 1.80300 42.60800
C  3.39500 3.93100 43.32000
C  5.33300 1.46600 40.89700
C  6.23800 2.58500 40.33000
H  5.67900 3.29100 39.09700
N  -0.03400 -0.05300 43.35200
C  -0.11900 1.11400 42.63100
C  -1.47300 1.43400 42.29000
C  -2.29500 0.40500 42.77800
C  -1.30900 -0.52600 43.42200
C  -1.79700 2.72000 41.55000
C  -3.78500 0.26300 42.65200
O  -4.46100 1.07600 42.06300
C  -4.49800 -0.68800 43.57500
N  0.73500 -2.78000 44.23200
C  -0.59900 -2.83600 44.25400
C  -1.21300 -4.20100 44.78500
C  0.08600 -5.03700 45.11000
C  1.26100 -4.01300 44.68800
C  -2.24500 -4.09700 45.96100
C  0.31100 -6.39200 44.53900
C  1.00800 -7.46500 45.45400
N  3.47200 -2.10300 44.31400
C  3.67100 -3.38900 44.67800
C  5.10900 -3.69900 44.92600
C  5.72400 -2.52900 44.47400
C  4.68200 -1.62000 44.13300
C  5.69800 -4.96000 45.34000
C  6.98800 -1.83300 44.28300
O  8.11400 -2.21300 44.58900
C  6.64000 -0.44000 43.65400
C  7.16800 0.74000 44.47200
O  7.08000 0.91500 45.67700
O  7.71100 1.72600 43.66600
C  8.53300 2.80600 44.35600
H  0.70100 2.87100 41.72400
H  -2.45400 -2.14200 43.90100
H  2.90900 -5.27900 45.23800
H  5.58800 2.27600 42.84800
H  3.26800 3.18600 41.21900
H  4.29700 3.98100 43.92900
H  2.53300 3.79200 43.97300
H  3.34300 4.88400 42.79300
H  4.48900 1.20800 40.25800
H  5.89900 0.53800 40.97100
H  7.26300 2.25900 40.15300
H  6.31000 3.35700 41.09600
H  -1.16400 2.81900 40.66800
H  -1.54600 3.59000 42.15700
H  -2.87000 2.84700 41.40600
H  -5.54400 -0.39900 43.67100
H  -4.05100 -0.71400 44.56900
H  -4.36000 -1.61600 43.02000
H  -1.80500 -4.64100 43.98300
H  0.17400 -5.12400 46.19300
H  -1.99100 -4.81800 46.73800
H  -3.25000 -4.16900 45.54500
H  -2.25300 -3.11300 46.43100
H  0.90300 -6.31700 43.62600
H  -0.68200 -6.71600 44.22900
H  0.37100 -8.35000 45.43700
H  1.17000 -7.26400 46.51300
H  2.00300 -7.72800 45.09600
H  6.67000 -4.86000 45.82300
H  5.89000 -5.52500 44.42700
H  5.07200 -5.63500 45.92200
H  7.18100 -0.32600 42.71400
H  8.31900 3.78600 43.93000
H  9.60700 2.67500 44.22000
H  8.30800 2.97900 45.40800
Mg 47.94100 15.30100 28.53100
C  45.91900 14.94800 31.31200
C  49.88400 17.49700 30.35200
C  49.66500 16.06600 25.74400
C  45.67100 13.31400 26.75600
N  47.86400 16.10500 30.66200
C  46.98200 15.74300 31.61000
C  47.26500 16.54300 32.92700
C  48.54000 17.39200 32.56700
C  48.76200 17.00100 31.05200
C  48.46700 18.81100 32.90000
C  47.36300 15.61800 34.18200
C  46.87800 16.24500 35.49300
H  47.87500 16.15500 36.69200
N  49.57600 16.59600 28.10900
C  50.23300 17.38700 29.01700
C  51.35400 17.93200 28.37500
C  51.43600 17.48900 27.04000
C  50.20900 16.65700 26.89700
C  52.46500 18.70300 29.15800
C  52.52500 17.54400 25.98200
O  52.38500 16.95400 24.89300
C  53.88000 18.14100 26.22900
N  47.63100 14.84900 26.51500
C  48.57000 15.12600 25.56700
C  48.33800 14.30500 24.26800
C  47.19000 13.35700 24.71300
C  46.77300 13.86200 26.07400
C  48.00100 15.25800 23.09300
C  47.62600 11.83500 24.48900
C  48.11700 11.05900 25.72300
N  46.20000 14.21800 28.89700
C  45.30700 13.52500 28.10600
C  44.06000 13.17100 28.84800
C  44.29700 13.70000 30.10600
C  45.59300 14.31000 30.06200
C  42.89700 12.42200 28.32100
C  43.80200 13.71900 31.43500
O  42.83200 13.15300 31.85600
C  44.73500 14.53500 32.26300
C  43.92200 15.71000 32.66300
O  43.74500 16.77600 32.11200
O  43.47300 15.44400 33.91700
C  42.47600 16.39700 34.43100
H  50.51600 18.01500 31.07600
H  50.17800 16.28000 24.80400
H  44.98800 12.72400 26.14000
H  46.46800 17.26400 33.11400
H  49.40000 16.93900 33.06100
H  47.62200 18.86600 33.58600
H  48.17700 19.44300 32.06100
H  49.43200 19.13500 33.29000
H  48.42400 15.40100 34.30000
H  46.84100 14.69100 33.94700
H  45.95000 15.70900 35.69200
H  46.57400 17.29100 35.44200
H  52.41200 18.69500 30.24700
H  52.50600 19.75200 28.86200
H  53.39200 18.18600 28.91300
H  54.29800 17.47100 26.98000
H  53.60600 19.12800 26.60400
H  54.48600 18.15400 25.32300
H  49.27500 13.80300 24.02500
H  46.30700 13.50200 24.08900
H  47.39600 14.76100 22.33500
H  48.90900 15.50500 22.54400
H  47.42400 16.12000 23.42700
H  48.45000 11.77800 23.77800
H  46.87800 11.25100 23.95200
H  47.80300 11.67700 26.56400
H  49.18800 10.87600 25.64600
H  47.55600 10.15100 25.94800
H  42.92000 11.46400 28.84100
H  42.89200 12.27500 27.24100
H  41.99900 12.97900 28.58600
H  44.96900 13.87500 33.09800
H  43.02900 17.12900 35.01900
H  41.91400 15.72100 35.07600
H  41.70400 16.79300 33.77000

