158

Mg 44.29800 4.88900 47.36400
C  41.88600 7.41800 46.90200
C  41.67800 2.59200 47.06600
C  46.64600 2.45500 47.14500
C  46.83000 7.40500 46.68500
N  42.01900 5.00800 47.03100
C  41.27600 6.12100 46.79600
C  39.77300 5.71000 46.46800
C  39.77700 4.19300 46.78300
C  41.22900 3.92000 47.03100
C  38.89300 3.80900 47.94900
C  39.46200 6.14500 45.07000
C  38.23100 6.95700 44.84900
H  38.15700 8.04800 43.75500
N  44.17500 2.81400 47.19800
C  42.99500 2.05500 47.16300
C  43.44800 0.67100 47.18200
C  44.84700 0.66400 47.36200
C  45.29900 2.02700 47.20900
C  42.47400 -0.48800 47.15700
C  45.58100 -0.63300 47.40600
O  44.99900 -1.73000 47.56700
C  47.02700 -0.66500 47.37300
N  46.42800 4.94100 46.84100
C  47.13500 3.77000 47.01900
C  48.65100 4.08600 46.83700
C  48.78200 5.65900 46.74600
C  47.27400 6.03700 46.73000
C  49.55500 3.50900 47.97000
C  49.68600 6.04900 45.50900
C  49.05200 6.14800 44.19600
N  44.46600 7.03700 47.16300
C  45.51500 7.88700 46.93700
C  45.01600 9.19900 46.89300
C  43.59900 9.09700 46.96000
C  43.31800 7.71400 46.97100
C  45.82900 10.45400 46.74600
C  42.33000 9.87200 46.89100
O  42.10300 11.08000 46.92000
C  41.11700 8.77900 46.70300
C  40.14200 9.00300 47.82500
O  40.29000 8.59500 48.96500
O  39.05500 9.72300 47.38200
C  38.05700 10.11700 48.42000
H  40.85200 1.88700 46.94700
H  47.46900 1.73700 47.18200
H  47.63400 8.03700 46.30200
H  39.16800 6.27600 47.17700
H  39.41800 3.52000 46.00400
H  38.39700 4.72400 48.27600
H  39.61000 3.45800 48.69100
H  38.24700 3.01200 47.58200
H  39.20300 5.21300 44.56700
H  40.26700 6.71200 44.60200
H  37.99300 7.50300 45.76200
H  37.38400 6.27500 44.77200
H  42.78300 -1.34300 46.55500
H  41.59700 -0.11400 46.62700
H  42.32200 -0.89800 48.15600
H  47.51000 -0.17300 46.52900
H  47.43200 -1.67100 47.48900
H  47.30900 -0.15100 48.29200
H  49.00500 3.72900 45.87000
H  49.28400 5.99200 47.65500
H  50.34700 4.19400 48.27200
H  49.91800 2.55600 47.58500
H  48.92300 3.43900 48.85500
H  50.62200 5.49300 45.44200
H  49.89000 7.08600 45.77500
H  49.77900 5.70400 43.51600
H  49.02600 7.18700 43.86800
H  48.16800 5.51000 44.18400
H  45.73200 10.63200 45.67400
H  46.79600 10.30100 47.22500
H  45.39300 11.27200 47.31800
H  40.60400 8.92600 45.75300
H  38.06000 9.65800 49.40900
H  37.06700 10.00500 47.97900
H  37.96200 11.19400 48.56000
Mg 4.89100 55.07100 41.53000
C  3.72600 51.73100 41.50700
C  7.64400 54.06700 39.70800
C  5.57100 58.42500 41.01400
C  1.73600 55.97600 42.93300
N  5.53100 53.14900 40.62100
C  4.93600 51.92000 40.80800
C  5.69100 50.86200 39.95700
C  7.05400 51.56000 39.70900
C  6.77500 53.02300 40.08300
C  8.28600 51.01900 40.49200
C  4.95100 50.43300 38.62700
C  4.94200 48.91500 38.26800
H  5.55800 48.41300 36.99600
N  6.39800 56.12500 40.55200
C  7.46700 55.47300 39.90400
C  8.41400 56.56100 39.36400
C  7.79800 57.78400 39.77200
C  6.54200 57.49400 40.49200
C  9.57900 56.18200 38.42700
C  8.45000 59.18000 39.43800
O  9.52900 59.22700 38.80500
C  7.82900 60.53900 39.76900
N  3.77500 56.91700 41.87000
C  4.32400 58.21400 41.66500
C  3.45600 59.36400 42.12200
C  2.13200 58.47700 42.50200
C  2.59700 57.01200 42.53400
C  3.97500 60.38300 43.22400
C  0.98700 58.62700 41.46900
C  -0.05900 59.83200 41.74100
N  3.12300 54.07100 42.17400
C  2.03400 54.60600 42.80600
C  1.19600 53.48400 43.25200
C  1.88600 52.37300 42.74900
C  2.98700 52.73900 42.06700
C  -0.03100 53.61600 43.95600
C  1.75700 50.89700 42.65900
O  0.99000 50.13300 43.20000
C  3.09000 50.41100 42.00200
C  2.97000 49.33200 41.02500
O  2.12100 49.33700 40.11500
O  3.81100 48.34800 41.40200
C  3.63800 46.99600 40.95200
H  8.51600 53.68800 39.17100
H  5.89400 59.43100 40.73900
H  0.78300 56.25200 43.39000
H  5.86100 49.96000 40.54500
H  7.20100 51.53600 38.63000
H  8.80700 50.45700 39.71700
H  8.04700 50.31300 41.28800
H  8.98000 51.77300 40.86300
H  5.41900 51.04000 37.85200
H  3.94600 50.85200 38.59200
H  3.96800 48.44100 38.38900
H  5.55700 48.44700 39.03700
H  9.15200 55.63600 37.58600
H  10.36700 55.63200 38.94100
H  10.06300 57.08800 38.06200
H  8.40200 61.41600 39.46800
H  7.80700 60.58800 40.85800
H  6.90700 60.69300 39.20900
H  3.36700 59.94800 41.20600
H  1.69600 58.67400 43.48100
H  3.11000 60.65000 43.83200
H  4.37000 61.27900 42.74700
H  4.69600 59.94300 43.91400
H  0.25900 57.81700 41.51200
H  1.33900 58.88900 40.47100
H  0.08300 60.09600 42.78900
H  -1.03300 59.39700 41.51500
H  0.13600 60.72500 41.14600
H  -0.72800 53.95400 43.18900
H  -0.10000 54.33300 44.77400
H  -0.45400 52.69100 44.35000
H  3.59600 49.91700 42.83200
H  2.82900 46.43000 41.41600
H  4.59700 46.48000 40.99200
H  3.37000 47.05400 39.89700

