158

Mg 2.84100 -2.09700 44.96800
C  5.71600 -0.30200 43.85400
C  0.91800 -0.39300 42.75400
C  0.48600 -4.33300 45.36900
C  5.13000 -4.21700 46.72700
N  3.30000 -0.64500 43.49800
C  4.49200 0.06300 43.27200
C  4.27600 1.03400 42.20200
C  2.72800 1.08900 41.92000
C  2.28300 -0.01300 42.84100
C  2.05100 2.53000 42.08300
C  5.06400 0.65500 40.89300
C  5.78200 1.86100 40.24500
H  6.37200 1.49400 38.88700
N  0.87500 -2.29100 44.32100
C  0.25000 -1.36200 43.51400
C  -1.11000 -1.65300 43.46100
C  -1.30300 -2.91400 44.03900
C  0.04100 -3.21200 44.65600
C  -2.15600 -0.84100 42.82200
C  -2.56400 -3.86600 44.01000
O  -3.48600 -3.48400 43.25700
C  -2.69900 -5.10300 44.76800
N  2.82300 -3.97200 46.00400
C  1.65700 -4.72600 46.00200
C  1.75400 -5.97300 46.84700
C  3.28500 -6.02300 47.20000
C  3.83400 -4.69200 46.53300
C  0.82300 -5.96700 48.17700
C  4.01400 -7.32800 46.89200
C  3.83400 -8.00000 45.50800
N  4.97000 -2.25400 45.29400
C  5.72000 -3.06800 46.14000
C  7.14600 -2.56400 46.25300
C  7.17900 -1.54700 45.25500
C  5.86600 -1.42700 44.70300
C  8.29700 -3.11700 47.10300
C  8.07500 -0.54500 44.64500
O  9.24000 -0.34000 44.76200
C  7.12000 0.29100 43.73500
C  7.14900 1.60400 44.26100
O  7.10300 1.84800 45.45000
O  7.37400 2.55200 43.26600
C  7.51600 3.93300 43.76400
H  0.23000 0.15300 42.10500
H  -0.33100 -5.05100 45.47100
H  5.89500 -4.80100 47.24300
H  4.63200 1.98300 42.60300
H  2.44400 0.66400 40.95700
H  1.65600 2.83500 41.11400
H  2.83400 3.28400 42.17000
H  1.37000 2.50400 42.93400
H  4.39100 0.18200 40.17700
H  5.83100 -0.07600 41.14800
H  6.70100 2.03700 40.80300
H  5.13400 2.72900 40.12300
H  -2.90900 -0.73300 43.60200
H  -2.45300 -1.35900 41.91000
H  -1.71900 0.15300 42.73000
H  -2.50900 -4.80700 45.80000
H  -1.89600 -5.69300 44.32500
H  -3.61400 -5.67900 44.63300
H  1.47600 -6.89300 46.33300
H  3.22700 -5.83500 48.27200
H  -0.22300 -5.90300 47.87700
H  0.93600 -5.10100 48.82800
H  1.07100 -6.85100 48.76600
H  3.63800 -8.04800 47.61900
H  5.07600 -7.11600 47.01900
H  3.47500 -7.13700 44.94700
H  3.20400 -8.88900 45.50400
H  4.84200 -8.23900 45.16600
H  8.59400 -4.03600 46.59600
H  7.86800 -3.19300 48.10200
H  9.14000 -2.43200 47.18100
H  7.54100 0.28700 42.72900
H  8.57500 4.19000 43.75800
H  6.92500 4.07800 44.66900
H  7.00100 4.49000 42.98100
Mg -11.80100 16.24500 41.76200
C  -8.83700 14.44500 41.38100
C  -10.09200 18.96000 40.22400
C  -14.68800 17.86000 41.36300
C  -13.39800 13.33500 42.73300
N  -9.68500 16.62400 40.99300
C  -8.66900 15.71000 40.79800
C  -7.38200 16.24600 40.08700
C  -7.81600 17.75700 39.91800
C  -9.29000 17.82600 40.43000
C  -6.88500 18.88000 40.46600
C  -7.04300 15.47100 38.76700
C  -5.49700 15.12200 38.49100
H  -4.93000 15.85600 37.26700
N  -12.35500 18.26400 41.06000
C  -11.55100 19.12300 40.45400
C  -12.31400 20.33500 40.18700
C  -13.67400 20.00800 40.42800
C  -13.59300 18.70700 41.00900
C  -11.65800 21.55900 39.61600
C  -14.90000 20.90100 40.15700
O  -14.76900 21.97500 39.55400
C  -16.29700 20.54000 40.60100
N  -13.80200 15.68400 42.08300
C  -14.79600 16.54100 41.74200
C  -16.17100 15.84700 41.97500
C  -15.75700 14.34900 42.50300
C  -14.27500 14.39900 42.46800
C  -17.24900 16.56700 42.89800
C  -16.33900 13.23000 41.60100
C  -17.36200 12.24800 42.16400
N  -11.31200 14.32000 42.07300
C  -12.02600 13.24400 42.55300
C  -11.13100 12.09600 42.68100
C  -9.87000 12.49000 42.22600
C  -10.05600 13.84200 41.85700
C  -11.43300 10.71600 43.32800
C  -8.49500 12.04900 41.93700
O  -7.94300 10.99800 42.10600
C  -7.75200 13.34200 41.43200
C  -6.69200 13.74100 42.46000
O  -6.88400 13.87600 43.63600
O  -5.46100 13.92500 41.88300
C  -4.40200 14.36700 42.76500
H  -9.65500 19.77500 39.64300
H  -15.65400 18.37000 41.36000
H  -13.86300 12.47900 43.22600
H  -6.45900 16.28500 40.66600
H  -7.81800 17.98600 38.85200
H  -6.07300 18.43100 41.03900
H  -7.47300 19.53100 41.11200
H  -6.39700 19.27500 39.57500
H  -7.29900 16.20800 38.00600
H  -7.71100 14.62500 38.60800
H  -5.38400 14.04500 38.36700
H  -4.77000 15.40600 39.25200
H  -10.63300 21.72400 39.94700
H  -12.26000 22.39900 39.96300
H  -11.63200 21.61100 38.52800
H  -16.93900 21.33700 40.22300
H  -16.37200 20.44500 41.68400
H  -16.67700 19.68200 40.04700
H  -16.52400 15.62600 40.96800
H  -15.91100 14.18700 43.56900
H  -17.76400 17.29000 42.26600
H  -16.68900 17.10000 43.66600
H  -17.84500 15.75800 43.32200
H  -15.60400 12.50200 41.25600
H  -16.78300 13.55400 40.66000
H  -17.81800 12.84500 42.95300
H  -16.78900 11.49600 42.70700
H  -17.97700 11.94900 41.31600
H  -10.69000 9.97400 43.03500
H  -12.43800 10.53300 42.94800
H  -11.61600 10.81700 44.39800
H  -7.23400 13.20500 40.48300
H  -3.89200 13.65100 43.41100
H  -4.68900 15.25700 43.32400
H  -3.62100 14.70800 42.08700

