158

Mg 17.48500 -0.33900 27.07400
C  16.14400 1.43400 29.79200
C  19.34500 -2.21300 29.55000
C  19.08300 -1.84400 24.69900
C  15.93700 1.91400 24.91500
N  17.59800 -0.47200 29.49400
C  16.94600 0.43800 30.32200
C  17.31800 0.16900 31.76900
C  18.37000 -0.97200 31.73500
C  18.49800 -1.27400 30.20100
C  19.71500 -0.61000 32.49900
C  16.03800 -0.17000 32.66600
C  16.03100 0.29500 34.15800
H  17.31700 0.85300 34.79400
N  18.85300 -1.91100 27.07800
C  19.52000 -2.48500 28.15900
C  20.42100 -3.54000 27.65400
C  20.22800 -3.55700 26.24700
C  19.39700 -2.40600 25.94300
C  21.23200 -4.54800 28.48200
C  20.83600 -4.50600 25.18200
O  20.49700 -4.40300 24.01300
C  21.77200 -5.62400 25.65800
N  17.48100 0.03200 25.10200
C  18.32300 -0.68600 24.30700
C  18.31100 -0.19300 22.83200
C  17.25200 0.98900 22.86100
C  16.85100 1.05000 24.38300
C  19.66800 0.31200 22.37300
C  16.02500 0.78800 21.92700
C  15.52400 1.97200 21.15200
N  16.33700 1.41000 27.27900
C  15.78100 2.14600 26.27000
C  14.96100 3.16400 26.88200
C  15.13000 2.93100 28.25800
C  15.87200 1.85400 28.44300
C  14.13400 4.19000 26.23000
C  14.81300 3.52500 29.56300
O  14.13900 4.52000 29.88100
C  15.48800 2.58300 30.62700
C  16.45600 3.38300 31.45500
O  17.66700 3.55200 31.25800
O  15.70600 4.13200 32.41500
C  16.51700 5.04300 33.31100
H  19.98800 -2.78900 30.22000
H  19.60700 -2.09400 23.77400
H  15.48100 2.57200 24.17200
H  17.77400 1.08500 32.14500
H  18.06500 -1.93100 32.15300
H  19.95700 -1.30400 33.30400
H  19.66800 0.38300 32.94400
H  20.56100 -0.57500 31.81300
H  15.83300 -1.23900 32.73000
H  15.12400 0.19800 32.20200
H  15.79400 -0.50500 34.85900
H  15.23800 1.03500 34.26400
H  20.74800 -5.52500 28.48700
H  21.22300 -4.25000 29.53000
H  22.30100 -4.61200 28.27800
H  21.45500 -6.32800 26.42700
H  22.72700 -5.16300 25.91000
H  22.05100 -6.17600 24.76000
H  18.10000 -1.09300 22.25500
H  17.60400 1.96800 22.53500
H  20.48200 -0.24700 22.83400
H  19.79900 1.38100 22.54000
H  19.81200 0.15200 21.30500
H  15.18400 0.50400 22.55900
H  16.19800 0.05900 21.13500
H  15.28600 2.66400 21.96000
H  14.69100 1.75800 20.48300
H  16.36800 2.44100 20.64700
H  13.10400 3.87600 26.39900
H  14.29900 4.30400 25.15900
H  14.31800 5.07400 26.84100
H  14.80400 2.22000 31.39400
H  15.79900 5.71000 33.78800
H  17.44400 5.44500 32.90300
H  16.95600 4.41900 34.08800
Mg 35.76200 3.37200 29.99200
C  33.21000 4.34700 32.37400
C  38.03600 3.20700 32.74200
C  38.03700 2.27200 27.94300
C  33.28300 3.69900 27.58800
N  35.63800 3.85300 32.29400
C  34.47300 4.13800 33.00000
C  34.87000 4.27300 34.55300
C  36.41200 4.21000 34.47700
C  36.76400 3.64700 33.06500
C  37.15800 5.53300 34.82300
C  34.18800 3.10600 35.31200
C  34.32300 3.00700 36.83700
H  35.17700 3.90200 37.71300
N  37.84800 2.95700 30.24500
C  38.53600 2.82100 31.44100
C  39.76300 2.09400 31.21000
C  39.79500 1.84200 29.78300
C  38.52600 2.32600 29.27300
C  40.79300 1.68700 32.23200
C  40.87300 1.15400 28.92500
O  40.70100 0.82500 27.74900
C  42.28200 0.77200 29.49000
N  35.75300 3.21400 28.05100
C  36.82500 2.66500 27.38300
C  36.48500 2.50800 25.87600
C  34.88000 2.83400 25.84500
C  34.58200 3.26800 27.28900
C  37.30900 3.45900 24.98200
C  34.03900 1.64700 25.29800
C  33.40500 1.74200 23.83500
N  33.70800 4.02900 29.93700
C  32.83200 4.05800 28.80300
C  31.48200 4.30900 29.29100
C  31.58000 4.49700 30.67600
C  32.94900 4.35600 30.99000
C  30.23400 4.34600 28.55700
C  30.91600 4.90400 31.84000
O  29.75400 5.27200 32.00200
C  31.92600 4.80900 32.99700
C  31.95000 6.11800 33.72400
O  32.43800 7.17800 33.38300
O  31.39700 5.84500 34.94100
C  31.55100 6.96000 35.95000
H  38.67100 3.05500 33.61600
H  38.76200 1.99600 27.17400
H  32.54100 3.66900 26.78800
H  34.58300 5.22500 35.00000
H  36.72500 3.42200 35.16300
H  37.80000 5.40900 35.69500
H  36.39500 6.24000 35.14900
H  37.70000 5.86800 33.93900
H  34.53900 2.20700 34.80500
H  33.12200 3.16400 35.09100
H  34.44100 1.93800 37.01800
H  33.29900 3.32300 37.03500
H  41.80000 1.96500 31.92000
H  40.83100 0.60400 32.10900
H  40.55900 2.03500 33.23800
H  42.94700 0.34200 28.74100
H  42.06900 0.01100 30.24100
H  42.83900 1.59400 29.94000
H  36.67300 1.50200 25.50100
H  34.78100 3.78500 25.32100
H  36.69200 3.72900 24.12500
H  38.21100 2.98700 24.59100
H  37.62900 4.35800 25.50900
H  33.17700 1.65900 25.96500
H  34.54200 0.71100 25.54000
H  33.71700 2.61000 23.25500
H  32.33700 1.90600 23.98000
H  33.45000 0.87200 23.18100
H  30.17400 3.55900 27.80400
H  29.97900 5.34300 28.19700
H  29.52400 4.04100 29.32600
H  31.48100 4.08400 33.67900
H  30.69700 7.63800 35.97200
H  32.48600 7.52000 35.92400
H  31.56300 6.39600 36.88200

