158

Mg 29.45400 58.00500 39.41400
C  26.93600 55.77200 38.23500
C  31.72500 55.43500 38.34500
C  31.87400 60.15000 40.01900
C  27.10800 60.42800 39.67600
N  29.29300 55.88000 38.34200
C  28.17500 55.20300 38.05500
C  28.44900 53.69600 37.65200
C  29.96900 53.62600 37.82200
C  30.37100 55.13500 38.13100
C  30.65400 52.65800 38.90000
C  28.04900 53.31500 36.22600
C  28.42800 54.36000 35.02200
H  27.32100 54.80800 34.02800
N  31.49500 57.89500 39.24300
C  32.25300 56.66800 38.86200
C  33.67200 57.02600 38.97400
C  33.75200 58.33800 39.56200
C  32.33700 58.87000 39.60800
C  34.70100 56.12200 38.45100
C  35.07200 59.01100 39.91600
O  36.12500 58.50900 39.77700
C  35.06800 60.34300 40.42900
N  29.54700 60.19800 39.41900
C  30.59500 60.80700 40.01100
C  30.24400 62.25000 40.42900
C  28.73900 62.06600 40.61600
C  28.39200 60.82900 39.83500
C  31.01300 62.91400 41.63900
C  28.01800 63.28500 40.01900
C  27.00700 64.02100 40.99800
N  27.35400 58.08400 39.11600
C  26.58500 59.14800 39.29200
C  25.20400 58.83000 39.07900
C  25.29600 57.46700 38.65900
C  26.63600 57.05500 38.66800
C  24.00400 59.78700 39.15000
C  24.44800 56.36200 38.28900
O  23.21400 56.27400 38.19100
C  25.50000 55.16100 38.09500
C  25.17000 54.06300 39.10000
O  25.73700 53.82600 40.13000
O  23.95900 53.42100 38.75300
C  23.44500 52.34100 39.57800
H  32.45900 54.62800 38.39300
H  32.66600 60.84000 40.31600
H  26.33800 61.16300 39.92000
H  27.96300 53.03300 38.36700
H  30.49000 53.45700 36.88000
H  29.98300 51.80200 38.97500
H  30.81700 53.11400 39.87600
H  31.61400 52.25600 38.57700
H  27.00500 53.01000 36.30500
H  28.71000 52.49100 35.95800
H  29.26600 53.89400 34.50300
H  28.81500 55.30500 35.40400
H  35.42700 55.93800 39.24200
H  35.14800 56.57300 37.56500
H  34.33700 55.11400 38.25300
H  36.05700 60.77100 40.59100
H  34.68300 60.19500 41.43800
H  34.62600 61.08700 39.76600
H  30.63700 62.87100 39.62400
H  28.55800 61.86100 41.67200
H  30.29200 63.32100 42.34800
H  31.79800 63.57300 41.26900
H  31.54400 62.15400 42.21100
H  27.42100 63.03800 39.14100
H  28.71200 64.08400 39.75600
H  26.98300 65.05200 40.64700
H  27.21800 64.02200 42.06700
H  26.01300 63.64900 40.74800
H  24.30200 60.80100 38.88400
H  23.56200 59.67000 40.14000
H  23.31300 59.44500 38.37900
H  25.41100 54.95500 37.02800
H  24.08600 51.46000 39.61100
H  22.46500 51.99400 39.24900
H  23.25600 52.50600 40.63800
Mg 1.00000 44.02800 25.09400
C  2.89400 43.57600 27.97600
C  -1.70900 43.20900 26.98300
C  -0.74600 43.87600 22.26500
C  3.96700 44.10200 23.16300
N  0.66000 43.66000 27.31000
C  1.59900 43.52300 28.31100
C  0.84600 43.28700 29.64800
C  -0.63300 43.16100 29.26000
C  -0.54500 43.32300 27.76000
C  -1.36200 41.87100 29.73100
C  1.16100 44.50300 30.55800
C  1.54900 44.16700 32.03100
H  0.90100 42.90000 32.72400
N  -1.03700 43.83200 24.68100
C  -1.94900 43.40200 25.55900
C  -3.20700 43.14200 24.84100
C  -3.02200 43.64700 23.53400
C  -1.58400 43.84600 23.42900
C  -4.37600 42.53700 25.48300
C  -3.94900 43.76700 22.28900
O  -3.54500 44.14500 21.19000
C  -5.30600 43.20300 22.43200
N  1.54400 43.95100 23.02100
C  0.63200 43.93800 22.04300
C  1.28200 43.62500 20.63900
C  2.69300 44.19500 20.90000
C  2.77800 44.08500 22.41700
C  1.12600 42.08900 20.22300
C  2.86400 45.63100 20.39200
C  4.24500 46.06700 20.05300
N  2.93800 43.88500 25.44600
C  4.03100 43.92200 24.57400
C  5.20900 43.93600 25.39500
C  4.87600 43.78800 26.72200
C  3.44100 43.78800 26.68200
C  6.53500 44.02000 24.77100
C  5.41300 43.47600 28.05400
O  6.55400 43.26000 28.40900
C  4.08200 43.43200 28.93400
C  4.07300 42.24800 29.87500
O  3.69000 41.13000 29.64000
O  4.75600 42.69800 30.99000
C  5.11000 41.54600 31.89700
H  -2.62000 42.88500 27.49200
H  -1.29400 43.65000 21.34800
H  4.84800 44.09300 22.51800
H  1.28000 42.41700 30.14000
H  -1.14400 44.04500 29.64400
H  -2.06600 42.20800 30.49200
H  -0.79800 41.13400 30.30200
H  -1.82100 41.32600 28.90600
H  0.25200 45.10300 30.60300
H  2.00300 45.11800 30.23900
H  1.28600 45.10100 32.52700
H  2.63000 44.12800 32.16400
H  -5.08300 43.36700 25.51000
H  -4.23400 42.17600 26.50100
H  -4.71900 41.67600 24.90900
H  -5.93400 43.38000 21.55900
H  -5.71600 43.80500 23.24300
H  -5.29900 42.12700 22.60500
H  0.75200 44.23300 19.90600
H  3.45800 43.67100 20.32700
H  0.71200 41.56200 21.08200
H  2.10200 41.61200 20.14000
H  0.62600 42.02300 19.25700
H  2.41300 46.24800 21.16800
H  2.32900 45.81900 19.46100
H  5.02500 45.43600 20.47900
H  4.54400 46.91700 20.66600
H  4.36000 46.53200 19.07400
H  7.20000 43.72300 25.58100
H  6.94500 44.98100 24.46000
H  6.56200 43.16400 24.09700
H  4.15000 44.30500 29.58400
H  6.04600 41.13900 31.51500
H  4.40800 40.71400 31.95100
H  5.28200 41.96800 32.88700

