158

Mg 8.78400 3.61500 27.48000
C  9.97200 2.13800 30.36000
C  7.15000 6.03700 29.30900
C  7.69200 5.07700 24.60500
C  10.16700 1.01300 25.61800
N  8.47900 3.94100 29.61900
C  9.16800 3.28300 30.59100
C  8.97700 4.03600 31.97100
C  7.94200 5.14300 31.63100
C  7.82000 5.03300 30.05300
C  6.60800 5.08100 32.43800
C  10.32400 4.55500 32.55300
C  10.62100 4.11600 34.02500
H  11.08700 5.15400 35.10900
N  7.52900 5.35800 27.00500
C  7.05900 6.21500 27.91800
C  6.48600 7.30300 27.20900
C  6.53400 7.07500 25.83300
C  7.19600 5.77500 25.75800
C  5.85000 8.46900 27.93600
C  5.99300 7.73900 24.63800
O  6.16100 7.25400 23.53300
C  5.38400 9.03100 24.75100
N  8.76400 2.98000 25.45400
C  8.47800 3.90800 24.52100
C  8.75000 3.40200 23.06200
C  9.48900 2.08000 23.38600
C  9.49800 1.98900 24.90100
C  7.55900 3.30400 22.12800
C  10.82200 1.79300 22.70100
C  10.78200 1.36400 21.21500
N  9.78700 1.82000 27.84600
C  10.32100 0.85400 26.95400
C  11.05500 -0.10700 27.67800
C  10.93600 0.35300 29.05100
C  10.11400 1.48300 29.05800
C  11.71600 -1.36100 27.18900
C  11.37300 0.13400 30.37000
O  12.10400 -0.68300 30.82000
C  10.77600 1.25600 31.31900
C  9.93500 0.61700 32.33200
O  9.08400 -0.27500 32.08300
O  10.38700 0.92000 33.60900
C  9.87000 0.09700 34.69800
H  6.84000 6.85900 29.95800
H  7.46200 5.50700 23.62800
H  10.71800 0.30000 25.00100
H  8.62200 3.28800 32.67900
H  8.35900 6.13900 31.77800
H  5.81500 4.55100 31.91000
H  6.22600 6.09100 32.58500
H  6.84600 4.67600 33.42100
H  10.22500 5.64000 32.57600
H  11.18100 4.27400 31.94100
H  11.40000 3.39600 33.77500
H  9.72400 3.55300 34.28200
H  5.79800 8.31600 29.01400
H  4.78100 8.50700 27.72700
H  6.09600 9.51200 27.73700
H  5.22200 9.51800 23.78900
H  6.04500 9.71900 25.27800
H  4.49500 8.92500 25.37200
H  9.46000 4.12800 22.66600
H  8.74700 1.33600 23.09600
H  6.62900 3.54400 22.64300
H  7.34900 2.26800 21.86300
H  7.77800 3.95700 21.28200
H  11.54400 1.13100 23.17900
H  11.29300 2.77000 22.59900
H  9.72500 1.25800 20.97400
H  11.26400 0.40700 21.01700
H  11.22300 2.08500 20.52700
H  12.26400 -1.12800 26.27600
H  10.97700 -2.13800 26.99200
H  12.35400 -1.78200 27.96600
H  11.56100 1.82600 31.81700
H  10.11900 -0.96000 34.79100
H  8.78800 0.18700 34.79400
H  10.18900 0.48500 35.66500
Mg -10.60800 39.51700 42.35200
C  -9.21000 36.56200 41.37300
C  -8.03200 41.17800 40.91900
C  -12.19000 42.50100 42.85800
C  -13.69800 37.79000 43.01300
N  -8.79000 38.95700 41.24800
C  -8.41600 37.64200 41.01600
C  -7.13100 37.59400 40.22300
C  -6.59400 39.10800 40.25500
C  -7.86900 39.75900 40.82300
C  -5.28000 39.37400 41.05400
C  -7.37300 36.96500 38.83000
C  -6.39100 35.89500 38.34800
H  -5.52800 36.17800 37.17700
N  -10.10400 41.58600 42.02200
C  -9.03800 42.09000 41.38200
C  -9.01800 43.48700 41.49000
C  -10.16900 43.91300 42.18100
C  -10.86800 42.63300 42.43700
C  -7.80400 44.25000 41.05900
C  -10.51400 45.31100 42.57000
O  -9.76500 46.23400 42.23100
C  -11.69700 45.66000 43.46300
N  -12.72200 40.01100 42.78700
C  -12.92400 41.34400 43.18400
C  -14.40000 41.45000 43.71000
C  -14.93100 39.95500 43.65800
C  -13.72400 39.17500 43.07400
C  -14.44000 42.12000 45.12400
C  -16.26700 39.67100 42.98800
C  -17.40400 39.91300 43.91200
N  -11.30300 37.57600 42.34900
C  -12.50500 36.97100 42.67200
C  -12.43200 35.54700 42.52800
C  -11.15400 35.35300 41.98900
C  -10.49100 36.61600 41.92000
C  -13.53600 34.51300 42.72400
C  -10.29800 34.31600 41.46300
O  -10.56000 33.13500 41.28600
C  -8.88800 35.03600 41.14100
C  -7.85500 34.55600 42.08500
O  -7.65200 34.94100 43.22900
O  -6.97700 33.69600 41.45500
C  -5.88000 33.01700 42.10100
H  -7.15300 41.64200 40.46600
H  -12.78300 43.38300 43.10900
H  -14.61400 37.24800 43.26000
H  -6.37500 37.06600 40.80300
H  -6.26600 39.47300 39.28200
H  -4.66100 40.08300 40.50500
H  -4.71700 38.45100 40.91800
H  -5.47700 39.58200 42.10600
H  -7.28300 37.76100 38.09000
H  -8.37500 36.54800 38.72700
H  -6.99700 35.02000 38.11400
H  -5.70200 35.69300 39.16800
H  -7.96100 44.66100 40.06200
H  -6.92000 43.61800 41.13900
H  -7.59000 45.00700 41.81400
H  -11.69600 46.69600 43.80300
H  -11.65200 45.19500 44.44800
H  -12.61300 45.47100 42.90400
H  -14.94600 42.05100 42.98200
H  -15.04100 39.59200 44.68000
H  -13.50800 42.67400 45.23000
H  -14.45100 41.35400 45.89900
H  -15.25200 42.83200 45.27000
H  -16.25900 38.65300 42.60000
H  -16.27400 40.33600 42.12400
H  -17.15900 40.09600 44.95900
H  -17.93600 38.96400 43.98100
H  -18.12000 40.68100 43.62000
H  -13.65500 34.36000 43.79700
H  -13.19900 33.53800 42.37200
H  -14.51600 34.75600 42.31100
H  -8.59400 34.81700 40.11500
H  -6.13300 32.03600 42.50300
H  -5.39400 33.63300 42.85700
H  -5.07900 32.86800 41.37600

