158

Mg 42.09500 40.32400 26.83400
C  41.37700 42.88600 29.24800
C  43.74900 38.65600 29.37700
C  43.16100 38.32200 24.52400
C  40.79500 42.57200 24.46200
N  42.53300 40.73400 29.08800
C  42.04500 41.76100 29.81100
C  42.07300 41.41400 31.28700
C  42.96400 40.15500 31.37800
C  43.14000 39.79400 29.83100
C  44.38900 40.38900 31.94100
C  40.63300 41.20400 31.95700
C  40.50500 42.16600 33.21000
H  39.73500 41.62600 34.44500
N  43.09500 38.64100 26.93300
C  43.65300 38.10000 28.08300
C  44.20800 36.78800 27.71600
C  44.08100 36.69300 26.28300
C  43.42700 37.90400 25.82600
C  44.79900 35.85100 28.69600
C  44.57200 35.59500 25.39700
O  44.47900 35.64100 24.14600
C  45.26900 34.44500 26.06700
N  41.95100 40.43500 24.77400
C  42.44600 39.44800 24.00800
C  42.13100 39.77800 22.45700
C  41.49100 41.16000 22.42200
C  41.39700 41.41700 23.95500
C  43.36600 39.59800 21.45100
C  40.10000 41.14000 21.69700
C  39.62300 42.44900 20.99400
N  41.18600 42.29500 26.80300
C  40.61800 43.01800 25.77100
C  40.11800 44.25000 26.23500
C  40.40200 44.21700 27.61000
C  41.07900 43.01200 27.87400
C  39.65300 45.44400 25.39100
C  40.26100 45.03600 28.81600
O  39.80900 46.17500 28.92500
C  40.79900 44.04800 29.92200
C  41.73000 44.87900 30.76500
O  42.97600 44.92100 30.75100
O  40.91800 45.42200 31.75200
C  41.59400 45.93200 32.98400
H  44.14200 38.13700 30.25300
H  43.41900 37.70300 23.66300
H  40.40900 43.16100 23.62700
H  42.58300 42.14000 31.92000
H  42.47500 39.30500 31.85400
H  44.88400 39.42000 32.00200
H  44.45300 40.86400 32.92000
H  44.98400 40.96000 31.22900
H  40.45500 40.15800 32.20700
H  39.95100 41.50600 31.16200
H  40.05800 43.08100 32.82400
H  41.41900 42.57500 33.64200
H  45.88500 35.90300 28.62300
H  44.46800 34.82800 28.52000
H  44.45300 36.11800 29.69500
H  46.21800 34.76600 26.49600
H  45.30700 33.70700 25.26600
H  44.62500 33.85900 26.72200
H  41.38600 39.03800 22.16500
H  42.17600 41.87600 21.96800
H  44.22400 39.75100 22.10700
H  43.53000 40.30100 20.63500
H  43.41500 38.54600 21.16800
H  39.32300 40.78400 22.37300
H  40.16900 40.38400 20.91500
H  38.67900 42.70300 21.47700
H  39.52100 42.14700 19.95200
H  40.35000 43.23600 21.19100
H  39.06300 46.05900 26.07000
H  39.09200 45.15800 24.50100
H  40.52100 45.98400 25.01100
H  40.06100 43.59800 30.58600
H  42.68400 45.94800 33.00100
H  41.24500 45.35400 33.84000
H  41.29100 46.95500 33.20400
Mg -2.58900 35.13700 26.68000
C  -4.28600 33.44200 29.05600
C  -1.15300 37.26600 29.19900
C  -0.85600 36.68100 24.37200
C  -4.28300 33.31000 24.20800
N  -2.79100 35.36900 28.89400
C  -3.47400 34.45100 29.65100
C  -3.34800 34.78300 31.12600
C  -2.41000 36.03000 31.16100
C  -2.08400 36.28800 29.65500
C  -2.86400 37.37700 31.78100
C  -3.09000 33.63400 32.16300
C  -2.30200 34.01300 33.41700
H  -2.64700 33.26100 34.69300
N  -1.40900 36.94600 26.72300
C  -0.90700 37.58500 27.86300
C  -0.02500 38.68500 27.36200
C  -0.06700 38.59000 25.95500
C  -0.79100 37.35500 25.61500
C  0.65400 39.71600 28.28700
C  0.50800 39.61400 24.96000
O  0.44700 39.36600 23.73800
C  1.25800 40.74600 25.39300
N  -2.60200 35.05300 24.46600
C  -1.72600 35.74600 23.77200
C  -1.75500 35.25900 22.26900
C  -2.97500 34.25600 22.27000
C  -3.31200 34.19600 23.76300
C  -1.74400 36.35800 21.15000
C  -2.72200 32.81500 21.71800
C  -1.68800 31.92100 22.34400
N  -3.89400 33.61500 26.57500
C  -4.55200 32.99600 25.52900
C  -5.31400 31.90400 26.02300
C  -5.30800 32.05200 27.40100
C  -4.40500 33.13100 27.66800
C  -6.01900 30.92700 25.19600
C  -5.74500 31.50100 28.65600
O  -6.52300 30.54900 28.76600
C  -5.14500 32.39400 29.76800
C  -6.17500 33.03000 30.52900
O  -6.73700 34.04100 30.22200
O  -6.47300 32.22400 31.66900
C  -7.70200 32.54700 32.41200
H  -0.40600 37.70900 29.86200
H  -0.29400 37.13600 23.55300
H  -4.77400 32.68400 23.46000
H  -4.37600 35.11600 31.26800
H  -1.51500 35.66400 31.66400
H  -3.88500 37.60800 31.47700
H  -2.11100 38.14800 31.61800
H  -2.84800 37.16500 32.85000
H  -2.68900 32.77500 31.62400
H  -4.07100 33.51400 32.62200
H  -2.69800 35.01600 33.58100
H  -1.21800 33.93700 33.33700
H  0.49400 40.73400 27.93200
H  1.70600 39.43100 28.28200
H  0.26100 39.63500 29.30000
H  0.67600 41.51400 25.90300
H  1.75100 41.19300 24.53100
H  2.03100 40.36000 26.05700
H  -0.89600 34.63800 22.01200
H  -3.85500 34.57400 21.71100
H  -0.83100 36.34500 20.55300
H  -2.07200 37.34600 21.47200
H  -2.51800 36.05900 20.44300
H  -2.41300 33.00000 20.68900
H  -3.76300 32.49400 21.69300
H  -1.00000 31.66500 21.53800
H  -2.04900 30.95500 22.69500
H  -1.21400 32.40900 23.19600
H  -6.05100 29.98200 25.73800
H  -5.56100 30.82500 24.21200
H  -7.08400 31.13600 25.09100
H  -4.52100 31.83900 30.46800
H  -8.50200 32.36600 31.69400
H  -7.65400 33.53100 32.87800
H  -7.72200 31.81200 33.21700

