158

Mg 36.27800 1.12800 29.92400
C  33.77600 1.98700 32.42400
C  38.56500 0.96700 32.59300
C  38.68300 0.61600 27.71800
C  33.90200 1.65400 27.50900
N  36.12400 1.42000 32.33300
C  35.01400 1.78600 33.06200
C  35.37900 1.96200 34.57100
C  36.92900 1.82600 34.52300
C  37.24600 1.32300 33.09500
C  37.68700 3.14800 34.80500
C  34.71900 0.78400 35.26800
C  34.38900 1.04100 36.78000
H  34.81200 2.31600 37.55200
N  38.29600 0.62800 30.14200
C  39.01000 0.57700 31.29100
C  40.37300 0.05900 30.89700
C  40.45200 -0.00600 29.51100
C  39.10300 0.43400 29.04100
C  41.43900 -0.05400 31.99200
C  41.63200 -0.32300 28.49800
O  41.47300 -0.38400 27.27000
C  42.92400 -0.70800 29.08000
N  36.27100 1.07900 27.93200
C  37.42000 0.87500 27.17000
C  37.09300 1.02900 25.67200
C  35.52600 1.06400 25.62900
C  35.19000 1.30900 27.07500
C  37.70200 2.27200 25.00700
C  34.99900 -0.32900 25.11000
C  33.93800 -0.26800 23.99800
N  34.28300 1.69900 29.86000
C  33.44600 1.78800 28.83300
C  32.14500 2.10200 29.27000
C  32.21800 2.21900 30.68600
C  33.55000 1.95400 30.99000
C  30.93300 2.27300 28.42400
C  31.47900 2.63300 31.84100
O  30.34200 3.05400 32.00100
C  32.45600 2.44700 33.02600
C  32.67700 3.73900 33.71000
O  33.52300 4.54100 33.36900
O  31.68600 3.86700 34.66200
C  31.66600 5.16400 35.35600
H  39.24800 0.98200 33.44600
H  39.35800 0.66900 26.86200
H  33.14300 1.93300 26.77400
H  35.03900 2.86900 35.07100
H  37.21600 0.98800 35.15900
H  36.95400 3.94200 34.94700
H  38.33800 3.51500 34.01100
H  38.11300 2.95100 35.78800
H  35.40600 -0.05300 35.38800
H  33.81200 0.47400 34.74800
H  34.97700 0.36100 37.39700
H  33.32600 0.80200 36.80600
H  42.14400 0.76700 31.86400
H  41.96900 -1.00300 31.90300
H  41.13300 -0.00400 33.03700
H  43.19600 -0.14000 29.97000
H  43.72700 -0.72000 28.34400
H  42.74000 -1.75000 29.34200
H  37.58600 0.18600 25.18800
H  35.11600 1.90600 25.07200
H  38.37400 2.61800 25.79300
H  36.93700 3.02700 24.82700
H  38.38100 2.02800 24.19100
H  34.63900 -0.93400 25.94300
H  35.78500 -0.90200 24.61800
H  33.79900 0.73800 23.60200
H  33.05000 -0.69600 24.46100
H  34.26600 -0.94900 23.21300
H  31.20600 2.69700 27.45800
H  30.13100 2.73400 29.00200
H  30.48100 1.30700 28.19600
H  31.98700 1.75500 33.72600
H  31.88500 5.12400 36.42300
H  30.69000 5.58700 35.11800
H  32.39000 5.86300 34.93600
Mg 41.50200 41.35900 25.88200
C  40.64500 43.84700 28.33900
C  42.32100 39.27900 28.57400
C  42.36400 39.14500 23.66800
C  40.83100 43.68700 23.43700
N  41.45700 41.53600 28.08600
C  40.99700 42.55800 28.85600
C  40.83600 42.27600 30.38900
C  41.64500 40.90000 30.45000
C  41.78100 40.50900 28.95800
C  43.05300 40.90000 31.13700
C  39.35000 42.08800 30.77500
C  38.95000 42.88100 32.01500
H  38.76500 42.20800 33.43400
N  42.20800 39.42400 26.07300
C  42.50400 38.73400 27.26000
C  42.88700 37.38300 26.86300
C  42.92300 37.35900 25.47300
C  42.52300 38.65200 25.05400
C  43.23500 36.39100 27.93300
C  43.38900 36.26100 24.51700
O  43.29600 36.32000 23.30700
C  44.08700 35.04300 25.01100
N  41.75900 41.48800 23.88100
C  42.05100 40.36800 23.11000
C  41.89400 40.60600 21.62700
C  41.04300 41.94200 21.62900
C  41.24900 42.44100 23.04900
C  43.25100 40.68000 20.87300
C  39.58500 41.67500 21.20500
C  38.78700 40.88500 22.27000
N  40.96900 43.37700 25.85900
C  40.73000 44.19000 24.77200
C  40.47400 45.53000 25.16500
C  40.41300 45.45200 26.58900
C  40.66700 44.10100 26.91100
C  40.28700 46.75700 24.31500
C  40.16300 46.20000 27.84800
O  39.79900 47.35100 28.01900
C  40.37400 45.12600 29.00000
C  41.41400 45.60200 29.91400
O  42.63800 45.37700 29.84400
O  40.82500 46.21100 30.98500
C  41.64700 46.63200 32.08400
H  42.29700 38.77000 29.54000
H  42.55300 38.40700 22.88600
H  40.47800 44.41200 22.70100
H  41.28900 43.07400 30.97700
H  41.15200 40.09200 30.99000
H  43.32400 41.90900 31.44800
H  43.84900 40.55900 30.47500
H  43.06100 40.23600 32.00100
H  39.02100 41.05800 30.91400
H  38.79500 42.30600 29.86300
H  37.99300 43.39000 31.90400
H  39.67200 43.67200 32.21800
H  42.99800 36.64500 28.96600
H  44.28800 36.14000 28.06700
H  42.80100 35.40100 27.79200
H  45.05700 35.36500 25.39100
H  44.31200 34.40200 24.15900
H  43.48900 34.40300 25.65900
H  41.29300 39.81000 21.18600
H  41.53100 42.75100 21.08500
H  43.51700 41.72800 20.73400
H  43.16800 40.05700 19.98200
H  44.06100 40.25700 21.46900
H  39.58000 41.21900 20.21500
H  39.04600 42.61600 21.09500
H  38.00600 41.53200 22.66900
H  39.33400 40.48900 23.12700
H  38.29000 40.06600 21.75000
H  40.81400 47.57100 24.81200
H  39.27400 47.15500 24.25400
H  40.77400 46.60400 23.35200
H  39.43300 45.07800 29.54900
H  41.93100 47.68400 32.09000
H  42.57500 46.07700 32.22200
H  41.15400 46.37900 33.02300

