158

Mg 44.19800 5.23900 47.92000
C  42.08300 7.94400 46.97800
C  41.79300 3.13700 47.26100
C  46.53900 2.85000 48.04000
C  46.73300 7.64500 48.30200
N  42.14600 5.59600 47.26800
C  41.49000 6.73900 46.85400
C  40.08400 6.34500 46.33800
C  39.89700 4.86200 46.84500
C  41.38500 4.52000 47.13700
C  38.97000 4.70000 48.08000
C  40.02100 6.36700 44.78500
C  39.15900 7.48600 44.14500
H  39.92200 8.48200 43.24600
N  44.14900 3.30800 47.73000
C  43.04700 2.59900 47.56100
C  43.40200 1.20100 47.56500
C  44.85300 1.10400 47.68800
C  45.25900 2.48600 47.73600
C  42.37500 0.09000 47.47000
C  45.60700 -0.19300 47.65000
O  44.98300 -1.24600 47.81100
C  47.10300 -0.31800 47.38400
N  46.36800 5.29900 47.90200
C  47.07800 4.17900 48.16400
C  48.57000 4.41600 48.38800
C  48.66200 6.00400 48.28200
C  47.16800 6.34800 48.19600
C  49.07300 3.83500 49.79600
C  49.57300 6.58100 47.17300
C  50.65400 7.57300 47.61700
N  44.41600 7.35600 47.76500
C  45.50900 8.16700 47.96500
C  45.12800 9.57800 47.81600
C  43.77300 9.51400 47.42200
C  43.44000 8.15300 47.37900
C  45.96300 10.83600 47.90800
C  42.68400 10.33300 47.08800
O  42.56000 11.53900 46.97500
C  41.50700 9.34700 46.79000
C  40.58100 9.71400 47.87800
O  40.58000 9.20700 49.04300
O  39.68900 10.67000 47.54400
C  38.66500 11.03900 48.54100
H  40.87000 2.55400 47.30200
H  47.33300 2.12400 48.22600
H  47.48600 8.41100 48.49800
H  39.35200 7.00600 46.80200
H  39.39500 4.28800 46.06600
H  38.42800 5.62800 48.26100
H  39.51200 4.35100 48.95900
H  38.22800 3.94700 47.81400
H  39.70800 5.40800 44.37300
H  41.02500 6.53000 44.39200
H  38.63600 8.03300 44.92900
H  38.31400 7.16600 43.53500
H  42.40600 -0.72200 48.19500
H  42.42400 -0.34100 46.47000
H  41.44300 0.65000 47.54800
H  47.44600 0.28300 46.54200
H  47.40400 -1.35600 47.24000
H  47.66700 -0.01500 48.26700
H  49.20300 3.94400 47.63700
H  48.86200 6.48600 49.23900
H  48.34400 3.09800 50.13300
H  49.33500 4.65900 50.45900
H  50.00000 3.26200 49.76800
H  48.86100 7.07400 46.51000
H  49.99500 5.80000 46.54100
H  50.14500 8.50900 47.84800
H  51.51300 7.68700 46.95700
H  51.08500 7.29700 48.57900
H  45.38000 11.73700 48.09600
H  46.59900 10.90200 47.02500
H  46.50100 10.78600 48.85500
H  41.05600 9.47900 45.80700
H  37.75000 10.53100 48.23500
H  38.67000 12.12900 48.52800
H  38.80800 10.72600 49.57600
Mg 47.72200 16.63700 29.31900
C  45.87200 16.36300 32.28200
C  49.96300 18.51900 31.02600
C  49.34000 17.28500 26.43000
C  45.04100 15.32900 27.49400
N  47.81700 17.50000 31.37900
C  47.00300 17.13100 32.38100
C  47.58700 17.66400 33.73700
C  48.77700 18.59300 33.29600
C  48.86100 18.26600 31.81300
C  48.60700 20.09100 33.49300
C  48.05700 16.42100 34.65800
C  47.87800 16.73200 36.14300
H  47.53800 18.17300 36.57300
N  49.49500 17.58700 28.85400
C  50.28600 18.27400 29.70800
C  51.57100 18.64700 29.05900
C  51.44900 18.21300 27.67100
C  50.04500 17.67300 27.56700
C  52.79600 19.26900 29.77500
C  52.42200 18.28200 26.51600
O  52.04100 18.08400 25.36500
C  53.87400 18.59700 26.76600
N  47.23400 16.28000 27.23500
C  48.07900 16.67100 26.19900
C  47.37100 16.51500 24.84800
C  46.05800 15.69700 25.25100
C  46.09000 15.82200 26.73900
C  46.94700 17.84100 24.10000
C  45.98700 14.25600 24.64800
C  45.27400 14.00100 23.29300
N  45.81000 16.02700 29.69000
C  44.81500 15.47800 28.88000
C  43.74500 14.94300 29.67900
C  44.13500 15.21000 31.10500
C  45.39200 15.95300 30.98300
C  42.56800 14.14900 29.14900
C  43.73500 15.12000 32.48200
O  42.73100 14.73000 33.01600
C  44.80300 15.86100 33.30100
C  44.12900 16.91000 34.10000
O  43.72400 18.03300 33.70200
O  44.05900 16.50400 35.39900
C  43.01500 17.27000 36.10800
H  50.74300 19.09500 31.52700
H  49.81500 17.48900 25.46800
H  44.24100 15.05000 26.80500
H  46.69600 18.15700 34.12800
H  49.68200 18.28000 33.81700
H  47.90600 20.14700 34.32600
H  48.18100 20.58600 32.62000
H  49.53500 20.62200 33.70200
H  49.11000 16.23900 34.44300
H  47.43900 15.57200 34.36500
H  48.85600 16.48700 36.55700
H  47.18900 15.96200 36.49300
H  52.51000 19.59700 30.77400
H  53.25200 20.02300 29.13300
H  53.48800 18.44200 29.93300
H  54.09500 18.09400 27.70700
H  54.06400 19.65800 26.92800
H  54.41900 18.20200 25.90800
H  47.98300 16.01400 24.09800
H  45.17900 16.24000 24.90400
H  47.13500 18.66600 24.78700
H  45.94500 17.84100 23.67000
H  47.58700 17.95900 23.22600
H  45.34400 13.76400 25.37900
H  47.01100 13.88700 24.60800
H  45.94800 13.40700 22.67600
H  45.09500 14.93300 22.75600
H  44.25600 13.63600 23.43000
H  42.77100 13.62600 28.21500
H  41.86900 14.97800 29.04200
H  42.14100 13.42500 29.84400
H  45.21400 15.15800 34.02600
H  43.33000 18.23000 36.51500
H  42.80700 16.70900 37.01900
H  42.09600 17.18100 35.52900

