158

Mg 47.40400 14.37600 27.41800
C  45.41900 14.27400 30.31400
C  49.61500 16.43200 29.10100
C  49.24600 14.30600 24.64000
C  44.88200 12.54600 25.77100
N  47.50300 15.21900 29.45100
C  46.64100 14.95000 30.53100
C  47.13900 15.65000 31.77500
C  48.24700 16.57600 31.25000
C  48.45600 16.05500 29.80500
C  47.98400 18.16600 31.21100
C  47.54600 14.67300 32.90500
C  47.16200 15.21200 34.28200
H  48.03600 14.83900 35.49500
N  49.19000 15.35400 26.93400
C  49.97100 16.07200 27.79100
C  51.19100 16.43500 27.12600
C  51.14700 15.84000 25.81700
C  49.83400 15.09500 25.72000
C  52.31200 17.23800 27.76700
C  52.07000 15.84500 24.70800
O  51.91500 15.17000 23.66900
C  53.36900 16.65800 24.76000
N  46.93100 13.74600 25.38100
C  47.93500 13.75300 24.46200
C  47.52500 13.13500 23.14000
C  46.15200 12.43100 23.53400
C  45.98700 12.86200 24.99100
C  47.42800 14.08000 21.93100
C  46.21800 10.89600 23.33800
C  46.68600 10.09600 24.55800
N  45.56800 13.57800 27.88100
C  44.63100 12.90500 27.09300
C  43.47900 12.55900 27.91300
C  43.73000 13.07100 29.14900
C  45.01200 13.65600 29.13800
C  42.25400 11.85300 27.57700
C  43.19300 13.29800 30.41700
O  42.12600 13.03200 30.87800
C  44.31500 13.98400 31.34000
C  43.67900 15.15600 32.09100
O  43.06300 16.04100 31.48400
O  43.79500 15.14600 33.43600
C  42.97300 16.19100 34.09400
H  50.24900 17.17600 29.58800
H  49.76900 14.18600 23.69000
H  44.22400 11.88200 25.20800
H  46.29500 16.32700 31.91100
H  49.22900 16.32000 31.64600
H  47.20700 18.50300 31.89700
H  47.65600 18.49000 30.22400
H  48.85800 18.80700 31.32100
H  48.61600 14.48000 32.82900
H  47.00800 13.73200 32.79300
H  46.19900 14.75400 34.50800
H  47.05200 16.29300 34.37100
H  52.33200 17.25700 28.85600
H  52.12700 18.29600 27.57900
H  53.34100 17.02300 27.47700
H  54.14900 16.09700 25.27600
H  53.24500 17.65900 25.17100
H  53.69300 16.83000 23.73400
H  48.28000 12.40500 22.85000
H  45.30800 12.82500 22.96700
H  47.87500 15.03700 22.19900
H  46.38300 14.14600 21.62600
H  48.02600 13.66000 21.12200
H  46.88800 10.54800 22.55300
H  45.20500 10.58600 23.08000
H  47.16200 9.15800 24.27100
H  45.83100 9.59900 25.01600
H  47.41600 10.58200 25.20600
H  42.04000 12.10800 26.53900
H  41.47800 12.29000 28.20600
H  42.24500 10.78900 27.81200
H  44.65000 13.28500 32.10600
H  41.99600 16.17300 33.61100
H  43.56200 17.10700 34.06000
H  42.88900 15.93400 35.15000
Mg 26.06200 51.97000 26.39000
C  23.91900 52.93000 28.94200
C  28.33000 51.13500 28.77500
C  28.28800 51.61100 23.86700
C  23.79400 53.48900 24.05800
N  26.02700 51.80500 28.57200
C  25.05700 52.25400 29.38600
C  25.39000 52.03100 30.88000
C  26.93700 51.66300 30.82900
C  27.12400 51.55200 29.31400
C  27.84500 52.76100 31.45400
C  24.45300 50.94900 31.62000
C  23.72500 51.57000 32.86900
H  23.54400 50.54400 34.03100
N  28.07400 51.47600 26.32300
C  28.80600 50.99700 27.44400
C  30.12700 50.58500 26.95200
C  30.14600 50.88000 25.58300
C  28.84100 51.34800 25.18000
C  31.26800 50.05500 27.85000
C  31.33000 50.79600 24.62300
O  31.20900 51.17400 23.41200
C  32.69600 50.47100 25.04400
N  26.05200 52.47300 24.32600
C  27.07100 52.15100 23.50900
C  26.77500 52.54500 22.02900
C  25.25200 52.88100 22.04200
C  25.03300 52.96900 23.54300
C  27.65600 53.71400 21.47100
C  24.42000 51.74200 21.31600
C  23.79700 52.25600 20.02900
N  24.13400 52.75900 26.45900
C  23.42700 53.39400 25.42100
C  22.10900 53.87100 25.97400
C  22.30200 53.66200 27.33800
C  23.54600 53.05600 27.59500
C  20.99300 54.60800 25.20000
C  21.64300 53.79800 28.59700
O  20.49000 54.16000 28.81500
C  22.67000 53.34500 29.67800
C  22.90300 54.48200 30.60800
O  23.80400 55.24000 30.44200
O  21.95800 54.45100 31.58000
C  22.02400 55.54100 32.63000
H  29.09800 50.92600 29.52200
H  28.97200 51.41800 23.03800
H  23.07000 53.69400 23.26700
H  25.18000 53.00600 31.32000
H  27.18800 50.67900 31.22400
H  27.45100 53.77600 31.48500
H  28.82100 52.78000 30.96800
H  28.19900 52.51200 32.45400
H  24.91400 49.99500 31.87200
H  23.68900 50.70700 30.88100
H  22.75100 51.83800 32.46000
H  24.28100 52.45500 33.17600
H  32.20300 50.52200 27.53900
H  31.27000 48.96900 27.75800
H  30.99300 50.37800 28.85400
H  32.70500 49.39400 25.21300
H  33.17200 51.09500 25.80100
H  33.29500 50.63600 24.14900
H  26.91500 51.60300 21.49900
H  25.08100 53.87600 21.63100
H  27.95100 54.42900 22.24000
H  27.01100 54.15900 20.71400
H  28.54600 53.32400 20.97800
H  23.66200 51.26800 21.94100
H  25.05800 50.96300 20.89800
H  24.42800 52.02700 19.17000
H  23.63400 53.33100 20.11000
H  22.73100 52.13600 19.83600
H  20.05800 54.10200 25.43800
H  21.05200 54.53600 24.11400
H  21.07000 55.65800 25.48300
H  22.18200 52.53700 30.22400
H  22.96100 55.58600 33.18600
H  21.27500 55.36300 33.40200
H  21.93500 56.50100 32.12200

