158

Mg 47.86500 16.88500 28.96100
C  45.65900 16.72200 31.64600
C  50.08700 18.45100 31.03100
C  49.92100 16.97800 26.41900
C  45.35200 15.47500 26.87600
N  47.73700 17.83300 30.93500
C  46.80400 17.44900 31.94100
C  47.27000 17.87100 33.34100
C  48.44400 18.80600 32.94400
C  48.82000 18.36400 31.59000
C  48.11700 20.36700 33.05000
C  47.66600 16.58600 34.11400
C  48.31900 16.88200 35.46400
H  48.19700 18.24900 36.21800
N  49.73700 17.50000 28.76200
C  50.54300 18.11500 29.73700
C  51.90100 18.20700 29.25500
C  51.91600 17.71700 27.90100
C  50.48400 17.39400 27.62000
C  53.01000 18.76600 30.11100
C  53.07200 17.56300 26.96500
O  52.99200 17.15200 25.82300
C  54.41800 17.80800 27.55300
N  47.55600 16.43000 26.90500
C  48.59500 16.56500 26.06500
C  48.19400 16.18900 24.58700
C  46.73800 15.62300 24.71300
C  46.53900 15.87100 26.23500
C  48.25500 17.45000 23.81000
C  46.63500 14.10400 24.37300
C  45.65300 13.81500 23.23800
N  45.85600 16.31700 29.14800
C  44.99500 15.75800 28.24100
C  43.68700 15.42700 28.91600
C  43.93500 15.79500 30.24200
C  45.23500 16.28900 30.35800
C  42.43200 14.81600 28.29800
C  43.43800 15.71100 31.53600
O  42.36900 15.28200 31.91200
C  44.47000 16.29100 32.50200
C  43.73700 17.37300 33.14000
O  42.94200 18.07600 32.59900
O  43.99400 17.41200 34.49400
C  43.30200 18.36800 35.40700
H  50.90300 18.81300 31.66100
H  50.66100 16.83700 25.62800
H  44.64500 14.98100 26.20600
H  46.49800 18.36500 33.93000
H  49.37900 18.77100 33.50200
H  47.08600 20.55800 33.34700
H  48.31900 20.76000 32.05300
H  48.69900 20.95700 33.75800
H  48.41700 16.14600 33.45700
H  46.79900 15.92800 34.16300
H  49.36300 16.57900 35.38900
H  47.78500 16.16800 36.09100
H  53.33200 17.92800 30.73000
H  52.68700 19.61200 30.71700
H  53.93500 19.11300 29.65100
H  55.24100 17.43300 26.94500
H  54.50200 17.22300 28.46900
H  54.59700 18.87500 27.68400
H  48.89400 15.40800 24.28800
H  45.99100 16.22200 24.19100
H  48.97600 18.15200 24.22700
H  47.28200 17.93000 23.70300
H  48.45900 17.19300 22.77000
H  46.41300 13.45200 25.21800
H  47.62500 13.75200 24.08700
H  45.00800 12.97700 23.49900
H  46.08100 13.59800 22.25900
H  45.06700 14.71900 23.07400
H  42.38300 13.72800 28.34500
H  42.37900 15.11400 27.25100
H  41.51600 15.17400 28.76900
H  44.73100 15.57400 33.28000
H  43.58500 19.37400 35.09700
H  43.64900 18.42300 36.43900
H  42.22900 18.18900 35.47100
Mg 48.05600 25.57000 27.90700
C  49.03500 27.87900 30.30000
C  47.00300 23.53500 30.43400
C  47.34500 23.46500 25.53900
C  50.06500 27.47100 25.61200
N  48.05200 25.67800 30.13300
C  48.44600 26.80200 30.87500
C  47.96500 26.63300 32.36500
C  47.42700 25.15700 32.37200
C  47.47500 24.74700 30.90800
C  48.26800 24.16100 33.22600
C  46.91300 27.72100 32.82900
C  46.09500 27.41800 34.09300
H  45.88200 28.43200 35.26800
N  47.38800 23.74500 27.93300
C  46.91600 23.06800 29.09300
C  46.49000 21.73300 28.68100
C  46.44100 21.74800 27.27800
C  47.03000 23.02600 26.84700
C  46.11700 20.67700 29.67100
C  45.82700 20.72000 26.33000
O  45.96500 20.74400 25.14800
C  45.07900 19.57200 26.90800
N  48.56600 25.54500 25.83100
C  48.03600 24.62000 25.03600
C  48.37100 24.80000 23.57600
C  49.26500 26.13300 23.64500
C  49.34900 26.39300 25.13300
C  49.07200 23.58300 22.91700
C  48.64700 27.35100 22.90000
C  48.22100 27.07300 21.47300
N  49.27100 27.44300 27.85300
C  50.01700 28.03000 26.91600
C  50.64700 29.23500 27.44200
C  50.23700 29.20400 28.84300
C  49.44200 28.06400 28.98500
C  51.45700 30.17200 26.68500
C  50.36000 29.92700 30.02400
O  50.90600 30.99800 30.20100
C  49.49000 29.24300 30.99800
C  50.23500 29.08200 32.28700
O  51.23400 28.32600 32.46100
O  49.70300 29.82800 33.28200
C  50.28200 29.70800 34.59100
H  46.59700 22.75100 31.07600
H  47.10000 22.70700 24.79200
H  50.53300 28.17500 24.92000
H  48.78000 26.75900 33.07800
H  46.39900 25.20300 32.73000
H  49.07600 23.85000 32.56400
H  47.70300 23.24800 33.41300
H  48.65500 24.43600 34.20700
H  46.22100 27.80500 31.99100
H  47.45200 28.66200 32.94500
H  46.58100 26.57700 34.58700
H  45.17700 26.99500 33.68800
H  46.80200 20.82400 30.50600
H  46.24300 19.63900 29.36200
H  45.08200 20.71100 30.01100
H  44.34300 19.93200 27.62700
H  45.62400 18.82400 27.48300
H  44.61800 19.06100 26.06300
H  47.44300 24.95300 23.02500
H  50.23800 25.83900 23.25100
H  48.32200 22.84400 22.63500
H  49.76000 23.11900 23.62400
H  49.74000 23.89700 22.11500
H  49.48200 28.05200 22.91000
H  47.84700 27.78200 23.50100
H  49.07000 26.52900 21.05900
H  48.21400 28.06200 21.01500
H  47.23500 26.61100 21.43100
H  50.92100 31.05000 26.32500
H  52.00400 29.73600 25.84900
H  52.17900 30.41700 27.46400
H  48.64900 29.89000 31.25000
H  51.29400 29.31000 34.67000
H  49.62400 29.16500 35.26900
H  50.32300 30.72400 34.98300

