158

Mg 46.89900 16.72900 28.74900
C  44.90300 16.50200 31.72600
C  49.23900 18.34100 30.61700
C  48.30900 17.70500 25.94900
C  44.10200 15.63300 26.93700
N  47.16900 17.12700 30.95100
C  46.21700 16.97100 31.96400
C  46.76100 17.46600 33.31100
C  48.12000 18.16500 32.92900
C  48.24400 17.84500 31.41100
C  48.21200 19.62300 33.32100
C  47.01400 16.32700 34.30300
C  46.43700 16.64200 35.70400
H  46.39300 18.08900 36.17100
N  48.75400 17.68700 28.31300
C  49.49100 18.35800 29.25400
C  50.51200 19.11000 28.48200
C  50.33300 18.78400 27.12400
C  49.13000 17.95700 27.03900
C  51.44900 20.16600 29.10300
C  51.15500 19.19600 25.91800
O  50.93000 18.78400 24.77400
C  52.30400 20.17300 26.09800
N  46.28400 16.61300 26.77900
C  47.06700 17.10800 25.77100
C  46.47500 16.93400 24.40900
C  45.23400 16.17400 24.68500
C  45.18000 16.11200 26.23900
C  46.18000 18.26900 23.73500
C  45.18400 14.76900 24.05700
C  44.89600 14.63900 22.51800
N  44.89800 16.07300 29.23000
C  43.92600 15.58300 28.39600
C  42.82700 15.07400 29.14300
C  43.14800 15.46800 30.48100
C  44.41400 16.08400 30.46300
C  41.71400 14.40700 28.65400
C  42.66500 15.44400 31.82500
O  41.60500 14.99000 32.32300
C  43.81800 16.10700 32.72600
C  43.24800 17.26400 33.56300
O  43.21500 18.42000 33.15800
O  42.75600 16.80800 34.70800
C  42.07700 17.77400 35.58500
H  49.93200 19.01000 31.13200
H  48.79700 17.95700 25.00600
H  43.23600 15.22900 26.40800
H  46.06100 18.20200 33.70600
H  48.93500 17.70500 33.48800
H  49.20400 19.77400 33.74700
H  47.51900 19.88000 34.12200
H  48.10700 20.30100 32.47500
H  48.07100 16.08800 34.42600
H  46.48900 15.48800 33.84700
H  47.08700 16.20400 36.46100
H  45.46600 16.15100 35.77400
H  51.16800 20.51300 30.09800
H  51.40200 21.08000 28.51000
H  52.43000 19.69100 29.11000
H  53.04300 19.83000 26.82200
H  51.92700 21.18100 26.27600
H  52.83500 20.15300 25.14600
H  47.14900 16.41100 23.72900
H  44.26300 16.62100 24.46800
H  45.13600 18.49900 23.52300
H  46.69600 18.34600 22.77800
H  46.42900 19.07000 24.43100
H  44.41000 14.18900 24.56100
H  46.13200 14.29500 24.31300
H  43.87600 14.25600 22.49400
H  45.55900 13.90300 22.06300
H  45.03300 15.59000 22.00200
H  40.95100 15.12800 28.36100
H  41.25000 13.87800 29.48600
H  41.90500 13.71100 27.83700
H  44.05500 15.36300 33.48700
H  41.51200 18.48300 34.97900
H  42.87700 18.23700 36.16400
H  41.26700 17.38200 36.19900
Mg 27.11200 50.68900 26.85900
C  24.92400 51.74400 29.18300
C  29.51500 50.33800 29.41100
C  29.31800 49.53700 24.58400
C  24.80700 51.46800 24.36300
N  27.17300 51.08500 28.98500
C  26.07600 51.36200 29.80300
C  26.32300 51.11700 31.33100
C  27.87800 50.93100 31.32100
C  28.17900 50.71400 29.72600
C  28.66700 52.07500 31.94900
C  25.56600 49.99400 31.95400
C  24.42600 50.25900 32.92800
H  24.27800 49.39000 34.15100
N  29.15800 50.19500 26.99500
C  29.96500 50.05300 28.12000
C  31.18500 49.37300 27.76400
C  31.19000 49.15900 26.35700
C  29.85500 49.65600 25.93300
C  32.21200 49.05500 28.79800
C  32.24200 48.50100 25.50400
O  32.15000 48.39900 24.32200
C  33.52400 48.04100 26.07300
N  26.95800 50.51200 24.79900
C  28.03100 49.92700 24.03900
C  27.76800 49.80600 22.53500
C  26.22300 50.32400 22.53700
C  25.99100 50.85100 23.97300
C  28.65800 50.64800 21.54800
C  25.19400 49.11200 22.08200
C  24.04200 49.62000 21.28000
N  25.27300 51.45300 26.75900
C  24.41300 51.76100 25.67700
C  23.23600 52.40800 26.16200
C  23.37200 52.39200 27.59000
C  24.60000 51.80400 27.84000
C  22.16500 52.98100 25.31600
C  22.70400 52.69100 28.77100
O  21.64700 53.26700 28.95300
C  23.68200 52.34600 29.90900
C  23.97700 53.48700 30.84400
O  24.92600 54.23700 30.74200
O  23.10500 53.45500 31.92900
C  23.64400 54.22000 33.06100
H  30.19400 50.12000 30.23800
H  30.04600 49.14600 23.87000
H  24.11300 51.71500 23.55700
H  25.97700 52.03300 31.81100
H  28.21000 50.01300 31.80600
H  28.84100 51.66800 32.94500
H  28.07300 52.98600 32.01300
H  29.60800 52.25600 31.43000
H  26.25200 49.34600 32.50100
H  25.16900 49.38300 31.14400
H  23.53900 50.16400 32.30100
H  24.44700 51.29900 33.25300
H  32.28100 47.96800 28.83600
H  32.02100 49.46900 29.78800
H  33.12800 49.48600 28.39200
H  34.22900 48.80800 26.39400
H  33.94300 47.41800 25.28200
H  33.48400 47.33900 26.90600
H  27.84600 48.74000 22.32400
H  26.03100 51.20100 21.91900
H  29.37300 51.15400 22.19700
H  28.12500 51.44500 21.02800
H  28.99000 50.03600 20.71000
H  24.88100 48.65300 23.02000
H  25.64700 48.31900 21.48700
H  23.94200 50.70400 21.22800
H  23.05400 49.33400 21.64200
H  24.24800 49.21900 20.28800
H  22.24900 52.53400 24.32500
H  22.34300 54.05200 25.22400
H  21.25200 52.75800 25.86800
H  23.11300 51.59400 30.45700
H  24.52500 53.77100 33.52100
H  22.76800 54.38900 33.68700
H  23.87100 55.21600 32.68000

