158

Mg 1.19600 7.96500 24.64400
C  1.49200 9.69400 27.80100
C  1.56400 5.01300 26.34900
C  1.01400 6.47300 21.75800
C  1.76300 11.11300 23.02100
N  1.53100 7.50100 26.89200
C  1.47200 8.30800 28.00000
C  1.48200 7.48500 29.32100
C  1.83900 5.97800 28.76800
C  1.70600 6.15200 27.18000
C  3.30700 5.57800 29.03500
C  0.04800 7.58200 29.92600
C  -0.03000 7.33100 31.47100
H  1.10200 6.61500 32.20400
N  1.17700 6.03000 24.09000
C  1.31400 4.92600 24.91500
C  1.01800 3.65900 24.23100
C  0.93100 4.09100 22.83000
C  1.04300 5.60200 22.82900
C  0.94200 2.31300 24.82500
C  0.69300 3.22300 21.63100
O  0.38700 3.71800 20.58400
C  0.70100 1.77500 21.62200
N  1.48800 8.70900 22.70100
C  1.17900 7.81800 21.74000
C  1.16200 8.51300 20.32300
C  1.56200 9.99900 20.68300
C  1.59800 9.94400 22.23600
C  2.06800 7.96100 19.20400
C  0.82000 11.23400 20.05200
C  -0.65200 11.37700 20.38800
N  1.49800 10.02500 25.21400
C  1.66700 11.12000 24.39900
C  1.76300 12.24600 25.18300
C  1.72400 11.79200 26.49900
C  1.58200 10.38100 26.48800
C  1.94500 13.63900 24.65800
C  1.83700 12.09400 27.95400
O  2.00800 13.15000 28.53600
C  1.54100 10.79900 28.80500
C  2.66900 10.78500 29.78300
O  3.84100 10.38100 29.56300
O  2.26100 11.25500 30.96300
C  3.33100 11.46000 31.98000
H  1.67000 4.05100 26.85500
H  0.88700 6.00000 20.78200
H  2.09500 12.06000 22.59000
H  2.29000 7.64400 30.03600
H  1.21100 5.16900 29.14100
H  3.82600 6.26700 29.70200
H  3.94300 5.39500 28.16900
H  3.16200 4.61300 29.52000
H  -0.59500 6.90400 29.36300
H  -0.26300 8.62500 29.87400
H  -0.90500 6.71000 31.66000
H  -0.27000 8.17700 32.11400
H  0.90800 2.18100 25.90600
H  1.77400 1.75100 24.40100
H  0.02500 1.90100 24.40300
H  1.58000 1.33200 22.08900
H  0.63600 1.43500 20.58800
H  -0.28300 1.49100 21.99400
H  0.15300 8.39600 19.92800
H  2.57200 10.19100 20.32000
H  2.44800 8.72900 18.53100
H  1.39900 7.34900 18.60000
H  2.92000 7.44500 19.64700
H  0.89700 11.14100 18.96800
H  1.49700 12.02500 20.37200
H  -0.61100 12.24200 21.05000
H  -0.93800 10.56200 21.05200
H  -1.32800 11.56200 19.55400
H  1.74400 14.34300 25.46600
H  1.36700 13.87100 23.76400
H  3.00400 13.70800 24.40700
H  0.55400 10.90000 29.25800
H  4.07700 12.13800 31.56500
H  3.84800 10.51900 32.17100
H  2.92500 11.81800 32.92700
Mg 47.74900 24.55400 29.34900
C  48.54100 27.01600 31.72800
C  46.52100 22.60700 31.87300
C  47.28100 22.03800 27.03600
C  49.63000 26.36000 26.97100
N  47.48400 24.85100 31.48200
C  47.84100 25.98300 32.29700
C  47.28500 25.79300 33.71400
C  46.94800 24.28200 33.77500
C  46.97400 23.87400 32.27900
C  47.72900 23.39400 34.72300
C  46.18100 26.80800 34.13600
C  46.00300 27.17500 35.59200
H  46.82800 26.61400 36.74700
N  46.91800 22.64000 29.46900
C  46.45700 22.05900 30.63400
C  45.84300 20.79000 30.25500
C  46.10600 20.59200 28.83400
C  46.85200 21.78200 28.38600
C  45.25700 19.95600 31.28800
C  45.82400 19.36100 28.03900
O  46.23500 19.17300 26.91300
C  44.96700 18.28500 28.53500
N  48.60400 24.11600 27.31300
C  48.10000 23.09600 26.59000
C  48.60100 23.17800 25.12300
C  49.26700 24.61300 25.08700
C  49.16800 25.06400 26.51700
C  49.58000 21.95900 24.80400
C  48.54100 25.62100 24.04500
C  47.30600 26.25900 24.58600
N  48.85100 26.27400 29.31600
C  49.55100 26.88500 28.26700
C  50.08900 28.23200 28.74100
C  49.66700 28.29600 30.09100
C  48.90200 27.08700 30.36900
C  50.85100 29.23400 27.87100
C  49.65000 29.19700 31.21600
O  49.96100 30.36600 31.32400
C  48.98300 28.33700 32.43000
C  49.97200 28.14600 33.54800
O  51.09300 27.71100 33.26600
O  49.58200 28.80300 34.69000
C  50.62100 29.02900 35.69600
H  45.98100 22.06400 32.65100
H  47.05000 21.21500 26.35700
H  50.00600 27.00400 26.17300
H  48.17100 25.89900 34.34000
H  45.89000 24.17100 34.01000
H  48.19500 22.67100 34.05400
H  47.00600 22.87500 35.35100
H  48.48100 23.87400 35.34900
H  45.26100 26.24800 33.96900
H  46.22200 27.68400 33.48800
H  44.97200 26.91300 35.82600
H  46.05800 28.25500 35.46000
H  44.36000 19.42500 30.96900
H  45.02500 20.41400 32.25000
H  45.97200 19.15600 31.47700
H  44.08600 18.65900 29.05600
H  45.64200 17.65600 29.11600
H  44.71500 17.58800 27.73600
H  47.65000 23.01600 24.61700
H  50.31000 24.57500 24.77300
H  50.56100 22.34100 25.09000
H  49.58200 21.69700 23.74600
H  49.38200 21.08500 25.42400
H  48.32300 25.03600 23.15100
H  49.28700 26.39200 23.85500
H  47.62400 27.22900 24.96700
H  46.91100 25.87600 25.52700
H  46.54100 26.28900 23.81100
H  51.71300 29.40500 28.51600
H  50.21500 30.11900 27.90600
H  51.24900 29.03100 26.87700
H  48.15500 28.90300 32.85600
H  51.61500 28.85700 35.28300
H  50.42400 28.48600 36.62000
H  50.56400 30.06600 36.02700

