158

Mg 47.00300 34.47000 27.27000
C  45.21900 33.11700 29.93300
C  47.62300 37.25200 29.23800
C  48.14600 36.06000 24.61200
C  45.77600 31.77100 25.27300
N  46.62100 35.03200 29.31700
C  45.90800 34.25300 30.25700
C  46.06900 34.98800 31.71000
C  46.43000 36.42100 31.32700
C  46.92300 36.21200 29.88200
C  45.27100 37.41000 31.32700
C  47.14800 34.22000 32.58000
C  46.87200 34.20100 34.12100
H  45.86200 35.20800 34.72300
N  47.81900 36.34100 27.00900
C  48.08400 37.29600 27.91500
C  48.66000 38.54600 27.30100
C  48.86700 38.26600 25.94100
C  48.27400 36.87200 25.79800
C  49.06200 39.77900 28.12200
C  49.65700 38.98900 24.85800
O  49.86900 38.50500 23.76600
C  50.30600 40.33800 25.16600
N  46.90600 33.98400 25.20900
C  47.56900 34.79500 24.29200
C  47.49400 34.11700 22.86000
C  46.93200 32.74000 23.23100
C  46.47600 32.80100 24.62600
C  46.69800 34.92200 21.81000
C  47.82000 31.47800 22.88300
C  49.21100 31.48300 23.56900
N  45.82900 32.66100 27.47900
C  45.40200 31.58500 26.61800
C  44.51100 30.71100 27.35200
C  44.45800 31.27800 28.59000
C  45.26900 32.39500 28.64900
C  43.77100 29.56100 26.74500
C  43.82900 31.11800 29.86000
O  43.11400 30.20800 30.19800
C  44.06600 32.40100 30.65800
C  44.23500 32.05100 32.02800
O  45.28500 31.72600 32.61200
O  43.00200 32.08000 32.67700
C  42.99700 31.67800 34.10200
H  47.62100 38.18100 29.81200
H  48.46600 36.42600 23.63400
H  45.34400 30.98300 24.65300
H  45.06200 34.98600 32.12700
H  47.20600 36.88200 31.93900
H  45.42300 38.24700 32.00900
H  44.36900 36.91400 31.68500
H  45.03100 37.89700 30.38200
H  48.16400 34.54800 32.35800
H  47.20900 33.28400 32.02600
H  47.71200 34.47600 34.75800
H  46.64200 33.18800 34.45300
H  48.21100 40.05400 28.74500
H  49.32400 40.66700 27.54900
H  49.94100 39.42700 28.66200
H  50.88200 40.61200 24.28200
H  50.91900 40.31700 26.06700
H  49.49700 41.06000 25.27700
H  48.54300 34.00900 22.58700
H  46.05200 32.46600 22.65000
H  45.90600 34.24100 21.49600
H  47.27500 35.10200 20.90300
H  46.30100 35.78800 22.34000
H  47.86100 31.26400 21.81500
H  47.28700 30.55900 23.12900
H  50.03800 31.67600 22.88500
H  49.27700 30.54600 24.12400
H  49.20000 32.22000 24.37200
H  44.46000 29.10400 26.03400
H  42.83200 29.80200 26.24600
H  43.49400 28.81400 27.48800
H  43.18900 33.00400 30.42000
H  43.45600 32.42900 34.74600
H  43.50700 30.72000 34.20000
H  41.95900 31.55200 34.40900
Mg 40.78200 40.88600 26.65200
C  40.31500 43.26300 29.17000
C  41.50000 38.59800 29.12700
C  41.64100 38.75100 24.23200
C  40.55300 43.44000 24.26300
N  41.04100 40.95300 28.96900
C  40.56900 42.00600 29.75300
C  40.62300 41.62900 31.23000
C  41.12400 40.13600 31.15400
C  41.23400 39.87000 29.68700
C  42.45800 39.81000 31.94400
C  39.29400 41.81600 31.97800
C  39.16100 42.84700 33.04700
H  38.52400 42.51300 34.37900
N  41.54500 38.97100 26.70200
C  41.82400 38.20300 27.79800
C  42.32200 36.86600 27.41700
C  42.31700 36.92000 25.99700
C  41.82600 38.19600 25.55600
C  42.74800 35.75500 28.38800
C  42.83400 35.82400 25.00300
O  42.90200 35.99600 23.77600
C  43.45900 34.54600 25.52400
N  41.00900 41.05300 24.53100
C  41.29100 40.02400 23.74300
C  41.18100 40.27800 22.20300
C  40.55400 41.74900 22.32200
C  40.69000 42.11500 23.77800
C  42.61400 40.14300 21.55100
C  39.05800 41.83300 21.88200
C  38.14500 40.60800 22.14800
N  40.39300 42.98500 26.64300
C  40.39400 43.88400 25.59800
C  40.19900 45.14100 26.11000
C  40.17900 45.02300 27.50600
C  40.28600 43.61200 27.76300
C  40.22200 46.41500 25.28000
C  39.96300 45.68200 28.77700
O  39.65500 46.82900 29.06500
C  40.06500 44.58900 29.87100
C  41.07700 44.98000 30.89600
O  42.23800 44.73200 30.78300
O  40.43700 45.79900 31.83500
C  41.39000 46.39100 32.80700
H  41.64300 37.76500 29.81700
H  41.86500 38.04400 23.43000
H  40.48300 44.21000 23.49100
H  41.23800 42.33200 31.79100
H  40.40300 39.41600 31.54000
H  42.23600 39.01900 32.66100
H  42.67400 40.65200 32.60200
H  43.33400 39.59100 31.33300
H  38.72600 40.93900 32.28900
H  38.68200 42.23700 31.18100
H  38.53700 43.69100 32.75100
H  40.13400 43.31000 33.21200
H  43.62200 35.25900 27.96500
H  42.01900 34.94600 28.42700
H  43.15600 36.06000 29.35100
H  42.91300 33.89800 26.21000
H  44.34700 34.90500 26.04500
H  43.54300 33.94500 24.61900
H  40.50600 39.63000 21.64400
H  41.09700 42.36700 21.60800
H  43.39700 40.14600 22.30900
H  42.73600 40.96800 20.84900
H  42.69000 39.34400 20.81400
H  39.03300 42.06900 20.81800
H  38.51500 42.70400 22.24800
H  37.84800 40.00500 21.29000
H  37.15800 40.82000 22.55900
H  38.64300 39.95900 22.86900
H  40.44500 46.24900 24.22500
H  41.03000 47.09900 25.53900
H  39.27200 46.92500 25.43400
H  39.13800 44.53900 30.44200
H  41.90000 45.60300 33.36200
H  40.78800 46.89400 33.56300
H  42.01900 47.16700 32.37000

