158

Mg 17.67000 -1.49400 28.15200
C  16.29200 0.52700 30.66200
C  19.38800 -3.12700 30.65300
C  19.32700 -3.29900 25.86000
C  15.97300 0.20500 25.74200
N  17.76500 -1.18000 30.43200
C  17.13300 -0.37500 31.25900
C  17.48500 -0.62000 32.77500
C  18.63400 -1.66700 32.68400
C  18.65200 -2.01400 31.18100
C  20.09200 -1.18100 33.07600
C  16.14500 -0.92500 33.51500
C  16.09100 -0.30700 34.93100
H  17.03400 -0.83600 35.99100
N  19.06600 -3.02100 28.27800
C  19.62900 -3.57300 29.38200
C  20.43900 -4.73100 28.97400
C  20.55300 -4.71000 27.53000
C  19.64000 -3.65900 27.15800
C  21.11400 -5.63000 29.99800
C  21.24600 -5.67900 26.63200
O  21.24500 -5.71800 25.39400
C  22.05800 -6.87500 27.21100
N  17.74300 -1.39500 26.07200
C  18.47800 -2.31900 25.39600
C  18.17600 -2.14900 23.85000
C  17.12400 -1.01000 23.75400
C  16.93000 -0.71600 25.26200
C  19.46200 -1.86000 23.06000
C  15.69400 -1.43900 23.08200
C  14.93000 -0.40700 22.15600
N  16.52800 0.10700 28.08300
C  15.84200 0.73200 27.06100
C  15.04700 1.80500 27.59200
C  15.19900 1.71200 28.93300
C  16.09200 0.67200 29.24900
C  14.00100 2.63600 26.87400
C  14.74500 2.38200 30.20500
O  13.93400 3.26400 30.47600
C  15.56500 1.70800 31.31500
C  16.55100 2.72600 31.87100
O  17.53600 3.08800 31.23200
O  16.22800 3.10600 33.14300
C  17.18400 3.95200 33.86300
H  19.88600 -3.63600 31.48100
H  19.91200 -3.82100 25.10000
H  15.34000 0.77600 25.06000
H  17.93700 0.28700 33.17800
H  18.37600 -2.57300 33.23200
H  20.67000 -2.06300 33.35200
H  20.14100 -0.46300 33.89400
H  20.54500 -0.68500 32.21800
H  16.23800 -2.00200 33.65000
H  15.23700 -0.61600 32.99800
H  15.12600 -0.63900 35.31400
H  16.05300 0.77700 34.82500
H  22.11800 -5.70400 29.58100
H  20.54500 -6.55800 30.06500
H  21.32500 -5.26700 31.00300
H  21.36100 -7.19700 27.98500
H  23.00500 -6.58600 27.66700
H  22.06600 -7.67300 26.46900
H  17.80400 -3.12100 23.52400
H  17.63200 -0.17200 23.27800
H  20.18100 -1.35000 23.70100
H  19.26600 -1.21500 22.20400
H  19.96700 -2.78600 22.78300
H  15.01100 -1.55300 23.92400
H  15.79300 -2.37500 22.53300
H  14.56500 -0.86800 21.23800
H  15.48000 0.51900 21.99000
H  14.10400 -0.00300 22.74100
H  14.46800 3.48900 26.38200
H  13.16200 2.93600 27.50200
H  13.62500 1.95700 26.11000
H  14.93200 1.37000 32.13600
H  16.84600 3.60800 34.84100
H  16.85900 4.99000 33.79000
H  18.18700 3.86600 33.44600
Mg 16.33600 52.44600 26.42800
C  18.09200 51.04600 29.20600
C  14.08200 53.68200 28.70200
C  14.36100 52.93300 23.90100
C  18.77100 50.95300 24.33500
N  15.98600 52.19800 28.66700
C  16.93200 51.75000 29.62400
C  16.46800 52.11000 31.06200
C  15.01500 52.53900 30.83900
C  14.98900 52.86800 29.31500
C  13.93300 51.48100 31.18600
C  17.32600 53.28100 31.69900
C  17.85100 53.04000 33.07100
H  17.01300 52.02100 33.92800
N  14.60300 53.33800 26.30100
C  13.82200 53.86600 27.31200
C  12.70600 54.66600 26.67000
C  12.64900 54.27300 25.30700
C  13.88700 53.45100 25.11500
C  11.73700 55.59700 27.43400
C  11.56800 54.65800 24.22800
O  11.61600 54.40200 22.99900
C  10.48100 55.60300 24.65800
N  16.64300 52.01400 24.39400
C  15.62000 52.27100 23.51200
C  15.98800 51.83500 22.10700
C  17.51300 51.47900 22.23000
C  17.65900 51.48200 23.73000
C  15.17800 50.65100 21.56200
C  18.38800 52.49700 21.44000
C  18.97700 53.77900 21.96300
N  18.11300 51.33600 26.70800
C  18.96300 50.78900 25.74600
C  20.05000 49.98800 26.35800
C  19.71100 50.11700 27.69000
C  18.53600 50.88800 27.82800
C  21.24100 49.35900 25.77000
C  20.22400 49.91300 29.03000
O  21.29500 49.44700 29.31700
C  19.20700 50.50900 30.06000
C  18.75600 49.34300 30.93000
O  17.79200 48.63800 30.64200
O  19.59200 49.22700 32.02200
C  19.39100 48.11300 32.87900
H  13.36500 54.19600 29.34500
H  13.85000 53.16100 22.96300
H  19.57500 50.56800 23.70300
H  16.60200 51.15300 31.56600
H  14.74400 53.49300 31.29200
H  13.55700 51.65200 32.19500
H  14.25600 50.45100 31.03600
H  13.10400 51.54400 30.48100
H  16.78000 54.22200 31.63700
H  18.19600 53.35100 31.04600
H  17.96200 53.94500 33.66900
H  18.82700 52.59900 32.87200
H  11.85900 56.60900 27.04900
H  12.05100 55.79500 28.45800
H  10.68800 55.30100 27.42900
H  9.66600 55.47100 23.94600
H  10.87600 56.60900 24.79600
H  10.05000 55.27000 25.60200
H  15.72000 52.62700 21.40800
H  17.80600 50.50800 21.83100
H  15.78800 49.74800 21.54600
H  14.95100 50.78800 20.50400
H  14.22000 50.46800 22.04900
H  17.96000 52.96100 20.55200
H  19.13400 51.90800 20.90600
H  18.47400 54.67000 21.58800
H  20.01600 53.75800 21.63300
H  18.98800 53.89600 23.04700
H  22.06400 49.26500 26.47800
H  21.53500 49.76200 24.80100
H  21.03200 48.29000 25.75100
H  19.73000 51.21700 30.70300
H  19.28900 47.21600 32.26700
H  18.40200 48.16100 33.33500
H  20.09500 48.06700 33.70900

