158

Mg 1.24500 8.01300 27.41200
C  1.59200 10.42200 29.86800
C  1.11100 5.63500 29.91700
C  0.95300 5.80000 24.99400
C  1.22600 10.65200 25.02900
N  1.15200 8.04100 29.70600
C  1.33600 9.15400 30.47800
C  1.20500 8.76600 31.97400
C  1.45300 7.19300 31.91900
C  1.18900 6.89900 30.42100
C  2.82300 6.65400 32.39400
C  -0.22600 9.07700 32.52400
C  -0.62200 8.66400 33.93000
H  0.51300 8.34200 34.86300
N  1.13000 5.94100 27.41200
C  1.09700 5.11100 28.57200
C  0.98700 3.78300 28.12600
C  0.87000 3.80300 26.71500
C  1.01100 5.25400 26.27400
C  0.77700 2.55700 29.01200
C  0.54500 2.71900 25.71000
O  0.38300 2.97800 24.52100
C  0.28300 1.32400 26.11100
N  1.14200 8.23200 25.38700
C  0.98000 7.13600 24.57300
C  0.79200 7.47300 23.04300
C  0.51600 9.02200 23.15000
C  0.87700 9.35700 24.65200
C  2.08500 7.01500 22.19200
C  -0.89000 9.44600 22.75700
C  -1.08300 10.00600 21.33700
N  1.40900 10.16000 27.37400
C  1.47700 11.08400 26.37000
C  1.72600 12.45000 26.89900
C  1.69400 12.24100 28.29700
C  1.57600 10.81300 28.50200
C  1.91000 13.79600 26.10500
C  1.90400 12.86100 29.55100
O  2.23700 14.02900 29.74200
C  1.69100 11.71800 30.66500
C  2.63600 11.74100 31.71800
O  3.83800 11.49900 31.65300
O  2.09300 12.23700 32.91600
C  2.96900 12.32000 34.05100
H  1.04600 4.86000 30.68300
H  0.73300 5.09500 24.19000
H  1.21500 11.49300 24.33300
H  2.00400 9.23800 32.54600
H  0.68300 6.79300 32.57900
H  3.12900 5.93300 31.63600
H  2.74700 6.12500 33.34400
H  3.56700 7.44700 32.47500
H  -0.99600 8.77200 31.81500
H  -0.30000 10.15700 32.39800
H  -1.30100 7.81100 33.90300
H  -1.15700 9.51400 34.35300
H  1.38700 1.71500 28.68600
H  -0.26200 2.22600 29.01300
H  1.00100 2.77700 30.05600
H  1.14400 0.92600 26.64800
H  0.31100 0.66200 25.24600
H  -0.52800 1.15800 26.82100
H  -0.07400 6.88800 22.73500
H  1.10500 9.64800 22.48000
H  1.62900 6.19200 21.64200
H  2.88600 6.64700 22.83400
H  2.38800 7.82400 21.52700
H  -1.14600 10.31100 23.36900
H  -1.53600 8.57700 22.88100
H  -0.37200 10.79700 21.09700
H  -2.05700 10.49600 21.33200
H  -0.95900 9.22100 20.59200
H  1.81600 13.69700 25.02400
H  2.92700 14.09800 26.35400
H  1.22500 14.60800 26.35100
H  0.73800 11.85700 31.17700
H  2.35000 12.26100 34.94600
H  3.46000 13.28900 34.15100
H  3.73900 11.56100 34.18600
Mg 34.55300 2.71800 28.61500
C  32.88500 3.51500 31.50700
C  37.52600 2.36300 30.51500
C  36.30400 2.54300 25.78500
C  31.61000 3.54200 26.73800
N  35.12000 2.85800 30.75600
C  34.24300 3.18600 31.80600
C  34.93700 3.13200 33.18800
C  36.43900 2.82400 32.79900
C  36.38400 2.65500 31.22800
C  37.56000 3.85600 33.15400
C  34.25600 2.12600 34.16700
C  33.79300 2.61600 35.51600
H  34.49400 3.84700 36.20000
N  36.62600 2.36100 28.24300
C  37.67900 2.28300 29.14900
C  38.85600 1.96300 28.42700
C  38.48000 2.01500 27.00300
C  37.11400 2.33500 26.94400
C  40.26000 1.83300 29.06500
C  39.40300 1.90700 25.73300
O  38.96100 1.93700 24.58700
C  40.82700 1.59900 25.84300
N  34.03700 3.06500 26.57000
C  34.98000 2.89500 25.60200
C  34.35400 2.99900 24.28400
C  32.83400 2.85000 24.52800
C  32.81500 3.23300 26.07200
C  34.83200 4.36400 23.62300
C  32.27700 1.42400 24.29400
C  30.73000 1.37700 24.15100
N  32.64900 3.41800 28.93500
C  31.52800 3.58100 28.14600
C  30.35300 3.76800 29.01200
C  30.87800 3.84300 30.30800
C  32.22700 3.56400 30.23700
C  28.91700 4.07600 28.56600
C  30.48900 3.98600 31.69300
O  29.43500 4.13500 32.24000
C  31.76100 3.93700 32.46300
C  32.07700 5.15300 33.26100
O  32.81900 6.07500 32.98500
O  31.29000 5.24600 34.43000
C  31.08200 6.59900 34.92300
H  38.38900 2.16200 31.15400
H  36.68500 2.34800 24.78000
H  30.65700 3.61100 26.20900
H  34.99100 4.07400 33.73400
H  36.64700 1.83800 33.21500
H  37.28700 4.50500 33.98700
H  37.78200 4.31400 32.19000
H  38.43400 3.32200 33.52900
H  34.90100 1.28000 34.40600
H  33.40800 1.74400 33.59800
H  33.89800 1.79900 36.23000
H  32.74100 2.86200 35.37000
H  40.96400 2.42200 28.47800
H  40.65000 0.81700 29.01200
H  40.29100 2.20400 30.08900
H  40.94100 0.59800 26.26000
H  41.37400 2.38600 26.36200
H  41.11500 1.41800 24.80800
H  34.82100 2.21200 23.69200
H  32.35200 3.65200 23.96900
H  34.01500 5.03000 23.34400
H  35.27900 4.07300 22.67200
H  35.55100 4.97700 24.16500
H  32.50800 0.91900 25.23200
H  32.81700 0.94300 23.47900
H  30.47900 0.84100 23.23600
H  30.28500 2.36400 24.02300
H  30.16400 0.85200 24.92000
H  28.40100 4.47300 29.44100
H  28.41000 3.18000 28.20900
H  28.90800 4.77300 27.72900
H  31.62300 3.13400 33.18700
H  31.00200 7.39100 34.17800
H  31.80700 6.93700 35.66300
H  30.10200 6.47200 35.38200

