158

Mg 36.16000 48.77400 25.95700
C  36.34300 47.22600 29.08100
C  34.67800 51.48300 27.58800
C  35.54200 50.07500 22.97400
C  37.03200 45.78000 24.49500
N  35.52700 49.25600 28.06700
C  35.86400 48.55100 29.13900
C  35.46700 49.32700 30.46200
C  34.67700 50.56300 29.94300
C  34.99600 50.44700 28.42700
C  33.19900 50.64100 30.31400
C  36.79700 49.73500 31.19600
C  37.09500 49.18500 32.57200
H  36.10800 49.53800 33.74500
N  35.32300 50.61300 25.33800
C  34.77200 51.59500 26.20800
C  34.32700 52.69100 25.37700
C  34.61300 52.32100 23.97100
C  35.08800 50.95600 24.03700
C  33.82700 54.06600 26.02800
C  34.41600 53.05700 22.67500
O  34.62200 52.56000 21.54000
C  33.87100 54.42200 22.69900
N  36.22900 48.00500 24.00600
C  36.06400 48.80200 22.99100
C  36.27300 48.03000 21.66200
C  36.81300 46.57900 22.15400
C  36.83300 46.82900 23.60200
C  34.97700 47.99700 20.80700
C  38.18500 46.33100 21.54700
C  38.22900 45.30200 20.42100
N  36.46600 46.83500 26.57800
C  36.82200 45.70900 25.92400
C  36.96200 44.57000 26.84000
C  36.85800 45.16500 28.10600
C  36.54300 46.51100 27.88500
C  37.26400 43.14700 26.49400
C  36.96700 44.85500 29.54500
O  37.24100 43.84900 30.10700
C  36.67400 46.24200 30.24400
C  35.55300 46.12200 31.17100
O  34.34400 46.16200 30.88400
O  36.00800 45.74100 32.45900
C  35.08800 45.39500 33.50200
H  34.05200 52.25300 28.04500
H  35.44000 50.49400 21.97000
H  37.19100 44.81400 24.01000
H  34.81800 48.69000 31.06400
H  35.07600 51.52600 30.26300
H  32.62300 50.65900 29.38900
H  33.08200 51.56300 30.88200
H  33.04200 49.74100 30.90900
H  36.77400 50.81000 31.37700
H  37.65200 49.59500 30.53500
H  38.09500 49.53900 32.82300
H  37.29600 48.11500 32.62100
H  34.61500 54.72500 26.39300
H  33.17400 53.89900 26.88400
H  33.29900 54.55900 25.21100
H  34.39200 55.23100 23.21200
H  32.85300 54.39600 23.09000
H  33.71900 54.64000 21.64100
H  37.00900 48.58300 21.07800
H  36.13200 45.75300 21.95300
H  34.90700 47.02300 20.32100
H  34.92200 48.81100 20.08500
H  34.08300 48.18600 21.40100
H  38.80700 45.79400 22.26300
H  38.71100 47.21000 21.17500
H  38.50400 45.75000 19.46600
H  37.25400 44.85700 20.21900
H  38.97500 44.54300 20.65700
H  38.20100 42.99400 27.02900
H  37.45900 43.01300 25.43000
H  36.60000 42.34100 26.80500
H  37.52500 46.60300 30.82000
H  35.34800 44.36900 33.76100
H  34.03100 45.52400 33.26900
H  35.10900 46.02400 34.39100
Mg 1.04600 43.68200 25.18900
C  2.39200 43.46100 28.40800
C  -2.09000 42.56300 26.50700
C  -0.24000 42.95200 22.08500
C  4.08300 44.34600 23.81600
N  0.27800 43.13500 27.18300
C  0.95000 43.30500 28.39300
C  0.08600 43.07700 29.59700
C  -1.32600 42.62200 28.96700
C  -1.05300 42.78700 27.47100
C  -1.77900 41.18200 29.40000
C  -0.04500 44.50700 30.26300
C  -0.13500 44.44200 31.80500
H  -0.47900 43.19200 32.62400
N  -0.92900 43.00100 24.42300
C  -2.02300 42.71900 25.14800
C  -3.14500 42.50800 24.22500
C  -2.60200 42.49200 22.91700
C  -1.23400 42.80000 23.07700
C  -4.47700 42.21000 24.80000
C  -3.20300 42.20800 21.58000
O  -2.59300 42.27400 20.54300
C  -4.73600 41.88900 21.46500
N  1.86100 43.34000 23.17100
C  1.13000 43.26600 22.06800
C  1.89900 43.60900 20.85000
C  3.11300 44.43600 21.42500
C  3.03400 44.02700 22.91800
C  2.33200 42.43500 19.94400
C  2.87000 45.99300 21.22900
C  4.02000 46.66100 20.63400
N  2.95300 43.85000 25.96000
C  4.10800 44.14400 25.27700
C  5.14700 44.32000 26.25900
C  4.52300 43.94600 27.46500
C  3.17700 43.71400 27.28000
C  6.53800 44.77700 25.95300
C  4.66400 43.93400 28.93200
O  5.61000 44.23900 29.59300
C  3.32300 43.59900 29.59200
C  3.54500 42.46700 30.57200
O  3.25000 41.31100 30.35900
O  4.07000 42.95300 31.73900
C  4.04600 42.02900 32.90100
H  -3.06800 42.43500 26.97700
H  -0.57600 42.89200 21.04700
H  4.95400 44.84000 23.38000
H  0.60100 42.33800 30.21100
H  -2.03700 43.41400 29.20300
H  -2.76000 41.30500 29.85900
H  -1.08900 40.78000 30.14200
H  -1.90000 40.52100 28.54200
H  -0.91300 45.06600 29.91300
H  0.74200 45.21000 29.99200
H  -0.83700 45.14000 32.26100
H  0.83700 44.73900 32.19800
H  -5.07200 42.09200 23.89500
H  -4.72000 42.86400 25.63800
H  -4.54300 41.20900 25.22600
H  -5.38300 42.74300 21.66900
H  -4.95500 40.94600 21.96700
H  -4.84600 41.84000 20.38200
H  1.28300 44.17000 20.14700
H  4.04300 44.05200 21.00600
H  1.70800 42.40500 19.05100
H  2.22600 41.53500 20.55000
H  3.32100 42.55900 19.50100
H  2.51800 46.48100 22.13800
H  2.08500 46.10800 20.48100
H  3.74800 46.96700 19.62400
H  4.99300 46.17000 20.64600
H  4.12800 47.60400 21.17000
H  7.28200 44.09500 26.36400
H  6.64400 45.78900 26.34400
H  6.69100 44.69200 24.87800
H  3.03200 44.43700 30.22400
H  4.05800 42.76300 33.70700
H  4.88300 41.33200 32.86200
H  3.10600 41.50000 33.05600

