158

Mg 34.71400 2.97600 29.65900
C  32.63900 3.97700 32.17900
C  37.43300 2.98700 31.91700
C  36.95300 2.38900 27.13300
C  32.19900 3.33700 27.33300
N  34.98800 3.27800 31.85400
C  33.98100 3.79500 32.63500
C  34.38900 3.85500 34.13300
C  35.94400 3.77300 33.92500
C  36.20700 3.32600 32.49100
C  36.69800 5.08400 34.28900
C  33.78900 2.75600 35.08600
C  33.57700 3.12400 36.58000
H  34.66300 4.05500 37.12600
N  36.81600 2.49400 29.55900
C  37.73600 2.62200 30.55700
C  39.00200 2.30200 30.03800
C  38.94800 2.09400 28.71000
C  37.51300 2.40400 28.36100
C  40.25700 2.43100 30.88600
C  39.95700 1.56900 27.70200
O  39.75800 1.49900 26.45700
C  41.28900 1.04600 28.10600
N  34.64100 2.87600 27.53200
C  35.67300 2.50900 26.72000
C  35.31200 2.51500 25.32000
C  33.71600 2.40200 25.45900
C  33.44500 2.82900 26.91000
C  35.96000 3.76200 24.53400
C  33.14100 0.96400 25.16000
C  32.09300 0.92600 24.06600
N  32.83500 3.53900 29.68800
C  31.87800 3.62600 28.65700
C  30.62100 4.01800 29.22900
C  30.84300 4.20900 30.56400
C  32.25500 3.87200 30.79600
C  29.35300 4.21200 28.47000
C  30.26100 4.52500 31.86100
O  29.10200 4.69600 32.18600
C  31.36400 4.44400 32.90000
C  31.50000 5.54000 33.75800
O  32.01200 6.58100 33.40300
O  31.29500 5.29300 35.05500
C  31.54500 6.31600 36.05600
H  38.27300 2.92300 32.61200
H  37.71400 2.32500 26.35200
H  31.40100 3.47400 26.59900
H  34.23300 4.88700 34.44800
H  36.37800 2.89500 34.40200
H  36.05900 5.73800 34.88200
H  36.93900 5.59200 33.35600
H  37.63500 4.83700 34.78700
H  34.45600 1.89800 35.16300
H  32.80800 2.42000 34.75000
H  33.71100 2.21500 37.16600
H  32.56900 3.51100 36.72700
H  40.04200 2.80900 31.88500
H  40.86900 3.13300 30.31900
H  40.62200 1.40400 30.89200
H  41.19500 0.14200 28.70700
H  41.75900 1.80000 28.73800
H  41.77300 0.91400 27.13800
H  35.83100 1.66500 24.87700
H  33.23900 3.08600 24.75600
H  35.35700 4.42900 23.91800
H  36.75700 3.42200 23.87200
H  36.34600 4.46700 25.27000
H  32.59700 0.68200 26.06200
H  33.94300 0.25100 24.97100
H  32.40100 0.16600 23.34800
H  31.78500 1.82800 23.53700
H  31.23900 0.53800 24.62300
H  29.60700 4.87200 27.64100
H  28.58700 4.68400 29.08500
H  29.02400 3.20500 28.21600
H  31.02000 3.59100 33.48400
H  31.07600 5.91800 36.95600
H  30.98000 7.23800 35.92100
H  32.58400 6.64500 36.09300
Mg -1.37900 34.31800 27.98500
C  -3.02900 32.24300 30.14200
C  -0.09100 36.08500 30.58000
C  0.02600 36.48900 25.73500
C  -3.09300 32.74600 25.30300
N  -1.58900 34.17500 30.06000
C  -2.29300 33.20200 30.84000
C  -2.01900 33.38100 32.35800
C  -1.32600 34.79300 32.42900
C  -0.93400 35.00600 30.94600
C  -2.25200 35.99300 32.84200
C  -1.11500 32.19000 32.98000
C  -1.78100 31.57300 34.15100
H  -0.98300 31.66900 35.43700
N  -0.14100 35.99000 28.12000
C  0.27100 36.57100 29.29200
C  1.29800 37.65400 29.02000
C  1.40900 37.69100 27.61700
C  0.42600 36.67800 27.07200
C  2.02200 38.46400 30.14900
C  2.34100 38.69400 26.83100
O  2.45100 38.58500 25.57700
C  3.19500 39.67000 27.47300
N  -1.67400 34.62900 25.89200
C  -1.06900 35.64800 25.24900
C  -1.49600 35.71600 23.74300
C  -1.88700 34.21100 23.55200
C  -2.23500 33.78900 24.97300
C  -2.71300 36.65800 23.55700
C  -0.67800 33.40800 22.99400
C  -0.96100 31.96700 22.39400
N  -2.78600 32.86000 27.71200
C  -3.36500 32.28600 26.61200
C  -4.05900 31.06400 26.96000
C  -3.95300 30.98300 28.34700
C  -3.22600 32.09400 28.80400
C  -4.84100 30.18600 26.08100
C  -4.29500 30.24500 29.50800
O  -5.08000 29.31300 29.70800
C  -3.56300 30.96100 30.71800
C  -4.72300 31.17000 31.71100
O  -5.54300 32.03600 31.73600
O  -4.60300 30.13700 32.66800
C  -5.77600 30.05200 33.49900
H  0.38700 36.61600 31.40600
H  0.47700 37.18400 25.02400
H  -3.44500 32.20600 24.42200
H  -2.98500 33.41500 32.86100
H  -0.44900 34.78000 33.07500
H  -2.43500 36.71800 32.04900
H  -1.77500 36.40600 33.73100
H  -3.25800 35.69000 33.13300
H  -0.15400 32.61900 33.26600
H  -0.92100 31.44700 32.20600
H  -1.88900 30.53100 33.85300
H  -2.82300 31.84200 34.32500
H  1.53000 38.38900 31.11900
H  1.89600 39.49800 29.83000
H  3.06900 38.16100 30.17000
H  2.63400 40.45500 27.98100
H  3.75300 40.11900 26.65200
H  3.97400 39.32000 28.15100
H  -0.69900 36.08800 23.10000
H  -2.64100 34.02900 22.78600
H  -3.17000 37.00900 24.48200
H  -3.46900 36.21900 22.90600
H  -2.45500 37.56900 23.01500
H  -0.05100 33.20400 23.86100
H  -0.14900 34.05000 22.28900
H  -2.03700 31.84300 22.27300
H  -0.58200 31.29700 23.16400
H  -0.34300 31.84400 21.50400
H  -4.62900 29.19000 26.47000
H  -4.54800 30.23200 25.03300
H  -5.89900 30.35100 26.28800
H  -2.69200 30.43700 31.11200
H  -5.87400 28.97600 33.64500
H  -6.74800 30.28200 33.06100
H  -5.39200 30.58100 34.37100

