158

Mg 17.17600 -0.62600 28.09400
C  15.90500 1.11300 30.76300
C  19.35600 -2.16900 30.29100
C  18.34200 -2.37900 25.43300
C  15.39100 1.41100 26.00700
N  17.66200 -0.41600 30.33800
C  16.83900 0.19900 31.21600
C  17.11600 -0.20300 32.66200
C  18.45500 -1.02900 32.49600
C  18.49700 -1.21900 30.93000
C  19.74100 -0.34800 33.07600
C  15.91000 -0.81300 33.35500
C  15.54800 -0.35300 34.77000
H  16.68800 0.00500 35.69100
N  18.65800 -1.99800 27.88300
C  19.39500 -2.62100 28.90200
C  20.06900 -3.73000 28.38900
C  19.94300 -3.75300 26.97800
C  18.97400 -2.69200 26.66300
C  20.94400 -4.63000 29.19400
C  20.51800 -4.60300 25.90700
O  20.31100 -4.42500 24.69300
C  21.46700 -5.74000 26.28500
N  17.07700 -0.35700 26.07400
C  17.48900 -1.32500 25.21600
C  17.10000 -0.89700 23.77500
C  15.96000 0.09700 24.02100
C  16.10600 0.41400 25.46500
C  18.31900 -0.41900 22.91400
C  14.49600 -0.34800 23.58200
C  14.15500 -0.05200 22.15800
N  15.90500 0.85600 28.24000
C  15.27800 1.71100 27.35700
C  14.52500 2.70900 27.97300
C  14.63900 2.45500 29.35600
C  15.57900 1.36200 29.41400
C  13.85500 3.86200 27.28100
C  14.21800 2.97700 30.62500
O  13.38500 3.74800 30.94500
C  14.95100 2.01700 31.59100
C  15.69600 2.94000 32.50100
O  16.80300 3.42400 32.24500
O  14.99300 3.22400 33.66000
C  15.68100 4.01800 34.60900
H  19.95700 -2.74700 30.99600
H  18.60400 -2.86800 24.49300
H  14.77600 2.01600 25.33700
H  17.19900 0.71200 33.24800
H  18.38100 -1.90100 33.14600
H  19.75200 -0.38400 34.16600
H  19.82200 0.67300 32.70300
H  20.51800 -1.01300 32.69800
H  16.13500 -1.88000 33.36800
H  15.14100 -0.66000 32.59800
H  15.06100 -1.13700 35.34900
H  14.81300 0.45100 34.71200
H  21.98700 -4.67900 28.88200
H  20.42500 -5.58400 29.10700
H  21.05900 -4.44400 30.26200
H  21.01900 -6.47600 26.95300
H  22.33500 -5.25600 26.73300
H  21.72900 -6.30500 25.39100
H  16.64200 -1.71400 23.21700
H  16.09500 1.02600 23.46700
H  19.25900 -0.43000 23.46400
H  18.23200 0.62300 22.60500
H  18.40800 -1.14700 22.10800
H  13.72300 0.00300 24.26600
H  14.41800 -1.43200 23.66500
H  13.08800 -0.10500 21.94000
H  14.66700 -0.81900 21.57900
H  14.49000 0.91500 21.78300
H  13.23200 4.36700 28.02000
H  13.14400 3.41800 26.58500
H  14.58000 4.37800 26.65200
H  14.21600 1.42800 32.14100
H  15.57300 5.04800 34.27100
H  16.73000 3.84300 34.84600
H  15.21000 4.06400 35.59100
Mg 48.66300 45.82100 43.25500
C  45.36200 46.24800 42.24800
C  48.78000 42.74600 41.81600
C  51.95100 45.89500 43.89200
C  48.60400 49.44200 43.98900
N  47.22400 44.63800 42.19000
C  45.92100 45.01500 41.79700
C  45.32200 43.97200 40.87200
C  46.44000 42.84400 40.85900
C  47.50300 43.37600 41.77600
C  45.88800 41.42400 41.25400
C  45.08900 44.44500 39.35000
C  43.81400 44.00200 38.64200
H  43.98100 43.02500 37.46700
N  50.21000 44.51100 42.83900
C  50.02900 43.24800 42.24300
C  51.27300 42.56100 42.31000
C  52.23200 43.44100 42.91800
C  51.52800 44.73300 43.27200
C  51.40300 41.15500 41.66600
C  53.77000 43.09700 43.01600
O  54.16400 41.99800 42.61800
C  54.72600 44.12200 43.48000
N  50.09400 47.45400 43.85200
C  51.38300 47.12500 44.15400
C  52.13100 48.35300 44.67300
C  51.08600 49.47600 44.57700
C  49.84400 48.74300 44.11600
C  52.85400 48.24100 45.98300
C  51.46300 50.67000 43.55300
C  51.60600 52.02300 44.17000
N  47.25000 47.50000 43.29300
C  47.34400 48.84000 43.67300
C  46.06800 49.47000 43.61800
C  45.28200 48.44100 43.08000
C  46.06500 47.31100 42.75100
C  45.71700 50.74700 44.41000
C  43.82900 48.09400 42.85500
O  42.73800 48.74800 43.03700
C  43.92600 46.76200 42.06900
C  42.77800 45.83600 42.37300
O  42.00500 45.38900 41.54900
O  42.86200 45.28700 43.65700
C  42.24300 43.93000 43.82700
H  48.86300 41.83800 41.21400
H  53.01500 45.84000 44.13400
H  48.52900 50.52800 44.07400
H  44.51700 43.51300 41.44400
H  47.00300 42.90900 39.92800
H  46.48600 41.05900 42.09000
H  45.93800 40.75300 40.39700
H  44.91600 41.33100 41.73800
H  45.79400 44.07400 38.60700
H  45.12600 45.53500 39.34700
H  43.25800 44.91100 38.41100
H  43.22000 43.46800 39.38300
H  50.58100 40.44100 41.62100
H  52.12300 40.65200 42.31200
H  51.81600 41.28900 40.66600
H  54.54900 44.33700 44.53400
H  54.83100 44.93300 42.75800
H  55.60900 43.48700 43.40000
H  52.90400 48.56800 43.93500
H  50.74000 49.89700 45.52100
H  53.92600 48.30900 45.80000
H  52.64900 47.27800 46.45200
H  52.54500 49.03600 46.66100
H  50.81000 50.59800 42.68300
H  52.46500 50.45400 43.18100
H  51.20800 52.00800 45.18500
H  51.03100 52.76000 43.60900
H  52.62600 52.35300 44.36800
H  44.71100 51.10600 44.19600
H  46.37500 51.52800 44.02800
H  45.82300 50.57900 45.48200
H  43.87500 47.21700 41.08100
H  42.38500 43.56300 44.84300
H  42.64800 43.23000 43.09700
H  41.18900 43.81000 43.57500

