158

Mg 35.84000 1.84100 29.97600
C  33.73700 3.38000 32.37500
C  38.25900 1.72800 32.28100
C  37.84600 0.98600 27.47700
C  33.21200 2.83700 27.44200
N  35.91700 2.58800 32.08300
C  34.94200 3.07500 32.87300
C  35.27300 2.96700 34.34100
C  36.91900 2.97900 34.22000
C  37.08300 2.40500 32.81200
C  37.65100 4.32300 34.49400
C  34.64500 1.73500 35.05900
C  34.50400 1.86100 36.55000
H  35.00400 3.09700 37.32100
N  37.72800 1.26700 29.94300
C  38.58600 1.30400 31.03200
C  39.93300 0.77100 30.57800
C  39.80200 0.53200 29.14400
C  38.40900 0.84900 28.78500
C  41.21100 0.63900 31.35500
C  40.90400 0.21500 28.12700
O  40.60700 0.08200 26.95400
C  42.32000 -0.12500 28.35500
N  35.49000 1.84800 27.80600
C  36.55800 1.46300 27.09400
C  36.15300 1.47000 25.57700
C  34.61700 1.88900 25.50700
C  34.42600 2.21200 26.99000
C  37.00900 2.32500 24.59900
C  33.45400 0.91500 24.99500
C  33.09100 1.17700 23.48000
N  33.88900 2.87800 29.86600
C  32.90500 3.11300 28.82200
C  31.69700 3.63800 29.35300
C  31.99600 3.78200 30.73900
C  33.34700 3.32400 30.99900
C  30.44700 4.02100 28.66700
C  31.42700 4.17700 32.01600
O  30.31300 4.65300 32.21700
C  32.53200 3.93800 33.11000
C  32.65600 5.10000 34.00500
O  33.54400 5.96300 33.91400
O  31.65800 5.02600 35.01300
C  31.72800 6.14200 35.98900
H  39.00800 1.69500 33.07500
H  38.49800 0.83900 26.61300
H  32.48000 3.14600 26.69400
H  34.91700 3.88700 34.80500
H  37.35200 2.28800 34.94400
H  37.99600 4.88100 33.62400
H  38.48400 4.29200 35.19600
H  36.88200 4.97700 34.90600
H  35.30300 0.89200 34.85200
H  33.65500 1.55700 34.63900
H  34.90700 0.92800 36.94300
H  33.48600 1.74000 36.92000
H  41.90700 1.36900 30.94000
H  41.56800 -0.33900 31.03400
H  40.97200 0.77100 32.41000
H  42.43000 -1.04100 28.93500
H  42.81900 0.64200 28.94600
H  42.76100 -0.22800 27.36300
H  36.19900 0.47700 25.13100
H  34.63300 2.84900 24.99000
H  37.52600 3.06300 25.21100
H  36.36000 2.82600 23.88000
H  37.74000 1.77400 24.00700
H  32.53600 0.91000 25.58200
H  33.88200 -0.07100 24.81600
H  33.60300 2.04300 23.06200
H  32.06100 1.53200 23.45000
H  33.06900 0.23700 22.92900
H  30.24600 3.43900 27.76800
H  30.34800 5.10500 28.60200
H  29.71300 3.75300 29.42700
H  32.36500 3.05000 33.72000
H  31.45700 7.11600 35.58000
H  32.73400 6.18600 36.40600
H  31.10400 5.89100 36.84600
Mg -3.21800 35.16900 26.38900
C  -4.90400 33.41800 28.77600
C  -1.64700 37.05400 28.66600
C  -1.99900 37.16900 23.81800
C  -5.17300 33.55800 24.02400
N  -3.54400 35.41800 28.45100
C  -4.12200 34.45900 29.27400
C  -3.73400 34.57000 30.75500
C  -2.81700 35.86100 30.63300
C  -2.66400 36.20600 29.13700
C  -3.38800 37.07800 31.37300
C  -2.84000 33.32500 31.20000
C  -3.25200 32.79500 32.59200
H  -2.32200 32.89800 33.84200
N  -2.02800 36.95800 26.27200
C  -1.34100 37.45500 27.35300
C  -0.33500 38.29800 26.93400
C  -0.39500 38.30300 25.48200
C  -1.51800 37.42100 25.10800
C  0.70600 38.94200 27.86900
C  0.43700 39.02300 24.44500
O  0.25100 39.01800 23.18400
C  1.71000 39.68300 24.88900
N  -3.76600 35.57400 24.26800
C  -3.10000 36.37900 23.42900
C  -3.52100 36.34000 21.97800
C  -4.18400 34.95800 22.02400
C  -4.49400 34.67000 23.50400
C  -4.44100 37.58000 21.57200
C  -3.31200 33.79900 21.41000
C  -2.49700 32.90700 22.33500
N  -4.66200 33.73600 26.30300
C  -5.34500 33.14600 25.31300
C  -6.03000 32.01800 25.80000
C  -5.90200 32.04200 27.22400
C  -5.05400 33.11500 27.46000
C  -6.82200 31.05500 25.05100
C  -6.28100 31.46200 28.48700
O  -7.03900 30.51500 28.65500
C  -5.65000 32.40400 29.58000
C  -6.71000 32.97400 30.36000
O  -7.51400 33.81800 29.97800
O  -6.82400 32.35100 31.50400
C  -7.88100 32.70600 32.48100
H  -1.03000 37.53000 29.43100
H  -1.62100 37.69400 22.93800
H  -5.69600 32.89900 23.32800
H  -4.61300 34.74800 31.37300
H  -1.74800 35.71700 30.78800
H  -3.55000 37.91400 30.69300
H  -2.61300 37.36600 32.08300
H  -4.37000 36.87700 31.80200
H  -1.80100 33.63200 31.32100
H  -2.81300 32.51200 30.47400
H  -3.38400 31.74100 32.35000
H  -4.23600 33.08100 32.96400
H  1.69200 38.87800 27.40800
H  0.68600 38.44500 28.83900
H  0.53900 40.01600 27.94100
H  1.35700 40.42800 25.60200
H  2.06400 40.39500 24.14300
H  2.44100 38.95000 25.23000
H  -2.67100 36.52300 21.32100
H  -5.09600 34.97500 21.42700
H  -4.01200 37.94900 20.64100
H  -4.39700 38.35800 22.33400
H  -5.42000 37.16900 21.32400
H  -2.51400 34.18800 20.77800
H  -4.10400 33.19100 20.97100
H  -2.35900 33.45200 23.26800
H  -1.45500 32.86800 22.01800
H  -2.99100 31.93500 22.31200
H  -6.74600 31.02000 23.96500
H  -7.86200 31.33200 25.22200
H  -6.74500 30.00500 25.33300
H  -5.05700 31.72100 30.19000
H  -8.61500 33.36600 32.01900
H  -7.37400 33.16600 33.32900
H  -8.22500 31.70600 32.74500

