158

Mg 6.90500 53.90700 41.43000
C  6.53200 50.51500 40.90200
C  10.14100 53.67200 40.08200
C  6.83700 57.21600 40.86800
C  3.57700 54.04700 42.49000
N  8.05900 52.35100 40.47500
C  7.75000 50.96400 40.50300
C  9.00900 50.07700 40.19500
C  10.10600 51.09300 40.30900
C  9.39200 52.50500 40.36200
C  11.03800 50.83600 41.57100
C  8.92500 49.27800 38.85100
C  8.80500 50.22600 37.61600
H  7.37100 50.51400 37.04700
N  8.27600 55.26800 40.56700
C  9.53800 54.99300 40.12100
C  10.21600 56.22700 39.82800
C  9.30000 57.24800 40.16600
C  8.05700 56.59500 40.57400
C  11.61900 56.27200 39.19900
C  9.61200 58.76600 40.24200
O  10.69100 59.13400 39.77900
C  8.66900 59.80200 40.79300
N  5.36800 55.46700 41.71000
C  5.62000 56.79400 41.38000
C  4.35200 57.74300 41.67600
C  3.35200 56.66800 42.17800
C  4.15600 55.32200 42.15900
C  4.53600 58.92500 42.61800
C  2.09500 56.52900 41.21100
C  0.78800 56.86300 41.96500
N  5.38300 52.59000 41.79900
C  4.09900 52.78200 42.26900
C  3.48800 51.50100 42.47800
C  4.40700 50.64000 41.95500
C  5.51700 51.30400 41.48000
C  2.10300 51.17700 42.90400
C  4.66400 49.24400 41.66100
O  3.88600 48.31000 41.81000
C  6.05900 49.09700 40.95900
C  5.75600 48.47700 39.73500
O  5.10600 49.05100 38.85300
O  6.28200 47.15000 39.65700
C  5.96000 46.44500 38.39600
H  11.17700 53.50000 39.78400
H  6.71300 58.20200 40.41400
H  2.51400 54.07300 42.73800
H  9.04300 49.37300 41.02600
H  10.78400 50.86300 39.48700
H  11.49100 51.77400 41.89200
H  11.85400 50.21400 41.20300
H  10.60300 50.22500 42.36300
H  8.11400 48.55000 38.86300
H  9.84400 48.69900 38.76700
H  9.48400 49.92200 36.82000
H  9.22300 51.18600 37.91800
H  11.75800 55.44600 38.50000
H  12.39600 56.17900 39.95800
H  11.72500 57.20300 38.64300
H  7.88700 60.14700 40.11700
H  9.22000 60.72200 40.98600
H  8.13400 59.51800 41.69900
H  4.16900 58.06300 40.65100
H  3.07300 56.82900 43.22000
H  4.74000 59.79700 41.99700
H  5.31000 58.84800 43.38100
H  3.59000 59.03600 43.14800
H  1.88500 55.52100 40.85300
H  2.23800 57.29500 40.44900
H  -0.09600 56.70200 41.34800
H  0.65000 57.89900 42.27300
H  0.59200 56.23900 42.83700
H  2.04700 50.86100 43.94500
H  1.78600 50.34000 42.28200
H  1.43800 52.02300 42.72800
H  6.66200 48.55000 41.68300
H  4.95700 46.01900 38.43800
H  6.65300 45.65300 38.11200
H  6.13300 47.02800 37.49100
Mg -0.54500 43.49500 25.99900
C  1.60000 43.37600 28.86500
C  -3.11400 42.38900 28.10500
C  -2.47500 43.50900 23.29100
C  2.32000 44.16800 24.08400
N  -0.69700 43.00100 28.27100
C  0.26400 43.10400 29.23100
C  -0.28700 42.74800 30.60300
C  -1.70700 42.14100 30.26700
C  -1.89100 42.57000 28.83500
C  -1.83400 40.60800 30.58600
C  -0.17300 44.00700 31.51200
C  0.53600 43.72600 32.93400
H  0.43400 42.33000 33.66800
N  -2.54100 43.00800 25.74800
C  -3.45300 42.56200 26.71300
C  -4.76400 42.45800 26.04300
C  -4.52500 42.79500 24.65700
C  -3.10500 43.09300 24.54500
C  -5.99300 41.90800 26.68900
C  -5.55500 42.76200 23.52600
O  -5.33000 43.31100 22.43100
C  -6.85400 42.07900 23.77000
N  -0.12700 43.68200 23.84700
C  -1.17600 43.78600 22.96800
C  -0.66600 44.41900 21.64200
C  0.87100 44.60000 21.86900
C  1.07600 44.13100 23.32900
C  -1.11700 43.48600 20.47200
C  1.33700 46.04100 21.70700
C  1.84700 46.51200 20.34700
N  1.52200 43.62500 26.29300
C  2.55900 43.88600 25.40200
C  3.85900 43.76300 26.07600
C  3.52400 43.67000 27.35800
C  2.12300 43.54300 27.51100
C  5.21600 43.75300 25.45800
C  4.07700 43.65400 28.72100
O  5.29000 43.68700 29.05200
C  2.86600 43.46800 29.73900
C  3.10200 42.23800 30.44600
O  2.96900 41.05400 30.00500
O  3.60500 42.66700 31.70600
C  4.07400 41.55600 32.53600
H  -3.84100 41.76200 28.62500
H  -3.20300 43.59800 22.48200
H  3.17500 44.36400 23.43400
H  0.36200 42.02900 31.10400
H  -2.55100 42.47000 30.87300
H  -2.70900 40.49300 31.22600
H  -1.03200 40.25600 31.23500
H  -1.90000 39.97600 29.70000
H  -1.21000 44.32300 31.63400
H  0.45000 44.81300 31.12400
H  0.24600 44.46200 33.68400
H  1.61200 43.86900 32.83200
H  -5.82500 41.87700 27.76500
H  -6.41900 40.94300 26.41500
H  -6.82400 42.60200 26.55600
H  -6.46800 41.10300 24.06400
H  -7.30500 42.03800 22.77800
H  -7.40200 42.53000 24.59700
H  -1.27800 45.31500 21.53200
H  1.42400 43.97300 21.16900
H  -0.71500 43.82900 19.51800
H  -2.20400 43.40000 20.45300
H  -0.67200 42.49800 20.59000
H  1.99600 46.43600 22.48000
H  0.48100 46.66400 21.96500
H  2.27200 45.80200 19.63700
H  2.55000 47.29400 20.63200
H  1.05800 47.04800 19.81900
H  5.88600 44.04800 26.26600
H  5.16300 44.56300 24.73100
H  5.44800 42.80200 24.97800
H  2.91100 44.34900 30.38100
H  5.10100 41.30100 32.27600
H  3.55500 40.61200 32.37100
H  4.17700 41.77900 33.59800

