158

Mg 48.65900 45.54300 43.83400
C  45.09100 45.56800 42.83200
C  48.77100 42.34100 42.87600
C  51.86300 45.91500 43.80000
C  48.36700 49.15100 44.17600
N  47.12000 44.18500 42.84000
C  45.80900 44.36600 42.51000
C  45.24100 43.05100 42.01300
C  46.32800 42.02200 42.40000
C  47.53300 42.90200 42.80700
C  45.91600 41.09200 43.58100
C  44.65800 42.98800 40.61900
C  45.64900 43.07300 39.43200
H  45.36900 42.29100 38.09700
N  50.16500 44.21300 43.46200
C  50.03200 42.93900 43.01400
C  51.27900 42.31700 42.95700
C  52.19200 43.35400 43.18100
C  51.46100 44.55800 43.54000
C  51.51400 40.89800 42.50700
C  53.75500 43.07000 43.13200
O  54.16400 41.96800 42.89400
C  54.65400 44.11000 43.44700
N  49.93200 47.33400 43.77700
C  51.25800 47.16600 43.81400
C  52.04700 48.45600 43.83700
C  50.88300 49.56300 43.74200
C  49.57500 48.62300 43.77400
C  53.00900 48.77400 45.04600
C  51.01500 50.43500 42.50700
C  51.04300 52.00400 42.76900
N  47.05800 46.99100 43.73100
C  47.14600 48.39100 43.93200
C  45.82400 48.93700 43.71000
C  44.98200 47.88300 43.31800
C  45.75000 46.70300 43.32300
C  45.41600 50.38400 43.71400
C  43.63900 47.51900 42.81700
O  42.73000 48.20300 42.42000
C  43.63400 45.90500 42.55300
C  42.68400 45.21400 43.44800
O  42.14100 44.07900 43.17000
O  42.26800 45.99300 44.53400
C  41.39600 45.41400 45.56000
H  48.83400 41.25500 42.78300
H  52.94900 45.91200 43.91400
H  48.36000 50.19200 44.50700
H  44.33400 42.91000 42.60100
H  46.50700 41.36900 41.54600
H  44.88300 41.28500 43.86900
H  46.55400 41.32900 44.43200
H  46.02400 40.02900 43.36200
H  43.83400 43.68600 40.47100
H  44.13000 42.04100 40.50600
H  46.63500 42.96400 39.88200
H  45.53500 44.08800 39.05000
H  52.28100 40.83600 41.73500
H  50.61100 40.33400 42.27800
H  51.92500 40.30100 43.32200
H  54.57800 45.02300 42.85600
H  55.68500 43.75900 43.41600
H  54.40700 44.34900 44.48100
H  52.63900 48.52900 42.92500
H  50.89900 50.28900 44.55400
H  52.59000 49.57300 45.65800
H  53.90500 49.18400 44.57900
H  53.25700 47.92400 45.68300
H  50.10400 50.28400 41.92800
H  51.74200 50.11200 41.76200
H  51.88100 52.48800 42.26600
H  51.17900 52.20700 43.83100
H  50.08800 52.46800 42.52100
H  44.71600 50.80300 44.43700
H  44.83700 50.41900 42.79100
H  46.23300 51.10600 43.70600
H  43.23200 45.68000 41.56500
H  41.40600 45.68300 46.61600
H  41.34500 44.33800 45.39200
H  40.36800 45.58600 45.24000
Mg 48.36700 35.78100 28.11000
C  46.28800 34.02700 30.39900
C  48.66900 38.18700 30.32100
C  49.93500 37.47700 25.64800
C  47.39000 33.38200 25.69100
N  47.59200 36.00900 30.02500
C  46.89900 35.14600 30.79200
C  46.83000 35.64800 32.19700
C  47.12000 37.18400 32.10200
C  47.84000 37.15900 30.72600
C  45.84500 38.15000 32.18000
C  47.67400 34.81200 33.25600
C  48.68400 35.60800 34.18400
H  48.21500 36.66600 35.21100
N  49.32900 37.51900 28.06900
C  49.39400 38.38100 29.15300
C  50.16300 39.48300 28.81200
C  50.59700 39.32800 27.43400
C  49.95100 38.07400 26.95400
C  50.37400 40.66800 29.71400
C  51.36400 40.31800 26.52400
O  51.63900 40.01200 25.34700
C  51.92900 41.69700 26.92900
N  48.51500 35.47100 26.01600
C  49.26400 36.34700 25.19300
C  49.49300 35.80600 23.71500
C  48.96300 34.33200 23.96700
C  48.20900 34.43900 25.30300
C  48.83000 36.69800 22.60000
C  50.06100 33.27200 23.91400
C  49.70400 31.92400 23.27600
N  47.07600 34.06900 28.00400
C  46.77000 33.19500 26.93900
C  45.82800 32.15700 27.35500
C  45.51000 32.48700 28.68600
C  46.39700 33.58800 29.02700
C  45.35500 31.04100 26.36700
C  44.70900 32.17900 29.82400
O  43.92400 31.30700 30.10300
C  45.09700 33.22900 30.89300
C  45.32200 32.62200 32.21000
O  46.23300 31.87800 32.52400
O  44.36200 33.04900 33.09700
C  44.43500 32.63900 34.52900
H  48.70000 39.06200 30.97400
H  50.50100 37.98500 24.86400
H  47.15200 32.71100 24.86300
H  45.81700 35.49500 32.56900
H  47.82800 37.57400 32.83300
H  44.91500 37.61100 32.35600
H  45.72000 38.62900 31.20800
H  45.91100 38.98000 32.88300
H  48.14100 33.92900 32.82100
H  46.90500 34.35100 33.87600
H  49.44700 36.04200 33.53800
H  49.29700 34.87300 34.70400
H  50.10800 40.63200 30.77100
H  49.81500 41.47400 29.23800
H  51.42800 40.86000 29.91700
H  51.14200 42.44300 27.03900
H  52.52400 42.04400 26.08400
H  52.48700 41.58500 27.85900
H  50.55800 35.83100 23.48700
H  48.22000 34.03000 23.22900
H  49.49600 36.91900 21.76600
H  48.52500 37.64900 23.03600
H  47.94700 36.22400 22.17100
H  50.42400 33.10500 24.92800
H  50.80500 33.79100 23.31000
H  50.35600 31.74400 22.42200
H  48.71400 31.87600 22.82100
H  49.87400 31.11700 23.98900
H  44.49000 30.49000 26.73500
H  46.15900 30.32000 26.21900
H  45.18400 31.37000 25.34200
H  44.28400 33.95500 30.91500
H  45.47600 32.50700 34.82600
H  43.88100 31.76800 34.87900
H  43.92700 33.42600 35.08600

