158

Mg 47.43000 34.19900 26.65500
C  45.59400 32.93700 29.40900
C  47.78200 37.16100 28.37400
C  48.51800 35.57900 23.73900
C  46.27700 31.37300 24.75100
N  46.84800 34.87000 28.68500
C  46.19400 34.19900 29.58600
C  46.25800 34.94500 30.89700
C  46.69600 36.39000 30.51900
C  47.04500 36.17400 29.09100
C  45.76100 37.57200 30.82100
C  47.30200 34.33600 31.96000
C  46.99700 34.48100 33.39900
H  46.18000 35.65000 33.92900
N  48.21200 36.00100 26.17000
C  48.25000 37.10000 27.00000
C  49.07700 38.13100 26.41100
C  49.31100 37.71700 25.05400
C  48.64700 36.36500 24.95200
C  49.67200 39.32500 27.10300
C  50.14500 38.39400 23.93300
O  50.46800 37.78200 22.94800
C  50.57500 39.84700 24.18000
N  47.32300 33.60800 24.51400
C  47.99400 34.33400 23.58000
C  47.93700 33.62600 22.25100
C  47.39300 32.22200 22.58500
C  46.93800 32.40400 24.05600
C  47.14200 34.34800 21.08100
C  48.41000 31.01400 22.39700
C  49.47900 30.76200 23.46400
N  46.39500 32.43500 27.01700
C  46.06500 31.38400 26.15200
C  45.46500 30.39500 26.88500
C  45.11000 31.01100 28.15900
C  45.73900 32.24300 28.16000
C  45.16900 29.02200 26.37800
C  44.41700 30.80300 29.41400
O  43.75000 29.85300 29.88600
C  44.66600 32.03700 30.28900
C  45.29200 31.56900 31.47600
O  46.43500 31.14300 31.57100
O  44.39400 31.58900 32.54500
C  44.74800 30.89100 33.81400
H  47.87100 38.08700 28.94400
H  49.01700 35.99700 22.86100
H  45.87800 30.49500 24.23900
H  45.25400 34.93200 31.32100
H  47.65600 36.73300 30.90700
H  45.88500 38.31400 30.03200
H  46.08600 38.11400 31.71000
H  44.70900 37.29300 30.87700
H  48.27600 34.71800 31.65500
H  47.39600 33.30200 31.63100
H  47.91700 34.54200 33.98100
H  46.61200 33.51300 33.72100
H  50.73600 39.43300 26.89400
H  49.51100 39.20700 28.17400
H  49.18700 40.28000 26.90200
H  49.71700 40.43900 24.49800
H  50.97700 40.04000 23.18600
H  51.44300 39.95900 24.82900
H  49.00500 33.59600 22.03800
H  46.45000 31.92500 22.12600
H  47.70500 34.28300 20.15000
H  46.92300 35.37500 21.37600
H  46.18500 33.83300 20.99700
H  48.98800 31.10700 21.47700
H  47.85200 30.09300 22.22900
H  50.36300 30.48600 22.88900
H  49.10400 29.87800 23.98000
H  49.67600 31.65400 24.05900
H  44.17700 28.95900 25.92900
H  45.16600 28.40600 27.27700
H  45.99100 28.62100 25.78500
H  43.71700 32.48000 30.59100
H  45.77100 31.15000 34.08800
H  44.60100 29.82500 33.64200
H  44.01200 31.40600 34.43000
Mg 16.22900 51.26000 24.63100
C  18.16700 50.79700 27.41600
C  13.61800 52.28600 26.55900
C  14.43300 51.74500 21.73200
C  19.07200 50.49400 22.66400
N  15.91000 51.44800 26.86400
C  16.82700 51.20200 27.84000
C  16.30400 51.46200 29.24600
C  14.72300 51.76900 28.93200
C  14.70900 51.82100 27.36800
C  13.66400 50.77000 29.47300
C  16.99500 52.67500 29.90200
C  16.66600 53.04500 31.35700
H  16.05200 52.03000 32.26200
N  14.32000 51.95300 24.18800
C  13.43000 52.41000 25.12600
C  12.31400 52.95800 24.43800
C  12.48100 52.75200 23.02900
C  13.80900 52.08200 22.94000
C  11.13900 53.60200 25.26500
C  11.52300 53.02900 21.88700
O  11.77900 52.87700 20.70000
C  10.11200 53.42900 22.15500
N  16.66000 51.12100 22.55900
C  15.71400 51.33000 21.51600
C  16.36900 51.01700 20.08600
C  17.89400 51.16900 20.48600
C  17.88300 50.87900 22.00100
C  15.79000 49.71200 19.37000
C  18.47000 52.60200 20.27300
C  19.40100 52.83200 19.16200
N  18.12100 50.56200 24.91600
C  19.18700 50.26400 24.06900
C  20.33200 49.96900 24.83600
C  19.93000 50.08000 26.14700
C  18.58000 50.47500 26.15900
C  21.65400 49.66400 24.24400
C  20.44800 49.93400 27.49500
O  21.49800 49.58200 27.95800
C  19.29100 50.37300 28.30800
C  18.95800 49.24800 29.25900
O  18.50000 48.18600 28.98800
O  19.09700 49.84000 30.53800
C  18.46500 49.14900 31.65800
H  12.81800 52.68200 27.18800
H  14.02200 52.01000 20.75600
H  19.94300 50.19100 22.08000
H  16.58300 50.56800 29.80500
H  14.53300 52.78500 29.27700
H  12.95300 50.56000 28.67400
H  13.23200 51.22000 30.36700
H  14.06900 49.80200 29.76900
H  16.80500 53.46500 29.17600
H  18.08000 52.56500 29.89400
H  15.95100 53.86100 31.25500
H  17.61200 53.41500 31.75400
H  10.69400 54.42900 24.71100
H  11.56200 54.00400 26.18600
H  10.40000 52.81500 25.41800
H  9.70100 52.83200 22.96900
H  9.49100 53.17100 21.29800
H  10.04900 54.49100 22.39600
H  16.01500 51.83700 19.46200
H  18.48300 50.39300 19.99800
H  14.76200 49.82800 19.02700
H  15.82600 48.93600 20.13500
H  16.45800 49.37700 18.57600
H  19.03600 52.90700 21.15300
H  17.66400 53.33400 20.24800
H  18.82200 53.20200 18.31600
H  19.79200 51.88700 18.78400
H  20.27400 53.47100 19.29300
H  21.92000 50.32400 23.41800
H  21.64300 48.60100 24.00500
H  22.46100 49.81100 24.96200
H  19.55100 51.17100 29.00300
H  18.97000 48.31300 32.14200
H  17.42500 48.89800 31.44800
H  18.51100 49.90800 32.43900

