158

Mg 16.01900 -2.58700 28.32900
C  14.92900 -0.31000 30.80300
C  17.96900 -4.11000 30.69400
C  17.62500 -4.34600 25.88500
C  14.69700 -0.33000 26.05200
N  16.41100 -2.24000 30.49900
C  15.79600 -1.29100 31.30900
C  16.24900 -1.41000 32.76200
C  17.29500 -2.60100 32.76400
C  17.26700 -3.02300 31.21200
C  18.69900 -2.21500 33.20300
C  15.09400 -1.64500 33.83900
C  15.13900 -0.76600 35.17500
H  16.49000 -0.05300 35.57600
N  17.44300 -4.16600 28.26700
C  18.09700 -4.68500 29.35300
C  18.95200 -5.77700 28.95000
C  18.79200 -5.85700 27.58200
C  17.92800 -4.78000 27.15200
C  19.71500 -6.68900 29.94000
C  19.35900 -6.89200 26.63100
O  19.16500 -6.88700 25.40500
C  20.37900 -7.97700 27.11500
N  16.22200 -2.36100 26.29900
C  16.80400 -3.24200 25.48100
C  16.72800 -2.76200 24.01800
C  15.76200 -1.53700 24.08900
C  15.56700 -1.33900 25.60600
C  18.03200 -2.45000 23.27700
C  14.39600 -1.86000 23.34500
C  13.80100 -0.79200 22.39800
N  14.70200 -0.91400 28.37600
C  14.35600 -0.04400 27.31200
C  13.61900 1.09300 27.80500
C  13.70900 0.94400 29.22500
C  14.47500 -0.21700 29.45700
C  13.02100 2.05700 26.96900
C  13.39600 1.65800 30.50600
O  12.71500 2.67100 30.69700
C  14.22900 0.88100 31.63300
C  15.03400 1.86700 32.30900
O  16.20000 2.13000 32.06200
O  14.29000 2.54900 33.16800
C  14.96100 3.69800 33.83800
H  18.63200 -4.56400 31.43400
H  18.00700 -4.89400 25.02100
H  14.36000 0.36100 25.27600
H  16.70400 -0.45500 33.02400
H  16.89400 -3.39600 33.39200
H  19.40400 -2.45900 32.40900
H  18.94100 -2.97100 33.95000
H  18.73900 -1.16100 33.48000
H  15.13800 -2.68100 34.17700
H  14.11500 -1.55500 33.36700
H  14.85200 -1.33400 36.06000
H  14.35500 -0.01400 35.07800
H  19.41500 -7.71500 29.72800
H  19.40500 -6.55400 30.97600
H  20.79900 -6.58200 29.93800
H  21.17900 -7.46100 27.64600
H  20.76000 -8.56500 26.28100
H  19.96100 -8.66200 27.85300
H  16.32800 -3.57000 23.40600
H  16.09100 -0.58400 23.67400
H  17.89600 -2.66400 22.21700
H  18.89400 -3.06800 23.53000
H  18.43300 -1.43700 23.33000
H  13.64100 -2.19800 24.05600
H  14.62100 -2.66400 22.64500
H  12.75200 -0.76500 22.69400
H  14.04800 -1.13500 21.39400
H  14.34400 0.15200 22.40800
H  12.23600 2.58600 27.50900
H  12.61100 1.59800 26.06900
H  13.75600 2.76300 26.58100
H  13.47400 0.58000 32.36000
H  14.96400 4.62700 33.26800
H  15.96800 3.40500 34.13600
H  14.41100 4.03600 34.71600
Mg -1.85000 33.67900 27.57700
C  -3.86800 32.04100 30.08100
C  -0.70000 35.76400 30.05400
C  -0.39800 35.42500 25.22700
C  -3.70000 31.92100 25.12900
N  -2.22900 33.81700 29.80300
C  -3.01300 33.01800 30.66600
C  -2.76800 33.33600 32.12700
C  -1.95100 34.66300 32.02800
C  -1.69600 34.85600 30.44400
C  -2.57300 35.89300 32.65600
C  -2.10900 32.14900 32.97100
C  -3.09100 31.61600 34.08200
H  -2.53300 31.55500 35.45500
N  -0.54000 35.30700 27.64700
C  -0.16500 36.05700 28.76700
C  0.76900 37.03200 28.30400
C  0.88800 36.96200 26.84000
C  -0.14200 35.88300 26.49300
C  1.37000 38.03900 29.22300
C  1.65200 37.89200 25.85900
O  1.56000 37.94300 24.65800
C  2.48000 38.99000 26.47600
N  -2.04100 33.65200 25.45000
C  -1.25400 34.50300 24.65600
C  -1.34000 34.21200 23.16200
C  -2.21600 32.87600 23.22600
C  -2.70000 32.80900 24.67300
C  -2.01800 35.46200 22.40900
C  -1.29800 31.59400 22.98300
C  -1.93000 30.43200 22.09700
N  -3.44600 32.18600 27.54300
C  -4.07200 31.55600 26.48100
C  -5.06600 30.68000 27.00300
C  -4.91800 30.72400 28.37900
C  -3.94400 31.71900 28.69700
C  -5.84600 29.74200 26.21500
C  -5.33800 30.10700 29.66700
O  -6.23100 29.27800 29.83400
C  -4.68400 30.94800 30.79800
C  -5.74900 31.48100 31.65200
O  -6.38100 32.48800 31.36800
O  -5.96200 30.75100 32.78300
C  -6.77800 31.39800 33.86000
H  -0.26400 36.23200 30.93900
H  0.15700 35.98800 24.47400
H  -4.29500 31.31800 24.44000
H  -3.71000 33.65100 32.57700
H  -1.00400 34.43700 32.51900
H  -2.33500 36.79700 32.09600
H  -2.37000 36.10900 33.70500
H  -3.66000 35.80800 32.63900
H  -1.17400 32.42600 33.45700
H  -1.95300 31.24400 32.38400
H  -3.41200 30.58000 33.97900
H  -3.92300 32.31300 34.17500
H  1.23100 37.91800 30.29700
H  1.06400 39.05900 28.98800
H  2.42600 37.85300 29.02900
H  1.93500 39.54800 27.23800
H  2.89600 39.63900 25.70600
H  3.35800 38.58800 26.98100
H  -0.30200 34.04100 22.87400
H  -3.07500 32.81000 22.55900
H  -2.45500 36.19300 23.08900
H  -2.72000 35.06600 21.67500
H  -1.20700 35.98800 21.90600
H  -0.89500 31.26700 23.94200
H  -0.36500 31.97200 22.56700
H  -2.91800 30.76000 21.77300
H  -1.98900 29.58200 22.77700
H  -1.35500 30.18700 21.20500
H  -5.79300 28.69200 26.50200
H  -5.56500 29.78100 25.16200
H  -6.86900 30.11700 26.24600
H  -4.10700 30.26700 31.42400
H  -6.14700 31.76500 34.67000
H  -7.54100 30.75600 34.30000
H  -7.34700 32.30100 33.63600

