158

Mg 25.82800 1.03900 28.76600
C  27.73100 0.61700 31.79200
C  22.98100 1.22900 30.84000
C  24.04500 1.09300 26.08100
C  28.65800 0.18000 27.04500
N  25.43800 1.01100 31.14300
C  26.34100 0.93900 32.11600
C  25.72600 1.10100 33.47800
C  24.20500 1.15200 33.16600
C  24.16000 1.15400 31.66200
C  23.31200 -0.00300 33.66400
C  26.38100 2.29500 34.28300
C  27.13300 2.09700 35.67500
H  26.92100 3.12600 36.87400
N  23.78800 1.12700 28.48600
C  22.82300 1.20600 29.44800
C  21.48200 1.19300 28.81000
C  21.78800 1.15500 27.41700
C  23.20800 1.16400 27.28800
C  20.19300 0.93400 29.47600
C  20.85600 1.06500 26.19400
O  21.26100 1.14200 25.02200
C  19.35700 0.95000 26.41100
N  26.29100 0.55300 26.83800
C  25.40300 0.87500 25.86300
C  26.11200 1.01000 24.50400
C  27.52600 0.51800 24.81100
C  27.47800 0.38000 26.31700
C  25.44300 0.21000 23.34400
C  28.68900 1.31000 24.16500
C  29.24200 0.72300 22.83800
N  27.77200 0.47500 29.30000
C  28.82800 0.16200 28.40200
C  30.02200 0.01200 29.16100
C  29.66200 0.14400 30.50100
C  28.25900 0.40700 30.51800
C  31.43200 -0.27600 28.62200
C  30.13200 0.11300 31.85900
O  31.25600 -0.16900 32.23500
C  28.90100 0.35100 32.78400
C  28.58500 -0.80600 33.68200
O  27.79500 -1.68400 33.43700
O  29.28300 -0.57400 34.84600
C  28.74800 -1.41100 35.93700
H  22.12100 1.39900 31.49200
H  23.45400 1.36000 25.20200
H  29.63500 0.08200 26.56600
H  25.86400 0.15400 34.00100
H  23.83700 2.15000 33.40300
H  22.55500 0.50100 34.26500
H  23.89100 -0.73900 34.22300
H  22.77400 -0.58000 32.91200
H  25.66900 3.07300 34.55600
H  27.03300 2.83600 33.59700
H  28.19100 2.29100 35.50000
H  26.91300 1.09300 36.03900
H  19.70800 0.03000 29.10800
H  19.59800 1.84500 29.41200
H  20.36600 0.72700 30.53200
H  18.73600 1.28700 25.58100
H  19.09900 1.59900 27.24700
H  19.06400 -0.09700 26.48800
H  26.07000 2.07100 24.26000
H  27.73700 -0.45500 24.36700
H  25.25500 1.03700 22.66000
H  24.42200 -0.14700 23.48200
H  26.16300 -0.51100 22.95700
H  29.57300 1.38200 24.79900
H  28.27800 2.28200 23.89100
H  29.08700 1.49900 22.08900
H  28.75300 -0.18600 22.48800
H  30.30100 0.52500 23.00500
H  31.55200 0.20200 27.65000
H  31.58800 -1.35300 28.55100
H  32.13500 0.25100 29.26800
H  29.09700 1.26600 33.34200
H  28.91100 -2.44600 35.63300
H  27.69800 -1.22900 36.16500
H  29.42300 -1.40500 36.79300
Mg 45.69200 4.36300 47.48300
C  43.38400 6.99300 46.73800
C  42.98200 2.16300 46.96100
C  47.80900 1.82800 47.65600
C  48.18200 6.66200 47.27000
N  43.35700 4.59100 46.69200
C  42.67400 5.74600 46.61700
C  41.19600 5.45700 46.46200
C  41.06000 3.93700 46.73200
C  42.57200 3.55300 46.82500
C  40.13900 3.52200 47.86200
C  40.69200 6.05100 45.13000
C  39.25000 6.53600 45.21300
H  38.55400 6.68600 43.88400
N  45.43100 2.27300 47.30600
C  44.26700 1.59700 47.16200
C  44.54800 0.21000 47.18600
C  45.97800 0.04600 47.41200
C  46.46000 1.40900 47.56400
C  43.45800 -0.83500 47.05100
C  46.64200 -1.24100 47.56100
O  46.08600 -2.28600 47.27200
C  48.07500 -1.31600 48.01500
N  47.70700 4.22500 47.30600
C  48.36300 3.11100 47.61900
C  49.82800 3.37700 48.01800
C  49.98900 4.88000 47.62100
C  48.49800 5.32500 47.42100
C  50.04100 2.94200 49.49800
C  50.89000 5.15400 46.40600
C  51.83200 6.39600 46.43300
N  45.85400 6.45300 47.15100
C  46.96300 7.25000 47.14000
C  46.52600 8.62000 46.99900
C  45.13300 8.50300 46.95200
C  44.77800 7.21300 46.90500
C  47.41800 9.84400 46.98200
C  43.92700 9.27000 46.87000
O  43.78700 10.47100 46.87600
C  42.80500 8.32100 46.73000
C  41.84300 8.54700 47.85700
O  41.92200 7.93400 48.90300
O  40.88600 9.56100 47.53800
C  39.92100 9.95900 48.65800
H  42.20200 1.43900 46.71700
H  48.62800 1.12000 47.79800
H  49.11500 7.19600 47.45700
H  40.57300 5.95300 47.20600
H  40.68200 3.46200 45.82700
H  39.72600 4.33500 48.45900
H  40.74400 2.85600 48.47800
H  39.32100 2.95500 47.41900
H  41.00200 5.32900 44.37500
H  41.35000 6.88800 44.90000
H  39.25600 7.56000 45.58800
H  38.69100 5.87100 45.87100
H  43.02200 -0.78300 46.05300
H  42.62600 -0.56200 47.70000
H  43.67800 -1.86800 47.31800
H  48.76100 -0.91900 47.26700
H  48.30500 -2.33200 48.33500
H  48.10200 -0.69600 48.91100
H  50.47300 2.73300 47.42100
H  50.45600 5.42200 48.44300
H  50.87400 2.24800 49.61000
H  49.10300 2.52700 49.86500
H  50.32400 3.81800 50.08400
H  50.25600 5.16600 45.52000
H  51.58700 4.33200 46.24400
H  52.79600 6.07500 46.82700
H  51.51800 7.22100 47.07300
H  51.75800 6.66300 45.37900
H  47.82500 9.99700 45.98300
H  48.15700 9.63700 47.75700
H  46.96600 10.79600 47.26100
H  42.27100 8.52900 45.80200
H  39.53900 10.92700 48.33500
H  40.32200 10.09000 49.66300
H  39.02500 9.34500 48.75600

