158

Mg 30.63100 59.09400 40.90800
C  28.19500 57.13700 39.45700
C  33.02000 56.85000 39.64200
C  33.13500 61.39200 41.47900
C  28.28700 61.56800 41.35600
N  30.62200 57.18800 39.68500
C  29.48100 56.63600 39.27300
C  29.82200 55.46500 38.38000
C  31.34900 55.15900 38.67400
C  31.72900 56.42000 39.43000
C  31.71200 53.97900 39.64500
C  29.56700 55.72900 36.90800
C  28.67200 54.67600 36.11700
H  27.69500 55.38600 35.11400
N  32.68500 59.05900 40.71400
C  33.48900 58.00700 40.23100
C  34.93200 58.29000 40.46100
C  34.97700 59.58600 41.08000
C  33.56000 60.05400 41.14600
C  35.95900 57.26600 40.02000
C  36.27700 60.29700 41.56600
O  37.38800 59.72500 41.48700
C  36.21500 61.54100 42.33800
N  30.74100 61.34400 41.13300
C  31.85900 61.98200 41.64400
C  31.48900 63.35400 42.31800
C  29.95400 63.37600 42.15700
C  29.62800 61.99500 41.51600
C  32.06800 63.39300 43.70700
C  29.24700 64.57200 41.35500
C  29.31900 64.62700 39.83800
N  28.59300 59.31800 40.64800
C  27.73600 60.35000 40.92500
C  26.36500 59.92300 40.57800
C  26.50300 58.65000 39.93900
C  27.90800 58.35200 40.05800
C  25.21700 60.80800 40.71700
C  25.78500 57.59400 39.29500
O  24.57200 57.44200 38.98900
C  26.93400 56.47500 39.02100
C  26.51000 55.22700 39.72200
O  26.97700 54.92500 40.81900
O  25.45900 54.64100 39.07800
C  25.02800 53.30100 39.64400
H  33.75000 56.10300 39.32300
H  33.96100 62.09000 41.63200
H  27.48100 62.29400 41.48100
H  29.18400 54.61900 38.63600
H  32.02600 55.23600 37.82400
H  32.19700 53.15600 39.12000
H  30.76000 53.68500 40.08800
H  32.44600 54.32300 40.37300
H  30.51900 55.81200 36.38400
H  29.34400 56.77800 36.71200
H  28.01700 54.02100 36.69100
H  29.35400 54.02600 35.56800
H  36.97500 57.56400 40.27700
H  35.94300 57.21400 38.93200
H  35.64900 56.27400 40.35100
H  37.22300 61.83900 42.62700
H  35.47000 61.61100 43.13100
H  35.91800 62.34700 41.66700
H  31.92800 64.24600 41.87100
H  29.52900 63.33600 43.16000
H  31.59700 62.66700 44.36900
H  31.68200 64.29000 44.19100
H  33.15700 63.38900 43.74900
H  29.70700 65.45200 41.80600
H  28.19500 64.54500 41.63900
H  29.50300 65.67300 39.59300
H  28.38300 64.20600 39.47100
H  30.16500 64.08100 39.42200
H  24.39600 60.22300 40.30200
H  25.20400 61.70700 40.10100
H  25.08400 61.21100 41.72100
H  26.94200 56.28900 37.94700
H  24.19400 52.93400 39.04400
H  24.76100 53.43400 40.69200
H  25.74300 52.48100 39.70600
Mg -10.69800 16.95900 40.17400
C  -7.27700 16.85400 39.91300
C  -10.59800 20.32900 39.64700
C  -14.10600 16.87100 40.03200
C  -10.72100 13.34200 40.00100
N  -9.12300 18.35400 39.65100
C  -7.79000 18.06600 39.60500
C  -7.01600 19.28200 39.14000
C  -8.00300 20.45400 39.50300
C  -9.36700 19.71400 39.66200
C  -7.56900 21.21300 40.77800
C  -6.69000 19.26500 37.66800
C  -5.17900 19.33800 37.24000
H  -4.66500 17.92900 36.71000
N  -12.14400 18.43700 39.80900
C  -11.92900 19.77400 39.53400
C  -13.21700 20.46300 39.39200
C  -14.24700 19.54000 39.63500
C  -13.49300 18.18600 39.77500
C  -13.18700 21.92100 39.13400
C  -15.81400 19.78200 39.78000
O  -16.22900 20.94800 39.76800
C  -16.78700 18.62200 39.76600
N  -12.21800 15.32700 40.02200
C  -13.53100 15.57700 40.13500
C  -14.38800 14.32600 40.18200
C  -13.38000 13.23300 39.87100
C  -12.01400 13.95200 39.94900
C  -15.17900 14.12900 41.44400
C  -13.43600 12.53500 38.38600
C  -13.26700 11.04700 38.41700
N  -9.35300 15.38900 40.12900
C  -9.42800 14.02200 40.10400
C  -8.10200 13.43500 40.22600
C  -7.19700 14.54000 40.20800
C  -8.04600 15.70500 40.09000
C  -7.68400 11.98600 40.01800
C  -5.81800 14.94800 40.18900
O  -4.81100 14.29900 40.38200
C  -5.76300 16.49200 40.04600
C  -5.21300 17.21200 41.23700
O  -5.72900 17.17900 42.32100
O  -4.09400 17.88600 40.88600
C  -3.32000 18.66500 41.92200
H  -10.51400 21.39200 39.41200
H  -15.18500 16.94700 40.18400
H  -10.72200 12.25000 39.99200
H  -6.10600 19.19600 39.73400
H  -8.20200 21.14100 38.68100
H  -7.09000 20.62600 41.56200
H  -8.46400 21.64800 41.22100
H  -6.98100 22.04900 40.39900
H  -7.11500 20.15500 37.20500
H  -7.07500 18.30900 37.31300
H  -4.46500 19.63800 38.00800
H  -4.99100 20.11200 36.49600
H  -14.13000 22.41200 39.36900
H  -12.88700 22.02600 38.09100
H  -12.54200 22.54400 39.75400
H  -16.44100 17.99800 38.94200
H  -17.74600 19.05100 39.47500
H  -17.02500 18.23400 40.75600
H  -15.07000 14.38600 39.33400
H  -13.27400 12.47100 40.64300
H  -16.24500 14.03400 41.23700
H  -15.26000 15.06800 41.99200
H  -14.79900 13.22400 41.91800
H  -12.70100 12.94900 37.69700
H  -14.41600 12.81900 38.00200
H  -14.05800 10.50800 37.89500
H  -12.96900 10.80600 39.43700
H  -12.38300 10.81100 37.82400
H  -7.82900 11.52800 40.99600
H  -6.69100 12.00500 39.56900
H  -8.42300 11.52600 39.36200
H  -5.13000 16.83500 39.22800
H  -3.57500 19.71900 41.81000
H  -2.27900 18.49800 41.64700
H  -3.54900 18.29000 42.91900

