158

Mg 46.61400 34.47300 28.08400
C  44.82800 32.82500 30.64900
C  47.25500 36.97200 30.29400
C  47.71400 36.34500 25.49900
C  45.53200 32.05300 25.84100
N  46.03700 34.80500 30.22600
C  45.45900 33.96200 31.10200
C  45.76300 34.45500 32.54400
C  46.06900 35.96400 32.36800
C  46.45600 35.93500 30.81000
C  44.78000 36.78700 32.50900
C  47.00900 33.72100 33.20800
C  46.96900 33.58400 34.74000
H  46.14100 34.62200 35.49800
N  47.50000 36.29500 27.87800
C  47.69700 37.18700 28.95500
C  48.42200 38.36300 28.50200
C  48.46200 38.21300 27.11500
C  47.89700 36.91100 26.77300
C  48.85000 39.49900 29.46500
C  48.93900 39.28300 26.13000
O  48.94800 39.13400 24.94500
C  49.39100 40.57700 26.69100
N  46.45700 34.27700 25.91400
C  46.93800 35.22900 25.10600
C  46.89900 34.73100 23.62400
C  46.09200 33.37800 23.77000
C  46.06300 33.15700 25.23000
C  46.37900 35.72800 22.59300
C  46.50400 32.17400 22.93000
C  45.55500 31.61000 21.87600
N  45.59800 32.67900 28.21800
C  45.15200 31.83900 27.23000
C  44.52000 30.70600 27.79000
C  44.39800 31.07000 29.08600
C  45.01600 32.28400 29.33800
C  44.01800 29.43600 27.14500
C  43.76700 30.70600 30.34600
O  43.12600 29.70800 30.63100
C  43.82100 31.93000 31.32100
C  44.05000 31.52800 32.68700
O  45.05500 31.01300 33.11900
O  42.96600 32.15500 33.35700
C  42.93300 32.03200 34.75200
H  47.35600 37.83100 30.96000
H  48.14300 37.07900 24.81300
H  45.19700 31.32300 25.10200
H  44.86200 34.32900 33.14400
H  46.87000 36.34000 33.00400
H  43.94000 36.16500 32.81700
H  44.54700 37.33100 31.59300
H  44.97300 37.58400 33.22800
H  47.96600 34.14100 32.89700
H  46.88600 32.73700 32.75600
H  47.99500 33.56100 35.10900
H  46.45000 32.66000 34.99500
H  48.96400 39.24600 30.51900
H  48.06400 40.25200 29.41400
H  49.82500 39.88100 29.16100
H  48.81000 41.03500 27.49200
H  49.65500 41.17000 25.81600
H  50.36900 40.32600 27.10000
H  47.92500 34.50100 23.33600
H  45.04800 33.65000 23.61300
H  47.19300 35.96600 21.90800
H  46.15400 36.65100 23.12600
H  45.53000 35.31100 22.05000
H  46.71400 31.39200 23.66000
H  47.49300 32.25200 22.47900
H  44.62500 32.16500 21.75300
H  45.27500 30.58100 22.10300
H  45.97700 31.70200 20.87600
H  44.58200 29.42900 26.21300
H  42.93100 29.43600 27.05700
H  44.44100 28.51800 27.55500
H  42.93800 32.56100 31.22300
H  42.78400 30.97900 34.99000
H  42.06700 32.44500 35.26900
H  43.81800 32.45800 35.22500
Mg -5.37700 24.88400 26.27200
C  -3.80700 26.64500 28.96700
C  -6.48900 22.57600 28.61500
C  -6.51700 23.07800 23.70800
C  -3.97400 27.13200 24.08300
N  -5.20800 24.70300 28.51600
C  -4.59000 25.54900 29.38300
C  -4.84200 25.24300 30.82700
C  -5.72100 23.91200 30.72400
C  -5.88800 23.73700 29.20700
C  -5.02000 22.72200 31.42400
C  -5.72400 26.35200 31.55700
C  -6.03400 26.32000 33.05700
H  -5.62100 25.05400 33.85500
N  -6.27100 23.12900 26.19000
C  -6.70700 22.36700 27.25300
C  -7.44200 21.18500 26.69800
C  -7.41400 21.23500 25.24800
C  -6.70800 22.50600 25.00000
C  -8.12500 20.13000 27.55900
C  -8.04100 20.28300 24.23600
O  -7.85000 20.41400 23.03400
C  -8.87000 19.09000 24.71600
N  -5.02600 24.94800 24.22600
C  -5.71000 24.17900 23.40800
C  -5.81300 24.71300 21.90100
C  -4.88300 25.94300 22.01100
C  -4.63900 26.04400 23.48100
C  -5.37500 23.70500 20.82700
C  -5.34100 27.16700 21.28800
C  -4.58100 27.65700 20.06000
N  -4.10600 26.56500 26.46900
C  -3.51400 27.29200 25.45100
C  -2.62000 28.24100 26.00000
C  -2.74100 28.07300 27.38800
C  -3.63400 27.03700 27.64000
C  -1.81300 29.23800 25.15700
C  -2.29700 28.60700 28.69500
O  -1.55600 29.53600 28.96300
C  -2.93600 27.68700 29.75600
C  -1.84900 27.02400 30.41400
O  -0.95900 26.41800 29.87300
O  -1.93100 27.30100 31.77200
C  -1.06100 26.43200 32.59100
H  -6.74200 21.70900 29.23000
H  -7.06000 22.65600 22.86000
H  -3.76800 28.02300 23.48800
H  -3.85000 25.12700 31.26300
H  -6.73900 24.09500 31.06700
H  -4.76200 21.94500 30.70300
H  -5.74000 22.29200 32.12000
H  -4.08900 23.00100 31.91700
H  -6.64000 26.38100 30.96700
H  -5.07200 27.22200 31.48000
H  -7.10400 26.46800 33.19900
H  -5.55300 27.16400 33.55200
H  -9.16900 20.15700 27.24600
H  -8.17400 20.42200 28.60900
H  -7.70100 19.13500 27.43100
H  -8.42800 18.44100 25.47100
H  -8.95400 18.61500 23.73800
H  -9.86600 19.40200 25.03200
H  -6.84200 24.99600 21.68200
H  -3.89200 25.66700 21.65200
H  -6.17800 23.11700 20.38400
H  -4.55200 23.08100 21.17700
H  -5.00300 24.27700 19.97700
H  -5.37400 28.05200 21.92200
H  -6.39200 26.99900 21.05200
H  -5.23700 27.60600 19.19000
H  -3.70000 27.04300 19.87200
H  -4.21300 28.68200 20.10400
H  -0.84600 29.47500 25.60200
H  -2.46800 30.10000 25.03200
H  -1.78900 28.88000 24.12700
H  -3.57700 28.31300 30.37700
H  -1.49800 26.22900 33.56900
H  -0.17100 27.00600 32.84900
H  -1.02600 25.44700 32.12800

