158

Mg 9.23800 3.79600 27.12200
C  10.29300 2.13700 30.09400
C  6.83100 5.27600 29.10900
C  7.86900 4.97700 24.37300
C  10.96700 1.46800 25.29700
N  8.84500 4.02400 29.40800
C  9.44200 3.18400 30.33100
C  8.88700 3.67000 31.75400
C  7.64700 4.54300 31.40600
C  7.73100 4.64200 29.89200
C  6.31200 4.13800 31.96000
C  10.04300 4.37200 32.57600
C  10.43000 3.68600 33.94200
H  10.77200 4.55500 35.13500
N  7.68400 5.03600 26.74900
C  6.82600 5.54700 27.72600
C  5.80900 6.43000 27.06200
C  6.18900 6.45500 25.69800
C  7.29000 5.49100 25.52400
C  4.58500 7.08000 27.69500
C  5.55200 7.16500 24.59200
O  5.82200 7.07300 23.39400
C  4.42200 8.21100 24.90200
N  9.32200 3.25100 25.12000
C  8.80400 3.94200 24.13600
C  9.38400 3.56200 22.70300
C  10.23200 2.29400 23.03500
C  10.21200 2.38200 24.58700
C  8.33700 3.44700 21.62900
C  11.56400 2.26900 22.39600
C  11.77400 0.89100 21.61900
N  10.36500 2.09000 27.56400
C  11.04300 1.24300 26.68600
C  11.76800 0.25300 27.39100
C  11.47800 0.54200 28.73900
C  10.69200 1.70800 28.79300
C  12.45800 -0.95500 26.78000
C  11.67400 0.11900 30.15200
O  12.23700 -0.84400 30.66700
C  10.91300 1.15700 31.08100
C  9.95600 0.26400 31.75700
O  8.81600 -0.06400 31.35300
O  10.37400 0.08200 33.07300
C  9.36000 -0.57000 33.94600
H  5.99200 5.62000 29.71800
H  7.50500 5.43900 23.45300
H  11.55900 0.66000 24.86100
H  8.74700 2.70600 32.24300
H  7.77400 5.54400 31.81800
H  6.52900 3.48400 32.80500
H  5.81500 3.51900 31.21400
H  5.78700 5.00600 32.35900
H  9.70100 5.36300 32.87200
H  10.87800 4.52700 31.89200
H  11.26500 3.01100 33.74900
H  9.69800 2.90800 34.16000
H  4.78300 8.14600 27.58700
H  4.57000 6.86700 28.76400
H  3.66200 6.86000 27.15900
H  3.53700 7.60000 25.08200
H  4.22400 8.74100 23.97000
H  4.73200 8.91200 25.67800
H  9.93100 4.43200 22.34000
H  9.67800 1.38000 22.81900
H  7.33500 3.51500 22.05400
H  8.45800 2.40700 21.32600
H  8.37700 4.21900 20.86100
H  12.25500 2.54700 23.19100
H  11.64400 3.04300 21.63300
H  11.96500 1.12300 20.57100
H  10.85500 0.30700 21.58300
H  12.55000 0.24000 22.02300
H  11.86600 -1.47400 26.02700
H  12.63000 -1.61100 27.63300
H  13.46400 -0.78100 26.40000
H  11.69800 1.59700 31.69600
H  8.40800 -0.05700 33.81500
H  9.75800 -0.45700 34.95500
H  9.20900 -1.64500 33.84800
Mg 16.86400 52.27000 26.84800
C  19.06900 50.95500 29.34800
C  14.91600 53.50100 29.34500
C  14.85900 53.58900 24.43200
C  19.04700 51.18900 24.40000
N  16.97600 52.14000 28.98800
C  17.94400 51.56800 29.79300
C  17.61800 51.88100 31.26500
C  16.11000 52.21700 31.20500
C  15.98500 52.70700 29.75500
C  15.10300 51.03900 31.39900
C  18.51900 52.94600 31.93000
C  19.02200 52.86300 33.36600
H  18.18300 52.15900 34.38000
N  15.10700 53.37900 26.87700
C  14.46800 53.76500 28.04500
C  13.28800 54.53600 27.72300
C  13.27500 54.58800 26.26800
C  14.39400 53.79100 25.78500
C  12.36700 55.15300 28.73400
C  12.26600 55.34800 25.42400
O  12.34100 55.43500 24.21400
C  11.14600 56.11700 26.04000
N  16.87000 52.11000 24.69800
C  15.89500 52.78300 23.93900
C  16.12600 52.50600 22.43000
C  17.54100 51.92000 22.44600
C  17.89700 51.75900 23.94900
C  15.03600 51.65000 21.80300
C  18.59600 52.70700 21.60200
C  19.15400 54.02200 22.16600
N  18.61800 51.12200 26.92100
C  19.43900 50.83700 25.78700
C  20.62900 50.15500 26.30900
C  20.50200 50.13900 27.69900
C  19.30500 50.77200 28.01100
C  21.79800 49.87600 25.50500
C  21.19600 49.86400 28.99800
O  22.26100 49.31200 29.27400
C  20.23100 50.38900 30.06400
C  19.86200 49.48800 31.12400
O  19.11600 48.51000 30.94900
O  20.28900 49.84200 32.31400
C  20.30700 48.86100 33.46400
H  14.23600 53.74200 30.16600
H  14.29500 54.08400 23.63900
H  19.76700 50.84600 23.65400
H  17.66200 50.96000 31.84600
H  16.07600 53.04100 31.91700
H  14.37700 50.91100 30.59600
H  14.53000 51.25100 32.30100
H  15.57600 50.06500 31.52600
H  18.04000 53.92200 31.85400
H  19.44000 53.01000 31.35200
H  19.13200 53.82700 33.86200
H  20.02100 52.42900 33.40300
H  12.11000 56.15200 28.38000
H  12.79100 55.21800 29.73600
H  11.46100 54.54600 28.75200
H  10.43200 56.47800 25.29900
H  11.62200 56.94200 26.56900
H  10.65600 55.42700 26.72700
H  16.20900 53.48100 21.95100
H  17.56400 50.88600 22.10100
H  14.66800 51.99200 20.83600
H  14.14200 51.67600 22.42600
H  15.38800 50.62200 21.71900
H  18.22000 53.15300 20.68100
H  19.36000 51.98200 21.32200
H  18.95700 54.79600 21.42300
H  20.22100 54.01100 22.39000
H  18.65000 54.31000 23.08800
H  22.66700 50.12500 26.11300
H  21.78300 50.41800 24.55900
H  21.89000 48.83600 25.19100
H  20.72700 51.19900 30.59700
H  19.27200 48.76300 33.79200
H  20.99600 49.13700 34.26300
H  20.54000 47.87800 33.05600

