158

Mg 48.77000 35.61800 28.36200
C  46.48900 34.08900 30.71100
C  48.84400 38.31900 30.48500
C  50.34900 37.36300 25.97300
C  48.37400 32.99800 26.33500
N  47.77800 36.08100 30.36800
C  46.99300 35.36300 31.18500
C  46.63800 36.06000 32.49300
C  47.24500 37.47900 32.32400
C  47.99900 37.29400 30.96100
C  46.22000 38.63800 32.30600
C  47.18200 35.41400 33.78100
C  48.59400 34.81500 33.70500
H  49.79300 35.70100 34.11200
N  49.43900 37.55900 28.28400
C  49.47800 38.51400 29.26700
C  50.17800 39.70700 28.84700
C  50.53400 39.44000 27.48800
C  50.10800 38.06700 27.18900
C  50.38300 40.92900 29.67200
C  51.34100 40.28000 26.58300
O  51.69800 39.97900 25.42600
C  51.91900 41.62200 27.05300
N  49.23000 35.31700 26.40800
C  49.92700 36.13300 25.58600
C  50.38500 35.37200 24.37700
C  49.97800 33.90100 24.61800
C  49.15400 34.04400 25.88700
C  49.91100 35.87600 23.05400
C  51.23500 33.00400 24.76500
C  51.67000 32.17000 23.57700
N  47.75000 33.80100 28.49100
C  47.61400 32.84300 27.52700
C  46.74200 31.78400 28.00500
C  46.23400 32.25000 29.23800
C  46.94000 33.42200 29.53000
C  46.49300 30.51800 27.31800
C  45.26700 31.99800 30.26200
O  44.40400 31.10400 30.35600
C  45.40800 33.19500 31.26000
C  45.71000 32.66100 32.61600
O  46.77500 32.17500 32.92500
O  44.65100 32.88000 33.40700
C  44.83500 32.68000 34.81400
H  49.04500 39.19000 31.11400
H  51.01500 37.77600 25.21200
H  48.35200 32.11100 25.69900
H  45.55200 36.03800 32.58100
H  48.05700 37.67700 33.02300
H  45.83600 38.79500 31.29800
H  46.67100 39.53400 32.73500
H  45.36500 38.17500 32.79700
H  46.52500 34.57100 33.99400
H  47.20500 36.15200 34.58300
H  48.72000 34.41400 32.70000
H  48.70600 33.96000 34.37200
H  50.22900 41.83000 29.07900
H  51.32600 40.90200 30.21900
H  49.56300 40.99900 30.38700
H  51.21100 42.44700 26.97400
H  52.73200 41.75800 26.34000
H  52.41200 41.42000 28.00400
H  51.46700 35.48400 24.43700
H  49.30300 33.40400 23.92100
H  50.79200 36.26900 22.54700
H  49.11900 36.60800 23.21100
H  49.58800 35.11500 22.34400
H  51.11300 32.39300 25.66000
H  52.12400 33.59200 24.99300
H  52.54200 32.63500 23.11900
H  50.91400 32.23900 22.79400
H  51.73000 31.09900 23.77000
H  47.42100 30.20900 26.83500
H  45.67500 30.51500 26.59800
H  46.25300 29.78400 28.08700
H  44.48800 33.77900 31.24100
H  44.33800 33.51300 35.31200
H  45.87500 32.82300 35.10900
H  44.43700 31.70400 35.09000
Mg 6.96900 53.26000 41.02800
C  6.52200 49.67000 40.88800
C  10.10200 52.67900 39.51300
C  7.04600 56.39700 40.22400
C  3.58700 53.49000 41.85700
N  8.13500 51.42500 40.24800
C  7.81700 50.08000 40.43500
C  8.94800 49.09600 39.86000
C  10.11600 50.09200 39.89900
C  9.39100 51.52200 39.84600
C  11.06400 50.05600 41.14600
C  8.68400 48.37700 38.43900
C  8.56600 49.25000 37.20700
H  7.36400 49.10500 36.29100
N  8.40600 54.39700 40.10400
C  9.67600 54.05600 39.59300
C  10.34400 55.23600 39.12600
C  9.40800 56.33900 39.31000
C  8.22700 55.73300 39.87600
C  11.68600 55.25300 38.48200
C  9.67100 57.75900 38.93100
O  10.75800 58.09900 38.50300
C  8.70200 58.88700 39.16600
N  5.39500 54.67700 40.90000
C  5.78800 55.97300 40.69600
C  4.67200 56.95100 41.04900
C  3.60900 55.91900 41.49800
C  4.24300 54.60900 41.45400
C  5.05500 58.13500 42.00600
C  2.25400 56.05300 40.63800
C  1.83000 55.12900 39.50300
N  5.40600 51.90600 41.53000
C  4.10600 52.16500 41.89300
C  3.53400 50.93300 42.34200
C  4.43300 49.92900 41.90700
C  5.53400 50.59000 41.38200
C  2.23000 50.68000 42.97300
C  4.59800 48.50200 41.83900
O  3.90100 47.62000 42.29400
C  5.92000 48.25300 41.02000
C  5.36800 47.59200 39.77600
O  4.77000 48.26700 38.88800
O  5.67700 46.24300 39.70600
C  5.44800 45.63400 38.37700
H  11.09300 52.46600 39.10500
H  6.92400 57.47500 40.09500
H  2.58100 53.77200 42.17600
H  9.16200 48.34800 40.62400
H  10.82700 49.93500 39.08800
H  11.93900 49.49800 40.81100
H  10.50500 49.37300 41.78500
H  11.33200 51.02700 41.56300
H  7.92900 47.61300 38.62300
H  9.62500 47.84700 38.29400
H  9.51800 49.14600 36.68700
H  8.57600 50.29800 37.50900
H  12.21800 54.31500 38.64100
H  12.38500 55.99300 38.87200
H  11.70300 55.43300 37.40700
H  8.57400 59.03200 40.23800
H  7.72000 58.66100 38.74900
H  9.03100 59.80500 38.67800
H  4.36400 57.46600 40.13800
H  3.35700 56.12100 42.53900
H  6.11700 58.09800 42.24900
H  4.49600 58.11000 42.94100
H  4.72400 59.04200 41.50000
H  2.23000 57.10100 40.34000
H  1.48000 55.95400 41.39800
H  1.83500 55.71300 38.58300
H  0.83800 54.73400 39.72200
H  2.55300 54.31600 39.42900
H  1.66500 49.99400 42.34200
H  1.60100 51.55800 43.12200
H  2.48600 50.18400 43.91000
H  6.60500 47.62400 41.58900
H  6.24300 44.88800 38.34900
H  5.67400 46.36100 37.59700
H  4.43300 45.27800 38.19800

