158

Mg 42.66400 42.00700 26.13800
C  42.02800 44.29200 28.83100
C  44.25500 40.07400 28.38100
C  43.54900 40.16100 23.51400
C  41.44000 44.54000 23.95000
N  43.14700 42.28900 28.33700
C  42.72100 43.13600 29.22800
C  43.01800 42.74100 30.67800
C  43.85200 41.41500 30.51400
C  43.78400 41.25700 29.00700
C  45.40700 41.42700 31.07400
C  41.66900 42.54800 31.52400
C  41.55300 43.47000 32.76200
H  40.98800 42.79400 34.00000
N  43.64500 40.23600 26.00900
C  44.11700 39.53500 27.05700
C  44.61900 38.23300 26.55700
C  44.36000 38.25100 25.17900
C  43.76700 39.54800 24.80900
C  45.18900 37.14800 27.46300
C  44.58700 37.12000 24.18100
O  44.16900 37.18800 23.03400
C  45.27500 35.83100 24.65200
N  42.64200 42.35800 24.03400
C  42.94800 41.39300 23.17500
C  42.71200 41.71900 21.69600
C  41.84500 43.02500 21.86000
C  41.96100 43.31900 23.37700
C  44.02600 41.83000 20.86700
C  40.32600 42.77500 21.54400
C  39.64800 41.61300 22.27100
N  41.84900 43.98300 26.30400
C  41.42900 44.88000 25.30000
C  41.03000 46.15400 25.91800
C  41.14900 45.91300 27.31300
C  41.69000 44.62900 27.48900
C  40.68000 47.49500 25.22700
C  40.97100 46.50800 28.61600
O  40.58400 47.61500 28.95400
C  41.55000 45.49000 29.69200
C  42.59300 46.15600 30.45200
O  43.75200 46.14300 30.18300
O  42.08000 46.74200 31.55700
C  42.95800 47.27100 32.53800
H  44.85900 39.39200 28.98300
H  43.98800 39.51800 22.74800
H  40.98200 45.23700 23.24400
H  43.63700 43.50400 31.15000
H  43.44500 40.51000 30.96400
H  46.12600 41.19700 30.28800
H  45.56700 40.71200 31.88100
H  45.62400 42.40100 31.51300
H  41.63100 41.55200 31.96600
H  40.81000 42.72000 30.87500
H  40.89100 44.30100 32.52100
H  42.54500 43.90800 32.86500
H  46.27200 37.04100 27.52000
H  44.80500 36.14100 27.30100
H  44.66900 37.37700 28.39300
H  45.76600 35.46900 23.74900
H  44.59600 35.16700 25.18800
H  46.12900 35.88800 25.32600
H  42.15500 40.92400 21.20100
H  42.28000 43.79300 21.22100
H  44.18100 42.84600 20.50300
H  43.93000 41.16200 20.01100
H  44.91400 41.47200 21.38700
H  40.35200 42.38500 20.52700
H  39.81900 43.73500 21.64100
H  40.31600 41.21300 23.03400
H  39.33600 40.86400 21.54400
H  38.74700 42.04100 22.71000
H  40.04200 47.46600 24.34300
H  41.54400 48.12800 25.02200
H  40.14200 48.12800 25.93300
H  40.69900 45.07900 30.23700
H  43.32400 46.54900 33.26800
H  42.43600 48.07200 33.06100
H  43.74200 47.89400 32.10800
Mg 6.00000 53.22400 41.27200
C  4.20800 50.24400 41.45900
C  8.54100 51.47400 39.76100
C  7.54800 56.21800 40.76000
C  3.27300 54.78500 42.47700
N  6.25800 51.10500 40.60100
C  5.41400 50.06400 40.76700
C  5.86800 48.90800 39.89500
C  7.35900 49.17700 39.70900
C  7.42200 50.68200 40.06200
C  8.27800 48.25100 40.51400
C  5.07000 48.99300 38.55300
C  4.88000 47.70500 37.75600
H  5.64300 47.52300 36.50600
N  7.73900 53.75700 40.43700
C  8.66900 52.89200 39.86000
C  9.78200 53.61500 39.32600
C  9.62600 54.94100 39.77200
C  8.28100 55.01100 40.38400
C  10.87600 52.95600 38.49100
C  10.55900 56.08600 39.51600
O  11.49300 56.06000 38.75300
C  10.44700 57.43400 40.20200
N  5.47100 55.22400 41.54800
C  6.24800 56.29000 41.32400
C  5.52500 57.60300 41.50200
C  4.23200 57.13600 42.12700
C  4.28000 55.61500 41.98000
C  6.27500 58.63000 42.31500
C  2.91600 57.80200 41.50600
C  1.92400 58.44800 42.47300
N  4.05400 52.67500 41.83900
C  3.13000 53.41000 42.45500
C  2.06700 52.56300 43.00500
C  2.40300 51.27400 42.66700
C  3.63500 51.47700 41.91700
C  0.92000 53.02400 43.86100
C  2.10100 49.84500 42.70100
O  1.11200 49.31200 43.12300
C  3.30600 49.09200 42.08800
C  2.93100 47.95500 41.19400
O  2.25900 48.08300 40.17000
O  3.54400 46.77600 41.61900
C  3.53300 45.62500 40.71200
H  9.43300 51.04500 39.29900
H  7.92700 57.22000 40.54700
H  2.45500 55.37000 42.90100
H  5.57700 47.99600 40.41600
H  7.69200 49.00700 38.68600
H  7.71300 47.48400 41.04500
H  9.01300 48.79100 41.11100
H  8.80600 47.64100 39.78100
H  5.53800 49.65300 37.82300
H  4.04700 49.36700 38.59500
H  3.81700 47.64800 37.52000
H  5.00500 46.78300 38.32400
H  11.05800 53.69500 37.71000
H  10.63900 52.02400 37.97900
H  11.82400 52.88700 39.02400
H  11.40400 57.94100 40.32700
H  10.02100 57.24300 41.18700
H  9.95500 58.21500 39.62400
H  5.39200 58.04800 40.51600
H  4.12400 57.32600 43.19500
H  6.62400 59.46800 41.71000
H  7.15800 58.17800 42.76600
H  5.65400 58.94700 43.15200
H  2.40400 56.98200 41.00400
H  3.08500 58.54200 40.72400
H  2.35100 58.61300 43.46300
H  1.05900 57.78700 42.51200
H  1.65800 59.37100 41.95700
H  1.11200 53.95500 44.39400
H  0.62800 52.22600 44.54400
H  0.05300 53.25300 43.24000
H  3.92700 48.58800 42.82900
H  4.55300 45.23900 40.71600
H  3.20700 45.79200 39.68500
H  2.83100 44.87100 41.06700

