158

Mg 2.54600 -0.95000 44.55300
C  5.82100 -0.52600 43.35500
C  1.55600 1.53100 42.37200
C  -0.61700 -2.08600 44.88400
C  3.66200 -4.11400 45.81900
N  3.62400 0.37100 43.10100
C  4.96900 0.44200 42.76900
C  5.30200 1.44600 41.65200
C  3.96900 2.22100 41.51600
C  2.95100 1.36800 42.34300
C  3.95500 3.69100 42.21300
C  5.82800 0.69500 40.33900
C  7.01100 1.34500 39.72400
H  6.77300 1.87500 38.29000
N  0.77900 -0.27800 43.92100
C  0.56400 0.82400 43.08500
C  -0.82900 1.11800 42.96700
C  -1.53800 0.03500 43.55700
C  -0.46600 -0.84100 44.18900
C  -1.35200 2.21800 42.04400
C  -3.04700 -0.16800 43.65300
O  -3.79600 0.68600 43.21100
C  -3.72800 -1.38500 44.32800
N  1.62500 -2.88100 45.33600
C  0.27400 -3.01400 45.40400
C  -0.11300 -4.41900 46.13200
C  1.31500 -5.16200 46.15600
C  2.29000 -3.95500 45.81800
C  -0.73200 -4.16400 47.53800
C  1.47500 -6.35100 45.12800
C  2.04600 -7.63900 45.77500
N  4.36800 -2.07100 44.90800
C  4.67000 -3.31300 45.33400
C  6.13000 -3.48500 45.28600
C  6.61300 -2.46900 44.51700
C  5.47100 -1.60200 44.27400
C  6.78000 -4.76700 45.68800
C  7.80400 -1.90000 43.96800
O  8.95900 -2.33000 43.98200
C  7.33900 -0.60400 43.20900
C  8.10300 0.45400 43.99500
O  8.15300 0.46600 45.20700
O  8.79000 1.39200 43.21400
C  9.68600 2.36500 43.87900
H  1.32100 2.50000 41.92600
H  -1.59600 -2.56500 44.95800
H  3.97800 -5.11100 46.13400
H  6.03800 2.04100 42.19200
H  3.68400 2.26700 40.46400
H  3.35500 4.37600 41.61400
H  4.98500 4.03600 42.31300
H  3.58000 3.66800 43.23600
H  4.95400 0.65700 39.68800
H  6.00700 -0.33300 40.65400
H  7.73400 0.52900 39.70700
H  7.43000 2.14400 40.33600
H  -2.37000 2.01200 41.71300
H  -0.74900 2.21000 41.13600
H  -1.33400 3.22200 42.46700
H  -4.81700 -1.38100 44.29500
H  -3.38700 -1.46400 45.36000
H  -3.38900 -2.26800 43.78700
H  -0.85000 -5.03000 45.61100
H  1.52200 -5.44600 47.18800
H  -1.15100 -3.16000 47.60500
H  0.03500 -4.36500 48.28500
H  -1.50200 -4.91300 47.72300
H  2.05400 -6.05100 44.25400
H  0.50500 -6.55800 44.67500
H  2.17000 -7.61500 46.85800
H  3.08800 -7.84300 45.52800
H  1.48100 -8.53800 45.52700
H  6.40200 -5.51700 44.99300
H  6.45300 -4.91400 46.71700
H  7.85600 -4.59500 45.68400
H  7.66200 -0.62200 42.16800
H  8.97800 3.06200 44.32500
H  10.33000 2.87100 43.15900
H  10.37200 1.82800 44.53500
Mg 30.68900 59.03800 40.14400
C  27.70300 57.44800 39.37500
C  32.33000 56.15300 39.30700
C  33.48000 60.85800 39.92300
C  28.82100 62.10700 40.38800
N  30.03900 57.02800 39.56600
C  28.79500 56.58100 39.39600
C  28.76800 55.12800 38.88500
C  30.18300 54.68900 39.23800
C  30.91700 56.03000 39.37100
C  30.29400 53.98400 40.67300
C  28.51200 55.18900 37.26400
C  27.51000 54.16300 36.59300
H  26.61600 54.68300 35.42800
N  32.64100 58.58400 39.77100
C  33.10000 57.32000 39.47800
C  34.55900 57.45200 39.24900
C  34.95500 58.79900 39.53500
C  33.66300 59.46500 39.73000
C  35.39100 56.19800 39.06100
C  36.34300 59.35600 39.71200
O  37.27900 58.60300 39.39200
C  36.79200 60.64800 40.34400
N  31.15300 61.14500 40.16600
C  32.32200 61.66100 40.12800
C  32.36700 63.15000 40.17300
C  30.88000 63.57000 40.37800
C  30.19100 62.17000 40.24800
C  33.39400 63.72200 41.16500
C  30.38800 64.61200 39.36900
C  29.75400 65.86500 39.93400
N  28.72300 59.66100 39.98000
C  28.12100 60.98800 40.08300
C  26.72700 60.81500 39.75200
C  26.62100 59.50300 39.45700
C  27.78200 58.81900 39.59300
C  25.58200 61.81400 39.57800
C  25.62300 58.55900 39.04200
O  24.44500 58.77500 38.89400
C  26.29100 57.20700 38.93800
C  25.54300 56.19000 39.78100
O  25.44100 56.11100 41.04000
O  25.10100 55.17700 38.94500
C  24.93100 53.85300 39.52200
H  32.90900 55.24300 39.13500
H  34.42800 61.39900 39.88500
H  28.26700 63.04800 40.33600
H  27.97300 54.51100 39.30500
H  30.66400 54.02400 38.52100
H  29.33500 53.70000 41.10700
H  30.73000 54.63100 41.43400
H  31.00600 53.17100 40.52500
H  29.49000 54.86600 36.90800
H  28.37900 56.18700 36.84600
H  26.79700 53.74500 37.30500
H  28.16600 53.36500 36.24600
H  34.88100 55.64400 38.27300
H  35.14600 55.63500 39.96200
H  36.36900 56.44200 38.64600
H  37.81700 60.46400 40.66500
H  36.11600 60.93500 41.14900
H  36.77300 61.46100 39.61800
H  32.66200 63.53800 39.19800
H  30.74300 63.96900 41.38300
H  33.86900 62.87200 41.65600
H  32.95000 64.39700 41.89700
H  34.15800 64.31600 40.66500
H  29.58100 64.17100 38.78500
H  31.03700 64.92800 38.55200
H  30.09900 66.61100 39.21800
H  30.14600 66.21000 40.89100
H  28.67000 65.77500 39.85900
H  24.80700 61.57200 40.30600
H  25.22000 61.81200 38.55000
H  25.96700 62.79000 39.87200
H  26.20000 56.81000 37.92700
H  25.91300 53.43700 39.74400
H  24.56300 53.21400 38.71900
H  24.26800 53.89600 40.38600

