158

Mg 1.92400 -3.11600 45.08200
C  5.14900 -2.27700 44.35400
C  0.80400 -0.79800 42.76600
C  -1.18500 -4.64900 45.04200
C  3.20800 -6.28100 46.38300
N  2.89200 -1.81700 43.66100
C  4.20200 -1.46500 43.71000
C  4.60000 -0.45200 42.65000
C  3.21500 0.27800 42.44900
C  2.21900 -0.82000 42.94600
C  3.02800 1.65100 43.20500
C  5.23700 -1.02200 41.31900
C  6.47100 -0.28000 40.74600
H  6.18800 0.60300 39.54900
N  0.04700 -2.67500 44.15300
C  -0.20800 -1.61500 43.31100
C  -1.65200 -1.59000 43.00000
C  -2.22900 -2.61700 43.81600
C  -1.07000 -3.38800 44.32400
C  -2.29200 -0.47200 42.19700
C  -3.70000 -2.87300 43.95100
O  -4.50200 -2.10300 43.52700
C  -4.32800 -4.08300 44.55600
N  1.19300 -5.16800 45.48700
C  -0.15400 -5.40300 45.64300
C  -0.43000 -6.52600 46.53700
C  0.92600 -7.33000 46.63600
C  1.87400 -6.22000 46.13700
C  -1.09400 -5.92200 47.80100
C  0.93600 -8.60300 45.78200
C  1.70000 -9.77800 46.35800
N  3.76900 -4.02100 45.55200
C  4.14400 -5.24700 46.07700
C  5.54800 -5.26000 46.27300
C  5.99400 -4.13000 45.58700
C  4.86000 -3.44600 45.11200
C  6.28000 -6.33800 47.03700
C  7.21300 -3.30800 45.30100
O  8.32500 -3.42200 45.77300
C  6.64400 -2.22500 44.35300
C  7.07000 -0.90500 44.75600
O  6.54300 -0.23600 45.61400
O  8.10900 -0.43900 43.98700
C  8.41400 0.97000 44.25900
H  0.55600 -0.03000 42.03100
H  -2.19300 -4.97500 45.30500
H  3.53200 -7.21400 46.84900
H  5.26500 0.25500 43.14500
H  3.04800 0.49400 41.39400
H  2.67800 2.42200 42.51900
H  3.80800 2.01000 43.87700
H  2.21700 1.49600 43.91600
H  4.44300 -0.90800 40.58100
H  5.50900 -2.06200 41.49800
H  7.32200 -0.94500 40.60100
H  6.68300 0.52900 41.44600
H  -2.26500 -0.90300 41.19600
H  -1.82500 0.51200 42.22200
H  -3.37000 -0.44100 42.35300
H  -3.96800 -4.97200 44.03800
H  -5.37500 -4.11000 44.25600
H  -4.21600 -4.12400 45.64000
H  -1.20700 -7.13000 46.06900
H  1.10800 -7.55300 47.68700
H  -2.10100 -6.29900 47.97700
H  -1.19800 -4.84800 47.95900
H  -0.50100 -6.29800 48.63600
H  1.20400 -8.37500 44.75000
H  -0.10700 -8.88400 45.92900
H  0.96700 -10.36300 46.91400
H  2.45800 -9.44800 47.06700
H  2.26500 -10.45700 45.71900
H  6.70400 -7.18300 46.49500
H  5.63500 -6.70000 47.83600
H  7.11400 -5.85600 47.54800
H  7.01700 -2.30500 43.33200
H  8.80200 0.99200 45.27800
H  7.53400 1.57100 44.02900
H  9.16600 1.24700 43.52000
Mg 47.95000 16.41100 28.97500
C  45.82900 15.98200 31.68500
C  50.04400 18.17700 30.76800
C  49.71800 16.92400 26.12700
C  45.33100 15.00300 26.90400
N  47.84700 17.18000 30.98100
C  47.00100 16.76500 31.96200
C  47.61000 17.03300 33.41700
C  48.69200 18.05800 33.01600
C  48.85100 17.85300 31.47900
C  48.40300 19.54000 33.26800
C  48.07300 15.69200 34.11900
C  47.58700 15.49700 35.59500
H  47.26700 16.71000 36.44400
N  49.72700 17.28800 28.55100
C  50.49500 17.92700 29.45400
C  51.75200 18.28900 28.83500
C  51.67500 17.91100 27.45900
C  50.37700 17.31500 27.29300
C  52.90700 18.90600 29.69600
C  52.77600 18.16700 26.37700
O  52.69300 17.75400 25.26300
C  53.94700 18.88100 26.78500
N  47.53600 15.98000 26.86400
C  48.45600 16.41400 25.87800
C  47.89100 16.17900 24.44300
C  46.55500 15.45500 24.70300
C  46.44300 15.49100 26.26500
C  47.89900 17.41100 23.59700
C  46.46300 14.04500 24.09600
C  45.59800 13.78000 22.85400
N  46.03500 15.61300 29.18500
C  45.12500 15.08100 28.30900
C  43.99700 14.58800 29.02000
C  44.17800 14.92100 30.40000
C  45.44200 15.57000 30.42700
C  42.80100 13.94500 28.43600
C  43.64100 14.86600 31.72200
O  42.61200 14.31100 32.11900
C  44.71400 15.54000 32.66200
C  44.09300 16.66800 33.49800
O  43.71300 17.75200 33.04600
O  43.91900 16.32800 34.81500
C  43.32500 17.47600 35.58900
H  50.71800 18.74400 31.41400
H  50.32500 17.20700 25.26400
H  44.47300 14.61500 26.35200
H  46.83700 17.51500 34.01600
H  49.61200 17.82300 33.55100
H  49.17600 19.97900 33.89800
H  47.44100 19.72500 33.74600
H  48.47100 20.06100 32.31300
H  49.14900 15.56200 33.99600
H  47.54900 14.88200 33.61200
H  48.34500 15.00100 36.20000
H  46.76200 14.78500 35.63800
H  53.78600 18.26200 29.68000
H  52.52100 18.91500 30.71500
H  53.17500 19.92600 29.41800
H  53.83000 19.80900 27.34600
H  54.60100 19.02000 25.92500
H  54.54300 18.25200 27.44600
H  48.55600 15.53900 23.86200
H  45.69200 16.01600 24.34700
H  48.52100 18.25300 23.90000
H  46.89000 17.61700 23.23900
H  48.43400 17.16500 22.68000
H  46.17600 13.37200 24.90300
H  47.40600 13.58400 23.80200
H  44.91600 14.61100 22.67200
H  45.05100 12.84400 22.96800
H  46.24800 13.67200 21.98600
H  42.61400 14.33700 27.43600
H  41.95400 14.03200 29.11600
H  43.02400 12.88200 28.34400
H  44.92300 14.76200 33.39800
H  43.74400 18.41900 35.23700
H  43.59000 17.35400 36.63900
H  42.24000 17.54700 35.51100

