158

Mg 2.10200 -2.21700 43.89000
C  5.43800 -1.24900 43.34900
C  1.17300 0.66100 41.97200
C  -1.13600 -3.31300 43.66400
C  3.11300 -5.27300 44.91000
N  3.20500 -0.53900 42.63200
C  4.56300 -0.31700 42.74000
C  4.94100 0.96500 41.99900
C  3.57600 1.60300 42.00400
C  2.55600 0.50900 42.12700
C  3.38300 2.78600 42.94800
C  5.54500 0.58800 40.57200
C  6.37500 1.63800 39.84600
H  5.82200 2.23700 38.52800
N  0.32600 -1.37700 43.01600
C  0.12800 -0.17800 42.31900
C  -1.23800 -0.01400 41.94700
C  -1.94500 -1.03400 42.69900
C  -0.89300 -1.97200 43.18000
C  -1.87500 1.20000 41.23600
C  -3.49900 -1.22100 42.89600
O  -4.26700 -0.50400 42.25800
C  -4.07400 -2.14700 43.90300
N  1.20100 -4.11000 44.16600
C  -0.19000 -4.30300 44.10300
C  -0.55600 -5.74800 44.49100
C  0.78100 -6.26000 45.07300
C  1.80200 -5.17100 44.70000
C  -1.60500 -5.91300 45.60900
C  1.17400 -7.73700 44.71200
C  1.75500 -8.61900 45.85300
N  3.91100 -3.10800 44.23500
C  4.20700 -4.37500 44.66100
C  5.58800 -4.58700 44.80100
C  6.14900 -3.33600 44.29300
C  5.05200 -2.49700 44.00200
C  6.26400 -5.74700 45.45300
C  7.36300 -2.58400 43.95600
O  8.51400 -2.93600 43.94100
C  6.89300 -1.16400 43.50400
C  7.17200 -0.23200 44.62700
O  6.84200 -0.41300 45.81300
O  7.84900 0.87900 44.14700
C  8.16500 1.89500 45.17700
H  0.93800 1.64300 41.55600
H  -2.17300 -3.61000 43.49100
H  3.51200 -6.16800 45.39100
H  5.72000 1.52500 42.51600
H  3.39300 2.04000 41.02200
H  2.36200 2.64400 43.30300
H  3.58400 3.72200 42.42800
H  4.09200 2.90400 43.76700
H  4.64200 0.35900 40.00600
H  6.03800 -0.37600 40.69800
H  7.36600 1.20400 39.71300
H  6.51500 2.48200 40.52000
H  -1.15700 1.48600 40.46700
H  -1.96400 2.09000 41.86000
H  -2.80300 0.91700 40.74000
H  -4.30400 -3.14800 43.53900
H  -5.04400 -1.77300 44.23300
H  -3.39700 -2.22100 44.75300
H  -0.82500 -6.34400 43.61900
H  0.82800 -6.16300 46.15700
H  -2.31800 -5.12600 45.36500
H  -1.15100 -5.70300 46.57800
H  -2.07000 -6.89900 45.60100
H  1.89200 -7.63800 43.89800
H  0.25300 -8.28800 44.52300
H  1.01500 -9.37800 46.10600
H  1.98500 -7.98900 46.71200
H  2.67300 -9.08600 45.49600
H  6.37300 -6.50800 44.68000
H  5.72400 -6.14400 46.31300
H  7.26300 -5.39200 45.70900
H  7.42500 -0.73800 42.65400
H  7.56500 1.83700 46.08500
H  7.74000 2.79100 44.72500
H  9.24800 1.91800 45.29900
Mg 17.76300 52.65200 26.02900
C  19.82100 50.93200 28.37700
C  15.54300 53.26600 28.48300
C  15.68700 53.85100 23.68400
C  19.84700 51.32300 23.47700
N  17.65600 52.05700 28.09200
C  18.60800 51.45800 28.90700
C  18.15700 51.50500 30.39000
C  16.64300 51.76400 30.30100
C  16.63500 52.45500 28.88100
C  15.70000 50.45500 30.54300
C  18.97600 52.60000 31.15000
C  19.23500 52.62900 32.63800
H  18.36400 51.62400 33.42400
N  15.81300 53.38500 26.05400
C  15.14900 53.77100 27.20000
C  13.94100 54.49500 26.83100
C  13.95400 54.66500 25.41600
C  15.21700 54.03700 25.00900
C  12.99000 54.98800 27.89400
C  12.95600 55.34100 24.54000
O  13.15700 55.46500 23.30200
C  11.66400 55.89500 25.10800
N  17.78200 52.53800 23.95700
C  16.83700 53.16200 23.19300
C  17.12800 53.03400 21.68600
C  18.47800 52.25700 21.64700
C  18.72200 52.02300 23.12600
C  15.98200 52.52100 20.83500
C  19.64000 52.80500 20.72600
C  20.67600 53.72900 21.41900
N  19.48800 51.44200 25.94800
C  20.19900 50.96600 24.82800
C  21.38900 50.33100 25.25000
C  21.25900 50.24700 26.64200
C  20.13200 50.94900 27.02800
C  22.44100 49.63700 24.34500
C  21.93800 49.70100 27.82500
O  22.93000 49.09500 27.97100
C  20.98200 50.18200 29.03000
C  20.44200 48.99200 29.75600
O  19.61700 48.25600 29.25600
O  20.87000 48.90200 31.07600
C  20.05400 47.87300 31.80700
H  14.77000 53.39100 29.24400
H  15.09900 54.27800 22.86900
H  20.60300 51.04900 22.73800
H  18.44600 50.58300 30.89400
H  16.31800 52.37900 31.14000
H  15.07100 50.61800 31.41800
H  16.24100 49.51300 30.63500
H  15.01200 50.31600 29.70900
H  18.52700 53.57100 30.94100
H  19.95200 52.59200 30.66400
H  18.97800 53.62500 33.00000
H  20.31200 52.56100 32.78600
H  12.07100 54.41900 28.03400
H  12.80500 56.04800 27.72100
H  13.44000 54.99500 28.88700
H  11.79000 56.57500 25.95000
H  11.01400 55.08300 25.43600
H  10.97800 56.42300 24.44600
H  17.22300 54.07100 21.36500
H  18.19100 51.25100 21.33700
H  16.30100 51.67500 20.22700
H  15.72400 53.31800 20.13700
H  15.06100 52.36900 21.39800
H  19.08100 53.43000 20.03000
H  20.13700 52.05900 20.10600
H  20.97100 54.41700 20.62700
H  21.57200 53.14200 21.62100
H  20.18500 54.19200 22.27500
H  23.06800 50.32000 23.77200
H  21.94400 48.95200 23.65800
H  23.10600 49.13700 25.04900
H  21.55400 50.75500 29.76000
H  20.27700 48.02800 32.86300
H  20.50900 46.89100 31.68400
H  18.99300 47.77300 31.58000

