158

Mg 25.26500 1.31100 29.68400
C  27.26100 1.00700 32.54500
C  22.58000 1.62400 31.66200
C  23.47500 1.23200 26.80700
C  28.10600 0.11800 27.84100
N  24.96300 1.40400 31.88500
C  25.91500 1.27400 32.84600
C  25.25800 1.33000 34.30700
C  23.71900 1.28100 33.98600
C  23.72700 1.46600 32.43800
C  23.02500 -0.08100 34.38000
C  25.81600 2.51000 35.17000
C  26.62600 2.18300 36.42900
H  26.45800 3.18400 37.54800
N  23.28200 1.55300 29.30100
C  22.29900 1.71700 30.28200
C  21.01500 1.90600 29.59300
C  21.28500 1.68600 28.15600
C  22.74200 1.54000 28.06500
C  19.69000 1.99100 30.36300
C  20.32300 1.65500 26.93900
O  20.62700 1.40900 25.77500
C  18.89100 1.88400 27.29100
N  25.70900 0.61200 27.69000
C  24.80100 0.86400 26.69900
C  25.45700 0.91800 25.29400
C  26.90100 0.69200 25.60200
C  26.98900 0.49900 27.16300
C  24.97400 -0.19200 24.35600
C  27.85800 1.77300 25.09300
C  27.92100 3.01000 25.93900
N  27.28400 0.68000 30.10100
C  28.27000 0.13900 29.27000
C  29.48300 -0.03600 30.07600
C  29.13900 0.37100 31.36900
C  27.82300 0.71300 31.29300
C  30.75700 -0.61400 29.53700
C  29.66600 0.57900 32.70700
O  30.78200 0.37400 33.19100
C  28.41400 0.94600 33.54100
C  28.26000 -0.11100 34.60300
O  27.64400 -1.14100 34.46300
O  29.00500 0.14600 35.73100
C  28.72100 -0.70600 36.88000
H  21.65500 1.61300 32.24300
H  22.93000 1.29200 25.86300
H  29.01600 -0.14700 27.29800
H  25.38800 0.35800 34.78200
H  23.16000 2.13800 34.36200
H  23.67900 -0.47100 35.16000
H  22.94100 -0.77600 33.54400
H  22.07700 0.17400 34.85400
H  24.90800 2.97500 35.55500
H  26.38000 3.31200 34.69500
H  27.67900 2.19000 36.14800
H  26.34300 1.19300 36.78500
H  19.27200 2.96000 30.08900
H  19.69900 1.73600 31.42300
H  18.98400 1.24400 30.00100
H  18.53900 0.98500 27.79900
H  18.25600 2.02700 26.41700
H  18.87500 2.79900 27.88200
H  25.31900 1.93200 24.91800
H  27.29800 -0.24800 25.21800
H  24.09800 0.26800 23.89900
H  24.73900 -1.17900 24.75300
H  25.67100 -0.41200 23.54800
H  27.52400 2.14100 24.12300
H  28.85000 1.32200 25.07500
H  27.27100 3.00400 26.81400
H  27.51700 3.84000 25.36100
H  28.92900 3.30000 26.23700
H  31.37800 0.24500 29.28200
H  30.63100 -1.26900 28.67500
H  31.14400 -1.29800 30.29200
H  28.81700 1.84800 34.00200
H  28.91100 -1.76600 36.71100
H  27.72100 -0.68600 37.31400
H  29.31700 -0.36100 37.72500
Mg 48.71800 35.15700 27.18700
C  46.99200 33.66900 29.93100
C  48.99900 37.92200 29.01000
C  50.29100 36.56900 24.55800
C  47.98600 32.35100 25.15300
N  48.23200 35.57800 29.41500
C  47.62900 34.84300 30.35500
C  47.66500 35.62400 31.66500
C  47.84800 37.10500 31.15600
C  48.31300 36.87400 29.73700
C  46.47000 37.86700 31.03000
C  48.71300 35.10800 32.64500
C  48.49500 35.30700 34.17300
H  47.52500 36.45700 34.47800
N  49.61700 37.02600 26.87000
C  49.62600 38.04900 27.76400
C  50.37700 39.12700 27.20400
C  50.82900 38.73500 25.86000
C  50.23000 37.36700 25.68500
C  50.65800 40.37100 27.95800
C  51.67100 39.50800 24.83200
O  52.08900 38.92400 23.83100
C  51.98800 41.00300 25.22100
N  49.01400 34.59900 25.04500
C  49.81600 35.27700 24.24300
C  49.81300 34.67600 22.86100
C  49.22800 33.23500 23.05600
C  48.67200 33.37800 24.49900
C  49.11100 35.61700 21.81900
C  50.23900 32.11300 22.89400
C  50.39300 31.49400 21.53800
N  47.73200 33.38900 27.40900
C  47.48900 32.32600 26.53600
C  46.68600 31.37500 27.25400
C  46.45000 31.86600 28.54700
C  47.09100 33.09900 28.61200
C  46.15200 30.13800 26.63600
C  45.72600 31.53300 29.78100
O  44.89700 30.67000 30.02900
C  45.97700 32.84100 30.68000
C  46.36900 32.36800 32.08700
O  47.42100 31.82900 32.43500
O  45.30800 32.62700 32.95200
C  45.68600 32.16400 34.35200
H  48.98500 38.86800 29.55500
H  50.74500 36.91900 23.62900
H  47.89800 31.44200 24.55500
H  46.66700 35.49100 32.08400
H  48.48900 37.68500 31.82100
H  45.60400 37.28300 31.34400
H  46.18300 38.10500 30.00600
H  46.62300 38.81300 31.54900
H  49.64100 35.56600 32.30200
H  48.99200 34.08000 32.41300
H  49.49500 35.50100 34.56200
H  48.09300 34.34500 34.48900
H  49.90900 40.48800 28.74200
H  50.55400 41.18500 27.24100
H  51.66800 40.37400 28.36800
H  52.61000 41.12100 26.10900
H  51.06700 41.58300 25.25100
H  52.60500 41.47200 24.45500
H  50.85500 34.66100 22.54100
H  48.44300 32.87400 22.39000
H  48.28400 35.04800 21.39500
H  49.82900 35.83300 21.02800
H  48.76500 36.53800 22.28800
H  50.07400 31.25800 23.54900
H  51.24000 32.51200 23.06100
H  49.55100 31.80300 20.91900
H  50.30400 30.40900 21.47300
H  51.35700 31.72600 21.08500
H  46.99900 29.49800 26.38700
H  45.58000 30.46800 25.76900
H  45.51000 29.70700 27.40400
H  45.04500 33.39800 30.77500
H  44.75000 31.87700 34.83200
H  46.16800 32.96400 34.91300
H  46.24500 31.23400 34.45600

