158

Mg 47.70600 16.29000 29.12500
C  45.75900 15.72500 31.96900
C  49.83700 18.06700 31.26900
C  49.41900 17.50900 26.39300
C  45.31000 14.96300 27.11600
N  47.68500 16.93500 31.33400
C  46.92500 16.45000 32.30600
C  47.29200 16.88100 33.79200
C  48.38800 17.90900 33.44000
C  48.69500 17.59000 31.90700
C  47.77200 19.38100 33.52100
C  47.87100 15.70300 34.64500
C  47.98500 15.84900 36.20600
H  47.65000 17.21600 36.98800
N  49.37900 17.50600 28.90000
C  50.14900 18.10100 29.90400
C  51.36000 18.69600 29.33500
C  51.24600 18.53900 27.88600
C  49.95000 17.85200 27.67600
C  52.50800 19.37600 30.20200
C  52.30000 19.08300 26.87000
O  52.06500 19.11400 25.68000
C  53.48900 19.79100 27.32100
N  47.42000 16.25000 27.07700
C  48.21200 16.83500 26.11700
C  47.73300 16.67300 24.64700
C  46.55100 15.69100 24.89000
C  46.43200 15.53200 26.46400
C  47.38800 18.07200 23.97500
C  46.54300 14.31700 24.12500
C  45.58000 14.00800 22.92500
N  45.87500 15.52700 29.37700
C  44.96400 14.92800 28.55800
C  43.82900 14.35200 29.28600
C  44.16100 14.60400 30.60500
C  45.35800 15.32200 30.62600
C  42.61100 13.67000 28.68900
C  43.60300 14.52100 31.94800
O  42.61100 13.99900 32.43700
C  44.63800 15.21800 32.92400
C  43.93500 16.36400 33.48200
O  43.37700 17.19500 32.82200
O  43.98300 16.32700 34.88900
C  43.49000 17.57800 35.48100
H  50.58800 18.55300 31.89500
H  49.92800 17.85600 25.49200
H  44.60900 14.52000 26.40600
H  46.48300 17.27200 34.41000
H  49.20100 17.85000 34.16400
H  48.63200 20.05100 33.50900
H  47.34500 19.54200 34.51000
H  47.07400 19.58700 32.70900
H  48.85800 15.59400 34.19400
H  47.26300 14.85200 34.33800
H  49.05500 15.69900 36.35100
H  47.42700 15.18400 36.86500
H  52.51000 18.98700 31.22000
H  52.51900 20.46100 30.09600
H  53.47500 19.02300 29.84400
H  53.23900 20.68000 27.90000
H  54.07200 20.26400 26.53200
H  54.13700 19.05800 27.80100
H  48.40600 16.04400 24.06400
H  45.66000 16.26700 24.64100
H  47.97400 18.81300 24.51800
H  46.34800 18.37600 24.09100
H  47.70100 18.22500 22.94200
H  46.39200 13.55000 24.88500
H  47.48100 14.30900 23.57000
H  46.13300 13.71200 22.03300
H  44.88400 14.83600 22.79000
H  44.98100 13.16100 23.25800
H  42.26200 13.11200 29.55800
H  42.97500 12.96400 27.94300
H  41.88800 14.37800 28.28300
H  44.79900 14.49900 33.72800
H  42.40200 17.52900 35.52200
H  43.81300 18.48300 34.96800
H  43.79900 17.65100 36.52400
Mg -4.59000 25.49800 26.49200
C  -3.41100 26.82100 29.54100
C  -6.31500 23.09600 28.42000
C  -5.47400 23.86500 23.67900
C  -2.38500 27.44900 24.82700
N  -4.64500 24.90900 28.69800
C  -4.15200 25.67900 29.68600
C  -4.65800 25.13700 31.02800
C  -5.34500 23.77300 30.69700
C  -5.47800 23.92300 29.21800
C  -4.53700 22.52100 31.18600
C  -5.70200 26.15600 31.59200
C  -5.57200 26.47800 33.09100
H  -5.17200 25.40600 34.06100
N  -5.81300 23.81900 26.06800
C  -6.51800 22.99000 26.99800
C  -7.38200 22.06800 26.36700
C  -7.11100 22.22900 24.92200
C  -6.03400 23.29500 24.84000
C  -8.26900 21.09700 26.99300
C  -7.70800 21.42000 23.76900
O  -7.37300 21.61400 22.59800
C  -8.71600 20.36800 23.94600
N  -4.02200 25.64300 24.43000
C  -4.56200 24.89400 23.41200
C  -3.83200 25.24500 22.04900
C  -3.05600 26.52600 22.48000
C  -3.16700 26.60600 24.03200
C  -2.98300 24.01000 21.52400
C  -3.53800 27.85700 21.76800
C  -3.06200 28.22500 20.30400
N  -3.09100 26.86000 27.03800
C  -2.32900 27.71100 26.24200
C  -1.68000 28.74000 26.99400
C  -2.05500 28.45500 28.33500
C  -2.90100 27.32400 28.29300
C  -0.76100 29.74800 26.46200
C  -2.02700 28.88200 29.69700
O  -1.51400 29.86200 30.21400
C  -2.88700 27.87100 30.54400
C  -1.81100 27.29400 31.40700
O  -1.33600 26.21600 31.22400
O  -1.84100 27.88400 32.64600
C  -1.00600 27.15600 33.68200
H  -6.93900 22.45700 29.04800
H  -5.87600 23.37400 22.79000
H  -1.87300 28.22400 24.25200
H  -3.88300 25.04700 31.79000
H  -6.33000 23.81300 31.16100
H  -3.63300 22.95200 31.61600
H  -4.28300 21.97700 30.27600
H  -5.12000 21.99100 31.93900
H  -6.73400 25.88900 31.36700
H  -5.44400 27.12400 31.16100
H  -6.53900 26.85600 33.42200
H  -4.92500 27.33000 33.30200
H  -8.20400 21.23600 28.07200
H  -7.90200 20.09200 26.78400
H  -9.31900 21.17600 26.71300
H  -9.62500 20.76600 24.39800
H  -8.28900 19.59800 24.58900
H  -9.03400 19.97000 22.98200
H  -4.61300 25.51900 21.34000
H  -1.98400 26.40300 22.32300
H  -1.98300 24.34300 21.24600
H  -3.43200 23.57800 20.63000
H  -2.90700 23.17500 22.22100
H  -3.19000 28.59700 22.48900
H  -4.62700 27.85800 21.78400
H  -3.89600 28.39200 19.62300
H  -2.45200 27.42700 19.88000
H  -2.38400 29.07700 20.24700
H  -0.28000 29.33100 25.57700
H  -0.01000 30.11000 27.16400
H  -1.42100 30.60800 26.34900
H  -3.76600 28.30600 31.01900
H  0.02300 27.08900 33.33000
H  -1.39200 26.18000 33.97500
H  -0.94300 27.85700 34.51400

