158

Mg 16.63400 52.92500 26.24100
C  18.86600 51.00800 28.31400
C  14.76100 53.48500 29.20200
C  14.59800 54.72500 24.38300
C  18.65000 52.17700 23.61700
N  16.84500 52.32000 28.46100
C  17.82100 51.61800 29.06000
C  17.58000 51.45200 30.56200
C  16.01500 51.72300 30.65500
C  15.76000 52.51500 29.35600
C  15.04700 50.55000 30.95900
C  18.41100 52.52100 31.28600
C  18.61900 52.37700 32.81800
H  17.64000 51.56400 33.76000
N  14.95300 53.91700 26.67100
C  14.42200 54.15300 27.96600
C  13.30800 55.07600 27.75900
C  13.25500 55.49900 26.41100
C  14.28600 54.72300 25.77900
C  12.43800 55.44100 28.97500
C  12.37000 56.60800 25.78000
O  12.48900 56.95700 24.59600
C  11.34700 57.22600 26.64400
N  16.57200 53.26600 24.28100
C  15.60200 54.04600 23.68200
C  15.80100 54.08600 22.12500
C  17.23000 53.47200 21.96900
C  17.47900 52.93000 23.36100
C  14.68600 53.31600 21.33500
C  18.39000 54.42800 21.58700
C  19.37100 54.00400 20.45600
N  18.36600 51.80100 25.92400
C  19.00900 51.55000 24.78200
C  20.21700 50.73600 25.08600
C  20.23400 50.54300 26.43800
C  19.05000 51.13700 26.94200
C  21.32500 50.33100 24.11100
C  20.90500 49.81900 27.57100
O  21.99600 49.17600 27.65400
C  20.11200 50.30900 28.85700
C  19.92100 49.20700 29.85500
O  19.08000 48.31400 29.73100
O  20.67100 49.43200 30.91200
C  20.25900 48.60000 32.06200
H  14.19700 53.54400 30.13500
H  13.89400 55.27500 23.75400
H  19.24000 51.87900 22.74800
H  17.83200 50.46100 30.94000
H  15.85500 52.40700 31.48900
H  14.35100 50.77200 31.76800
H  15.56700 49.59300 30.99500
H  14.42200 50.43700 30.07400
H  18.05700 53.54400 31.16500
H  19.40100 52.49900 30.83000
H  18.65300 53.39200 33.21500
H  19.64900 52.04100 32.94100
H  12.64600 56.48700 29.20100
H  12.71400 54.98900 29.92800
H  11.39300 55.34400 28.68000
H  10.76400 57.71400 25.86300
H  11.82600 57.97100 27.27900
H  10.75000 56.55900 27.26700
H  15.77500 55.15100 21.89700
H  17.28500 52.59100 21.32900
H  13.84200 53.30500 22.02500
H  14.95900 52.32500 20.97200
H  14.46200 53.88600 20.43300
H  18.94900 54.84000 22.42700
H  17.87500 55.29800 21.18000
H  19.21200 54.60100 19.55800
H  19.41500 52.94100 20.21900
H  20.41100 54.17900 20.73100
H  20.86600 49.64100 23.40300
H  21.98100 49.70400 24.71600
H  21.77900 51.11500 23.50600
H  20.65200 51.01300 29.49100
H  20.41200 49.29600 32.88700
H  20.86500 47.69500 32.11000
H  19.19500 48.42800 32.22200
Mg -12.64400 17.00100 42.32200
C  -9.72700 15.14200 41.83600
C  -10.95800 19.62900 40.98900
C  -15.65900 18.62700 41.88600
C  -14.27700 13.99400 43.08300
N  -10.60400 17.22700 41.26400
C  -9.60600 16.36800 41.26400
C  -8.28900 17.06000 40.71800
C  -8.62300 18.60700 40.80400
C  -10.11900 18.49300 40.99800
C  -7.88000 19.42300 41.85400
C  -7.85800 16.54500 39.32700
C  -6.47900 15.86900 39.41400
H  -6.02500 14.82200 38.40200
N  -13.23900 18.87100 41.75500
C  -12.32300 19.83000 41.26000
C  -13.07900 20.98200 40.97700
C  -14.47600 20.72300 41.15500
C  -14.53500 19.37000 41.64500
C  -12.41300 22.25500 40.41900
C  -15.55900 21.72800 40.76900
O  -15.32300 22.83700 40.44600
C  -17.03400 21.43100 41.01700
N  -14.71400 16.38500 42.25200
C  -15.73100 17.23500 42.21300
C  -17.01900 16.51500 42.59800
C  -16.53700 15.13700 43.12400
C  -15.05800 15.12900 42.81400
C  -17.95000 17.34300 43.50000
C  -17.32800 13.86500 42.60800
C  -17.91100 12.80800 43.65900
N  -12.18000 14.96600 42.46400
C  -12.84500 13.84500 42.91300
C  -12.03500 12.72400 43.13500
C  -10.78400 13.14400 42.72600
C  -10.89700 14.51500 42.30400
C  -12.50600 11.41000 43.61500
C  -9.48800 12.71500 42.57900
O  -9.03200 11.60300 42.79600
C  -8.63900 14.03100 41.99600
C  -7.60400 14.40800 42.99500
O  -7.85700 14.70600 44.18700
O  -6.37500 14.23800 42.49000
C  -5.28700 14.66300 43.41400
H  -10.48700 20.51100 40.54900
H  -16.64200 19.10100 41.91000
H  -14.86300 13.16600 43.48700
H  -7.43500 16.87200 41.36900
H  -8.31500 19.06400 39.86400
H  -7.27300 18.75600 42.46600
H  -8.50500 19.96100 42.56700
H  -7.23100 20.16400 41.38800
H  -7.83300 17.31300 38.55400
H  -8.68000 15.91600 38.98400
H  -6.26200 15.37900 40.36300
H  -5.83800 16.74900 39.36800
H  -13.05100 23.12900 40.54600
H  -11.90600 22.16900 39.45800
H  -11.55000 22.34100 41.07800
H  -17.17200 21.30600 42.09100
H  -17.23400 20.50000 40.48600
H  -17.72800 22.17900 40.63200
H  -17.64300 16.22200 41.75500
H  -16.49000 14.97900 44.20200
H  -17.41200 18.19300 43.92000
H  -18.41700 16.70200 44.24700
H  -18.65500 17.81500 42.81500
H  -16.60800 13.34300 41.97800
H  -18.11100 14.17600 41.91800
H  -17.91700 13.13100 44.70000
H  -17.28900 11.94300 43.43100
H  -18.92800 12.54600 43.36600
H  -13.18400 11.57700 44.45200
H  -11.56100 10.97700 43.94300
H  -12.95200 10.84000 42.79900
H  -8.21100 13.84600 41.01100
H  -4.35100 14.14100 43.21400
H  -5.44400 14.37500 44.45300
H  -5.18600 15.74800 43.42100

