158

Mg 25.78100 0.97300 28.65600
C  27.65500 0.67800 31.58800
C  23.07000 1.69000 30.63700
C  23.97100 1.19400 25.86300
C  28.50300 -0.12600 26.81200
N  25.42000 1.08900 30.89600
C  26.34800 0.96200 31.87100
C  25.76400 1.21700 33.32300
C  24.28100 1.59700 32.97600
C  24.22100 1.44500 31.39500
C  23.31300 0.78200 33.90700
C  26.46300 2.36400 34.13200
C  25.85600 2.76600 35.46200
H  26.51200 2.18100 36.69500
N  23.78400 1.33300 28.32000
C  22.84200 1.66000 29.29000
C  21.60300 1.92700 28.58800
C  21.86900 1.86200 27.20700
C  23.25600 1.40800 27.04100
C  20.26000 2.31300 29.30500
C  20.93400 2.30600 26.08600
O  21.19800 2.05400 24.92400
C  19.67200 3.06000 26.42600
N  26.15300 0.43600 26.71300
C  25.29100 0.77600 25.78700
C  25.90600 0.54000 24.39900
C  27.37000 0.16000 24.67800
C  27.36000 0.18400 26.15800
C  25.26000 -0.41600 23.42600
C  28.33600 1.21700 23.97300
C  28.77300 2.50700 24.67500
N  27.68400 0.45600 29.03400
C  28.64500 -0.00100 28.18600
C  29.82300 -0.30800 28.89600
C  29.57100 0.01900 30.26000
C  28.20100 0.38900 30.27900
C  31.10600 -0.81600 28.26900
C  30.11200 0.11700 31.62900
O  31.24600 -0.08500 32.02200
C  28.87300 0.48000 32.55900
C  28.60300 -0.59300 33.53700
O  27.82000 -1.53800 33.40000
O  29.47200 -0.59300 34.58300
C  29.69200 -1.82900 35.40300
H  22.22400 2.01200 31.24900
H  23.46800 1.17700 24.89400
H  29.25500 -0.54100 26.13700
H  25.83200 0.30400 33.91500
H  24.06800 2.63000 33.25100
H  23.11600 1.21500 34.88700
H  23.75900 -0.20600 34.02300
H  22.34400 0.59700 33.44300
H  26.64000 3.15900 33.40800
H  27.45700 1.99100 34.37700
H  24.79900 2.53900 35.32100
H  25.94600 3.84000 35.62700
H  20.24100 2.13700 30.38100
H  19.48300 1.67100 28.89000
H  20.09200 3.36500 29.07400
H  19.79800 4.02100 26.92600
H  19.02500 2.33700 26.92300
H  19.24400 3.32900 25.46100
H  25.77400 1.48600 23.87300
H  27.64800 -0.82800 24.31100
H  24.67100 -1.10500 24.03100
H  25.92400 -0.96800 22.76000
H  24.62500 0.11200 22.71500
H  27.99400 1.50500 22.97900
H  29.27900 0.71300 23.75900
H  28.10300 2.88200 25.44900
H  28.91900 3.32200 23.96700
H  29.75200 2.30000 25.11000
H  31.76600 -0.04400 27.87500
H  30.88900 -1.55600 27.49800
H  31.66900 -1.27100 29.08400
H  29.20800 1.45400 32.91700
H  28.96600 -1.98300 36.20100
H  30.64600 -1.80700 35.93000
H  29.57900 -2.64200 34.68600
Mg 5.96800 53.69900 40.49000
C  5.31600 50.20500 40.18200
C  9.20900 53.14400 39.56300
C  6.13600 56.92000 39.81100
C  2.39300 54.04300 40.81500
N  7.03600 51.91300 39.84200
C  6.61200 50.61800 39.79700
C  7.79100 49.70000 39.25600
C  9.01800 50.65100 39.39000
C  8.36000 52.01000 39.63600
C  9.99100 50.19500 40.42200
C  7.57400 49.03100 37.80700
C  6.77300 49.87600 36.77100
H  6.20000 49.23600 35.60500
N  7.54400 54.87400 39.94200
C  8.86500 54.49800 39.72900
C  9.63300 55.65600 39.82600
C  8.75100 56.78000 40.00600
C  7.37000 56.23800 39.84500
C  11.13700 55.54600 39.71100
C  9.17600 58.21400 40.19200
O  10.32700 58.54600 39.95800
C  8.21100 59.17700 40.77900
N  4.46100 55.23600 40.33800
C  4.82700 56.47300 39.99700
C  3.56500 57.40500 39.74400
C  2.41200 56.51200 40.10800
C  3.11600 55.17800 40.43200
C  3.47400 58.71800 40.54700
C  1.39400 56.33100 38.98600
C  0.48200 57.49400 38.67400
N  4.23700 52.46500 40.72200
C  2.91900 52.73100 40.98500
C  2.13900 51.55900 41.07800
C  3.04300 50.51600 40.78600
C  4.30700 51.16200 40.52800
C  0.64500 51.43900 41.38600
C  3.20800 49.09300 40.72400
O  2.34600 48.24300 40.84400
C  4.67500 48.83000 40.34900
C  4.74800 47.97600 39.12800
O  4.18300 48.24200 38.04500
O  5.25100 46.69900 39.48000
C  4.96200 45.77500 38.37300
H  10.25600 52.87600 39.40200
H  6.34400 57.99100 39.76200
H  1.31100 54.19100 40.84200
H  7.75200 48.85900 39.94800
H  9.58100 50.73600 38.46100
H  10.90600 50.28200 39.83600
H  9.97300 49.14100 40.69800
H  10.08400 50.71700 41.37400
H  7.10500 48.05100 37.89100
H  8.58000 48.96800 37.39100
H  7.54700 50.58100 36.47000
H  5.92200 50.35500 37.25400
H  11.63900 56.50600 39.82900
H  11.44800 55.22100 38.71900
H  11.62600 54.85800 40.40100
H  8.73000 59.99900 41.27300
H  7.59700 58.61400 41.48200
H  7.74100 59.75200 39.98100
H  3.55800 57.74800 38.70900
H  1.82900 56.82300 40.97400
H  4.32500 58.76400 41.22600
H  2.56500 58.93900 41.10600
H  3.63900 59.57800 39.89800
H  0.61400 55.64600 39.31900
H  1.84000 56.07100 38.02600
H  0.79600 58.04100 37.78500
H  0.30900 58.13700 39.53700
H  -0.51900 57.11700 38.46200
H  0.43000 51.13300 42.41000
H  0.26900 50.80400 40.58400
H  0.20200 52.42300 41.22800
H  5.14300 48.37400 41.22200
H  3.90700 45.83300 38.10600
H  5.08800 44.75500 38.73800
H  5.57000 46.06600 37.51700

