158

Mg 42.05700 40.91400 26.51400
C  41.25200 43.08100 28.99300
C  42.74400 38.36900 28.85900
C  42.86600 38.78700 24.02300
C  41.56500 43.51500 24.12000
N  42.18200 40.82000 28.66300
C  41.75800 41.83700 29.50100
C  41.73300 41.35700 30.97100
C  42.50400 39.92000 30.87400
C  42.50400 39.67800 29.34600
C  43.93500 39.96000 31.42100
C  40.44300 41.35700 31.66600
C  40.36400 42.07400 33.09600
H  39.89300 41.13800 34.24700
N  42.67900 38.90500 26.47600
C  42.88400 37.99500 27.53800
C  43.32000 36.72900 27.09000
C  43.30500 36.83200 25.63900
C  42.93400 38.22300 25.30900
C  43.59700 35.51300 27.89900
C  43.38800 35.79100 24.60600
O  43.29000 36.03800 23.40300
C  43.67100 34.38100 24.92400
N  42.30800 41.21600 24.36500
C  42.57400 40.03600 23.56400
C  42.55000 40.51400 22.07700
C  41.84000 41.94400 22.12700
C  41.95600 42.27000 23.61200
C  43.94500 40.58400 21.48400
C  40.29900 41.86400 21.59100
C  39.30600 40.77600 22.10100
N  41.60400 42.92600 26.50500
C  41.40100 43.91700 25.48800
C  41.02200 45.16600 26.04500
C  40.85800 44.82100 27.38400
C  41.22800 43.48200 27.65800
C  40.78900 46.42200 25.41000
C  40.51500 45.39300 28.65800
O  39.91900 46.45200 28.94500
C  40.72300 44.33900 29.76800
C  41.51500 44.95800 30.86300
O  42.66500 45.29700 30.79100
O  40.68500 45.24400 31.89300
C  41.37600 45.91000 32.95000
H  42.88100 37.65600 29.67500
H  43.06400 38.20200 23.12200
H  41.39100 44.26400 23.34400
H  42.45200 41.97900 31.50400
H  41.96200 39.07400 31.29600
H  44.55800 40.70100 30.92000
H  44.23900 38.91300 31.41100
H  43.95400 40.18500 32.48700
H  40.21000 40.30100 31.80500
H  39.73000 41.82000 30.98400
H  39.57000 42.80100 32.92800
H  41.27900 42.58500 33.39900
H  42.88800 34.77000 27.53400
H  43.46600 35.61400 28.97600
H  44.60100 35.17900 27.63600
H  42.85200 33.83600 25.39400
H  44.57200 34.22700 25.51800
H  43.79100 33.71500 24.06900
H  41.90600 39.90100 21.44600
H  42.50100 42.67200 21.65500
H  43.78900 40.24500 20.46000
H  44.62900 39.86600 21.93800
H  44.45600 41.54700 21.49600
H  40.39100 41.70200 20.51700
H  39.87900 42.86200 21.71700
H  38.98700 40.17500 21.25000
H  38.41600 41.15500 22.60400
H  39.78100 40.18400 22.88300
H  41.28700 46.43000 24.44100
H  41.34700 47.14500 26.00400
H  39.75700 46.74600 25.27600
H  39.76900 44.06500 30.21700
H  42.19000 45.31600 33.36600
H  40.69500 46.04900 33.78900
H  41.72500 46.87100 32.57200
Mg 36.59400 49.25500 25.81600
C  36.50500 47.04500 28.66700
C  35.72900 51.83900 28.14800
C  36.18700 51.23100 23.26900
C  37.03400 46.38200 23.83800
N  36.08500 49.44500 28.13400
C  36.19000 48.41800 29.09500
C  35.98100 48.89100 30.52600
C  35.53500 50.41100 30.28300
C  35.83600 50.61700 28.78100
C  34.01300 50.72700 30.70700
C  37.22800 48.87700 31.46200
C  36.81300 48.58200 32.97600
H  35.35500 48.75300 33.59200
N  36.23200 51.31500 25.71700
C  35.84600 52.19200 26.73700
C  35.74000 53.49200 26.15300
C  36.03900 53.37000 24.73100
C  36.14200 51.95700 24.49600
C  35.48100 54.86600 26.98500
C  36.26900 54.46900 23.74300
O  36.41800 54.18500 22.55600
C  36.32200 55.98600 24.16700
N  36.52100 48.79100 23.85600
C  36.37300 49.84200 22.93700
C  36.66900 49.35000 21.47400
C  37.17700 47.82200 21.71400
C  36.86300 47.66600 23.20700
C  35.49400 49.54800 20.52300
C  38.63700 47.46100 21.40000
C  38.85900 46.05800 20.75800
N  36.68200 47.15600 26.13200
C  36.83500 46.11000 25.22800
C  37.08900 44.87300 25.91600
C  37.01700 45.23400 27.28700
C  36.70400 46.60600 27.34100
C  37.32900 43.56300 25.28900
C  36.96700 44.65300 28.62700
O  37.27400 43.58500 29.08200
C  36.52500 45.80500 29.58300
C  35.28200 45.48300 30.31100
O  34.18300 45.90000 30.03100
O  35.56500 44.83600 31.42800
C  34.42100 44.56700 32.35100
H  35.50900 52.66900 28.82200
H  36.27600 51.93500 22.43900
H  37.56900 45.53200 23.40900
H  35.26600 48.22100 31.00400
H  36.15600 51.11000 30.84100
H  34.01200 51.48700 31.48800
H  33.44800 49.87700 31.09000
H  33.45700 51.20500 29.90000
H  37.81000 49.79100 31.34000
H  37.73500 48.08800 30.90700
H  37.46900 49.19000 33.59900
H  37.00900 47.51400 33.07100
H  35.08600 54.62200 27.97100
H  34.83400 55.58700 26.48400
H  36.50500 55.22300 27.08900
H  36.96400 56.20200 25.02100
H  35.28000 56.26600 24.31600
H  36.73700 56.54200 23.32500
H  37.58800 49.82500 21.13000
H  36.46600 47.13900 21.24900
H  35.26500 48.57900 20.07900
H  35.74300 50.15300 19.65100
H  34.67200 49.77000 21.20300
H  39.26200 47.40000 22.29100
H  39.18100 48.07300 20.68100
H  39.44800 46.16400 19.84700
H  37.91700 45.61300 20.43900
H  39.29900 45.44100 21.54100
H  36.53900 43.35100 24.56900
H  37.21800 42.78000 26.04000
H  38.32100 43.47900 24.84400
H  37.31300 45.92300 30.32600
H  34.69900 44.58700 33.40500
H  34.11600 43.52500 32.25100
H  33.52300 45.16300 32.18900

