158

Mg 24.65400 -7.91000 48.04800
C  27.19600 -6.01500 46.98600
C  22.70100 -6.65300 45.47600
C  22.50600 -10.33200 48.62300
C  27.07600 -9.78900 50.13700
N  24.99400 -6.58100 46.31000
C  26.05800 -5.70400 46.29400
C  25.77600 -4.67500 45.16200
C  24.25600 -4.73000 44.96600
C  23.90900 -6.04600 45.66200
C  23.48000 -3.46000 45.28300
C  26.53300 -4.93500 43.79800
C  26.88300 -3.66600 42.99200
H  26.18900 -3.50200 41.64200
N  22.82200 -8.35600 47.29400
C  22.11700 -7.69600 46.21400
C  20.86100 -8.31300 46.04400
C  20.85900 -9.51600 46.80700
C  22.08600 -9.44000 47.63100
C  19.82100 -7.60600 45.15400
C  19.83000 -10.49100 46.71600
O  18.79500 -10.32600 46.08600
C  19.94200 -11.82800 47.46200
N  24.79300 -9.87800 49.30300
C  23.63500 -10.60700 49.39800
C  23.91600 -11.86400 50.20100
C  25.34500 -11.67600 50.81500
C  25.76500 -10.37100 50.07200
C  22.80700 -12.39500 51.18900
C  26.41000 -12.78900 50.56200
C  27.31600 -12.94400 51.77100
N  26.73200 -7.94000 48.54400
C  27.54900 -8.75600 49.29900
C  28.89300 -8.21100 49.30900
C  28.75600 -7.12000 48.41200
C  27.44800 -7.04300 47.92500
C  30.08200 -8.80600 50.06300
C  29.55000 -6.01400 47.81600
O  30.74100 -5.83800 47.83600
C  28.51200 -5.22200 46.84200
C  28.27700 -3.88900 47.40100
O  27.35200 -3.50400 48.16000
O  29.26100 -3.02200 46.82200
C  29.17000 -1.67300 47.13000
H  22.03000 -6.24400 44.71800
H  21.85400 -11.18800 48.80600
H  27.79800 -10.04200 50.91600
H  25.95400 -3.73500 45.68400
H  24.10200 -4.83100 43.89200
H  24.16400 -2.80400 45.82000
H  22.63600 -3.77800 45.89400
H  23.11900 -2.89500 44.42200
H  25.97300 -5.60900 43.14900
H  27.46900 -5.43000 44.05400
H  27.96900 -3.57300 42.96100
H  26.41000 -2.86900 43.56600
H  19.82500 -6.56000 45.46200
H  18.80500 -7.89500 45.42400
H  19.95000 -7.72000 44.07800
H  20.83600 -12.34200 47.10900
H  19.01100 -12.35600 47.25600
H  19.95800 -11.71800 48.54700
H  23.94300 -12.66400 49.46100
H  25.22400 -11.53400 51.88900
H  22.08400 -11.61200 51.41700
H  23.20800 -12.67900 52.16200
H  22.27200 -13.25700 50.78900
H  26.96800 -12.45700 49.68600
H  25.92200 -13.73700 50.33200
H  26.58800 -12.78400 52.56600
H  28.13400 -12.24700 51.95400
H  27.65700 -13.97900 51.76500
H  29.77600 -8.74100 51.10700
H  30.93800 -8.15100 49.90100
H  30.22600 -9.86100 49.82900
H  28.99100 -5.25500 45.86400
H  30.16600 -1.24600 47.24700
H  28.65400 -1.44300 48.06200
H  28.78700 -1.07700 46.30200
Mg 46.92200 24.96700 29.35600
C  48.02000 27.09700 32.01200
C  46.56200 22.51400 31.69900
C  46.85600 22.63900 26.93900
C  48.02800 27.30500 27.19200
N  47.26500 24.81900 31.63400
C  47.64800 25.84800 32.48100
C  47.37500 25.44300 33.94700
C  47.02900 23.88500 33.81400
C  46.89900 23.73500 32.27300
C  48.00100 22.94000 34.47100
C  46.23100 26.23600 34.66200
C  46.64200 26.97300 35.97300
H  45.49000 27.09600 36.98600
N  46.48900 22.92900 29.26600
C  46.33400 22.10600 30.39100
C  46.06000 20.73700 29.93900
C  46.17800 20.72300 28.49800
C  46.41400 22.15400 28.15200
C  45.67700 19.59300 30.84000
C  46.10700 19.59800 27.53200
O  46.09100 19.80500 26.30100
C  46.03100 18.16200 27.95400
N  47.19000 25.02000 27.29700
C  47.10600 23.91000 26.46000
C  47.42000 24.30500 25.03200
C  47.56200 25.88700 25.11900
C  47.56400 26.14600 26.60000
C  48.71200 23.59200 24.45700
C  46.38900 26.62300 24.50900
C  46.83000 27.75600 23.54900
N  47.68100 26.87300 29.48500
C  48.02400 27.75400 28.52200
C  48.51400 28.95600 29.05200
C  48.43900 28.82900 30.46000
C  48.02100 27.47200 30.67500
C  48.97300 30.06300 28.13100
C  48.69200 29.44300 31.73900
O  49.15600 30.55000 31.95700
C  48.53000 28.28800 32.76400
C  49.86400 28.00100 33.45300
O  50.60000 27.10400 33.09600
O  49.98200 28.78300 34.54300
C  50.89700 28.26000 35.57200
H  46.25900 21.75200 32.42000
H  47.08200 21.84400 26.22500
H  48.38700 27.99300 26.42500
H  48.29500 25.57400 34.51600
H  46.05700 23.80800 34.30000
H  48.94400 23.41000 34.74800
H  48.39200 22.20700 33.76500
H  47.39200 22.42500 35.21300
H  45.32200 25.64500 34.77600
H  45.85700 27.00100 33.98100
H  46.94700 27.98000 35.69000
H  47.57400 26.51700 36.30800
H  46.49700 18.88100 30.74400
H  44.73500 19.06300 30.69400
H  45.74500 19.90900 31.88100
H  45.16500 18.13900 28.61600
H  46.87600 17.97500 28.61600
H  45.93300 17.48700 27.10400
H  46.57600 24.08300 24.37900
H  48.53400 26.09500 24.67300
H  49.38900 23.17000 25.19900
H  49.34500 24.22900 23.84000
H  48.34900 22.83400 23.76200
H  45.88600 27.23900 25.25400
H  45.68800 25.93400 24.03700
H  46.80400 28.69300 24.10600
H  46.15700 27.75400 22.69200
H  47.85400 27.59600 23.20900
H  48.10000 30.65500 27.85200
H  49.34300 29.56900 27.23300
H  49.64200 30.76200 28.63300
H  47.82600 28.58400 33.54100
H  50.94700 29.04600 36.32500
H  51.93200 28.22900 35.23100
H  50.69300 27.23700 35.89000

