158

Mg 54.14900 24.41300 45.16700
C  51.30100 26.35400 44.08600
C  52.57400 21.75000 43.56700
C  57.01200 22.79100 45.34700
C  55.55000 27.36400 46.14500
N  52.12400 24.08300 43.98100
C  51.25500 25.05800 43.58400
C  50.19900 24.40800 42.66900
C  50.30900 22.91600 43.07700
C  51.74900 22.87100 43.59400
C  49.19400 22.44800 44.06500
C  50.49900 24.76800 41.21600
C  49.36100 25.38900 40.42300
H  49.10300 24.79200 39.02800
N  54.71500 22.43900 44.58800
C  53.95600 21.52800 43.99100
C  54.64200 20.30300 43.89900
C  55.93400 20.49200 44.42900
C  55.99200 21.94300 44.77400
C  54.05800 18.98300 43.34000
C  56.93700 19.43800 44.68800
O  56.77100 18.26600 44.39600
C  58.29500 19.78900 45.13300
N  56.06200 25.04200 45.46200
C  57.07900 24.11600 45.63600
C  58.35100 24.88300 46.09600
C  57.86100 26.31800 46.49500
C  56.36800 26.24100 46.01500
C  59.32300 24.13100 47.17500
C  58.70200 27.42500 45.87800
C  58.98900 28.67900 46.66900
N  53.55900 26.42400 45.21000
C  54.18500 27.50200 45.79000
C  53.29900 28.66900 45.87000
C  52.16500 28.27000 45.20000
C  52.34300 26.93900 44.81300
C  53.58900 30.03700 46.37000
C  50.82300 28.61400 44.74100
O  50.18600 29.68000 44.74600
C  50.18600 27.38400 44.11500
C  49.78800 27.89900 42.73900
O  50.52200 28.36500 41.94100
O  48.45100 27.92900 42.66700
C  47.93800 28.68700 41.50200
H  51.95900 20.90500 43.25000
H  57.87700 22.26800 45.76100
H  55.89400 28.27900 46.63300
H  49.23100 24.82900 42.94100
H  50.18900 22.39900 42.12500
H  49.08600 21.37600 43.89900
H  48.34300 23.12500 43.99600
H  49.51400 22.56600 45.10100
H  50.79700 23.84500 40.71700
H  51.35800 25.43900 41.21900
H  49.50700 26.44600 40.20200
H  48.45700 25.27400 41.02200
H  53.00200 19.02100 43.07200
H  54.19700 18.08900 43.94800
H  54.61300 18.64300 42.46600
H  58.98300 18.94500 45.17900
H  58.31600 20.03200 46.19500
H  58.76200 20.55400 44.51200
H  59.01300 24.93200 45.23100
H  57.79400 26.33400 47.58300
H  60.29800 24.09900 46.69000
H  59.10000 23.11300 47.49400
H  59.41300 24.83600 48.00200
H  58.12700 27.78100 45.02400
H  59.68500 27.01000 45.65500
H  60.06800 28.72100 46.81300
H  58.42100 28.81100 47.59000
H  58.77900 29.61400 46.15100
H  53.64100 30.80200 45.59500
H  54.50900 30.06900 46.95300
H  52.76800 30.32500 47.02600
H  49.31500 27.02400 44.66300
H  46.88800 28.86800 41.73200
H  48.06700 28.18500 40.54300
H  48.37000 29.68700 41.45900
Mg 26.43700 49.62200 25.89800
C  24.71000 51.24700 28.47100
C  28.68300 48.58400 28.29500
C  28.51100 48.71800 23.45300
C  24.24500 51.05800 23.60300
N  26.79200 50.11200 28.20000
C  25.86800 50.65800 29.01500
C  26.14400 50.28300 30.45400
C  27.61800 49.68100 30.38800
C  27.73700 49.45000 28.87500
C  28.80200 50.29400 31.10300
C  25.01900 49.37900 31.11500
C  24.50200 49.87900 32.48100
H  24.38100 48.86300 33.63400
N  28.28400 48.62400 25.85700
C  29.03500 48.23200 27.03300
C  30.27000 47.61400 26.64200
C  30.22100 47.68300 25.21600
C  28.99000 48.37100 24.75400
C  31.30700 47.08400 27.60700
C  31.31200 47.14900 24.24200
O  31.16200 47.42400 23.04300
C  32.41600 46.29100 24.70000
N  26.38000 49.84200 23.78800
C  27.35300 49.32500 23.02000
C  26.85200 49.37900 21.53100
C  25.47000 50.02200 21.58700
C  25.36600 50.34600 23.08200
C  27.82900 50.10300 20.52400
C  24.34200 49.17600 20.97900
C  24.02600 47.89300 21.80000
N  24.83100 50.94000 25.90400
C  23.96500 51.31500 24.93800
C  22.86500 52.14400 25.41900
C  23.07000 52.06400 26.83300
C  24.34400 51.42600 27.07600
C  21.85100 52.77900 24.62700
C  22.53300 52.40000 28.12000
O  21.49500 53.11000 28.39800
C  23.51100 51.85900 29.26300
C  23.96400 53.09400 30.03100
O  24.89900 53.80300 29.75800
O  23.21100 53.12700 31.18800
C  23.63800 53.96300 32.35300
H  29.28500 48.04000 29.02500
H  29.02500 48.37400 22.55300
H  23.50900 51.41200 22.87800
H  26.28000 51.15500 31.09500
H  27.56000 48.70600 30.87200
H  28.54000 51.23400 31.58900
H  29.56600 50.54400 30.36700
H  29.23800 49.58500 31.80500
H  25.29500 48.32900 31.21700
H  24.19100 49.26300 30.41600
H  23.51200 50.29700 32.30100
H  25.07600 50.74100 32.82000
H  31.48600 47.42400 28.62700
H  32.26600 47.49400 27.28900
H  31.40300 45.99900 27.57000
H  32.95600 46.03000 23.79000
H  31.95400 45.38200 25.08700
H  33.05300 46.91900 25.32300
H  26.68500 48.34200 21.24100
H  25.45600 50.96100 21.03300
H  28.72200 50.41700 21.06500
H  27.42400 50.98200 20.02400
H  28.04900 49.35300 19.76400
H  24.57100 48.87200 19.95800
H  23.44900 49.78500 21.11700
H  22.99300 47.94700 22.14400
H  24.60400 47.73400 22.71000
H  24.15000 47.06600 21.10100
H  20.86800 52.74800 25.09800
H  21.74900 52.38800 23.61500
H  22.23700 53.79600 24.56700
H  22.97400 51.19200 29.93800
H  24.08400 53.15900 32.93900
H  22.66500 54.29400 32.71300
H  24.39300 54.69900 32.07600

