158

Mg 48.04400 16.31300 28.37500
C  46.48200 15.86500 31.48600
C  50.49600 18.12700 29.87300
C  49.41500 16.86700 25.28400
C  45.23600 14.95500 26.81600
N  48.38000 17.05600 30.45300
C  47.67600 16.59100 31.56200
C  48.38400 17.02700 32.83600
C  49.57300 17.91100 32.28200
C  49.44700 17.76000 30.78600
C  49.55500 19.41300 32.82400
C  48.71100 15.81100 33.80700
C  48.47400 16.06500 35.28400
H  48.22400 17.49900 35.80700
N  49.78900 17.22900 27.71400
C  50.66700 17.97300 28.50100
C  51.78400 18.36400 27.74200
C  51.53700 18.00800 26.40800
C  50.22000 17.33300 26.35900
C  53.01000 19.10900 28.28200
C  52.46200 18.10200 25.15200
O  52.14600 17.70100 24.03000
C  53.81400 18.89800 25.27900
N  47.46400 15.79300 26.35100
C  48.19000 16.25800 25.24900
C  47.51200 15.83700 23.90100
C  46.22000 15.05100 24.42000
C  46.31200 15.20900 25.95800
C  47.14100 17.02400 22.91100
C  46.04600 13.60500 23.95400
C  45.70700 13.41400 22.43200
N  46.22300 15.52800 28.96500
C  45.20200 14.89700 28.26200
C  44.14100 14.53600 29.17900
C  44.61700 14.80900 30.42300
C  45.85400 15.47500 30.26800
C  42.87500 14.00500 28.79000
C  44.33100 14.75600 31.84300
O  43.31500 14.36000 32.41300
C  45.46000 15.44600 32.60800
C  44.79000 16.56300 33.36100
O  44.24900 17.52200 32.81900
O  44.53700 16.14900 34.67200
C  43.71100 17.03100 35.45800
H  51.23600 18.78900 30.32900
H  49.78600 17.21700 24.31900
H  44.26200 14.63300 26.43900
H  47.59600 17.64200 33.27100
H  50.53300 17.51600 32.61400
H  48.67900 19.56200 33.45500
H  49.48100 20.01500 31.91800
H  50.47200 19.73900 33.31300
H  49.72300 15.54000 33.50500
H  48.09200 14.96600 33.50600
H  49.36800 15.68300 35.77500
H  47.60600 15.42900 35.46000
H  53.87800 18.46400 28.41700
H  52.74900 19.56300 29.23800
H  53.13500 20.02700 27.70800
H  54.36400 18.57600 26.16300
H  53.60200 19.96100 25.16700
H  54.42400 18.56600 24.43900
H  48.07600 15.07400 23.36400
H  45.33100 15.59400 24.09900
H  46.08400 17.21600 22.72400
H  47.69200 16.74200 22.01500
H  47.62500 17.95300 23.21200
H  45.28100 13.13800 24.57400
H  46.99200 13.09600 24.14200
H  46.17500 12.49400 22.08200
H  46.00100 14.29300 21.85900
H  44.63200 13.24400 22.36700
H  42.30500 13.88700 29.71200
H  42.98200 13.02800 28.31700
H  42.41200 14.69800 28.08800
H  45.78000 14.73300 33.36800
H  44.34700 17.77100 35.94300
H  43.34400 16.51700 36.34700
H  42.90500 17.52700 34.91900
Mg 48.57600 45.23800 43.35600
C  45.39400 45.60200 41.81000
C  49.13000 42.61800 41.11900
C  51.94600 45.32000 43.90200
C  48.16100 48.47300 44.61700
N  47.39700 44.33300 41.63500
C  46.14800 44.60000 41.20200
C  45.69500 43.65700 40.12300
C  46.74200 42.51800 40.14500
C  47.88700 43.18400 41.02600
C  46.31500 41.15600 40.65900
C  45.47500 44.28400 38.65200
C  44.10100 43.90700 37.98900
H  44.24300 43.18000 36.65900
N  50.23100 43.95200 42.83300
C  50.20700 42.98300 41.94300
C  51.50200 42.28200 41.95200
C  52.36300 43.04100 42.80300
C  51.51700 44.15400 43.27900
C  51.78100 41.06000 41.16100
C  53.84500 42.73000 43.06700
O  54.36600 41.77100 42.52700
C  54.71100 43.63100 43.99100
N  49.87000 46.63500 44.16700
C  51.22200 46.43700 44.40000
C  51.83100 47.58300 45.07100
C  50.59300 48.59100 45.37500
C  49.49400 47.87400 44.63100
C  52.75700 47.37400 46.26000
C  50.84100 50.09400 45.10900
C  51.98700 50.68900 45.85800
N  47.03200 46.67700 43.46600
C  47.00300 47.92600 44.01000
C  45.62800 48.41000 44.04000
C  44.94900 47.51600 43.16300
C  45.84300 46.47400 42.84500
C  45.18300 49.61700 44.82500
C  43.72300 47.23200 42.60100
O  42.68500 47.84200 42.65300
C  43.93100 46.01400 41.67200
C  42.90400 45.03100 42.06800
O  41.77900 44.86700 41.50600
O  43.23600 44.49700 43.34800
C  42.19800 43.85700 44.17500
H  49.18800 41.77500 40.42700
H  52.99800 45.30800 44.19200
H  47.99000 49.49800 44.95400
H  44.74500 43.31400 40.53300
H  47.09600 42.39900 39.12100
H  46.32400 40.38300 39.89100
H  45.25300 41.20200 40.90000
H  46.82200 40.75900 41.53900
H  46.30800 44.26200 37.94900
H  45.42200 45.36000 38.82000
H  43.56800 44.82200 37.73100
H  43.45200 43.28300 38.60400
H  50.94000 40.54400 40.69700
H  52.24200 40.34300 41.83900
H  52.55300 41.35600 40.45100
H  54.25000 43.74000 44.97300
H  54.86800 44.60300 43.52400
H  55.64600 43.08200 44.10400
H  52.42500 47.98400 44.25000
H  50.35300 48.48400 46.43200
H  53.49200 48.17800 46.28900
H  53.48500 46.56400 46.21200
H  52.27700 47.42200 47.23700
H  49.99700 50.75600 45.30400
H  51.02500 50.23100 44.04300
H  51.72200 51.71100 46.12900
H  52.89000 50.92400 45.29400
H  52.32100 50.03600 46.66400
H  45.93500 49.86600 45.57400
H  44.22200 49.37100 45.27500
H  45.09200 50.50900 44.20500
H  43.67900 46.33800 40.66200
H  42.51200 42.83700 44.39500
H  41.20200 43.82200 43.73500
H  42.11100 44.43400 45.09600

