158

Mg 26.45100 50.38400 26.48500
C  24.03800 51.60300 28.74800
C  28.58100 49.75100 29.05900
C  28.61400 49.46500 24.22300
C  24.27200 51.53600 23.89300
N  26.28700 50.70100 28.65800
C  25.19600 51.04100 29.38800
C  25.41900 50.72100 30.87900
C  26.99200 50.53800 30.91600
C  27.31800 50.26100 29.46800
C  27.73300 51.67200 31.58900
C  24.73200 49.37600 31.44000
C  23.91300 49.69300 32.75000
H  24.59800 50.37600 33.96000
N  28.37400 49.58800 26.60600
C  29.10100 49.39800 27.76400
C  30.43000 48.89300 27.43300
C  30.47100 48.92800 26.01800
C  29.07400 49.28300 25.51900
C  31.52900 48.67100 28.43300
C  31.57700 48.50100 25.09800
O  31.63100 48.67200 23.93900
C  32.83400 47.84500 25.73500
N  26.48000 50.68000 24.31900
C  27.43900 49.99200 23.64800
C  27.11500 49.93400 22.16900
C  25.63200 50.46000 22.09700
C  25.39100 50.87900 23.51900
C  28.16200 50.54700 21.09400
C  24.61900 49.51900 21.41000
C  23.96000 48.34900 22.21200
N  24.63900 51.51700 26.27800
C  23.90000 51.85300 25.23900
C  22.71200 52.52500 25.65500
C  22.61600 52.39700 27.01800
C  23.91500 51.82300 27.34700
C  21.75600 53.29500 24.73200
C  21.91500 52.59200 28.28300
O  20.76900 52.99200 28.55800
C  22.79100 52.09500 29.37300
C  22.88800 53.11800 30.39000
O  23.50500 54.18600 30.30500
O  22.11200 52.71800 31.47900
C  22.29900 53.53400 32.62700
H  29.24000 49.52100 29.89900
H  29.32600 49.23100 23.42900
H  23.56300 51.69900 23.07800
H  25.10400 51.56800 31.48800
H  27.12400 49.65600 31.54300
H  27.21200 52.33300 32.28200
H  28.31700 52.33500 30.95200
H  28.43400 51.18500 32.26700
H  25.36900 48.54000 31.72700
H  24.05200 49.10000 30.63400
H  23.45100 48.77100 33.10500
H  23.03700 50.25400 32.42300
H  31.91200 47.68400 28.17500
H  31.26700 48.56200 29.48500
H  32.38600 49.33700 28.32900
H  33.43800 47.30900 25.00300
H  32.52600 47.04100 26.40200
H  33.52500 48.58800 26.13300
H  27.02000 48.86800 21.96200
H  25.71000 51.41900 21.58600
H  28.96000 51.21400 21.42100
H  27.63700 51.26600 20.46500
H  28.57000 49.73400 20.49300
H  25.14900 48.99000 20.61700
H  23.78100 50.14700 21.11000
H  24.30500 48.22800 23.23900
H  24.19000 47.40200 21.72600
H  22.87700 48.46100 22.16600
H  22.11100 54.26600 24.38900
H  20.85000 53.52400 25.29300
H  21.64100 52.74400 23.79900
H  22.52200 51.15800 29.86000
H  22.45800 54.58000 32.36700
H  23.12000 53.07500 33.17800
H  21.44100 53.38600 33.28200
Mg 9.25500 48.27200 25.57300
C  7.33100 48.32700 28.51400
C  11.83700 49.57600 27.39600
C  11.13500 48.27500 22.85000
C  6.38500 47.79100 23.65000
N  9.46100 48.94900 27.66200
C  8.65400 48.81000 28.74900
C  9.33800 49.17900 30.06200
C  10.51000 50.05000 29.57000
C  10.69000 49.47700 28.10300
C  10.13000 51.58600 29.57100
C  9.76400 47.88900 30.83600
C  10.25800 48.09600 32.22700
H  9.90700 46.96500 33.21400
N  11.28200 48.64700 25.23300
C  12.22900 49.14000 26.11200
C  13.54600 49.20500 25.46300
C  13.29400 48.81000 24.13600
C  11.91500 48.55100 24.03000
C  14.79200 49.65100 26.14600
C  14.30500 48.75400 22.93700
O  13.94400 48.33900 21.86500
C  15.73600 49.05500 23.21600
N  8.74000 47.95100 23.50700
C  9.77300 48.08000 22.57300
C  9.17300 47.79000 21.11300
C  7.68800 47.56200 21.38200
C  7.57000 47.84300 22.92100
C  9.62400 48.89700 20.08400
C  7.13900 46.11600 21.07900
C  5.85000 46.05700 20.31700
N  7.27200 48.14500 25.95000
C  6.23500 47.92100 25.07900
C  4.99100 47.82100 25.83500
C  5.38500 47.92800 27.17200
C  6.77600 48.14300 27.14300
C  3.62800 47.45500 25.38400
C  4.96300 47.80500 28.52400
O  3.86600 47.66400 28.97200
C  6.21000 48.02400 29.46400
C  6.46200 46.88600 30.26000
O  6.92500 45.78000 29.96400
O  6.15000 47.27300 31.56800
C  6.29900 46.17000 32.52300
H  12.62300 50.06900 27.97200
H  11.70100 48.27200 21.91600
H  5.45900 47.66400 23.08500
H  8.67800 49.84600 30.61700
H  11.35800 49.92500 30.24300
H  9.10000 51.75800 29.88500
H  10.38700 51.88700 28.55500
H  10.88400 52.04700 30.20800
H  10.45200 47.32400 30.20600
H  8.92800 47.19600 30.73600
H  9.87300 49.05500 32.57600
H  11.34400 48.16600 32.15800
H  14.67700 49.75000 27.22500
H  15.00000 50.63700 25.73200
H  15.62300 48.98200 25.92200
H  16.21100 48.13300 23.55100
H  15.85000 49.89600 23.90100
H  16.03400 49.32300 22.20300
H  9.68600 46.86500 20.85100
H  7.15900 48.34100 20.83300
H  10.11800 49.67900 20.66000
H  8.72900 49.35000 19.65700
H  10.24900 48.50400 19.28200
H  6.98300 45.66200 22.05800
H  7.88000 45.61100 20.46000
H  5.85800 45.74400 19.27300
H  5.36900 47.03200 20.24100
H  5.14800 45.42000 20.85400
H  3.44800 47.34700 24.31500
H  2.93400 48.23100 25.70800
H  3.19800 46.60100 25.90700
H  6.02400 48.92600 30.04700
H  6.95700 46.50100 33.32600
H  6.77200 45.22400 32.26000
H  5.31000 46.02400 32.95900

