158

Mg 0.92600 7.64700 25.74900
C  1.75200 9.46000 28.50100
C  0.62500 4.84600 27.70300
C  -0.01900 6.00000 22.95500
C  1.45600 10.52700 23.70000
N  1.29200 7.24500 27.78700
C  1.50000 8.13300 28.79300
C  1.54400 7.39900 30.19000
C  1.55400 5.92700 29.74500
C  1.11700 5.99800 28.29700
C  2.82800 5.11400 29.85800
C  0.28600 7.86800 30.95500
C  0.33500 8.02900 32.52100
H  1.52500 7.38900 33.23000
N  0.38500 5.64500 25.39000
C  0.23700 4.64600 26.38800
C  -0.44400 3.50600 25.80800
C  -0.55200 3.84400 24.38300
C  -0.09600 5.18500 24.18300
C  -0.76600 2.26700 26.61500
C  -1.20400 2.94900 23.26300
O  -1.31700 3.28000 22.09800
C  -1.57900 1.51700 23.52900
N  0.93100 8.20200 23.59600
C  0.54600 7.25100 22.64100
C  0.46600 7.94300 21.22200
C  1.07500 9.31400 21.46100
C  1.15100 9.40100 22.97700
C  1.19700 7.11800 20.16700
C  0.22800 10.50100 20.87200
C  -0.94400 11.03300 21.75700
N  1.54000 9.59000 26.00500
C  1.56200 10.65600 25.12500
C  1.83500 11.83300 25.95200
C  1.88300 11.46500 27.25300
C  1.67100 10.06100 27.24300
C  2.09300 13.23000 25.39600
C  2.10300 11.84800 28.58100
O  2.40100 12.93300 28.96700
C  1.92800 10.57600 29.44100
C  3.07900 10.65000 30.41600
O  4.20600 10.33700 30.19200
O  2.58100 11.23700 31.56300
C  3.51500 11.16500 32.63000
H  0.49700 4.04700 28.43600
H  -0.41500 5.61100 22.01500
H  1.65700 11.30000 22.95500
H  2.44800 7.85200 30.59800
H  0.70900 5.54800 30.32000
H  3.32800 4.84100 28.92800
H  2.77400 4.16400 30.39000
H  3.51100 5.66600 30.50400
H  -0.42600 7.04700 30.87100
H  0.10800 8.87000 30.56600
H  -0.61300 7.71400 32.95500
H  0.35700 9.09100 32.76600
H  -1.79500 1.97000 26.41100
H  -0.53800 2.39200 27.67400
H  -0.10900 1.42600 26.39900
H  -2.30600 1.41000 24.33400
H  -0.64800 0.97000 23.68100
H  -2.06700 1.19500 22.61000
H  -0.60000 7.93300 20.99300
H  2.10400 9.32900 21.10000
H  0.62000 6.19600 20.08900
H  2.20400 6.84900 20.48500
H  1.15800 7.69700 19.24400
H  -0.24200 10.25400 19.92000
H  0.99900 11.25500 20.71200
H  -1.87100 10.94000 21.19200
H  -0.62700 12.07200 21.84900
H  -1.13200 10.49400 22.68600
H  1.92400 13.18900 24.32000
H  3.02700 13.67500 25.74000
H  1.25000 13.85600 25.69000
H  0.97500 10.73200 29.94600
H  3.81200 10.14400 32.87300
H  3.08500 11.39800 33.60500
H  4.34100 11.83200 32.38600
Mg 42.17800 41.89200 26.23600
C  41.88700 44.27600 28.80100
C  43.32500 39.68600 28.64400
C  42.71000 39.72000 23.84200
C  41.72700 44.48800 23.82000
N  42.58300 41.95500 28.53000
C  42.26900 43.00800 29.34600
C  42.36900 42.61000 30.80600
C  42.89900 41.06700 30.74400
C  42.99200 40.85900 29.21400
C  44.23100 40.79100 31.44300
C  41.02800 42.74100 31.56900
C  41.20800 43.52700 32.94200
H  39.96100 43.46900 33.85400
N  42.86300 39.86600 26.27800
C  43.28600 39.20400 27.36100
C  43.78300 37.95500 26.87900
C  43.53300 37.89500 25.46200
C  43.03300 39.17500 25.09100
C  44.37500 36.85400 27.78200
C  43.83300 36.70800 24.40200
O  43.65400 36.80000 23.18600
C  44.45900 35.41400 24.95200
N  42.26600 42.11500 24.15000
C  42.34200 41.01800 23.43400
C  42.34100 41.37100 21.91500
C  41.81400 42.89900 21.89900
C  41.91000 43.20700 23.37500
C  43.80400 41.17200 21.32000
C  40.35500 42.98700 21.45700
C  39.33900 42.25000 22.36600
N  41.99300 43.91900 26.24600
C  41.80900 44.82600 25.21500
C  41.42800 46.14500 25.78600
C  41.53000 45.93400 27.16500
C  41.84300 44.58100 27.38700
C  41.12900 47.44600 25.13500
C  41.23300 46.58700 28.44600
O  40.89500 47.74000 28.70300
C  41.50700 45.62600 29.55800
C  42.62200 46.21400 30.45500
O  43.82100 46.15700 30.12700
O  42.16900 46.68300 31.62600
C  43.15400 47.05500 32.65600
H  43.54100 38.82500 29.28000
H  42.80600 39.04300 22.99100
H  41.41100 45.18900 23.04400
H  43.08900 43.32100 31.21000
H  42.27300 40.25900 31.12300
H  44.96500 40.12700 30.98800
H  44.00400 40.27500 32.37600
H  44.71800 41.74500 31.64900
H  40.66400 41.74600 31.82500
H  40.32800 43.18200 30.86000
H  41.29600 44.58300 32.69000
H  42.17000 43.18800 33.32700
H  43.83600 35.91400 27.66200
H  44.45900 36.95700 28.86300
H  45.29700 36.44500 27.36900
H  44.62600 34.71400 24.13400
H  43.94900 34.88800 25.75900
H  45.39700 35.81400 25.33800
H  41.52200 40.75600 21.54300
H  42.39200 43.55800 21.25100
H  44.22800 40.37200 21.92700
H  44.25500 42.16300 21.36900
H  43.81200 40.94800 20.25400
H  40.23900 42.52000 20.47900
H  39.93700 43.98000 21.28800
H  39.79200 41.76800 23.23300
H  38.80700 41.49800 21.78300
H  38.57500 43.00700 22.54600
H  42.09300 47.95400 25.12700
H  40.40000 48.04100 25.68600
H  40.74200 47.41000 24.11700
H  40.62600 45.48000 30.18300
H  43.98100 47.67100 32.30400
H  43.53200 46.08400 32.97800
H  42.55100 47.52500 33.43300

