158

Mg 31.23600 58.78400 41.29700
C  28.22100 57.41500 40.01000
C  32.88000 56.10600 39.97000
C  33.99400 60.50800 41.82800
C  29.25100 61.73900 42.02400
N  30.63100 57.06900 39.94300
C  29.31800 56.64900 39.63100
C  29.37600 55.23500 39.00800
C  30.86700 54.75700 39.33200
C  31.55400 56.06700 39.79000
C  30.98200 53.62200 40.37500
C  28.96800 55.38900 37.49900
C  27.63900 54.74400 36.98900
H  27.50400 54.48900 35.49900
N  33.15300 58.33500 41.05100
C  33.59400 57.17600 40.43800
C  35.02100 57.23700 40.46400
C  35.44100 58.50000 40.97400
C  34.14800 59.17500 41.25800
C  35.80800 56.08600 39.83300
C  36.87000 59.00800 41.16700
O  37.76100 58.19200 40.95000
C  37.20100 60.28000 41.74600
N  31.59800 60.85700 41.91400
C  32.86500 61.29100 42.13200
C  32.84100 62.81200 42.37800
C  31.32600 63.18100 42.63000
C  30.67300 61.84500 42.19100
C  33.74200 63.36000 43.44600
C  30.80800 64.36600 41.79900
C  29.87800 65.33500 42.55200
N  29.18100 59.53000 41.17300
C  28.51400 60.66800 41.52800
C  27.09800 60.54700 41.33900
C  26.94800 59.28700 40.85200
C  28.22300 58.66100 40.70400
C  26.00700 61.49200 41.78100
C  25.95500 58.42100 40.39400
O  24.73400 58.55600 40.31100
C  26.69000 57.10400 39.85800
C  26.29500 55.88800 40.53300
O  26.87600 55.30900 41.48300
O  25.16300 55.32500 40.01100
C  24.61000 54.01200 40.54300
H  33.45100 55.29500 39.51500
H  34.88400 61.13800 41.89200
H  28.67400 62.59400 42.38400
H  28.62200 54.67100 39.55700
H  31.31500 54.37900 38.41300
H  30.07300 53.36500 40.91900
H  31.82600 53.82500 41.03400
H  31.31100 52.78200 39.76300
H  29.81300 55.35700 36.81100
H  28.74900 56.45000 37.37900
H  26.95400 55.57000 37.17500
H  27.20000 53.92400 37.55800
H  35.62200 56.00300 38.76200
H  35.44200 55.18300 40.32100
H  36.83900 56.21800 40.16100
H  36.70600 60.48000 42.69600
H  36.84600 61.05900 41.07100
H  38.24400 60.39400 42.04100
H  33.12700 63.33000 41.46300
H  30.99100 63.32700 43.65700
H  34.11700 62.61400 44.14600
H  33.22200 64.08800 44.06800
H  34.56400 63.82400 42.90000
H  30.25900 64.01200 40.92700
H  31.66600 64.89900 41.38900
H  28.91500 64.82400 42.56400
H  29.72300 66.30400 42.07800
H  30.32800 65.53400 43.52500
H  25.83400 62.19800 40.96900
H  26.32900 61.93400 42.72400
H  25.08900 60.96800 42.04600
H  26.47400 56.90800 38.80800
H  23.91300 54.13700 41.37200
H  25.36500 53.28700 40.84700
H  24.08200 53.54600 39.71100
Mg 17.45600 51.67600 26.43700
C  19.20100 50.32800 29.15800
C  14.86800 52.61200 28.62400
C  15.59500 52.57500 23.77900
C  19.86100 50.38800 24.33000
N  17.15000 51.49800 28.63100
C  18.03600 51.04000 29.53500
C  17.58800 51.36500 30.99200
C  16.05400 51.71500 30.76800
C  15.98600 51.93700 29.23300
C  15.10900 50.63500 31.15200
C  18.46400 52.44600 31.65300
C  19.06800 52.06500 33.05400
H  18.17400 51.26200 33.99500
N  15.52200 52.52700 26.22200
C  14.59100 52.79700 27.21600
C  13.42700 53.42100 26.60200
C  13.52300 53.28600 25.18600
C  14.88400 52.72200 24.99600
C  12.30200 54.04500 27.43200
C  12.60100 53.86200 24.06000
O  12.84000 53.73600 22.86200
C  11.29300 54.61700 24.46100
N  17.65600 51.41300 24.31200
C  16.82500 52.04400 23.47900
C  17.42500 52.14000 22.13000
C  18.92200 51.73800 22.34500
C  18.87400 51.22600 23.75900
C  16.61900 51.15300 21.12700
C  19.97400 52.90300 22.27200
C  21.09100 52.57500 21.33400
N  19.14700 50.59200 26.67600
C  20.00900 50.09400 25.75000
C  21.08700 49.31500 26.39100
C  20.81700 49.49500 27.75700
C  19.61500 50.17300 27.84000
C  22.08100 48.42700 25.76100
C  21.37800 49.17400 29.05000
O  22.43400 48.61200 29.37600
C  20.30600 49.68000 30.03300
C  19.75700 48.50900 30.81600
O  19.16200 47.57900 30.34800
O  20.12300 48.73900 32.12400
C  19.93400 47.59000 33.01800
H  14.08000 52.83600 29.34600
H  15.18900 53.02800 22.87200
H  20.63600 50.03400 23.64600
H  17.68200 50.48700 31.63100
H  15.82200 52.61800 31.33200
H  14.59800 50.21900 30.28400
H  14.29500 50.91800 31.81900
H  15.58300 49.81000 31.68300
H  17.96800 53.40700 31.79000
H  19.30400 52.72300 31.01600
H  19.30200 52.96600 33.62100
H  20.01000 51.51700 33.02900
H  11.83900 54.94500 27.02600
H  12.61300 54.06400 28.47700
H  11.62800 53.21600 27.64900
H  10.53500 54.74300 23.68800
H  11.54800 55.57400 24.91700
H  10.77300 53.97300 25.17000
H  17.23800 53.18700 21.89000
H  19.16500 50.98600 21.59500
H  15.63100 50.84700 21.47000
H  17.15800 50.22000 20.96700
H  16.51700 51.66500 20.17100
H  20.29600 53.28900 23.23900
H  19.36900 53.68700 21.81700
H  21.97900 52.98200 21.81700
H  21.00400 52.87600 20.29000
H  21.31400 51.50800 21.32800
H  23.02300 48.97300 25.71700
H  21.92700 47.91300 24.81300
H  22.20200 47.56400 26.41600
H  20.74600 50.48100 30.62700
H  19.31100 47.97000 33.82800
H  20.83000 47.18000 33.48300
H  19.35500 46.78500 32.56500

