158

Mg 40.21100 8.13800 28.80900
C  42.08800 9.35100 31.64700
C  38.33400 6.30100 31.15600
C  38.62400 6.65600 26.25800
C  42.41900 9.56400 26.72000
N  40.24600 7.81200 31.17200
C  40.97600 8.58000 32.03100
C  40.48900 8.35800 33.51000
C  39.35200 7.27900 33.30800
C  39.24200 7.11400 31.78500
C  39.60600 5.88100 33.98900
C  40.01600 9.66000 34.25100
C  39.60600 9.51900 35.72000
H  40.40200 10.42100 36.64500
N  38.61800 6.73600 28.71000
C  38.00800 6.09000 29.81000
C  37.02300 5.18700 29.24900
C  37.04800 5.25500 27.78400
C  38.11600 6.25600 27.50600
C  36.12000 4.40400 30.03100
C  36.17400 4.61200 26.70900
O  36.38100 4.84400 25.54200
C  35.17300 3.56900 27.06800
N  40.42000 8.17200 26.76600
C  39.71900 7.48500 25.88900
C  40.04500 7.87000 24.45100
C  41.21800 8.91800 24.66800
C  41.35200 8.91700 26.12000
C  40.42200 6.78800 23.47000
C  40.98600 10.30600 24.06600
C  40.20900 11.46500 24.86600
N  41.96400 9.14600 29.10600
C  42.78800 9.75900 28.12200
C  43.84200 10.45600 28.78400
C  43.52900 10.39600 30.15500
C  42.41000 9.56500 30.30000
C  45.05500 11.12300 28.17900
C  44.06600 10.81900 31.41600
O  45.08200 11.44600 31.66000
C  43.13800 10.12100 32.46600
C  43.94400 9.19300 33.39000
O  44.70300 8.32300 33.03800
O  43.59000 9.41100 34.68600
C  44.44500 8.69200 35.60200
H  37.59000 5.93900 31.86900
H  38.14200 6.28900 25.34900
H  43.08700 10.05900 26.01200
H  41.32100 7.98700 34.10900
H  38.35500 7.62100 33.58700
H  39.68400 5.12300 33.21000
H  38.70500 5.64200 34.55400
H  40.47200 5.79300 34.64600
H  39.11400 9.98200 33.73100
H  40.78500 10.41000 34.06600
H  39.82500 8.51800 36.09100
H  38.53300 9.69600 35.80300
H  36.10900 4.44700 31.12000
H  36.32600 3.35600 29.81200
H  35.10200 4.63900 29.72100
H  34.19700 3.86300 27.45400
H  35.57100 2.89000 27.82200
H  35.13200 3.04000 26.11600
H  39.19700 8.41900 24.04100
H  42.11600 8.50800 24.20600
H  41.03200 7.28700 22.71600
H  39.59400 6.23900 23.02100
H  41.05700 6.05600 23.96800
H  40.47900 10.19200 23.10700
H  41.98500 10.65600 23.80700
H  39.51700 11.91000 24.15200
H  40.84100 12.24000 25.30000
H  39.52500 11.07900 25.62200
H  44.83100 11.43700 27.15900
H  45.90900 10.45000 28.25300
H  45.16900 12.01200 28.79900
H  42.76100 10.94000 33.07700
H  43.94900 8.75400 36.57100
H  45.48500 9.01300 35.64500
H  44.44100 7.62100 35.40300
Mg 30.29500 57.99100 39.75700
C  27.32300 56.11000 39.21800
C  32.13300 55.38100 38.72400
C  32.87900 59.95500 39.87300
C  28.13800 60.87400 40.15700
N  29.66800 56.04700 38.92500
C  28.51700 55.39300 39.02000
C  28.61700 53.90400 38.71000
C  30.17900 53.71100 38.67500
C  30.72900 55.14000 38.82700
C  30.93000 52.79300 39.67100
C  27.86900 53.47600 37.39900
C  27.53400 54.60400 36.37000
H  27.71700 54.20700 34.95900
N  32.26500 57.65100 39.42600
C  32.81700 56.54300 38.95600
C  34.27500 56.73800 38.84400
C  34.57700 58.04200 39.21500
C  33.21900 58.61000 39.53300
C  35.28800 55.70300 38.43700
C  35.96500 58.66100 39.41700
O  36.94500 58.02500 39.05500
C  36.23900 59.95900 40.08800
N  30.45300 60.11400 40.04600
C  31.66900 60.60800 40.17100
C  31.73900 62.17900 40.22000
C  30.14500 62.43800 40.52800
C  29.52300 61.09700 40.10800
C  32.62400 62.85500 41.19800
C  29.49900 63.66900 39.80600
C  28.81300 64.69000 40.70600
N  28.19300 58.43700 39.67500
C  27.50400 59.62600 39.95300
C  26.12300 59.39700 39.85700
C  25.93900 58.04600 39.66300
C  27.24900 57.47800 39.54000
C  25.10400 60.46800 39.84400
C  25.01700 56.91900 39.48400
O  23.80400 56.93100 39.44900
C  25.89200 55.56500 39.28700
C  25.68400 54.69400 40.48700
O  26.46000 54.50800 41.40400
O  24.45300 54.18500 40.31500
C  24.23200 53.10600 41.34200
H  32.76700 54.52500 38.48300
H  33.79000 60.53300 40.04600
H  27.57700 61.80000 40.30100
H  28.10800 53.46900 39.56900
H  30.56100 53.37400 37.71100
H  31.19500 53.39500 40.54000
H  31.80200 52.31200 39.22700
H  30.25600 52.07100 40.13300
H  27.04000 52.77900 37.52300
H  28.60300 52.80100 36.95800
H  28.04700 55.55100 36.53800
H  26.47600 54.82000 36.51600
H  34.86500 55.27200 37.52900
H  35.28300 54.85700 39.12400
H  36.31900 55.97200 38.20700
H  35.88600 60.76500 39.44500
H  37.31700 60.10000 40.16200
H  35.89600 60.04400 41.11900
H  31.90200 62.49700 39.19000
H  30.07100 62.50800 41.61400
H  32.09900 63.44400 41.94900
H  33.37800 63.46800 40.70500
H  33.21800 62.09300 41.70300
H  28.74300 63.36100 39.08300
H  30.28900 64.13600 39.21800
H  29.17900 65.66900 40.39600
H  29.04000 64.51500 41.75700
H  27.74200 64.51900 40.59500
H  24.88900 60.69500 38.80000
H  25.55900 61.33800 40.31600
H  24.28100 59.98900 40.37300
H  25.61100 54.90800 38.46400
H  24.11600 53.46400 42.36500
H  25.01900 52.35400 41.39700
H  23.27800 52.60900 41.16200

