158

Mg 24.04000 -4.50700 46.10900
C  26.51100 -2.23600 44.70400
C  21.71300 -3.04800 44.24100
C  22.31400 -7.28900 46.50800
C  26.87100 -6.01300 47.85000
N  24.13600 -2.83100 44.73200
C  25.19600 -2.07800 44.25800
C  24.62900 -0.98700 43.35400
C  23.09000 -0.95400 43.68400
C  22.92300 -2.35800 44.29900
C  22.65500 0.15900 44.64200
C  24.93900 -1.27600 41.87300
C  25.48600 -0.00600 41.12000
H  26.48500 -0.20800 40.00200
N  22.22700 -5.08100 45.46600
C  21.35600 -4.32200 44.67900
C  20.14700 -5.02700 44.56700
C  20.25900 -6.30100 45.24100
C  21.66600 -6.33200 45.74800
C  18.94100 -4.38900 43.84800
C  19.12400 -7.32400 45.32400
O  18.00900 -7.01900 44.93100
C  19.27400 -8.67800 45.92400
N  24.51200 -6.35600 47.03700
C  23.60800 -7.31600 47.12100
C  24.13500 -8.52200 47.93000
C  25.48100 -8.03900 48.53500
C  25.66400 -6.67700 47.83400
C  23.19200 -9.10500 49.02200
C  26.60700 -9.17500 48.29700
C  27.61400 -9.36500 49.48400
N  26.28700 -4.22500 46.30600
C  27.18700 -4.94100 47.04500
C  28.49700 -4.28200 46.90300
C  28.31000 -3.23700 45.99200
C  26.97900 -3.22100 45.62700
C  29.80400 -4.74600 47.49000
C  28.94100 -2.13800 45.29000
O  30.09200 -1.75500 45.29300
C  27.75900 -1.45500 44.39000
C  27.54200 -0.07500 44.90700
O  26.63200 0.22100 45.73800
O  28.35400 0.80700 44.19300
C  28.04800 2.22800 44.29700
H  20.87500 -2.42300 43.92300
H  21.75700 -8.21700 46.65800
H  27.54300 -6.43800 48.59800
H  24.96000 0.04100 43.49800
H  22.54600 -0.93100 42.74000
H  23.46100 0.77200 45.04600
H  22.08200 -0.33600 45.42600
H  21.90900 0.77700 44.14100
H  24.03400 -1.70400 41.44200
H  25.61000 -2.11500 41.68800
H  25.85400 0.81900 41.72900
H  24.61700 0.33100 40.55500
H  19.23100 -3.58400 43.17300
H  18.37300 -3.89000 44.63400
H  18.36000 -5.19400 43.39900
H  20.16000 -9.09600 45.44500
H  18.43900 -9.30300 45.61100
H  19.47500 -8.61000 46.99400
H  24.39800 -9.24100 47.15400
H  25.33400 -7.72600 49.56800
H  22.17100 -8.75400 48.87400
H  23.53200 -8.70400 49.97600
H  23.28000 -10.19100 49.04600
H  27.19200 -8.96700 47.40100
H  26.09300 -10.12400 48.14700
H  28.65400 -9.22300 49.19000
H  27.45200 -10.37300 49.86600
H  27.32100 -8.58900 50.19200
H  29.63500 -5.22700 48.45400
H  30.28300 -3.79300 47.71500
H  30.42000 -5.22700 46.73100
H  27.77800 -1.52100 43.30200
H  28.56800 2.56700 45.19300
H  26.98300 2.35500 44.49500
H  28.32400 2.80300 43.41300
Mg 40.40600 9.34200 29.97800
C  42.11300 10.50600 32.84500
C  37.94300 8.29200 31.90200
C  39.32300 7.53300 27.26300
C  43.29100 10.30400 28.08500
N  40.21900 9.17700 32.18500
C  40.99900 9.80700 33.08400
C  40.32200 9.82700 34.44700
C  39.12900 8.88300 34.24300
C  39.07200 8.79800 32.68400
C  39.29700 7.48800 34.75400
C  39.73800 11.32000 34.72600
C  39.67600 11.65000 36.28500
H  40.78800 12.49300 36.98100
N  38.81000 8.08800 29.63200
C  37.84600 7.91300 30.52800
C  36.78800 7.19500 29.87200
C  37.17300 6.93400 28.52600
C  38.53300 7.48400 28.44500
C  35.50400 6.74700 30.58800
C  36.37300 6.37100 27.32700
O  36.79600 6.34600 26.16700
C  34.96900 5.96600 27.63900
N  41.14200 9.00400 27.93800
C  40.54200 8.20200 27.05500
C  41.21700 8.30600 25.62300
C  42.57700 8.92200 25.94500
C  42.34400 9.51500 27.37500
C  41.35900 6.86900 24.92800
C  43.02200 10.01100 24.87800
C  42.38600 11.44500 25.09500
N  42.30900 10.26200 30.31100
C  43.28600 10.57000 29.42400
C  44.37800 11.25700 30.18200
C  43.89100 11.22000 31.50000
C  42.65900 10.64100 31.53500
C  45.57900 11.94100 29.64300
C  44.17100 11.72700 32.80700
O  45.12700 12.44000 33.19300
C  43.07500 11.27400 33.78400
C  43.77300 10.33600 34.77400
O  44.19200 9.19900 34.43100
O  43.80400 10.87600 36.05300
C  44.50300 9.94500 36.96500
H  37.05700 8.14500 32.52200
H  39.05500 6.99900 26.34900
H  44.11400 10.72000 27.49900
H  41.01500 9.59300 35.25500
H  38.17000 9.26500 34.59400
H  38.91000 6.81400 33.98900
H  38.68000 7.47300 35.65300
H  40.31700 7.17500 34.97500
H  38.84100 11.54600 34.15000
H  40.48500 12.06600 34.45300
H  39.66000 10.76400 36.91900
H  38.79400 12.26900 36.45300
H  35.57900 6.85500 31.67000
H  35.26600 5.69900 30.40700
H  34.59500 7.26500 30.28100
H  35.04900 5.29700 28.49600
H  34.51700 5.43300 26.80300
H  34.55500 6.92800 27.94000
H  40.49000 8.87200 25.04100
H  43.35100 8.15800 26.01900
H  40.42100 6.59600 24.44300
H  41.46100 6.04700 25.63600
H  42.15400 6.81200 24.18500
H  42.88000 9.54700 23.90200
H  44.09000 10.07100 25.08700
H  42.22500 12.09700 24.23700
H  43.03400 11.92000 25.83200
H  41.44600 11.47100 25.64500
H  45.78500 12.77800 30.31000
H  45.36600 12.42000 28.68800
H  46.42700 11.27900 29.46800
H  42.63400 12.08500 34.36500
H  45.02700 10.50500 37.74000
H  45.25900 9.25600 36.58900
H  43.78000 9.50100 37.64900

