158

Mg 48.03800 34.91200 27.55800
C  46.28300 33.02700 29.98300
C  48.22100 37.53100 29.68000
C  49.19100 36.77800 24.98300
C  47.24500 32.28900 25.17500
N  47.38800 35.16800 29.57500
C  46.86800 34.22500 30.47100
C  47.09900 34.72000 31.96200
C  47.31300 36.30500 31.80500
C  47.71200 36.34500 30.26700
C  46.15200 37.29100 32.22600
C  48.34600 34.01100 32.54200
C  48.24100 33.55900 34.11800
H  47.56000 34.57300 34.99900
N  48.80700 36.86600 27.43500
C  48.71700 37.80500 28.40900
C  49.34100 39.00300 27.91800
C  49.70800 38.76400 26.52800
C  49.17800 37.47200 26.26300
C  49.54800 40.15000 28.85200
C  50.46000 39.64300 25.51800
O  50.66400 39.21300 24.40700
C  50.96400 41.01500 25.91200
N  48.10900 34.62600 25.44600
C  48.79400 35.45900 24.66500
C  49.00200 34.99000 23.22000
C  48.73300 33.43400 23.36300
C  47.90600 33.44900 24.73200
C  48.01200 35.71000 22.26900
C  49.93400 32.40400 23.37900
C  49.91100 31.25500 22.27900
N  47.05700 33.03900 27.53900
C  46.73800 32.15400 26.48300
C  45.99500 30.99300 27.01300
C  45.81900 31.33900 28.36300
C  46.37600 32.59600 28.61000
C  45.62500 29.68200 26.32000
C  45.18800 30.85300 29.55000
O  44.47300 29.88500 29.71200
C  45.38700 31.94900 30.72100
C  45.87900 31.20600 32.03000
O  47.05500 30.92700 32.17100
O  44.82200 31.05800 32.94700
C  45.18200 30.80100 34.31900
H  48.51700 38.30700 30.38900
H  49.69800 37.32700 24.18600
H  47.06700 31.39100 24.57900
H  46.26900 34.51000 32.63600
H  48.17000 36.57800 32.42100
H  46.37500 38.07000 32.95600
H  45.40600 36.70700 32.76600
H  45.80300 37.89200 31.38700
H  49.24200 34.63100 32.51900
H  48.53900 33.10100 31.97400
H  49.23700 33.32100 34.49100
H  47.66800 32.63500 34.03000
H  49.47500 40.99900 28.17300
H  50.55600 40.13300 29.26900
H  48.83200 40.25400 29.66700
H  51.28200 40.93900 26.95200
H  50.25000 41.83800 25.94300
H  51.89500 41.29200 25.41900
H  50.04000 35.20100 22.96500
H  48.04400 33.16000 22.56400
H  48.62400 36.41500 21.70700
H  47.25000 36.33900 22.73000
H  47.59700 35.16100 21.42300
H  50.00500 31.99000 24.38500
H  50.83900 32.94000 23.09100
H  50.65400 31.24900 21.48200
H  48.92900 31.28500 21.80700
H  49.99700 30.27900 22.75700
H  44.76000 29.80700 25.66800
H  45.35000 28.89700 27.02500
H  46.55100 29.33400 25.86100
H  44.46100 32.38000 31.10100
H  46.23600 30.72200 34.58400
H  44.56200 30.00800 34.73700
H  44.76400 31.69000 34.79200
Mg 5.83600 54.44700 39.88300
C  5.49300 50.96900 40.47700
C  8.90300 53.84900 38.54400
C  5.81600 57.66400 38.89700
C  2.53100 54.84400 41.20200
N  7.06600 52.54900 39.42500
C  6.66800 51.25700 39.72400
C  7.82900 50.32500 39.36300
C  9.03400 51.34100 39.29100
C  8.32400 52.66400 39.01600
C  9.94200 51.39400 40.54300
C  7.58200 49.54000 38.02100
C  6.47300 49.97000 37.08100
H  6.81200 50.47500 35.60900
N  7.14400 55.58800 38.87000
C  8.45900 55.16300 38.46500
C  9.20000 56.35700 38.04500
C  8.23300 57.44900 38.04000
C  6.98600 56.93300 38.61800
C  10.68300 56.29000 37.68000
C  8.52700 58.85800 37.69700
O  9.64100 59.14000 37.29100
C  7.49200 60.01300 37.82600
N  4.20400 55.99000 39.62200
C  4.56400 57.25000 39.45700
C  3.46400 58.20400 39.86000
C  2.62400 57.36800 40.85000
C  3.10800 55.95900 40.48300
C  3.89500 59.50700 40.52700
C  1.10100 57.40000 40.54500
C  0.13900 57.28000 41.79400
N  4.31800 53.19800 40.66800
C  3.04000 53.51500 41.21700
C  2.46200 52.28200 41.78900
C  3.40800 51.29100 41.53100
C  4.46100 51.83000 40.73500
C  1.23000 52.24500 42.59300
C  3.65800 49.88100 41.75300
O  2.99400 49.11300 42.39600
C  4.98500 49.54600 40.94700
C  4.60600 48.66100 39.78400
O  4.11600 49.03500 38.76900
O  4.93000 47.34100 40.06200
C  4.78400 46.37200 38.96500
H  9.90300 53.73700 38.12100
H  5.75100 58.70500 38.57500
H  1.72300 55.14900 41.87000
H  7.91300 49.57500 40.15000
H  9.72500 51.15600 38.46900
H  9.66800 50.74800 41.37600
H  10.09400 52.39100 40.95700
H  10.95300 51.09400 40.26800
H  7.52800 48.47900 38.26600
H  8.48500 49.55500 37.41000
H  5.93500 50.84500 37.44500
H  5.83400 49.09000 37.01700
H  11.31700 55.65300 38.29700
H  11.28600 57.18000 37.85700
H  10.65200 55.94300 36.64800
H  6.58200 59.93100 37.23200
H  7.89200 61.00200 37.59900
H  7.35000 60.12600 38.90100
H  2.82400 58.36000 38.99200
H  2.79600 57.58200 41.90500
H  4.84000 59.32100 41.03900
H  3.17800 59.92800 41.23200
H  4.16300 60.21100 39.73900
H  0.90300 56.51100 39.94700
H  0.82100 58.20600 39.86500
H  -0.44100 58.20200 41.84700
H  0.61000 57.20700 42.77400
H  -0.51400 56.45500 41.51000
H  0.51800 51.66200 42.00900
H  0.84600 53.16600 43.03200
H  1.52300 51.47800 43.30900
H  5.64700 48.91200 41.53600
H  5.09100 46.63300 37.95200
H  3.74000 46.06400 38.89600
H  5.40500 45.53700 39.28900

