158

Mg 41.57600 41.37000 26.53100
C  40.80800 43.81800 28.93000
C  42.98900 39.38700 28.98500
C  42.37600 39.00100 24.23900
C  40.47600 43.48600 24.13400
N  41.84400 41.54100 28.83800
C  41.42300 42.70300 29.59100
C  41.76700 42.38400 31.01600
C  42.65300 41.07100 30.94700
C  42.51600 40.58400 29.48700
C  44.10700 41.40700 31.36500
C  40.45100 42.11600 31.89100
C  40.74300 41.66700 33.38100
H  39.75400 42.22300 34.51100
N  42.48600 39.39400 26.62500
C  42.99200 38.82300 27.69000
C  43.72300 37.65700 27.28100
C  43.26200 37.34000 25.97200
C  42.71700 38.61400 25.55300
C  44.51400 36.76600 28.35800
C  43.20000 36.02200 25.13300
O  42.68200 35.90800 24.06300
C  43.72600 34.75400 25.70300
N  41.46100 41.26800 24.49900
C  41.85400 40.21700 23.71100
C  41.52200 40.37700 22.20000
C  40.83800 41.80800 22.14500
C  40.88000 42.17600 23.72400
C  42.83800 40.06100 21.36900
C  39.40800 41.77800 21.54000
C  38.40800 40.97400 22.44800
N  40.85100 43.23400 26.47400
C  40.51100 44.04600 25.44000
C  40.00300 45.35700 25.88500
C  40.08900 45.25000 27.28000
C  40.60300 43.98500 27.59100
C  39.45500 46.52500 25.02600
C  39.88800 45.99400 28.54900
O  39.43400 47.13100 28.72200
C  40.29200 45.03600 29.64800
C  41.21900 45.73100 30.58500
O  42.37400 46.01400 30.38500
O  40.52400 45.99000 31.78000
C  41.30000 46.70500 32.79300
H  43.63900 38.94300 29.74200
H  42.53400 38.31700 23.40200
H  40.26700 44.13100 23.27900
H  42.34700 43.23500 31.37400
H  42.29600 40.33400 31.66700
H  44.60300 40.44300 31.25100
H  44.15500 41.66900 32.42200
H  44.66900 42.04700 30.68500
H  39.98000 41.33400 31.29500
H  39.83100 43.01200 31.87700
H  41.77800 41.87200 33.65100
H  40.70300 40.58300 33.48000
H  44.75900 37.31800 29.26600
H  45.37000 36.16200 28.05600
H  43.72200 36.08300 28.66400
H  44.78700 34.77700 25.45500
H  43.17100 33.88600 25.34700
H  43.61100 34.69400 26.78500
H  40.81400 39.62100 21.85900
H  41.54100 42.37200 21.53300
H  43.76600 39.87500 21.91000
H  43.07300 40.82900 20.63200
H  42.56500 39.14400 20.84800
H  39.48300 41.15900 20.64600
H  39.02200 42.76300 21.27600
H  37.47300 41.49800 22.64600
H  38.76200 40.58700 23.40300
H  38.08300 40.05300 21.96500
H  38.95600 46.06600 24.17300
H  40.18500 47.20000 24.58000
H  38.77900 46.92400 25.78200
H  39.35100 44.83500 30.15900
H  42.16500 47.28900 32.48000
H  41.67100 45.99600 33.53300
H  40.69100 47.35500 33.42200
Mg 26.48300 50.85100 26.43300
C  24.56700 51.93200 29.01100
C  28.89700 49.83100 28.82700
C  28.31600 49.37300 24.04100
C  24.45800 52.29300 24.13200
N  26.81700 51.12500 28.72800
C  25.73600 51.29900 29.49400
C  26.07100 51.11200 31.00900
C  27.65100 50.90000 30.85500
C  27.82100 50.55900 29.38400
C  28.56000 52.04500 31.37100
C  25.27100 50.00500 31.62300
C  24.85900 50.28200 33.12100
H  25.88000 50.70000 34.24600
N  28.37500 49.81600 26.38800
C  29.17900 49.47400 27.51500
C  30.22900 48.63100 27.10700
C  30.10500 48.45800 25.64600
C  28.90000 49.25300 25.28300
C  31.27100 48.05700 27.97600
C  30.82500 47.58900 24.77000
O  30.61700 47.47500 23.62600
C  31.96500 46.70100 25.26200
N  26.48800 50.90800 24.32400
C  27.22100 50.07300 23.56500
C  26.60200 49.84600 22.19500
C  25.22300 50.76500 22.26300
C  25.38000 51.36000 23.63300
C  27.54600 50.13700 20.97400
C  23.87200 50.04600 22.04100
C  22.81600 50.67500 21.06300
N  24.87100 51.99500 26.54700
C  24.10900 52.52900 25.46800
C  22.95800 53.21900 26.08500
C  23.07400 52.98900 27.44800
C  24.24900 52.26200 27.69400
C  21.86600 53.86900 25.36600
C  22.40500 53.17900 28.71200
O  21.27600 53.62600 28.95400
C  23.38000 52.52400 29.85200
C  23.81000 53.61500 30.75500
O  24.66400 54.46600 30.51700
O  23.08600 53.67300 31.95300
C  23.58200 54.66100 33.01800
H  29.63700 49.56500 29.58500
H  28.79300 48.82200 23.22800
H  23.65100 52.54600 23.44100
H  26.00900 52.01000 31.62300
H  28.00800 50.01600 31.38500
H  27.90900 52.83900 31.73700
H  29.19800 52.44100 30.58100
H  29.08700 51.67100 32.24800
H  25.86400 49.09100 31.58900
H  24.36300 49.83700 31.04400
H  24.32400 49.43300 33.54700
H  24.07400 51.03500 33.04000
H  31.18600 48.44400 28.99200
H  32.25000 48.37400 27.61500
H  31.39200 46.98300 27.83700
H  32.66300 47.38600 25.74300
H  32.39700 46.21300 24.38800
H  31.43000 46.01000 25.91400
H  26.30900 48.81000 22.02500
H  25.37100 51.66100 21.66000
H  27.24100 50.96800 20.33800
H  27.53100 49.25200 20.33700
H  28.57600 50.39400 21.21900
H  23.40500 50.07700 23.02600
H  24.13800 49.02300 21.77500
H  22.47600 49.84300 20.44700
H  23.16800 51.43200 20.36200
H  21.95900 51.13800 21.55300
H  21.13000 54.28800 26.05200
H  21.30700 53.22800 24.68300
H  22.30000 54.57100 24.65400
H  22.77300 51.75600 30.33200
H  22.89900 54.80000 33.85600
H  23.70300 55.61400 32.50400
H  24.50900 54.32500 33.48200

