158

Mg 54.56100 24.44500 44.37900
C  51.49300 26.16800 44.09900
C  52.67000 21.45600 44.14900
C  57.23900 22.87700 43.17300
C  56.18000 27.53100 43.84900
N  52.32700 23.89200 44.05700
C  51.29900 24.76600 44.01700
C  50.03000 24.00100 44.30500
C  50.43300 22.55400 44.59200
C  51.89700 22.60000 44.16800
C  50.26600 22.06200 46.06400
C  48.96100 24.10400 43.07400
C  49.38900 23.46400 41.74800
H  49.82300 24.36700 40.55600
N  54.96000 22.42700 43.84300
C  54.04700 21.38700 43.90500
C  54.82200 20.21700 43.55400
C  56.12000 20.63500 43.02100
C  56.15100 22.01400 43.32700
C  54.23200 18.81000 43.52600
C  57.16300 19.77800 42.37700
O  57.02000 18.56900 42.47000
C  58.35000 20.24700 41.55600
N  56.35900 25.05400 43.44300
C  57.36000 24.23500 43.33800
C  58.65200 24.98600 42.84700
C  58.33400 26.48600 43.08000
C  56.84600 26.38000 43.49800
C  59.88200 24.42300 43.54900
C  58.47100 27.27400 41.77300
C  59.61200 28.31900 41.76700
N  54.01400 26.48600 44.21600
C  54.79700 27.58200 44.13200
C  53.95500 28.71900 44.43400
C  52.68600 28.18900 44.46800
C  52.75600 26.84000 44.22100
C  54.47100 30.15200 44.67300
C  51.31000 28.48900 44.66900
O  50.76300 29.53600 45.01200
C  50.52600 27.33400 44.23200
C  49.83800 27.76100 42.94800
O  50.39800 27.94400 41.88700
O  48.46100 27.75200 43.02700
C  47.54300 28.00500 41.88000
H  52.10000 20.53000 44.25200
H  58.18100 22.41200 42.87400
H  56.66600 28.50900 43.87100
H  49.58600 24.45700 45.19000
H  49.87900 21.84300 43.98100
H  49.75100 21.10300 46.00800
H  49.74600 22.88000 46.56300
H  51.17600 21.94300 46.65300
H  48.93100 25.16900 42.84300
H  47.91500 23.90900 43.31400
H  48.57200 22.82700 41.41000
H  50.22500 22.80700 41.98800
H  54.50500 18.21600 42.65400
H  53.14400 18.79800 43.46200
H  54.55100 18.20000 44.37100
H  57.91400 21.12400 41.07700
H  58.74800 19.39100 41.01000
H  59.01600 20.60800 42.34000
H  58.75000 24.79100 41.77900
H  58.83600 26.97200 43.91600
H  60.68100 24.45800 42.80900
H  59.70700 23.46000 44.02800
H  60.18000 25.10800 44.34300
H  57.60000 27.88700 41.53900
H  58.71100 26.65700 40.90700
H  59.12900 29.27400 41.56200
H  60.40000 28.14300 41.03600
H  60.03700 28.38500 42.76900
H  55.23800 30.18300 45.44600
H  53.68100 30.75700 45.11700
H  54.91900 30.66500 43.82200
H  49.84300 27.01800 45.02100
H  46.67300 28.45600 42.35800
H  47.25900 27.01200 41.53100
H  47.91400 28.58500 41.03500
Mg 6.11400 53.67200 41.72600
C  5.67400 50.31500 40.87400
C  9.25100 53.56000 40.51000
C  6.10100 57.05300 41.58800
C  2.57100 53.83100 42.57800
N  7.17200 52.09900 40.58300
C  6.90900 50.78100 40.43700
C  8.02400 50.05000 39.91200
C  9.25500 51.00000 40.16700
C  8.54700 52.33000 40.46900
C  10.26000 50.45400 41.32600
C  7.93200 49.58300 38.43500
C  7.14700 50.45800 37.41200
H  7.18700 49.95600 35.95200
N  7.53600 55.13200 41.16900
C  8.80100 54.86900 40.78100
C  9.55300 56.08500 40.64700
C  8.73700 57.14100 41.12100
C  7.39300 56.46500 41.35700
C  10.92500 56.09600 40.01900
C  9.10100 58.62100 41.23600
O  10.25700 58.95100 41.17400
C  8.07400 59.60000 41.56500
N  4.52200 55.24200 42.02100
C  4.87200 56.50600 41.87900
C  3.61200 57.39100 42.13600
C  2.51100 56.38700 42.63000
C  3.18100 55.04900 42.30500
C  3.80400 58.73300 42.90400
C  1.05000 56.64800 42.20900
C  0.00800 56.29000 43.27400
N  4.49600 52.36800 41.90900
C  3.17900 52.58200 42.30500
C  2.61300 51.22500 42.47200
C  3.48700 50.33800 41.87900
C  4.64400 51.10000 41.50700
C  1.38200 50.87000 43.36500
C  3.76000 48.92800 41.57500
O  3.05300 47.99100 41.89300
C  5.14300 48.86600 40.88700
C  5.02800 48.09100 39.59600
O  4.44800 48.46100 38.60600
O  5.60700 46.81200 39.72400
C  5.45900 45.95600 38.59900
H  10.29500 53.47800 40.19900
H  6.08600 58.13400 41.43300
H  1.52300 53.92700 42.86900
H  8.11900 49.13300 40.49400
H  9.95600 51.09000 39.33700
H  10.42600 51.25700 42.04400
H  11.23900 50.23700 40.89800
H  9.99000 49.56000 41.88800
H  7.37100 48.66000 38.28900
H  8.95800 49.36600 38.13900
H  7.67600 51.41000 37.45900
H  6.14800 50.78600 37.69800
H  10.94500 56.11900 38.92900
H  11.40400 55.18400 40.37600
H  11.47300 56.95300 40.41200
H  8.60800 60.53000 41.76000
H  7.70800 59.27100 42.53800
H  7.34000 59.70900 40.76700
H  3.41400 57.79700 41.14400
H  2.67900 56.59400 43.68700
H  3.38600 59.58100 42.36100
H  4.86500 58.97800 42.94200
H  3.49000 58.69500 43.94700
H  0.80000 56.00500 41.36600
H  1.14300 57.67500 41.85400
H  -0.56200 57.20900 43.40400
H  0.55800 56.05500 44.18500
H  -0.70700 55.53700 42.94100
H  0.94000 49.98300 42.91200
H  0.64900 51.67000 43.46900
H  1.76200 50.63200 44.35800
H  5.79700 48.24400 41.49800
H  4.95100 45.04600 38.91800
H  6.44300 45.61900 38.27100
H  4.94200 46.36300 37.73000

