158

Mg 17.06400 51.19200 25.96900
C  18.86800 49.96500 28.69700
C  14.76400 52.43600 28.16700
C  15.21500 52.23600 23.38200
C  19.50000 49.93700 23.91100
N  16.89100 51.18700 28.18200
C  17.71800 50.66400 29.09500
C  17.21100 50.94600 30.58700
C  15.73700 51.48600 30.32800
C  15.82800 51.78500 28.82700
C  14.63400 50.59400 30.79100
C  18.22900 51.92300 31.27100
C  17.90700 52.52100 32.63600
H  16.92200 51.74400 33.51600
N  15.33800 52.32600 25.80700
C  14.54100 52.75700 26.82300
C  13.40300 53.43300 26.31700
C  13.49500 53.45900 24.87900
C  14.75000 52.65000 24.59000
C  12.42900 54.01700 27.17100
C  12.71900 54.23700 23.83800
O  13.00100 54.11300 22.66200
C  11.36700 54.92900 24.16900
N  17.30400 51.07500 23.99400
C  16.35200 51.52500 23.10600
C  16.97900 51.37200 21.66700
C  18.48400 51.04900 21.83500
C  18.45600 50.69900 23.35300
C  16.10200 50.46700 20.73600
C  19.59400 52.16000 21.52600
C  20.78600 51.59300 20.72100
N  18.83200 50.12000 26.17200
C  19.66400 49.62500 25.25700
C  20.79300 48.88000 25.93000
C  20.48400 48.99900 27.31700
C  19.35500 49.78300 27.40400
C  21.98900 48.35200 25.39500
C  20.90700 48.61900 28.62800
O  21.77500 47.87400 28.96800
C  19.87700 49.32700 29.64600
C  19.29000 48.27800 30.50000
O  18.58800 47.29500 30.13800
O  19.54300 48.57300 31.80500
C  18.92200 47.76600 32.88200
H  13.95800 52.79900 28.80800
H  14.68400 52.66400 22.53000
H  20.16800 49.55500 23.13600
H  17.23800 49.98800 31.10500
H  15.53900 52.43200 30.83200
H  14.24700 50.07700 29.91300
H  13.88500 51.22100 31.27500
H  15.04500 49.73900 31.32700
H  18.75700 52.50300 30.51400
H  19.06500 51.27700 31.53900
H  17.38200 53.47100 32.53700
H  18.74700 52.55200 33.33000
H  11.48700 53.47600 27.27000
H  12.23200 55.01700 26.78400
H  12.77900 54.29700 28.16400
H  11.66600 55.80500 24.74600
H  10.81500 54.33200 24.89400
H  10.83900 55.15300 23.24200
H  17.06900 52.31700 21.13100
H  18.70000 50.17300 21.22400
H  15.70500 51.04400 19.90100
H  15.24500 50.09700 21.29900
H  16.69700 49.66100 20.30800
H  19.96100 52.64600 22.43000
H  19.06200 52.91400 20.94700
H  20.73000 51.81200 19.65400
H  20.95100 50.51700 20.67900
H  21.68800 52.10200 21.05800
H  22.84700 49.00400 25.55600
H  21.83000 48.04500 24.36100
H  22.19700 47.39800 25.87900
H  20.32400 50.12200 30.24400
H  19.53400 46.98200 33.32700
H  18.04000 47.28800 32.45400
H  18.52600 48.40900 33.66700
Mg -12.68900 15.80400 42.47400
C  -9.66100 14.08800 42.15400
C  -11.08300 18.47000 41.05000
C  -15.81100 17.15100 41.64500
C  -14.25500 12.92100 43.39600
N  -10.54400 16.20700 41.76000
C  -9.50600 15.33000 41.62500
C  -8.23300 16.06100 41.07300
C  -8.65700 17.56300 41.12000
C  -10.18100 17.44300 41.30900
C  -7.96500 18.50800 42.14400
C  -7.78000 15.47200 39.69700
C  -6.39400 15.50300 39.32000
H  -6.14100 16.32100 38.11300
N  -13.34000 17.68800 41.47400
C  -12.45800 18.65600 41.02900
C  -13.26400 19.76100 40.61800
C  -14.66700 19.48900 40.97000
C  -14.66800 18.05900 41.35800
C  -12.65000 21.04900 40.03100
C  -15.84600 20.36700 40.82100
O  -15.72100 21.54000 40.35600
C  -17.20800 20.09900 41.26300
N  -14.72500 15.10600 42.34000
C  -15.85100 15.83000 42.16700
C  -17.16800 15.08500 42.44300
C  -16.56600 13.81600 43.21700
C  -15.09000 13.95800 42.94100
C  -18.34600 15.88900 43.11200
C  -17.17600 12.38100 42.63200
C  -17.94700 11.50100 43.68800
N  -12.05700 13.85800 42.87600
C  -12.81900 12.81600 43.32600
C  -11.98400 11.76600 43.64600
C  -10.69200 12.20200 43.20400
C  -10.79100 13.51700 42.74300
C  -12.28000 10.42600 44.24600
C  -9.28800 11.77900 43.05600
O  -8.62800 10.80300 43.45100
C  -8.58600 12.97400 42.31900
C  -7.38600 13.38900 43.01400
O  -7.35900 14.11500 44.05300
O  -6.31300 12.96900 42.30900
C  -4.99900 13.69500 42.68600
H  -10.44300 19.29300 40.72500
H  -16.79100 17.54800 41.37000
H  -14.73900 12.19600 44.05200
H  -7.49200 15.90000 41.85600
H  -8.43100 18.08900 40.19300
H  -7.81300 17.94900 43.06700
H  -8.65500 19.32600 42.35100
H  -7.01200 18.95000 41.85200
H  -8.37500 16.06500 39.00300
H  -8.16100 14.45100 39.73100
H  -5.98800 14.49600 39.22200
H  -5.73400 15.92300 40.07900
H  -12.56200 21.85800 40.75600
H  -13.21400 21.41700 39.17400
H  -11.62800 20.77000 39.77300
H  -17.75600 19.53000 40.51200
H  -17.69100 21.06000 41.44000
H  -17.14000 19.52300 42.18600
H  -17.51300 14.72500 41.47400
H  -16.87700 13.91800 44.25600
H  -18.11800 16.95200 43.02800
H  -18.53200 15.68500 44.16700
H  -19.32300 15.71000 42.66300
H  -16.38000 11.80200 42.16300
H  -17.79700 12.43700 41.73800
H  -17.44500 10.54300 43.82300
H  -18.98300 11.42800 43.35500
H  -17.96800 11.99900 44.65700
H  -13.03200 10.50300 45.03100
H  -11.40500 10.00600 44.74200
H  -12.49500 9.59200 43.57800
H  -8.35400 12.65000 41.30400
H  -4.30300 13.35800 41.91700
H  -4.63700 13.56400 43.70500
H  -5.14800 14.77300 42.62600

