158

Mg -2.19100 17.42800 26.10100
C  -2.54500 15.48900 28.92900
C  -3.26100 20.13100 27.94000
C  -2.36900 19.24400 23.24400
C  -1.90500 14.49600 24.19800
N  -2.72800 17.77100 28.24300
C  -2.83200 16.79700 29.20700
C  -3.22100 17.34400 30.59000
C  -3.72600 18.80200 30.13000
C  -3.27800 18.94500 28.67000
C  -5.29100 18.99100 30.28800
C  -2.02300 17.53600 31.59200
C  -2.47000 18.22600 32.88100
H  -2.40200 17.30300 34.20700
N  -2.42500 19.49800 25.68500
C  -2.76900 20.44700 26.58700
C  -2.53700 21.69800 25.89400
C  -2.39200 21.45600 24.52400
C  -2.48500 19.99600 24.45600
C  -2.77700 23.05400 26.54700
C  -2.09500 22.39700 23.32300
O  -2.09000 22.09300 22.13900
C  -1.70100 23.82100 23.62200
N  -2.10200 16.92100 23.98000
C  -2.21200 17.86800 22.98800
C  -2.23100 17.25700 21.58800
C  -2.06600 15.68400 21.97200
C  -1.97000 15.69000 23.45400
C  -3.42200 17.59100 20.63500
C  -0.90100 15.02400 21.27900
C  0.40600 14.96700 21.91800
N  -2.31800 15.47600 26.47000
C  -2.02700 14.40600 25.56800
C  -2.10800 13.19300 26.31900
C  -2.27100 13.51700 27.68200
C  -2.37600 14.93200 27.68200
C  -1.92400 11.74900 25.81900
C  -2.38900 12.99500 29.01300
O  -2.37500 11.87700 29.46500
C  -2.49300 14.25600 29.91600
C  -1.24100 14.21400 30.70000
O  -0.19900 14.62800 30.19000
O  -1.45000 13.86800 32.02000
C  -0.29400 13.98100 32.92100
H  -3.35900 21.01700 28.57100
H  -2.19500 19.82000 22.33300
H  -1.83500 13.56000 23.64000
H  -3.97800 16.66900 30.99000
H  -3.41100 19.70400 30.65600
H  -5.73600 19.36700 29.36700
H  -5.49200 19.60000 31.17000
H  -5.93600 18.12300 30.43100
H  -1.34800 18.18100 31.03000
H  -1.38200 16.67900 31.80100
H  -3.51500 18.53300 32.84100
H  -2.00700 19.21100 32.92600
H  -3.16700 23.05000 27.56500
H  -3.53500 23.60200 25.98800
H  -1.82900 23.59300 26.53300
H  -1.02500 23.83800 24.47700
H  -2.67900 24.25800 23.82200
H  -1.17600 24.26300 22.77500
H  -1.27700 17.58500 21.17500
H  -2.98700 15.16100 21.71400
H  -3.92100 18.44600 21.09200
H  -4.13700 16.77100 20.70300
H  -3.13000 17.73700 19.59500
H  -0.64000 15.49200 20.32900
H  -1.11900 13.96900 21.11100
H  0.57000 13.96500 22.31500
H  0.44000 15.71900 22.70600
H  1.24000 15.20500 21.25800
H  -2.88300 11.23600 25.89800
H  -1.20500 11.27200 26.48500
H  -1.58900 11.60300 24.79200
H  -3.32100 14.31600 30.62200
H  0.24200 14.89900 32.67600
H  0.31500 13.07900 32.86600
H  -0.63300 14.01100 33.95600
Mg 1.75700 -1.35400 43.71300
C  5.11700 -0.54400 43.46900
C  0.88300 1.77800 42.22700
C  -1.34600 -2.46100 43.14100
C  2.81000 -4.55800 44.83300
N  2.91700 0.39100 42.90400
C  4.27900 0.49900 42.98000
C  4.74700 1.82800 42.18800
C  3.37800 2.49800 41.89200
C  2.30100 1.52300 42.37100
C  3.31700 3.98400 42.45500
C  5.60500 1.60100 40.90900
C  6.78800 2.61400 40.68900
H  6.73200 3.35000 39.35600
N  -0.04600 -0.47400 42.81800
C  -0.19700 0.80600 42.32900
C  -1.48900 0.90700 41.71300
C  -2.16400 -0.32500 41.96900
C  -1.16700 -1.16600 42.71300
C  -1.98400 2.05100 40.83600
C  -3.53100 -0.73300 41.53300
O  -4.24200 0.08400 40.84500
C  -4.24700 -1.93400 42.00300
N  0.87000 -3.25200 43.83600
C  -0.51700 -3.41600 43.78900
C  -0.93200 -4.77700 44.37100
C  0.39400 -5.37900 44.95800
C  1.45000 -4.34700 44.45900
C  -2.20000 -4.90100 45.28200
C  0.57800 -6.87200 44.51900
C  0.96300 -7.88000 45.65600
N  3.56800 -2.35800 44.16200
C  3.81200 -3.63000 44.68400
C  5.26000 -3.82700 44.85400
C  5.82400 -2.58200 44.42600
C  4.74800 -1.77400 43.94400
C  5.94900 -5.12300 45.25100
C  7.03900 -1.84200 44.18200
O  8.17100 -2.10700 44.49500
C  6.58300 -0.51500 43.54400
C  6.90300 0.58200 44.49000
O  6.38900 0.82600 45.54000
O  7.88800 1.35700 43.90600
C  8.54000 2.39200 44.74700
H  0.56500 2.70600 41.74500
H  -2.36500 -2.84900 43.19300
H  3.04700 -5.57000 45.17000
H  5.34100 2.35700 42.93300
H  3.28300 2.54900 40.80700
H  2.82700 4.02100 43.42800
H  2.81900 4.66700 41.76700
H  4.35200 4.32400 42.47700
H  4.98000 1.65700 40.01800
H  5.94800 0.56700 40.95400
H  7.70600 2.03800 40.80300
H  6.72400 3.42000 41.42100
H  -2.39100 1.68200 39.89400
H  -1.16000 2.68100 40.50200
H  -2.61500 2.66200 41.48100
H  -5.29700 -1.80600 41.74200
H  -4.16900 -2.06400 43.08200
H  -3.80900 -2.83400 41.57200
H  -1.27100 -5.27800 43.46400
H  0.44100 -5.32300 46.04500
H  -1.77900 -5.27100 46.21700
H  -2.96400 -5.56200 44.87500
H  -2.66000 -3.94900 45.54700
H  1.32700 -6.93400 43.73000
H  -0.31300 -7.28700 44.04800
H  0.87400 -7.38300 46.62200
H  1.98400 -8.22900 45.50300
H  0.43600 -8.83200 45.72000
H  6.91900 -5.06700 44.75800
H  5.53900 -6.04300 44.83500
H  6.03300 -5.23600 46.33200
H  7.06100 -0.39700 42.57200
H  8.09900 3.38800 44.73600
H  9.51800 2.63700 44.33400
H  8.66000 2.11800 45.79500

