158

Mg 17.64000 52.64300 26.40100
C  19.69900 51.31800 28.92000
C  15.24500 53.29700 28.85200
C  15.81700 53.97300 24.07000
C  19.99100 51.80200 24.06400
N  17.49400 52.19100 28.72900
C  18.45000 51.69000 29.49700
C  18.13100 51.91100 31.00900
C  16.56200 52.19500 30.95300
C  16.35700 52.58000 29.40300
C  15.65500 51.02100 31.41500
C  19.10700 53.08200 31.56200
C  19.43000 52.96200 33.09500
H  18.52700 52.16500 34.13400
N  15.89200 53.61800 26.52500
C  14.99200 53.77200 27.49300
C  13.92400 54.64100 27.13100
C  13.98700 54.71800 25.72100
C  15.32700 54.07500 25.37500
C  12.89100 55.10300 28.15300
C  13.00000 55.32100 24.75400
O  13.24400 55.42300 23.58200
C  11.80900 56.09800 25.20500
N  18.01100 53.04300 24.31500
C  16.97000 53.43300 23.55700
C  17.32100 53.39400 22.02400
C  18.76100 52.83900 22.10700
C  18.98600 52.58400 23.60800
C  16.25300 52.50000 21.27400
C  19.88300 53.81500 21.46500
C  20.72700 54.69200 22.35300
N  19.40000 51.70400 26.41300
C  20.25600 51.40800 25.38200
C  21.46200 50.74200 25.89800
C  21.30300 50.71500 27.25900
C  19.99400 51.33500 27.50900
C  22.62500 50.27800 25.05900
C  21.89900 50.28200 28.48500
O  22.95200 49.72200 28.64100
C  20.91600 50.72000 29.61700
C  20.51700 49.63500 30.55100
O  20.10900 48.58500 30.20200
O  20.87100 49.98000 31.83800
C  20.64000 48.92600 32.76800
H  14.43200 53.45700 29.56400
H  15.14600 54.44000 23.34600
H  20.70700 51.52200 23.28900
H  18.30400 50.97400 31.53700
H  16.22700 53.03900 31.55600
H  14.73900 51.35200 31.90300
H  16.21000 50.47600 32.17900
H  15.47100 50.33300 30.58900
H  18.47400 53.95300 31.38900
H  19.93700 53.22100 30.87000
H  19.68900 53.96400 33.43600
H  20.41600 52.49600 33.10800
H  13.60000 55.30100 28.95600
H  12.21000 54.28100 28.37100
H  12.33800 56.00300 27.88200
H  11.17200 55.56800 25.91300
H  11.29500 56.47200 24.31900
H  12.22600 56.94000 25.75800
H  17.27500 54.41200 21.63800
H  18.78300 51.88200 21.58600
H  15.62400 52.00600 22.01400
H  16.81800 51.71000 20.77900
H  15.68500 53.01700 20.50000
H  19.39600 54.36200 20.65800
H  20.56800 53.15200 20.93600
H  20.73300 55.70500 21.95100
H  21.76800 54.38100 22.43300
H  20.36200 54.77600 23.37700
H  22.61400 49.20500 24.87000
H  23.54700 50.54900 25.57300
H  22.62600 50.79400 24.09800
H  21.43300 51.50900 30.16400
H  20.78500 49.28300 33.78800
H  21.27800 48.05700 32.61000
H  19.60300 48.59900 32.69200
Mg -11.06800 16.87400 41.27700
C  -7.58600 16.17600 41.86900
C  -10.14200 20.18000 41.10800
C  -14.16400 17.58300 40.27700
C  -11.66100 13.43900 41.06900
N  -8.99100 17.97000 41.28800
C  -7.77000 17.48800 41.48500
C  -6.74100 18.54600 41.34400
C  -7.63300 19.83600 41.67200
C  -9.03000 19.33500 41.30400
C  -7.52400 20.31000 43.13000
C  -6.25100 18.54000 39.82900
C  -5.00900 17.77300 39.47700
H  -5.05800 16.36900 38.82100
N  -12.05100 18.64200 40.73100
C  -11.43600 19.86800 40.63100
C  -12.44000 20.80300 40.07800
C  -13.66400 20.08300 39.93000
C  -13.36500 18.69500 40.34200
C  -12.03600 22.21400 39.75900
C  -14.92700 20.71700 39.33100
O  -15.01000 21.89900 39.07500
C  -16.23900 19.96500 39.18300
N  -12.64900 15.69800 40.77600
C  -13.84800 16.24100 40.54800
C  -14.98300 15.17700 40.73300
C  -14.21000 13.77700 40.73800
C  -12.70800 14.34600 40.84500
C  -15.75600 15.45300 42.01300
C  -14.41700 12.89400 39.46200
C  -14.76600 11.42700 39.66000
N  -9.86400 15.09600 41.55600
C  -10.27700 13.77000 41.46700
C  -9.14300 12.94600 41.74800
C  -8.10000 13.85500 42.07000
C  -8.56900 15.14400 41.78100
C  -9.17300 11.46100 41.85700
C  -6.78600 13.97200 42.50500
O  -6.03400 13.05100 42.79100
C  -6.38600 15.55900 42.51400
C  -6.34300 16.01500 43.96400
O  -7.24800 16.59600 44.52800
O  -5.15400 15.72800 44.54600
C  -4.94200 16.18400 45.90400
H  -9.94100 21.25000 41.19000
H  -15.22100 17.63500 40.00700
H  -11.81900 12.36100 41.00500
H  -5.83200 18.41700 41.93200
H  -7.61800 20.59500 40.89000
H  -6.69500 19.83000 43.64900
H  -8.43300 20.27500 43.73000
H  -7.32700 21.36900 42.96700
H  -6.08300 19.52600 39.39400
H  -6.95400 17.99300 39.20100
H  -4.51800 17.66700 40.44500
H  -4.31900 18.38700 38.89900
H  -11.56600 22.20300 38.77500
H  -11.39400 22.65400 40.52100
H  -12.82800 22.96300 39.75600
H  -16.11700 19.01500 38.66400
H  -16.72300 20.64300 38.48000
H  -16.67500 19.79300 40.16700
H  -15.62200 15.30300 39.85800
H  -14.44200 13.28800 41.68400
H  -16.29800 14.59200 42.40500
H  -16.60800 16.05600 41.70100
H  -15.22100 15.97400 42.80700
H  -13.49200 13.01900 38.89900
H  -15.22800 13.27800 38.84400
H  -13.93000 10.78200 39.39100
H  -15.59100 11.11500 39.01900
H  -15.13900 11.11800 40.63700
H  -8.37100 11.25600 42.56500
H  -9.00500 10.85500 40.96600
H  -10.11100 11.24900 42.37100
H  -5.37000 15.78600 42.19200
H  -4.43000 17.14600 45.94600
H  -4.21100 15.48100 46.30100
H  -5.82000 16.23000 46.54800

