158

Mg -3.21800 35.16900 26.38900
C  -4.90400 33.41800 28.77600
C  -1.64700 37.05400 28.66600
C  -1.99900 37.16900 23.81800
C  -5.17300 33.55800 24.02400
N  -3.54400 35.41800 28.45100
C  -4.12200 34.45900 29.27400
C  -3.73400 34.57000 30.75500
C  -2.81700 35.86100 30.63300
C  -2.66400 36.20600 29.13700
C  -3.38800 37.07800 31.37300
C  -2.84000 33.32500 31.20000
C  -3.25200 32.79500 32.59200
H  -2.32200 32.89800 33.84200
N  -2.02800 36.95800 26.27200
C  -1.34100 37.45500 27.35300
C  -0.33500 38.29800 26.93400
C  -0.39500 38.30300 25.48200
C  -1.51800 37.42100 25.10800
C  0.70600 38.94200 27.86900
C  0.43700 39.02300 24.44500
O  0.25100 39.01800 23.18400
C  1.71000 39.68300 24.88900
N  -3.76600 35.57400 24.26800
C  -3.10000 36.37900 23.42900
C  -3.52100 36.34000 21.97800
C  -4.18400 34.95800 22.02400
C  -4.49400 34.67000 23.50400
C  -4.44100 37.58000 21.57200
C  -3.31200 33.79900 21.41000
C  -2.49700 32.90700 22.33500
N  -4.66200 33.73600 26.30300
C  -5.34500 33.14600 25.31300
C  -6.03000 32.01800 25.80000
C  -5.90200 32.04200 27.22400
C  -5.05400 33.11500 27.46000
C  -6.82200 31.05500 25.05100
C  -6.28100 31.46200 28.48700
O  -7.03900 30.51500 28.65500
C  -5.65000 32.40400 29.58000
C  -6.71000 32.97400 30.36000
O  -7.51400 33.81800 29.97800
O  -6.82400 32.35100 31.50400
C  -7.88100 32.70600 32.48100
H  -1.03000 37.53000 29.43100
H  -1.62100 37.69400 22.93800
H  -5.69600 32.89900 23.32800
H  -4.61300 34.74800 31.37300
H  -1.74800 35.71700 30.78800
H  -3.55000 37.91400 30.69300
H  -2.61300 37.36600 32.08300
H  -4.37000 36.87700 31.80200
H  -1.80100 33.63200 31.32100
H  -2.81300 32.51200 30.47400
H  -3.38400 31.74100 32.35000
H  -4.23600 33.08100 32.96400
H  1.69200 38.87800 27.40800
H  0.68600 38.44500 28.83900
H  0.53900 40.01600 27.94100
H  1.35700 40.42800 25.60200
H  2.06400 40.39500 24.14300
H  2.44100 38.95000 25.23000
H  -2.67100 36.52300 21.32100
H  -5.09600 34.97500 21.42700
H  -4.01200 37.94900 20.64100
H  -4.39700 38.35800 22.33400
H  -5.42000 37.16900 21.32400
H  -2.51400 34.18800 20.77800
H  -4.10400 33.19100 20.97100
H  -2.35900 33.45200 23.26800
H  -1.45500 32.86800 22.01800
H  -2.99100 31.93500 22.31200
H  -6.74600 31.02000 23.96500
H  -7.86200 31.33200 25.22200
H  -6.74500 30.00500 25.33300
H  -5.05700 31.72100 30.19000
H  -8.61500 33.36600 32.01900
H  -7.37400 33.16600 33.32900
H  -8.22500 31.70600 32.74500
Mg -6.73500 25.51200 25.83900
C  -5.24300 27.12600 28.52000
C  -8.41400 23.45400 27.82500
C  -8.35400 24.36600 23.13900
C  -5.18300 27.94500 23.63700
N  -6.75000 25.42500 27.90700
C  -6.13000 26.10100 28.88900
C  -6.56200 25.76400 30.33300
C  -7.47400 24.50800 29.96400
C  -7.49900 24.41300 28.46100
C  -7.08700 23.22700 30.67000
C  -7.11200 26.92200 31.23100
C  -8.12400 26.57800 32.31800
H  -7.72300 25.67200 33.51700
N  -8.18100 24.04000 25.54900
C  -8.76500 23.28700 26.50300
C  -9.64100 22.38100 25.85700
C  -9.71100 22.75500 24.45000
C  -8.69400 23.74700 24.34000
C  -10.44000 21.32700 26.56300
C  -10.61700 22.21500 23.37800
O  -10.50400 22.57300 22.20100
C  -11.52200 21.10200 23.62300
N  -6.74100 26.05700 23.71700
C  -7.56500 25.42900 22.80200
C  -7.63500 26.09200 21.38400
C  -6.57100 27.19800 21.56100
C  -6.07200 27.02100 23.05300
C  -7.36700 25.15700 20.17600
C  -7.03100 28.72400 21.28200
C  -7.52900 29.06500 19.85600
N  -5.28700 27.06900 25.94900
C  -4.73600 27.93300 25.03800
C  -3.88900 28.89300 25.74100
C  -4.03600 28.56200 27.07700
C  -4.90000 27.48000 27.14600
C  -3.18400 30.01800 25.12700
C  -3.70400 28.92900 28.40700
O  -3.06600 29.86900 28.88300
C  -4.54300 28.08200 29.38700
C  -3.61500 27.26800 30.21300
O  -2.77800 26.48300 29.83700
O  -3.81500 27.65200 31.56100
C  -2.94700 27.18700 32.57300
H  -9.09500 22.82300 28.40000
H  -8.87300 24.01600 22.24400
H  -4.78900 28.73500 22.99400
H  -5.63700 25.34100 30.72500
H  -8.53800 24.65800 30.14300
H  -7.96900 22.79800 31.14600
H  -6.30200 23.34900 31.41600
H  -6.78800 22.41800 30.00400
H  -7.43300 27.72000 30.56200
H  -6.28700 27.25800 31.86000
H  -9.07200 26.24500 31.89600
H  -8.28900 27.51600 32.84800
H  -11.46800 21.29700 26.20200
H  -10.38100 21.53700 27.63100
H  -9.93700 20.36200 26.49600
H  -11.00300 20.33100 24.19300
H  -12.02100 20.87400 22.68100
H  -12.25500 21.41400 24.36800
H  -8.62900 26.51600 21.23700
H  -5.68300 27.05400 20.94600
H  -8.34800 25.05300 19.71100
H  -7.05500 24.20700 20.61100
H  -6.61600 25.46900 19.45200
H  -6.20000 29.36600 21.57700
H  -7.72700 29.13400 22.01400
H  -7.82700 28.16700 19.31400
H  -6.79200 29.69800 19.36300
H  -8.50000 29.56000 19.88500
H  -3.42700 30.27500 24.09600
H  -2.10700 29.98500 25.29100
H  -3.51200 30.84200 25.76000
H  -5.07600 28.71800 30.09300
H  -2.63400 26.15400 32.41700
H  -3.42100 27.18700 33.55500
H  -2.05600 27.81000 32.49200

