158

Mg 49.57400 46.45100 43.76300
C  46.24600 46.92000 42.68200
C  49.07800 43.03600 42.80700
C  52.85600 45.94300 43.97400
C  49.88100 49.78100 44.35700
N  47.79400 45.15200 42.83600
C  46.58200 45.58400 42.53000
C  45.75700 44.51500 41.82600
C  46.61400 43.26400 42.09100
C  47.93000 43.82700 42.59600
C  46.00000 42.46000 43.26800
C  45.38600 44.85400 40.27100
C  46.45400 44.63700 39.17900
H  45.86500 44.20400 37.82600
N  50.78300 44.73800 43.63400
C  50.36000 43.43600 43.28100
C  51.49500 42.52900 43.27100
C  52.68200 43.37400 43.67000
C  52.11600 44.76700 43.80300
C  51.42800 41.04900 42.90200
C  54.03300 42.88700 43.90600
O  54.29500 41.67400 43.87000
C  55.10200 43.76000 44.39400
N  51.15900 47.70300 44.05200
C  52.46600 47.28200 44.13800
C  53.47300 48.44100 44.40400
C  52.47800 49.65300 44.54600
C  51.06800 49.02900 44.27200
C  54.35900 48.17800 45.70600
C  52.75400 50.81300 43.57300
C  53.33400 52.14100 44.09500
N  48.33500 48.16900 43.64900
C  48.58500 49.41100 43.95900
C  47.39700 50.19700 43.81300
C  46.42200 49.28600 43.32800
C  47.03500 48.02600 43.24100
C  47.07700 51.67800 44.25200
C  45.05300 49.09200 42.92600
O  44.12700 49.83300 43.00100
C  44.91600 47.56600 42.39900
C  43.87600 46.85200 43.13600
O  43.89400 46.67000 44.36400
O  42.90200 46.41300 42.27300
C  41.72000 45.84300 42.93800
H  49.10700 42.01000 42.43200
H  53.94400 45.85100 43.97800
H  50.12300 50.82800 44.55300
H  44.85000 44.58800 42.42600
H  46.65500 42.53600 41.28100
H  45.02200 42.85600 43.54400
H  46.59000 42.53900 44.18100
H  45.74300 41.44400 42.96800
H  45.07400 45.89700 40.20500
H  44.50000 44.23400 40.13300
H  47.23200 43.94300 39.49600
H  47.07900 45.53000 39.18200
H  51.01000 41.03200 41.89600
H  50.71200 40.59200 43.58600
H  52.34600 40.46500 42.83100
H  54.82300 44.31700 45.28900
H  55.65600 44.39500 43.70300
H  55.83200 43.05200 44.78600
H  53.98500 48.63300 43.46100
H  52.52300 50.04100 45.56400
H  54.39300 47.14600 46.05700
H  54.05500 48.83000 46.52400
H  55.37100 48.28100 45.31400
H  51.88000 51.07400 42.97700
H  53.46700 50.53000 42.79800
H  54.41800 52.09300 43.98900
H  53.10400 52.26200 45.15400
H  52.80000 52.95600 43.60700
H  47.18900 52.48000 43.52300
H  47.67500 51.93100 45.12800
H  46.04500 51.72100 44.59800
H  44.78200 47.78800 41.34000
H  41.28100 46.61200 43.57400
H  42.11600 44.96700 43.45100
H  41.03600 45.63800 42.11500
Mg 49.89300 35.30100 28.52500
C  47.91000 34.06600 31.10100
C  50.03200 38.41200 30.35100
C  51.55400 36.79900 26.00100
C  49.19800 32.57600 26.63200
N  49.02400 36.17300 30.47000
C  48.46400 35.35400 31.37700
C  48.61600 35.92100 32.81900
C  49.01300 37.37400 32.59200
C  49.39700 37.32200 31.01700
C  48.06400 38.55200 32.95900
C  49.76800 35.12200 33.57600
C  49.79500 35.48300 35.09100
H  48.84400 36.39300 35.87400
N  50.64600 37.34600 28.29800
C  50.57300 38.42900 29.08300
C  51.17900 39.53900 28.42800
C  51.76400 39.07900 27.25100
C  51.37900 37.68200 27.15400
C  51.07000 40.95700 28.96600
C  52.63400 39.81100 26.23200
O  52.83500 39.33900 25.11300
C  53.20400 41.10900 26.67800
N  50.30300 34.84600 26.56800
C  51.04300 35.54100 25.68600
C  51.39200 34.68600 24.43700
C  50.81200 33.30100 24.81700
C  49.99200 33.58900 26.05600
C  50.98600 35.22600 23.08000
C  51.88200 32.12000 25.05400
C  51.57400 30.88100 24.22700
N  48.84000 33.62400 28.73800
C  48.62600 32.60100 27.94400
C  47.95700 31.52600 28.60500
C  47.61100 32.02800 29.83500
C  48.14700 33.34500 29.86200
C  47.63700 30.19100 27.99100
C  46.96400 31.80800 31.11300
O  46.28800 30.85000 31.41300
C  47.03900 33.07100 31.94800
C  47.17600 32.84800 33.46300
O  47.89600 32.09400 34.12300
O  46.11100 33.52500 34.06200
C  45.74200 33.12300 35.38600
H  50.21400 39.35300 30.87500
H  52.13900 37.02800 25.10800
H  49.09400 31.67500 26.02300
H  47.62600 35.91000 33.27400
H  49.97600 37.64400 33.02400
H  47.57300 38.15900 33.84900
H  47.33400 38.86100 32.21100
H  48.67900 39.40100 33.25800
H  50.70200 35.45800 33.12600
H  49.68900 34.03800 33.65500
H  50.77800 35.88100 35.34300
H  49.70000 34.55500 35.65500
H  50.51400 41.08100 29.89500
H  50.64700 41.62300 28.21300
H  52.08200 41.26200 29.23100
H  52.52900 41.91000 26.38000
H  54.12200 41.26300 26.11000
H  53.53000 41.05400 27.71700
H  52.46700 34.52100 24.50900
H  50.04200 33.08000 24.07900
H  51.93400 35.53100 22.63700
H  50.32900 36.09100 23.17200
H  50.51100 34.42800 22.51000
H  51.91600 31.99300 26.13600
H  52.87600 32.50900 24.83300
H  50.91100 30.22400 24.79100
H  52.49500 30.39800 23.90000
H  51.06200 30.92900 23.26600
H  47.06900 30.29300 27.06600
H  46.98700 29.65000 28.67800
H  48.57800 29.68500 27.77600
H  46.02800 33.45600 31.81700
H  44.86100 33.70400 35.65700
H  46.44900 33.45200 36.14800
H  45.53300 32.05400 35.34900

