158

Mg 40.80700 9.55100 29.15500
C  42.71100 10.90900 31.89100
C  38.49700 8.64500 31.63600
C  39.10200 7.99500 26.78000
C  43.38900 10.44400 27.04700
N  40.58200 9.87900 31.57800
C  41.47100 10.36200 32.41400
C  40.96900 10.37500 33.87200
C  39.59100 9.73800 33.76800
C  39.54000 9.34900 32.29100
C  39.51800 8.44400 34.71000
C  41.00700 11.82900 34.51000
C  40.38800 11.89400 35.90900
H  41.20100 12.72900 36.87000
N  39.01700 8.63000 29.12000
C  38.28700 8.23400 30.29400
C  37.29900 7.22000 29.90100
C  37.39500 7.06100 28.50800
C  38.52100 7.95500 28.06300
C  36.37400 6.63500 30.86000
C  36.57300 6.27400 27.48900
O  36.60500 6.42100 26.28200
C  35.47200 5.35900 28.04900
N  41.20100 9.13000 27.25800
C  40.28800 8.63200 26.37100
C  40.80800 8.82100 24.95400
C  42.13300 9.54600 25.05500
C  42.24700 9.77100 26.54100
C  40.62200 7.65300 23.95300
C  42.31700 10.84100 24.18600
C  41.74400 12.09200 24.66600
N  42.67400 10.33900 29.33200
C  43.63800 10.61800 28.44100
C  44.68900 11.25500 29.05000
C  44.35300 11.46800 30.37300
C  43.13000 10.82400 30.51900
C  45.89900 11.74400 28.43900
C  44.77100 12.01800 31.66000
O  45.79800 12.69900 31.88600
C  43.81100 11.62000 32.71400
C  44.60100 10.67900 33.62200
O  45.17300 9.63300 33.39900
O  44.68100 11.26200 34.83600
C  45.38200 10.60800 35.93600
H  37.75100 8.47500 32.41500
H  38.50300 7.47100 26.03200
H  44.06800 10.80900 26.27300
H  41.66300 9.80800 34.49300
H  38.85500 10.46000 34.12400
H  40.44500 8.31200 35.26800
H  39.29700 7.51400 34.18800
H  38.75500 8.44500 35.48700
H  40.64700 12.59500 33.82300
H  42.07600 12.00400 34.63600
H  40.23500 10.93700 36.40600
H  39.39900 12.33200 35.77500
H  36.39900 5.55200 30.73700
H  35.36400 7.04000 30.92400
H  36.83300 6.71400 31.84500
H  34.81400 6.01200 28.62300
H  35.95800 4.61800 28.68400
H  34.94500 4.88400 27.22200
H  40.09900 9.57100 24.60200
H  42.98200 8.90700 24.81300
H  40.28200 6.75700 24.47300
H  41.56400 7.44100 23.44600
H  39.87900 7.90900 23.19800
H  41.83900 10.70000 23.21600
H  43.36600 10.86100 23.89000
H  41.23100 11.94600 25.61700
H  41.09700 12.62800 23.97200
H  42.58300 12.73000 24.94600
H  45.67500 12.60000 27.80200
H  46.29500 10.98700 27.76300
H  46.65300 12.04600 29.16600
H  43.46300 12.53000 33.20300
H  45.97300 11.40700 36.38400
H  46.11300 9.82900 35.72400
H  44.69400 10.18400 36.66800
Mg 16.78300 51.67600 26.08600
C  18.62700 50.22100 28.66300
C  14.28100 52.45000 28.40900
C  15.02200 52.94000 23.66300
C  19.45800 50.89300 23.96600
N  16.51600 51.37300 28.27400
C  17.44300 50.85500 29.12700
C  17.07600 51.22000 30.56600
C  15.60200 51.57800 30.41900
C  15.42100 51.84500 28.93000
C  14.70200 50.42600 31.00800
C  17.99400 52.27900 31.15300
C  18.20200 52.33100 32.63100
H  17.07200 51.70800 33.49400
N  14.93100 52.53800 26.01700
C  14.04800 52.76800 27.04900
C  12.84300 53.47200 26.60900
C  13.08300 53.73700 25.21700
C  14.35900 53.05100 24.89100
C  11.81700 54.20700 27.48900
C  12.41800 54.62500 24.19500
O  12.85900 54.84900 23.09000
C  11.09700 55.30300 24.53200
N  17.09200 51.76300 24.06800
C  16.26900 52.43000 23.30000
C  16.80700 52.70700 21.94400
C  18.39000 52.36600 22.21300
C  18.34500 51.62700 23.49400
C  16.09800 51.86700 20.83100
C  19.31500 53.57100 22.31400
C  20.68700 53.53500 21.52000
N  18.62900 50.68600 26.22200
C  19.53600 50.37500 25.27000
C  20.55000 49.50400 25.85900
C  20.23500 49.46200 27.18600
C  19.06400 50.11000 27.33700
C  21.75900 49.06700 25.09600
C  20.68500 49.04000 28.52000
O  21.71500 48.49800 28.89900
C  19.65000 49.56500 29.55700
C  19.10900 48.49400 30.41800
O  18.60000 47.44200 30.00600
O  19.19000 48.83000 31.74900
C  18.63900 47.80600 32.68700
H  13.46400 52.71900 29.08100
H  14.50800 53.23700 22.74700
H  20.33600 50.66700 23.35800
H  17.13000 50.28700 31.12700
H  15.32500 52.50700 30.91700
H  14.25900 49.92100 30.15000
H  13.85900 50.74400 31.62100
H  15.20400 49.67600 31.61900
H  17.70700 53.22000 30.68400
H  19.01000 52.13000 30.78700
H  18.39700 53.35200 32.96000
H  19.05700 51.70700 32.89100
H  10.82400 54.17300 27.04100
H  12.11200 55.25600 27.48000
H  11.72700 53.94800 28.54400
H  11.24500 55.82000 25.48000
H  10.39400 54.49600 24.74000
H  10.72300 56.00200 23.78400
H  16.74900 53.76800 21.70200
H  18.82700 51.66700 21.49900
H  16.74500 51.01700 20.61200
H  15.90700 52.45500 19.93300
H  15.09900 51.60900 21.18100
H  19.64900 53.64500 23.34900
H  18.78900 54.48400 22.03500
H  21.03800 54.52700 21.23400
H  20.59900 53.00600 20.57100
H  21.41900 53.01500 22.13800
H  22.18900 49.65300 24.28300
H  21.51600 48.06300 24.74800
H  22.45800 48.87400 25.90900
H  20.11900 50.21900 30.29300
H  19.46900 47.44400 33.29500
H  18.14300 46.94700 32.23600
H  17.99800 48.21000 33.47000

