158

Mg 24.96300 -4.20900 45.45200
C  26.55200 -1.59000 43.78900
C  22.32100 -3.75000 43.27700
C  23.97800 -7.27900 46.28200
C  28.07200 -4.89100 47.22200
N  24.51100 -2.76800 43.78600
C  25.27400 -1.82000 43.28700
C  24.61600 -1.10700 42.11700
C  23.12100 -1.61600 42.15100
C  23.29400 -2.82400 43.12300
C  21.97200 -0.71400 42.73100
C  25.38300 -1.45300 40.76000
C  25.73100 -0.26200 39.78100
H  25.88500 -0.47400 38.29100
N  23.28700 -5.25500 45.05500
C  22.29700 -4.87400 44.15500
C  21.20200 -5.83400 44.24700
C  21.61200 -6.85600 45.06200
C  22.99600 -6.53300 45.53600
C  19.82000 -5.64700 43.54200
C  20.72500 -8.01400 45.46900
O  19.55200 -8.17700 44.94500
C  21.15200 -8.98800 46.47400
N  25.91800 -5.90200 46.65500
C  25.23600 -7.02500 46.79100
C  26.03100 -8.18200 47.43200
C  27.36100 -7.36800 47.75700
C  27.12200 -5.93300 47.21100
C  25.39000 -8.83500 48.65700
C  28.63100 -7.99600 47.08700
C  29.77400 -8.43200 47.95400
N  26.90500 -3.29400 45.64600
C  27.99800 -3.70100 46.38700
C  29.10200 -2.84200 46.03100
C  28.50200 -1.95100 45.11000
C  27.25500 -2.34800 44.79700
C  30.43900 -2.57300 46.72300
C  28.75600 -0.83200 44.25300
O  29.75000 -0.11900 44.22400
C  27.51900 -0.55300 43.37000
C  27.03700 0.82100 43.76700
O  26.22900 1.10600 44.64700
O  27.68200 1.76100 42.94000
C  27.07700 3.10200 42.91500
H  21.52100 -3.65300 42.54100
H  23.67900 -8.31000 46.48200
H  29.00100 -5.32200 47.60100
H  24.68800 -0.04000 42.32900
H  22.62900 -1.97400 41.24600
H  22.29900 0.24100 42.32000
H  21.95800 -0.71300 43.82000
H  21.02400 -0.95100 42.24700
H  24.76600 -2.13100 40.17000
H  26.27200 -2.02700 41.02000
H  26.67200 0.15600 40.13800
H  24.91000 0.44600 39.88900
H  19.59100 -6.53500 42.95200
H  19.98000 -4.87700 42.78800
H  18.97000 -5.35600 44.15900
H  22.03100 -9.58500 46.23000
H  20.27700 -9.63700 46.51000
H  21.32000 -8.57400 47.46800
H  26.26200 -8.91900 46.66200
H  27.50800 -7.13100 48.81100
H  24.33700 -8.55800 48.61100
H  25.97800 -8.51400 49.51700
H  25.47700 -9.91900 48.58000
H  29.01300 -7.27300 46.36700
H  28.21100 -8.82300 46.51400
H  29.47000 -8.56900 48.99200
H  30.53900 -7.65600 47.96800
H  30.13900 -9.41300 47.65000
H  31.11100 -3.43000 46.69800
H  30.27700 -2.14200 47.71000
H  30.87700 -1.71700 46.20900
H  27.90800 -0.52100 42.35300
H  26.02400 3.02900 42.64300
H  27.49500 3.75600 42.15000
H  27.17000 3.63600 43.86000
Mg 45.06700 5.35500 48.19900
C  43.06000 8.39000 47.32400
C  42.42100 3.63900 47.58600
C  47.25500 2.85400 47.90700
C  47.81200 7.58400 48.35500
N  43.03200 5.98800 47.22300
C  42.37900 7.21500 47.12100
C  40.96300 7.07100 46.60500
C  40.73000 5.53000 46.95900
C  42.09000 5.04700 47.32900
C  39.61300 5.28000 48.04500
C  40.89200 7.36000 45.06400
C  39.64400 8.18600 44.59100
H  38.97600 7.62000 43.34300
N  44.86100 3.52800 47.87100
C  43.62600 2.99800 47.73000
C  43.81100 1.59700 47.60100
C  45.18900 1.30400 47.63000
C  45.87400 2.59100 47.83800
C  42.67300 0.58600 47.18500
C  45.82100 -0.06600 47.52400
O  45.08200 -1.00600 47.16500
C  47.26000 -0.48100 47.79100
N  47.20600 5.23900 48.29200
C  47.86300 4.08500 48.11300
C  49.34100 4.27800 48.11100
C  49.52700 5.74800 48.17800
C  48.08800 6.23900 48.24500
C  50.14100 3.39900 49.17100
C  50.30400 6.44400 46.93400
C  51.76100 6.13000 46.73900
N  45.37700 7.56200 48.00600
C  46.59200 8.27600 48.18000
C  46.34900 9.69000 48.01200
C  44.97900 9.75100 47.76900
C  44.42700 8.46500 47.71700
C  47.39400 10.75400 48.20800
C  43.83900 10.69600 47.60000
O  43.85200 11.94200 47.58300
C  42.56500 9.81400 47.29800
C  41.54100 10.08000 48.33900
O  41.30900 9.39800 49.31700
O  40.83100 11.17400 47.95200
C  39.71900 11.65800 48.79800
H  41.49600 3.06100 47.55000
H  47.92100 2.00500 47.73900
H  48.72400 8.14700 48.56500
H  40.26100 7.71500 47.13300
H  40.40000 5.04600 46.04000
H  39.06700 6.16500 48.37100
H  40.10100 4.91700 48.95000
H  38.85200 4.54500 47.78600
H  40.98600 6.36900 44.62000
H  41.82300 7.83800 44.75900
H  39.97200 9.19400 44.33800
H  38.85900 8.28500 45.34200
H  42.88800 0.12800 46.21900
H  41.63600 0.91900 47.13300
H  42.63800 -0.20400 47.93500
H  47.23400 -1.54400 48.02900
H  47.75800 0.11000 48.56000
H  47.80700 -0.37700 46.85400
H  49.77800 3.89600 47.18800
H  50.03300 6.10600 49.07500
H  49.52900 2.60600 49.60000
H  50.69400 3.93100 49.94500
H  50.80800 2.83200 48.52300
H  50.21300 7.52600 47.03300
H  49.78900 6.14100 46.02300
H  51.71200 5.50500 45.84700
H  52.13200 5.52000 47.56300
H  52.36600 7.03600 46.73700
H  46.81900 11.67900 48.25300
H  48.10800 10.87700 47.39400
H  47.95700 10.56500 49.12100
H  42.11900 9.94600 46.31200
H  39.61100 11.08800 49.72000
H  38.83700 11.63100 48.15700
H  39.90100 12.68600 49.11300

