158

Mg 7.15700 1.68900 28.15700
C  8.96400 0.51200 30.89900
C  5.66300 4.01900 30.22500
C  5.55000 2.96900 25.49100
C  8.40400 -0.85900 26.18000
N  7.36500 2.27600 30.26200
C  8.00500 1.52000 31.26100
C  7.81800 2.11700 32.68700
C  6.51700 3.04800 32.39000
C  6.48800 3.12100 30.88000
C  5.20000 2.39100 33.02600
C  9.04500 2.83400 33.28900
C  9.49100 2.43900 34.70700
H  9.92100 3.57200 35.65900
N  5.81200 3.30600 27.86200
C  5.38300 4.15500 28.86100
C  4.58300 5.18500 28.25700
C  4.65400 5.00700 26.84500
C  5.37800 3.71300 26.67000
C  3.90400 6.35100 28.94200
C  4.08600 5.88800 25.66100
O  4.13800 5.51400 24.54000
C  3.20100 7.20800 25.89100
N  6.93600 1.02100 26.16100
C  6.26400 1.77700 25.24900
C  6.38600 1.11300 23.80800
C  7.45100 -0.06000 24.05300
C  7.49000 -0.05000 25.53900
C  5.06700 0.60800 23.12900
C  8.83100 0.20000 23.43700
C  9.50500 -0.96900 22.65900
N  8.39600 0.17800 28.40500
C  8.83000 -0.77900 27.49600
C  9.90800 -1.56700 28.15300
C  9.96100 -1.14600 29.46800
C  8.99600 -0.10300 29.60500
C  10.77700 -2.56500 27.45800
C  10.64500 -1.28200 30.70000
O  11.55000 -2.04700 30.92600
C  10.01000 -0.29000 31.73100
C  9.52200 -0.99300 32.94800
O  8.60300 -1.84100 32.83400
O  10.19900 -0.58300 34.05900
C  9.42100 -0.90200 35.26800
H  5.20400 4.75100 30.89300
H  5.16000 3.23900 24.50700
H  8.79400 -1.75900 25.70000
H  7.47000 1.24200 33.23700
H  6.52600 4.10100 32.67300
H  4.78000 3.13000 33.70700
H  5.43200 1.44000 33.50600
H  4.55100 2.17800 32.17700
H  8.77100 3.88900 33.31000
H  9.90200 2.62700 32.64900
H  10.39000 1.82500 34.66400
H  8.67500 1.90500 35.19400
H  4.24000 7.30100 28.52600
H  4.21600 6.38300 29.98600
H  2.82300 6.21600 28.92000
H  3.09300 7.77100 24.96400
H  3.58000 7.86200 26.67700
H  2.23300 6.82800 26.21600
H  6.77500 1.95100 23.22900
H  7.22800 -1.04100 23.63400
H  4.55600 0.21800 24.00900
H  5.13500 -0.14000 22.34000
H  4.49400 1.45300 22.74500
H  9.54900 0.40300 24.23200
H  8.88700 1.09800 22.82200
H  10.32800 -1.32200 23.28000
H  9.94800 -0.53300 21.76300
H  8.91900 -1.85700 22.41800
H  11.28000 -2.07800 26.62300
H  10.32900 -3.50900 27.15100
H  11.71800 -2.78700 27.96100
H  10.73500 0.47600 32.00900
H  10.00300 -0.73000 36.17300
H  8.97700 -1.89500 35.19700
H  8.57100 -0.24600 35.45900
Mg 30.79700 58.39100 40.10900
C  27.98300 56.36300 39.46300
C  32.83800 55.91900 38.60200
C  33.43200 60.59100 40.06100
C  28.65500 60.96900 40.97800
N  30.39100 56.46200 38.96700
C  29.20800 55.77200 38.98400
C  29.37200 54.30600 38.43600
C  30.96200 54.11900 38.39100
C  31.46200 55.60400 38.69100
C  31.49400 53.04200 39.41600
C  28.64100 53.91900 37.10700
C  29.13700 54.95700 36.03000
H  28.11700 55.52900 34.96600
N  32.88300 58.26100 39.45100
C  33.53400 57.13300 38.96700
C  34.98300 57.40500 38.95000
C  35.14800 58.80700 39.38900
C  33.78100 59.32100 39.58900
C  36.04400 56.36700 38.61300
C  36.51700 59.53900 39.50800
O  37.52800 58.88700 39.36900
C  36.61400 61.00300 39.78300
N  31.00500 60.64400 40.31300
C  32.23000 61.21400 40.50300
C  32.09800 62.67500 40.96700
C  30.57700 62.72400 41.38500
C  30.01100 61.34400 40.93900
C  33.16700 63.29200 41.99100
C  29.73300 63.94000 40.94700
C  29.01600 64.64800 42.07500
N  28.77700 58.65000 40.26500
C  27.99900 59.74700 40.58600
C  26.62700 59.35500 40.75800
C  26.57900 58.04600 40.35600
C  27.87900 57.69700 39.98600
C  25.44200 60.19200 41.20500
C  25.68900 56.88100 40.09400
O  24.50900 56.74100 40.38700
C  26.49800 55.82700 39.33900
C  26.32600 54.54900 39.96200
O  26.76100 54.15800 40.98000
O  25.44300 53.76800 39.19500
C  25.45100 52.31700 39.48800
H  33.51400 55.08700 38.39600
H  34.27400 61.28500 40.10700
H  28.11300 61.63600 41.65200
H  28.88900 53.72100 39.21900
H  31.23500 53.80700 37.38300
H  32.10400 52.35900 38.82500
H  30.70100 52.48600 39.91700
H  32.03900 53.56900 40.19900
H  27.57100 53.79800 37.27500
H  29.05700 52.98000 36.74100
H  29.89300 54.46500 35.41800
H  29.46000 55.89600 36.47800
H  36.84400 56.87100 38.06900
H  35.64400 55.60900 37.94000
H  36.45200 55.92800 39.52300
H  36.25600 61.48700 38.87500
H  37.64600 61.31300 39.95000
H  36.06000 61.34000 40.65900
H  32.19700 63.38800 40.14900
H  30.48200 62.65700 42.46900
H  32.70200 63.82500 42.82000
H  33.84900 63.92800 41.42800
H  33.69900 62.41300 42.35600
H  29.02600 63.65100 40.17000
H  30.50300 64.55200 40.47800
H  29.13500 65.72900 42.00900
H  29.23300 64.30000 43.08500
H  27.97400 64.37700 41.90300
H  25.69300 60.83100 42.05100
H  24.57400 59.54900 41.35200
H  25.29000 60.95900 40.44500
H  25.88800 55.81400 38.43600
H  25.56500 51.89300 38.49000
H  24.46500 52.04800 39.86700
H  26.19900 52.00900 40.21900

