158

Mg 36.29500 2.61500 30.33000
C  33.86100 3.43000 32.80800
C  38.61600 2.64100 32.71100
C  38.50400 2.17800 27.93400
C  33.72400 2.87100 27.89400
N  36.18700 2.84600 32.48100
C  35.13500 3.23000 33.29600
C  35.58500 3.21200 34.81400
C  37.08100 3.03900 34.72100
C  37.31000 2.78300 33.24300
C  38.02200 4.26400 35.21200
C  34.83000 2.12200 35.71400
C  34.04400 2.73700 36.84800
H  34.54900 3.96300 37.61900
N  38.33200 2.50300 30.29100
C  39.13000 2.49700 31.41000
C  40.46700 2.20700 30.99900
C  40.54400 2.12700 29.61200
C  39.07900 2.28200 29.17300
C  41.58900 1.94200 32.00900
C  41.66400 1.92500 28.68200
O  41.49600 1.75800 27.45600
C  43.03000 2.37200 29.18500
N  36.08700 2.48700 28.20400
C  37.19300 2.22000 27.43800
C  36.87500 2.21200 25.98400
C  35.26200 2.26300 26.05000
C  34.96600 2.49400 27.44900
C  37.42200 3.37400 25.08100
C  34.34800 1.23600 25.39400
C  35.02000 -0.16800 25.13400
N  34.24500 3.03100 30.27100
C  33.36300 3.21600 29.22000
C  32.09200 3.56600 29.73400
C  32.24000 3.73500 31.12100
C  33.54600 3.24600 31.42100
C  30.92500 3.94600 28.87300
C  31.55500 3.99000 32.36900
O  30.43300 4.43900 32.58400
C  32.56400 3.83800 33.57700
C  32.50100 5.16500 34.15300
O  32.98900 6.14200 33.63600
O  31.87600 5.02800 35.35300
C  31.51300 6.29500 36.01600
H  39.37700 2.48200 33.47800
H  39.30700 2.19600 27.19400
H  32.92500 2.79400 27.15400
H  35.33500 4.13800 35.33100
H  37.44200 2.25300 35.38400
H  37.39200 5.03200 35.66100
H  38.63600 4.83400 34.51400
H  38.71500 3.93500 35.98600
H  35.40800 1.24100 35.99300
H  34.08700 1.77100 34.99800
H  34.04000 1.95400 37.60700
H  33.00100 2.83700 36.54600
H  42.10400 2.90000 32.07700
H  42.33300 1.24200 31.63000
H  41.32200 1.53200 32.98300
H  43.61600 2.53000 28.27900
H  43.41900 1.48600 29.68700
H  42.88500 3.16300 29.92100
H  37.16200 1.29800 25.46300
H  35.00000 3.22500 25.60800
H  38.01400 4.01300 25.73600
H  36.57600 3.87200 24.60600
H  38.10900 2.98600 24.32900
H  34.09100 1.61200 24.40400
H  33.38400 1.16700 25.89800
H  34.38300 -0.83100 25.72000
H  36.00500 -0.31400 25.57700
H  35.08700 -0.48600 24.09400
H  30.12800 3.20300 28.84500
H  31.37400 4.09500 27.89100
H  30.53500 4.85700 29.32800
H  32.14500 3.00500 34.14000
H  30.90400 6.92600 35.36800
H  32.36900 6.96400 36.10000
H  31.06400 6.01800 36.97000
Mg -13.02500 15.90700 41.93400
C  -9.83500 14.63800 41.39900
C  -12.19500 18.89900 40.46700
C  -16.25300 17.00100 42.21500
C  -14.07400 12.73200 42.70500
N  -11.24900 16.58600 40.81000
C  -10.05900 15.97200 40.90000
C  -9.00200 16.90900 40.26600
C  -9.69800 18.34500 40.12400
C  -11.14600 17.96800 40.51000
C  -9.13400 19.39700 41.10300
C  -8.42200 16.39300 38.88100
C  -6.87000 16.11300 38.82300
H  -5.98900 16.82000 37.73100
N  -14.10800 17.76700 41.43200
C  -13.55900 18.86800 40.89900
C  -14.50200 19.86000 40.69900
C  -15.70200 19.44400 41.33700
C  -15.40900 18.00700 41.66400
C  -14.30500 21.17600 40.13900
C  -17.01200 20.18300 41.38900
O  -17.15200 21.30300 40.81500
C  -18.15700 19.66500 42.18900
N  -14.87200 14.92800 42.20200
C  -16.06000 15.60400 42.41000
C  -17.16500 14.71500 43.01300
C  -16.51000 13.33000 42.84500
C  -15.04500 13.68900 42.56100
C  -17.68600 15.05900 44.52300
C  -17.13400 12.35900 41.72900
C  -17.44400 10.93800 42.24100
N  -12.08200 14.06300 42.26000
C  -12.67900 12.85300 42.58400
C  -11.61400 11.85400 42.78800
C  -10.47100 12.53100 42.28500
C  -10.83600 13.80500 41.90400
C  -11.83800 10.50900 43.34400
C  -9.03600 12.37000 41.98600
O  -8.24500 11.41900 42.12300
C  -8.60700 13.76700 41.41100
C  -7.49200 14.27800 42.38000
O  -7.56100 14.51000 43.55600
O  -6.30800 14.49200 41.70100
C  -5.17300 15.18900 42.42300
H  -11.80000 19.76500 39.93200
H  -17.19200 17.40600 42.59900
H  -14.48500 11.74500 42.92900
H  -8.21900 17.08400 41.00400
H  -9.69700 18.78300 39.12500
H  -8.80400 20.25800 40.52200
H  -8.37100 18.98400 41.76400
H  -9.85100 19.74300 41.84700
H  -8.71800 16.98300 38.01400
H  -8.92800 15.43500 38.76600
H  -6.67900 15.05200 38.66500
H  -6.48600 16.48100 39.77400
H  -15.06600 21.31900 39.37200
H  -13.35200 21.24800 39.61400
H  -14.40500 22.01000 40.83300
H  -18.64100 18.79500 41.74500
H  -18.88400 20.45200 42.38800
H  -17.79600 19.35200 43.16900
H  -18.00900 14.81700 42.33100
H  -16.58300 12.76800 43.77600
H  -18.28900 14.25300 44.94100
H  -18.34200 15.91700 44.38100
H  -16.75200 15.23900 45.05500
H  -16.36600 12.24600 40.96300
H  -18.09500 12.82400 41.51300
H  -18.47700 10.71400 41.97400
H  -17.40200 10.87200 43.32800
H  -16.74700 10.19600 41.85200
H  -12.77900 10.44600 43.89100
H  -10.98500 10.26200 43.97600
H  -11.86800 9.78000 42.53400
H  -8.21000 13.62500 40.40600
H  -5.06100 14.75400 43.41600
H  -5.22500 16.27800 42.42300
H  -4.26100 14.91200 41.89400

