158

Mg 0.89300 -0.63100 43.97900
C  4.19400 0.43500 43.61900
C  -0.06000 2.47800 42.64300
C  -2.07700 -1.97200 43.63100
C  2.14100 -3.87700 44.62100
N  1.96200 1.28300 43.23300
C  3.32700 1.45000 43.21400
C  3.63700 2.71800 42.48400
C  2.30000 3.50200 42.60500
C  1.27400 2.36900 42.87100
C  2.31200 4.69500 43.66900
C  4.22800 2.47700 41.05500
C  5.68000 3.08300 40.93800
H  6.60400 2.19600 40.07500
N  -0.90200 0.18600 43.21400
C  -1.05200 1.49700 42.80800
C  -2.46000 1.55300 42.45900
C  -3.09600 0.28500 42.77700
C  -2.05000 -0.56400 43.21900
C  -3.03400 2.79800 41.82900
C  -4.64000 0.02500 42.57200
O  -5.34800 0.86800 41.99900
C  -5.22200 -1.34500 42.86300
N  0.17600 -2.64100 44.08400
C  -1.12800 -2.86100 43.94200
C  -1.50300 -4.26300 44.45900
C  -0.11800 -4.94700 44.42200
C  0.76700 -3.75100 44.48700
C  -2.35300 -4.25300 45.80100
C  0.14500 -5.80300 43.13700
C  -0.16000 -7.30200 43.29200
N  2.74300 -1.50300 44.30800
C  3.05500 -2.84900 44.51400
C  4.53300 -2.94600 44.57100
C  5.05800 -1.67000 44.30200
C  3.86100 -0.91300 44.03500
C  5.43900 -4.11200 44.94100
C  6.17900 -0.79200 44.16800
O  7.34000 -1.09600 44.32900
C  5.74200 0.61600 43.75400
C  6.15000 1.65400 44.78900
O  5.56600 1.85100 45.80600
O  7.20500 2.40200 44.41700
C  7.86100 3.32400 45.37600
H  -0.42400 3.44000 42.27400
H  -3.06200 -2.44400 43.64300
H  2.32400 -4.92800 44.85700
H  4.34000 3.23500 43.13800
H  2.07200 3.99400 41.65900
H  3.35500 4.77700 43.97600
H  1.77900 4.56600 44.61100
H  2.04700 5.64600 43.20700
H  3.57900 2.90300 40.28900
H  4.24800 1.43400 40.73700
H  6.15700 3.23000 41.90700
H  5.73700 4.05600 40.44900
H  -3.93400 2.59900 41.24800
H  -2.29500 3.30900 41.21200
H  -3.20500 3.44900 42.68700
H  -4.64700 -2.13500 42.37900
H  -6.23700 -1.27900 42.47200
H  -5.27400 -1.51800 43.93800
H  -2.22300 -4.61700 43.72100
H  0.00000 -5.46300 45.37500
H  -1.90400 -4.84200 46.60100
H  -3.34100 -4.63200 45.54000
H  -2.42400 -3.20100 46.07500
H  1.20600 -5.82400 42.88800
H  -0.34800 -5.37600 42.26400
H  0.61100 -8.01100 42.99000
H  -0.96900 -7.43200 42.57300
H  -0.43900 -7.53400 44.31900
H  4.99900 -5.05200 44.60800
H  5.64500 -4.21200 46.00700
H  6.40200 -4.11400 44.43000
H  6.15000 0.87100 42.77500
H  8.30200 2.75800 46.19600
H  7.07300 3.94100 45.80700
H  8.60000 3.94700 44.87200
Mg 47.90400 35.70400 28.40600
C  46.18600 33.63400 30.56400
C  47.86800 38.16000 30.83700
C  49.22300 37.76100 26.17400
C  47.79600 33.14100 25.90500
N  47.36600 35.76800 30.49700
C  46.70600 34.77000 31.18600
C  46.79500 34.98600 32.64900
C  46.70700 36.59800 32.64000
C  47.39400 36.87900 31.27300
C  45.21000 37.10800 32.64400
C  48.11800 34.44400 33.24900
C  47.97400 33.87800 34.66600
H  47.25800 34.85700 35.64800
N  48.54300 37.73200 28.50300
C  48.37600 38.53400 29.55600
C  48.99000 39.79900 29.22400
C  49.39400 39.78500 27.87400
C  49.15400 38.37200 27.46300
C  49.07500 40.91800 30.25100
C  49.99500 40.88200 27.00600
O  50.17400 40.71500 25.79800
C  50.26600 42.20700 27.62800
N  48.14000 35.56600 26.20800
C  48.87500 36.60800 25.64200
C  49.51900 36.14400 24.32100
C  49.11700 34.61800 24.21700
C  48.24400 34.41100 25.47000
C  49.23500 36.98600 23.03700
C  50.36800 33.77300 24.21000
C  50.69600 33.00300 22.85100
N  47.16700 33.80600 28.20400
C  47.16000 32.88200 27.16000
C  46.53200 31.62500 27.65400
C  45.96900 31.96500 28.92600
C  46.47900 33.26300 29.23700
C  46.38100 30.47400 26.84300
C  45.17500 31.45300 29.95500
O  44.69800 30.33100 30.14100
C  45.20500 32.56200 31.08000
C  45.54700 32.01500 32.40100
O  46.48500 31.28100 32.66600
O  44.57500 32.49200 33.30400
C  44.57100 32.15900 34.71500
H  47.69300 38.86800 31.65000
H  49.71500 38.39800 25.43600
H  47.91200 32.30500 25.21200
H  45.94300 34.61000 33.21600
H  47.23300 37.14200 33.42400
H  44.50100 36.28100 32.61300
H  45.18300 37.76000 31.77100
H  44.90300 37.72000 33.49200
H  48.93900 35.16100 33.27100
H  48.55100 33.66300 32.62300
H  48.96400 33.95500 35.11700
H  47.64200 32.84400 34.57400
H  50.10900 41.26400 30.26100
H  48.71600 40.60700 31.23200
H  48.51100 41.81500 29.99600
H  50.85100 42.76000 26.89400
H  50.89300 42.24600 28.51800
H  49.37000 42.79300 27.83700
H  50.59600 36.24700 24.45700
H  48.49000 34.57400 23.32600
H  48.65900 37.87400 23.29900
H  48.82200 36.53600 22.13400
H  50.18700 37.37100 22.67200
H  50.24400 33.05700 25.02300
H  51.25100 34.37000 24.44000
H  50.61500 31.92400 22.98500
H  51.71100 33.19800 22.50500
H  50.05700 33.17000 21.98300
H  46.81900 30.54800 25.84800
H  45.31800 30.29300 26.68200
H  46.61200 29.54400 27.36300
H  44.20700 32.99900 31.13300
H  43.58400 31.73900 34.90800
H  44.46900 33.05500 35.32700
H  45.45300 31.54000 34.88300

