158

Mg -3.00500 17.02100 25.93200
C  -3.20200 14.59900 28.36600
C  -2.99500 19.40000 28.21200
C  -2.90400 19.19900 23.26300
C  -3.22100 14.30700 23.47800
N  -3.24500 16.99700 28.04900
C  -3.25300 15.87000 28.91500
C  -3.33700 16.39700 30.44600
C  -3.42000 17.94800 30.21300
C  -3.24800 18.15200 28.73100
C  -4.64100 18.64800 30.83600
C  -2.06700 15.97100 31.27800
C  -1.56100 16.76800 32.53600
H  -0.83500 15.85100 33.52800
N  -2.99500 19.04100 25.77200
C  -2.94700 19.87800 26.88300
C  -3.00000 21.22000 26.45200
C  -2.82500 21.15900 24.99700
C  -2.91800 19.75400 24.60800
C  -3.16500 22.38300 27.38500
C  -2.43700 22.33000 23.99300
O  -2.19500 22.13900 22.82800
C  -2.19400 23.70800 24.44900
N  -3.02300 16.71600 23.64100
C  -2.97100 17.82800 22.86800
C  -2.96500 17.44400 21.40100
C  -3.39000 15.92700 21.42200
C  -3.15700 15.61500 22.93500
C  -4.01600 18.27000 20.43100
C  -2.53600 15.06300 20.48600
C  -3.20500 14.56500 19.16000
N  -3.10500 14.94000 25.86000
C  -3.21400 13.95100 24.85000
C  -3.46800 12.69500 25.43300
C  -3.34100 12.92100 26.76700
C  -3.12600 14.23500 27.01700
C  -3.71800 11.42500 24.72200
C  -3.39700 12.23700 27.99700
O  -3.48700 11.01800 28.14800
C  -3.34900 13.28000 29.06500
C  -2.31400 12.91300 29.96100
O  -1.10900 13.19400 29.73300
O  -2.74500 12.27200 31.10600
C  -1.65100 11.67400 31.95700
H  -2.83700 20.17200 28.96700
H  -2.79700 19.89100 22.42500
H  -3.45500 13.61500 22.66700
H  -4.18600 15.92700 30.94100
H  -2.68700 18.48000 30.81900
H  -4.30100 19.27400 31.66000
H  -5.31400 17.92700 31.30100
H  -5.28200 19.28900 30.23100
H  -1.19800 15.94900 30.62100
H  -2.31600 14.98400 31.66800
H  -2.30800 17.35600 33.07000
H  -0.87700 17.50800 32.12100
H  -3.20900 22.11200 28.44000
H  -4.05800 22.88100 27.00500
H  -2.33300 23.06900 27.22600
H  -2.19600 24.34700 23.56600
H  -1.20000 23.81100 24.88400
H  -2.94900 24.17400 25.08200
H  -1.97100 17.56500 20.97000
H  -4.46700 15.75900 21.37900
H  -4.83800 17.74100 19.94900
H  -3.26800 18.68800 19.75800
H  -4.37500 19.10700 21.02900
H  -2.12300 14.30400 21.15000
H  -1.62700 15.52800 20.10400
H  -4.28100 14.70200 19.04900
H  -3.06900 13.48400 19.19300
H  -2.77900 15.09400 18.30700
H  -4.47300 11.05700 25.41500
H  -2.89700 10.71000 24.76700
H  -4.15000 11.44700 23.72100
H  -4.33500 13.23300 29.52800
H  -1.03300 10.84000 31.62900
H  -2.21000 11.30000 32.81500
H  -0.95300 12.39700 32.38000
Mg -11.50700 15.86800 41.57100
C  -8.66200 14.02300 41.09900
C  -9.84200 18.71500 40.30200
C  -14.52200 17.52000 41.40800
C  -13.14500 12.86900 42.29200
N  -9.56000 16.27800 40.62400
C  -8.49600 15.37500 40.71100
C  -7.23300 16.03600 40.11200
C  -7.59500 17.55900 40.31500
C  -9.07000 17.53000 40.34700
C  -7.11100 18.17300 41.59700
C  -6.75600 15.67900 38.64500
C  -5.24900 15.61800 38.47400
H  -4.67700 16.16100 37.22200
N  -12.04200 17.83500 40.98500
C  -11.25200 18.87000 40.54600
C  -12.04500 20.09200 40.27000
C  -13.36200 19.77600 40.57900
C  -13.39200 18.28500 41.03100
C  -11.46100 21.29800 39.55800
C  -14.54100 20.67600 40.49400
O  -14.28100 21.81700 40.18700
C  -16.13600 20.32600 40.69400
N  -13.59700 15.32500 41.85300
C  -14.64600 16.14000 41.78200
C  -15.99200 15.41300 41.75200
C  -15.55700 13.97400 42.28900
C  -13.99900 14.04500 42.25100
C  -17.13200 16.04500 42.62600
C  -16.06700 12.84100 41.47700
C  -17.42100 12.92600 40.79800
N  -10.96900 13.82300 41.87600
C  -11.82000 12.75500 42.04700
C  -11.00100 11.56100 42.07400
C  -9.71800 12.04100 41.76800
C  -9.82900 13.39000 41.48100
C  -11.36800 10.19400 42.35900
C  -8.35800 11.65500 41.46200
O  -7.78700 10.59100 41.34800
C  -7.59700 12.94500 41.11700
C  -6.66800 13.29600 42.08700
O  -6.83900 13.54000 43.25600
O  -5.41700 13.08500 41.61300
C  -4.24200 13.23500 42.47000
H  -9.27800 19.64100 40.17600
H  -15.53500 17.87700 41.21500
H  -13.73900 11.96300 42.43000
H  -6.40900 15.89600 40.81100
H  -7.29700 18.17800 39.47000
H  -6.39900 17.51100 42.09000
H  -7.87900 18.34000 42.35200
H  -6.69500 19.14700 41.34100
H  -7.28000 16.30600 37.92400
H  -7.12500 14.65600 38.58000
H  -4.85700 14.61100 38.61100
H  -4.81400 16.28400 39.21900
H  -11.99900 21.50200 38.63200
H  -10.42700 21.24000 39.21600
H  -11.49400 22.19400 40.17700
H  -16.62200 21.30000 40.74500
H  -16.17400 19.74300 41.61400
H  -16.33900 19.75700 39.78700
H  -16.15500 15.37600 40.67500
H  -15.83400 13.79200 43.32700
H  -18.00800 16.14500 41.98500
H  -16.70500 16.98300 42.97900
H  -17.35800 15.40200 43.47600
H  -16.22100 12.05700 42.21800
H  -15.27400 12.60000 40.76900
H  -18.00800 13.71100 41.27500
H  -17.83900 11.94000 41.00200
H  -17.27600 13.16100 39.74400
H  -10.45700 9.65500 42.61900
H  -11.88900 9.71400 41.53000
H  -11.97200 10.20100 43.26700
H  -7.22700 12.84800 40.09600
H  -3.46400 12.66200 41.96700
H  -4.45700 12.86200 43.47100
H  -3.83800 14.24700 42.43200

