158

Mg 7.56900 2.50500 27.73200
C  9.18000 0.90800 30.58000
C  5.55700 4.09000 29.88400
C  5.90500 3.55400 25.09400
C  9.43000 0.21700 25.72800
N  7.37700 2.43200 29.92100
C  8.15100 1.81400 30.89400
C  7.95200 2.53100 32.17500
C  6.63500 3.38100 32.01100
C  6.50300 3.29400 30.53000
C  5.39800 2.89400 32.82900
C  9.17200 3.38100 32.65500
C  9.02600 3.52000 34.19100
H  10.23200 3.04300 35.03800
N  6.05600 3.81600 27.51300
C  5.33400 4.30800 28.53600
C  4.28500 5.05000 27.98900
C  4.45300 5.13800 26.59800
C  5.49300 4.15000 26.32200
C  3.20700 5.73700 28.73900
C  3.71100 5.92100 25.53900
O  4.02100 5.92700 24.38600
C  2.49300 6.81600 25.84800
N  7.66300 1.87900 25.70700
C  6.91000 2.56700 24.82500
C  7.06900 1.90500 23.41500
C  8.28700 0.95700 23.58300
C  8.53400 0.99500 25.09000
C  5.82100 1.24800 22.89700
C  9.56300 1.29700 22.77100
C  9.87200 0.45000 21.54700
N  8.86600 0.80100 28.06200
C  9.53400 0.02600 27.08700
C  10.48200 -0.86600 27.72300
C  10.40500 -0.56300 29.10700
C  9.33600 0.40600 29.27500
C  11.39500 -1.81300 27.05300
C  10.95600 -0.87000 30.49000
O  11.84200 -1.57800 30.91800
C  10.15600 0.10500 31.48300
C  9.46900 -0.68200 32.61200
O  8.39000 -1.27000 32.49000
O  10.21300 -0.70200 33.75400
C  9.49500 -1.17000 34.95400
H  5.09500 4.74300 30.62800
H  5.27400 3.86300 24.25800
H  10.03600 -0.41500 25.07500
H  7.70100 1.78800 32.93200
H  6.79400 4.40400 32.35300
H  5.55200 1.93300 33.32000
H  4.54100 2.82600 32.15900
H  5.24300 3.74500 33.49200
H  9.21100 4.37500 32.20900
H  10.10700 2.90200 32.36500
H  8.14300 2.98400 34.54000
H  8.85100 4.56100 34.46000
H  3.23100 5.49800 29.80200
H  2.21800 5.43900 28.39100
H  3.26900 6.81900 28.62100
H  1.66800 6.20700 26.21600
H  2.21500 7.35700 24.94400
H  2.70600 7.56100 26.61500
H  7.34200 2.69000 22.70900
H  8.03700 -0.06100 23.28500
H  5.04600 1.27900 23.66300
H  6.13400 0.24200 22.61900
H  5.51000 1.79800 22.00800
H  10.42200 1.19600 23.43400
H  9.41400 2.29300 22.35600
H  10.23000 -0.49300 21.96100
H  10.60800 1.01900 20.98000
H  9.00600 0.22000 20.92600
H  10.98100 -2.78400 26.78200
H  12.16300 -2.04500 27.79100
H  11.84900 -1.26700 26.22600
H  10.84400 0.75200 32.02700
H  8.85200 -2.03100 34.77500
H  8.92600 -0.33500 35.36200
H  10.33300 -1.53900 35.54600
Mg 16.90800 52.34400 26.52600
C  19.14200 51.13400 28.90700
C  14.57600 52.93700 28.86100
C  14.87800 53.50500 24.04000
C  19.21900 51.27500 24.05200
N  16.97200 52.10100 28.66200
C  17.96800 51.66100 29.44800
C  17.57300 51.80400 30.89700
C  16.04400 52.02100 30.84200
C  15.80100 52.33800 29.37100
C  15.19400 50.83900 31.46900
C  18.35900 52.95800 31.63100
C  18.52400 52.72500 33.18000
H  17.44900 51.76700 33.82500
N  14.99100 53.10300 26.44100
C  14.23400 53.36200 27.56700
C  13.07300 54.13300 27.20300
C  13.08700 54.24500 25.82100
C  14.37900 53.63400 25.34700
C  12.07200 54.66000 28.31000
C  12.05300 54.89400 24.90300
O  12.18900 54.95700 23.71500
C  10.88400 55.51000 25.60700
N  16.99600 52.34000 24.35000
C  16.06300 52.89900 23.52800
C  16.45200 52.68800 22.01300
C  17.93400 52.32000 22.10000
C  18.13200 52.03200 23.60700
C  15.49300 51.66300 21.40700
C  19.11300 53.30600 21.60500
C  19.80300 54.23100 22.60200
N  18.74100 51.35700 26.45800
C  19.51600 50.97700 25.40800
C  20.71000 50.22700 25.86500
C  20.57900 50.34100 27.23500
C  19.37800 51.05100 27.54900
C  21.91700 49.68600 25.07200
C  21.19800 49.98300 28.42700
O  22.26500 49.45200 28.63400
C  20.34900 50.50600 29.55600
C  19.96100 49.37100 30.40500
O  19.28800 48.34700 30.03600
O  20.50600 49.48200 31.66800
C  20.35600 48.33000 32.54800
H  13.92900 53.20300 29.70000
H  14.25200 53.86300 23.21900
H  20.08500 51.01000 23.44000
H  17.80200 50.86000 31.39000
H  15.73700 52.93900 31.34300
H  14.40600 51.16400 32.14800
H  15.79800 50.06200 31.93600
H  14.73200 50.27600 30.65800
H  17.85300 53.92400 31.63400
H  19.36500 52.93900 31.21300
H  18.41100 53.69500 33.66600
H  19.48600 52.28400 33.44100
H  11.74500 55.68700 28.14600
H  12.59100 54.64600 29.26800
H  11.26600 53.95100 28.50000
H  11.02600 56.43900 26.15900
H  10.40200 54.72300 26.18700
H  10.13700 55.76700 24.85600
H  16.33000 53.67400 21.56500
H  18.12600 51.35500 21.63100
H  16.03800 50.93700 20.80300
H  14.89900 52.24600 20.70400
H  14.80300 51.19900 22.11100
H  18.62000 53.89900 20.83500
H  19.84800 52.64700 21.14200
H  20.88900 54.22700 22.51000
H  19.51400 54.03500 23.63500
H  19.46200 55.24100 22.37600
H  21.55400 49.24400 24.14400
H  22.29700 48.88600 25.70800
H  22.60200 50.51600 24.89900
H  20.89000 51.24900 30.14300
H  20.58100 47.38600 32.05200
H  19.30100 48.22500 32.79900
H  20.90400 48.47700 33.47900

