158

Mg 45.48700 5.26300 47.87000
C  43.07700 7.87200 47.10200
C  42.95100 3.03700 47.13800
C  47.75300 2.82700 48.07100
C  47.95000 7.68400 47.95200
N  43.29900 5.45500 47.22200
C  42.47600 6.57900 47.00500
C  41.08600 6.26200 46.56300
C  41.04000 4.74100 46.92100
C  42.55600 4.32800 47.11100
C  40.24200 4.29900 48.17600
C  40.79700 6.45700 45.02800
C  39.29900 6.29200 44.74600
H  38.66500 7.41200 43.93800
N  45.36500 3.15000 47.73400
C  44.25100 2.44300 47.36500
C  44.66100 0.99200 47.38400
C  46.05100 0.93700 47.84200
C  46.46100 2.36100 47.89900
C  43.68700 -0.19500 47.21500
C  46.83600 -0.36900 48.12300
O  46.21600 -1.42500 48.17500
C  48.25600 -0.34700 48.36200
N  47.53000 5.24200 47.97400
C  48.23200 4.09200 48.19500
C  49.73700 4.39700 48.33400
C  49.81400 5.96500 48.23400
C  48.32300 6.33700 48.04300
C  50.44600 3.69400 49.56200
C  50.75800 6.50500 47.05700
C  50.46300 6.15900 45.57500
N  45.61800 7.27800 47.59600
C  46.65800 8.20400 47.66600
C  46.16200 9.54100 47.38300
C  44.77100 9.44700 47.25600
C  44.48500 8.04900 47.34000
C  47.07400 10.75400 47.38700
C  43.57000 10.18700 47.04700
O  43.47700 11.37000 46.87600
C  42.38700 9.18300 46.82000
C  41.16500 9.39400 47.65500
O  40.97900 9.00800 48.82600
O  40.17500 10.11900 46.95200
C  39.07700 10.59500 47.76600
H  42.21200 2.24000 47.03700
H  48.53700 2.06800 48.03300
H  48.69400 8.46900 48.10400
H  40.33700 6.69300 47.22800
H  40.67300 4.22500 46.03300
H  39.74000 5.12800 48.67400
H  40.86300 3.76500 48.89500
H  39.45900 3.61200 47.85400
H  41.35600 5.66400 44.53300
H  41.16600 7.42000 44.67500
H  38.75300 6.20200 45.68500
H  39.17700 5.30600 44.29800
H  43.41400 -0.73300 48.12300
H  44.23400 -0.99300 46.71300
H  42.81600 0.07700 46.61900
H  48.68800 -1.32100 48.58800
H  48.56300 0.36400 49.12900
H  48.46500 0.02100 47.35800
H  50.19900 3.92600 47.46600
H  50.14700 6.41800 49.16800
H  49.77300 3.20600 50.26800
H  50.94200 4.48600 50.12300
H  51.09900 2.91300 49.17100
H  51.73100 6.10100 47.33700
H  50.84800 7.57800 47.23100
H  49.51600 5.61900 45.56300
H  51.20400 5.47400 45.16200
H  50.28100 7.07100 45.00600
H  46.69500 11.47400 46.66200
H  47.97800 10.43900 46.86600
H  47.45700 11.09100 48.35000
H  41.99200 9.12500 45.80600
H  38.29600 9.83500 47.80500
H  38.61400 11.44800 47.26900
H  39.45700 10.85300 48.75400
Mg 16.51600 51.90700 26.43900
C  18.59700 50.53800 29.10800
C  14.32000 52.98200 28.92100
C  14.40300 52.92000 24.08200
C  18.62600 50.48300 24.19700
N  16.38500 51.58600 28.75700
C  17.43700 51.22700 29.58600
C  17.10300 51.59200 31.07300
C  15.63800 52.09700 30.98600
C  15.43600 52.29000 29.48700
C  14.64700 51.17300 31.56700
C  18.13700 52.63000 31.59700
C  18.59000 52.43700 33.08900
H  17.75100 51.63700 34.12600
N  14.62700 52.92200 26.47800
C  13.91400 53.25100 27.57100
C  12.66700 53.99900 27.09300
C  12.78300 54.09100 25.66700
C  13.94000 53.28500 25.34400
C  11.63300 54.48600 28.05300
C  11.87300 54.73300 24.63300
O  12.08700 54.73700 23.38000
C  10.72900 55.54100 25.10800
N  16.51800 51.81100 24.41200
C  15.48100 52.24300 23.61800
C  15.71500 51.86300 22.09300
C  17.07400 51.10700 22.18400
C  17.50900 51.17800 23.70100
C  14.52000 51.10100 21.44200
C  18.12700 51.68800 21.11000
C  19.02600 52.88100 21.52300
N  18.22600 50.69900 26.55000
C  18.99000 50.22400 25.51500
C  20.15600 49.62000 26.08400
C  20.08000 49.65300 27.49200
C  18.85800 50.31900 27.72600
C  21.35200 48.96600 25.39400
C  20.65800 49.25200 28.77200
O  21.62600 48.56700 28.99200
C  19.71300 49.80400 29.90600
C  19.24500 48.74500 30.82900
O  18.51000 47.84300 30.47400
O  19.78500 48.92000 32.04500
C  19.45900 47.93400 33.05000
H  13.64800 53.33000 29.70800
H  13.65800 53.09300 23.30200
H  19.32900 50.11500 23.44700
H  17.14700 50.74100 31.75300
H  15.50800 52.97100 31.62300
H  14.24100 51.68600 32.43900
H  15.12200 50.24700 31.89300
H  13.81200 50.91300 30.91700
H  17.76800 53.64200 31.43500
H  18.95600 52.59800 30.87800
H  18.95300 53.37700 33.50400
H  19.53400 51.90400 32.97500
H  10.61600 54.31500 27.70200
H  11.82400 55.55100 28.18100
H  11.71000 54.06300 29.05500
H  10.08100 54.68800 25.31300
H  10.36900 56.16000 24.28600
H  11.08800 56.12300 25.95700
H  15.88200 52.80400 21.56900
H  16.86800 50.08300 21.87200
H  14.90400 50.33600 20.76800
H  13.81400 51.70100 20.86700
H  13.90200 50.56900 22.16500
H  17.46000 52.02200 20.31600
H  18.79000 50.86400 20.84900
H  20.05300 52.70200 21.20300
H  18.98400 53.02300 22.60300
H  18.71000 53.73900 20.93000
H  21.13300 47.97100 25.00600
H  22.18700 49.00600 26.09400
H  21.58600 49.53700 24.49600
H  20.30900 50.51400 30.47900
H  19.97000 46.99400 32.84200
H  18.38200 47.80100 33.15500
H  19.88800 48.35300 33.96000

