158

Mg 0.50500 7.74500 25.81400
C  1.51100 9.82000 28.56300
C  0.67700 5.01200 27.91400
C  0.55300 5.64600 23.21300
C  1.30800 10.34100 23.60400
N  1.05600 7.52000 27.90600
C  1.38300 8.43000 28.85300
C  1.24000 7.81900 30.26600
C  1.32100 6.29500 29.97200
C  0.97300 6.26700 28.53300
C  2.65700 5.49500 30.23100
C  -0.06000 8.30000 30.95400
C  0.09400 8.56500 32.47900
H  1.30500 7.94600 33.21200
N  0.35300 5.63300 25.62000
C  0.39200 4.67900 26.58700
C  0.13200 3.40000 25.97900
C  0.06800 3.62100 24.60000
C  0.37200 4.98000 24.39100
C  -0.05300 2.10200 26.75500
C  -0.26800 2.73200 23.35200
O  -0.62500 3.13900 22.21300
C  -0.24100 1.33500 23.62600
N  0.70100 7.97200 23.65200
C  0.70300 6.92100 22.82500
C  0.89200 7.34200 21.33600
C  1.07000 8.86300 21.45900
C  0.99700 9.09800 23.00900
C  2.01300 6.56100 20.58900
C  0.32000 9.80500 20.45700
C  -1.16000 10.06700 20.64900
N  1.10300 9.74500 26.00500
C  1.35400 10.66600 24.99200
C  1.75300 11.87100 25.66100
C  1.75400 11.57900 27.05100
C  1.42800 10.28500 27.20300
C  2.17800 13.18900 25.11800
C  2.09200 12.14500 28.40700
O  2.59600 13.20100 28.69400
C  1.74200 11.03100 29.42300
C  2.85800 10.95500 30.41000
O  3.95000 10.46100 30.31600
O  2.49900 11.51900 31.52700
C  3.31800 11.51700 32.75400
H  0.69400 4.10800 28.52600
H  0.78700 4.96300 22.39400
H  1.77900 11.03700 22.90600
H  2.19400 8.13100 30.69200
H  0.55100 5.74800 30.51600
H  3.34200 6.08400 30.84100
H  3.00200 5.20000 29.24000
H  2.31900 4.56500 30.68900
H  -0.82800 7.52700 30.98300
H  -0.51700 9.18800 30.51500
H  -0.75800 8.12400 32.99600
H  -0.08000 9.63100 32.62900
H  0.82000 1.52200 26.45300
H  -0.92600 1.55500 26.40000
H  -0.00700 2.27600 27.83000
H  0.72000 1.04800 24.05300
H  -0.37100 0.85800 22.65500
H  -1.08300 0.95900 24.20600
H  -0.00700 7.21600 20.73300
H  2.12900 9.06900 21.30500
H  2.45700 7.23400 19.85500
H  1.67500 5.77000 19.91900
H  2.67600 6.11600 21.33100
H  0.56100 9.59000 19.41600
H  0.80400 10.74800 20.71000
H  -1.74100 9.71300 19.79800
H  -1.37800 11.08200 20.98300
H  -1.46500 9.41500 21.46700
H  1.70800 13.45500 24.17100
H  3.25800 13.30900 25.02800
H  1.77700 13.89000 25.85100
H  0.81800 11.36100 29.89800
H  3.75000 12.51800 32.73500
H  4.11100 10.77000 32.78300
H  2.67900 11.50200 33.63700
Mg 35.18600 2.36500 29.91900
C  32.64200 2.94700 32.10500
C  37.44100 2.24900 32.54800
C  37.52400 1.50000 27.67400
C  32.69500 2.07600 27.29500
N  35.08300 2.65800 32.10500
C  33.88900 2.86400 32.73400
C  34.17500 3.18400 34.24800
C  35.75700 2.90600 34.41700
C  36.11000 2.56700 32.97400
C  36.70200 4.11500 34.90900
C  33.25900 2.29000 35.14900
C  33.70800 2.03900 36.62200
H  33.94800 3.25100 37.55500
N  37.16700 2.07800 30.00600
C  37.92200 1.99200 31.18100
C  39.23900 1.61100 30.91200
C  39.30300 1.24700 29.48800
C  37.95300 1.55700 28.97900
C  40.33300 1.56800 31.93000
C  40.45100 0.76100 28.67700
O  40.30500 0.35700 27.51100
C  41.82900 0.74300 29.27200
N  35.05000 1.71700 27.80600
C  36.21400 1.59600 27.10300
C  36.04800 1.50800 25.60300
C  34.48300 1.35100 25.53000
C  33.98700 1.62200 26.98300
C  36.69900 2.64800 24.67400
C  33.84300 -0.00800 25.01800
C  32.46900 0.15400 24.36200
N  33.15400 2.50400 29.71100
C  32.26700 2.39800 28.62600
C  30.87900 2.71700 29.03800
C  30.99500 2.91900 30.41100
C  32.39000 2.76600 30.73300
C  29.68500 2.75200 28.05800
C  30.27000 3.34200 31.58900
O  29.07800 3.63000 31.74800
C  31.31600 3.19800 32.77900
C  31.29500 4.55800 33.48000
O  31.79500 5.58200 33.03900
O  30.57200 4.45100 34.63500
C  30.57200 5.63800 35.46600
H  38.22200 2.20700 33.31100
H  38.23300 1.29800 26.86900
H  31.97500 1.96600 26.48200
H  33.93600 4.23500 34.41200
H  35.93500 1.89000 34.77000
H  37.30600 4.60900 34.14700
H  37.38400 3.74100 35.67300
H  36.07000 4.93400 35.25100
H  33.19900 1.36600 34.57400
H  32.26900 2.73200 35.25900
H  34.47300 1.26700 36.70000
H  32.84000 1.60900 37.12200
H  40.67100 0.54100 32.06400
H  40.14900 1.93400 32.94000
H  41.29200 1.95800 31.59000
H  42.53800 0.27500 28.58900
H  41.90900 0.15200 30.18400
H  42.10100 1.78900 29.41000
H  36.54000 0.56300 25.37200
H  34.10200 2.11200 24.85000
H  35.91500 3.35100 24.39200
H  37.18100 2.15000 23.83300
H  37.46900 3.21700 25.19400
H  33.70100 -0.73300 25.81900
H  34.48700 -0.56400 24.33700
H  31.66700 -0.28100 24.95900
H  32.47600 -0.27800 23.36200
H  32.23700 1.21500 24.26600
H  29.11100 3.67600 28.11600
H  28.92000 1.98800 28.19400
H  30.07700 2.66300 27.04400
H  30.94000 2.50600 33.53300
H  31.51400 5.66600 36.01400
H  29.78600 5.53400 36.21500
H  30.35400 6.56500 34.93700

