158

Mg 47.08500 16.83700 28.88000
C  45.13300 16.85400 31.86100
C  49.39700 18.53300 30.41900
C  48.58200 17.21600 25.82400
C  44.49600 15.19700 27.18300
N  47.28700 17.45700 30.98700
C  46.38200 17.39100 32.01000
C  46.94100 18.07700 33.30300
C  48.32500 18.64300 32.83400
C  48.34000 18.21900 31.33800
C  48.38600 20.15100 32.98100
C  47.00700 17.07600 34.51100
C  47.46600 17.66700 35.85800
H  47.28700 19.19900 36.21700
N  48.82000 17.56100 28.25500
C  49.68600 18.24100 29.03300
C  50.88200 18.53400 28.32100
C  50.66900 18.12900 26.97900
C  49.29000 17.60200 26.98400
C  52.12500 19.14600 28.95300
C  51.65100 18.28000 25.74100
O  51.33100 17.94400 24.57100
C  53.02600 18.95100 25.90900
N  46.53400 16.28100 26.82800
C  47.31300 16.54200 25.75400
C  46.83500 16.02400 24.41600
C  45.59000 15.25600 24.87300
C  45.47300 15.62800 26.38600
C  46.56900 17.08600 23.33700
C  45.59400 13.76000 24.50200
C  44.99200 13.41300 23.14500
N  45.22400 16.11600 29.43800
C  44.26600 15.48700 28.58600
C  43.07400 15.20700 29.35000
C  43.36300 15.70200 30.64100
C  44.70800 16.26800 30.61100
C  41.84000 14.57900 28.79800
C  42.78600 15.87600 32.01500
O  41.66800 15.52500 32.43900
C  43.91200 16.60600 32.84900
C  43.39900 17.83500 33.59100
O  42.94300 18.81900 33.01200
O  43.39200 17.71700 34.92900
C  42.44600 18.51300 35.66300
H  50.14800 19.13700 30.93300
H  49.17500 17.34600 24.91600
H  43.75300 14.61800 26.63100
H  46.20800 18.84600 33.54900
H  49.15800 18.10300 33.28200
H  47.53600 20.52900 33.55100
H  48.24200 20.61700 32.00700
H  49.26600 20.66400 33.36900
H  47.65600 16.22500 34.30500
H  46.07100 16.55000 34.69700
H  48.50000 17.32300 35.80800
H  46.98300 17.17700 36.70300
H  52.89900 18.37900 28.92900
H  51.83000 19.46200 29.95300
H  52.41200 20.00600 28.34700
H  53.54700 18.46800 26.73500
H  52.82900 19.98100 26.20400
H  53.68400 18.90700 25.04200
H  47.58900 15.29000 24.13100
H  44.64600 15.61100 24.45800
H  46.46500 18.06700 23.80100
H  45.75300 16.81200 22.66900
H  47.54200 17.13900 22.84900
H  45.15400 13.16100 25.30000
H  46.65000 13.49500 24.46800
H  43.97300 13.07000 23.32100
H  45.53000 12.58200 22.68900
H  44.93900 14.17400 22.36600
H  41.69000 14.88400 27.76300
H  40.99500 14.88900 29.41200
H  41.92100 13.50500 28.96700
H  44.34700 16.05400 33.68200
H  42.66600 19.57200 35.53300
H  42.57400 18.25100 36.71400
H  41.42900 18.19300 35.43700
Mg -0.67200 33.91000 27.22500
C  -2.56900 32.17600 29.68700
C  0.78400 35.69300 29.67700
C  0.78500 35.64100 24.76300
C  -2.69400 32.19800 24.77000
N  -1.03600 34.03900 29.36400
C  -1.68800 33.17200 30.18500
C  -1.44500 33.37700 31.64300
C  -0.39600 34.57800 31.64500
C  -0.21600 34.82600 30.10000
C  -0.81500 35.90600 32.34500
C  -0.92800 32.14300 32.39000
C  -1.97400 31.53000 33.42100
H  -1.28200 31.13900 34.73600
N  0.55500 35.46600 27.15900
C  1.07700 36.10600 28.28700
C  1.98400 37.20000 27.93500
C  1.86900 37.23800 26.50400
C  1.06300 36.02600 26.11100
C  2.72800 38.00800 29.02900
C  2.45900 38.23800 25.55100
O  2.35500 38.27900 24.29300
C  3.30400 39.27800 26.17300
N  -0.91300 33.87100 25.02500
C  -0.07300 34.64500 24.26900
C  -0.15300 34.23600 22.77900
C  -1.45700 33.27400 22.75200
C  -1.74700 33.06900 24.28500
C  -0.18900 35.45500 21.75800
C  -1.17300 31.90600 21.97900
C  -0.14600 30.92200 22.53500
N  -2.26900 32.48200 27.18100
C  -2.98900 31.85300 26.11700
C  -3.84600 30.90400 26.69000
C  -3.79600 31.06100 28.10000
C  -2.75900 31.96800 28.32900
C  -4.75800 30.03200 25.95400
C  -4.33700 30.54000 29.33300
O  -5.28200 29.77000 29.45600
C  -3.57600 31.26800 30.43400
C  -4.50000 31.99500 31.36600
O  -5.12500 33.02000 31.10600
O  -4.87900 31.09300 32.29200
C  -5.77900 31.60000 33.32100
H  1.35200 36.08400 30.52400
H  1.28800 36.26600 24.02200
H  -3.13500 31.65800 23.93000
H  -2.39700 33.68300 32.07600
H  0.53000 34.27600 32.13600
H  -1.77200 35.80800 32.85800
H  -0.89200 36.71500 31.61800
H  0.04600 36.13700 32.97200
H  0.02200 32.41100 32.85200
H  -0.75000 31.33900 31.67600
H  -2.46600 30.63400 33.04200
H  -2.78400 32.22700 33.63500
H  2.99200 37.37300 29.87400
H  2.11400 38.85900 29.32500
H  3.67700 38.39200 28.65500
H  2.83900 39.86900 26.96200
H  3.61000 39.93000 25.35400
H  4.19700 38.80600 26.58400
H  0.62000 33.58200 22.37600
H  -2.32400 33.80100 22.35200
H  0.78800 35.47400 21.27500
H  -0.52800 36.37400 22.23500
H  -0.97000 35.21700 21.03500
H  -0.68900 32.22300 21.05500
H  -2.09700 31.34900 21.82300
H  0.11800 31.23200 23.54600
H  0.78400 31.01200 21.97300
H  -0.68400 29.97400 22.50200
H  -4.67600 29.01600 26.33900
H  -4.61500 30.07300 24.87400
H  -5.77100 30.38600 26.14500
H  -3.06500 30.44600 30.93600
H  -6.67100 31.81200 32.73100
H  -5.24700 32.45600 33.73600
H  -5.96900 30.88800 34.12400

