158

Mg 40.84800 41.33500 26.90500
C  39.82200 43.80000 29.14100
C  41.21600 39.14000 29.71100
C  42.01500 39.05400 24.76400
C  40.83700 43.69100 24.36200
N  40.61400 41.47500 29.20800
C  40.19300 42.61400 29.84800
C  39.97300 42.34100 31.35700
C  40.63100 40.88100 31.55600
C  40.83400 40.42600 30.09600
C  41.96300 40.85700 32.36200
C  38.50400 42.57700 31.80200
C  38.14500 41.93000 33.19300
H  37.49900 42.79800 34.28000
N  41.51100 39.39600 27.17500
C  41.58300 38.66500 28.42500
C  42.05300 37.36100 28.11700
C  42.26400 37.29800 26.67800
C  41.90400 38.59700 26.14400
C  42.21100 36.22500 29.13300
C  42.74300 36.11300 25.90500
O  42.72000 36.00700 24.71400
C  43.22500 34.87400 26.51400
N  41.49200 41.41700 24.89900
C  41.85800 40.27400 24.18400
C  41.89300 40.57200 22.69900
C  41.61500 42.07600 22.60400
C  41.23800 42.40500 24.03300
C  43.15800 39.97900 21.97600
C  40.51100 42.43700 21.56200
C  39.02200 42.26700 22.00900
N  40.37400 43.30900 26.71000
C  40.52600 44.11900 25.68100
C  40.09100 45.49000 26.10300
C  39.83700 45.39600 27.45900
C  40.01300 44.06200 27.80400
C  39.89400 46.71700 25.18400
C  39.37000 46.16900 28.60200
O  39.15100 47.41600 28.74500
C  39.41300 45.16000 29.78300
C  40.36300 45.58200 30.84900
O  41.61100 45.36700 30.80800
O  39.68300 46.01700 31.97500
C  40.41900 45.85000 33.31100
H  41.05900 38.40200 30.49900
H  42.47000 38.33400 24.08100
H  40.77600 44.49400 23.62500
H  40.56400 43.09000 31.88300
H  39.86200 40.19900 31.91900
H  42.06700 41.88500 32.70800
H  42.83500 40.58000 31.77000
H  41.99300 40.21400 33.24100
H  37.90100 42.08300 31.04100
H  38.41500 43.62800 32.07900
H  38.99700 41.45500 33.68000
H  37.63400 40.99400 32.96900
H  41.49400 35.42400 28.95500
H  42.05400 36.58700 30.14900
H  43.24900 35.90200 29.20600
H  44.14000 35.06200 27.07600
H  43.46600 34.15400 25.73200
H  42.51200 34.46400 27.22900
H  41.05100 39.99800 22.31300
H  42.52800 42.57500 22.28100
H  43.90700 39.48900 22.59900
H  43.62200 40.82500 21.47000
H  42.71700 39.33700 21.21400
H  40.59200 41.75300 20.71800
H  40.68900 43.44300 21.18300
H  38.80200 42.40700 23.06700
H  38.54100 41.34900 21.67300
H  38.53100 43.05600 21.43800
H  39.30700 46.43500 24.31000
H  40.90200 47.03100 24.91400
H  39.39000 47.45800 25.80400
H  38.47000 45.16500 30.33000
H  39.84000 45.27800 34.03500
H  40.49700 46.87900 33.66500
H  41.47100 45.56400 33.33100
Mg 15.88000 52.07700 25.37500
C  17.90400 51.16200 28.18300
C  13.23800 52.47000 27.49100
C  14.33700 53.11700 22.72400
C  18.55300 50.93400 23.34500
N  15.65800 51.93400 27.51900
C  16.57400 51.67400 28.53900
C  16.10000 52.09600 29.92900
C  14.53700 52.11400 29.64900
C  14.44600 52.10200 28.12700
C  13.82400 50.77800 30.23900
C  16.71600 53.42700 30.22000
C  16.71500 53.83000 31.72000
H  15.79200 53.02000 32.70900
N  13.93000 52.75700 25.15000
C  12.97300 52.78600 26.11200
C  11.77100 53.32900 25.45800
C  12.05200 53.55100 24.08100
C  13.44300 53.17600 23.92200
C  10.39600 53.38300 26.20000
C  11.14200 54.06100 22.97000
O  11.49100 54.23500 21.82000
C  9.67500 54.33800 23.23900
N  16.46000 52.19500 23.34900
C  15.65100 52.67100 22.44200
C  16.20900 52.62700 21.00800
C  17.67500 52.16600 21.29300
C  17.59100 51.78100 22.74100
C  15.40500 51.57200 20.10600
C  18.76100 53.23700 21.12000
C  20.11400 52.77400 20.33600
N  17.75000 50.96300 25.57800
C  18.68700 50.52900 24.73800
C  19.78800 49.90300 25.40000
C  19.51800 50.20900 26.74000
C  18.33300 50.85500 26.82600
C  20.91900 49.18700 24.73400
C  20.13600 50.16600 28.02500
O  21.19800 49.72600 28.40900
C  19.02900 50.65100 29.10300
C  18.56200 49.41200 29.89000
O  18.01800 48.35400 29.48800
O  18.68000 49.70400 31.23100
C  18.06900 48.76700 32.15600
H  12.37700 52.73100 28.11000
H  13.79400 53.34300 21.80400
H  19.39600 50.73900 22.67900
H  16.57800 51.42300 30.64100
H  14.20600 53.03900 30.12200
H  13.27700 50.20300 29.49200
H  13.12000 51.09600 31.00800
H  14.53300 50.17600 30.80700
H  16.11200 54.24800 29.83200
H  17.73500 53.46700 29.83700
H  16.73900 54.91900 31.76000
H  17.71900 53.55500 32.04400
H  9.71400 52.62700 25.80900
H  9.85500 54.32300 26.09200
H  10.54500 53.20300 27.26400
H  9.29000 53.53600 23.87000
H  9.12400 54.32500 22.29900
H  9.45100 55.29400 23.71200
H  16.31100 53.51700 20.38700
H  17.91200 51.26100 20.73300
H  14.65800 52.18000 19.59700
H  14.90900 50.78300 20.67200
H  15.97100 51.09400 19.30600
H  19.06100 53.56800 22.11500
H  18.44500 54.16800 20.64900
H  20.01600 51.70700 20.13500
H  21.04900 52.96200 20.86300
H  20.23900 53.29600 19.38800
H  20.64900 49.12200 23.68000
H  21.00100 48.16100 25.09300
H  21.91600 49.61900 24.81700
H  19.30800 51.43800 29.80400
H  18.93300 48.21800 32.53000
H  17.29100 48.16100 31.69200
H  17.70400 49.25800 33.05800

