158

Mg 26.12600 1.21000 28.82500
C  28.24700 0.77400 31.63800
C  23.54400 1.75600 31.13100
C  23.96600 1.54500 26.30400
C  28.62400 0.52200 26.74200
N  25.93400 1.19700 31.20100
C  26.97900 1.13700 32.08600
C  26.36400 1.09900 33.46000
C  24.88500 1.52100 33.31500
C  24.75800 1.45000 31.76800
C  23.83300 0.67600 34.18000
C  27.17000 1.96200 34.53100
C  26.44300 2.92100 35.40000
H  27.14800 3.12900 36.71700
N  24.10200 1.61500 28.75700
C  23.20100 1.81700 29.76100
C  21.87500 2.15600 29.15200
C  22.02100 1.80100 27.79900
C  23.42900 1.61200 27.55300
C  20.67200 2.55700 30.01600
C  20.87500 1.79600 26.73400
O  21.02200 1.42100 25.61200
C  19.42700 1.92700 27.20800
N  26.25900 1.20700 26.84200
C  25.26000 1.37700 25.99500
C  25.79600 1.37600 24.58700
C  27.33700 1.13500 24.72400
C  27.46200 1.04400 26.19900
C  25.20700 0.41000 23.55400
C  28.23900 2.30200 24.25600
C  28.44100 3.47400 25.25600
N  27.99100 0.53300 29.03100
C  28.92400 0.31700 28.09000
C  30.18100 -0.00700 28.70400
C  29.97900 0.19100 30.08100
C  28.61800 0.45000 30.26200
C  31.42900 -0.53000 28.03000
C  30.66100 0.21100 31.35200
O  31.82300 -0.11800 31.59600
C  29.52800 0.61500 32.43100
C  29.57400 -0.46000 33.48500
O  29.47200 -1.65400 33.27900
O  29.76800 0.03800 34.68700
C  29.64400 -0.81000 35.91800
H  22.77300 2.03700 31.85200
H  23.31700 1.64600 25.43200
H  29.43300 0.25200 26.06000
H  26.34000 0.04800 33.74700
H  24.75400 2.57600 33.55500
H  23.12600 0.15100 33.53800
H  23.19300 1.30000 34.80400
H  24.40300 -0.00600 34.81100
H  27.92600 2.48900 33.95000
H  27.77900 1.32100 35.16900
H  25.50700 2.38700 35.55900
H  26.15300 3.86800 34.94500
H  20.83600 3.17300 30.89900
H  20.21600 1.62300 30.34300
H  19.98900 3.14600 29.40300
H  19.29800 1.36100 28.13100
H  18.83000 1.55700 26.37500
H  19.38300 3.01500 27.24600
H  25.51400 2.38900 24.29900
H  27.70100 0.13700 24.47900
H  24.54400 1.08500 23.01200
H  24.62900 -0.36600 24.05600
H  26.07200 0.06200 22.99000
H  27.71700 2.51200 23.32200
H  29.23100 1.85800 24.16900
H  27.96500 3.37200 26.23200
H  27.90200 4.33700 24.86300
H  29.46100 3.76700 25.50500
H  31.71700 0.19600 27.27000
H  31.31800 -1.47200 27.49400
H  32.29500 -0.54000 28.69100
H  29.89300 1.53600 32.88500
H  30.58900 -1.12800 36.35800
H  29.04600 -1.66400 35.60100
H  29.22700 -0.21200 36.72800
Mg 0.90300 43.20600 25.62800
C  2.84100 42.99100 28.50600
C  -1.86100 42.43000 27.73700
C  -0.99400 42.55000 22.88800
C  3.69400 43.29600 23.67300
N  0.49800 43.00300 27.92100
C  1.46600 42.96300 28.87700
C  0.83500 42.74300 30.24800
C  -0.62500 42.54400 29.94500
C  -0.67300 42.63400 28.41900
C  -1.47200 41.41000 30.62200
C  1.17900 43.99600 31.14100
C  1.46600 43.71500 32.59900
H  0.89000 42.45300 33.33700
N  -1.14300 42.77100 25.36300
C  -2.11500 42.58200 26.35100
C  -3.40900 42.69800 25.72300
C  -3.19100 42.67200 24.24100
C  -1.71600 42.59300 24.11000
C  -4.71000 42.83800 26.51100
C  -4.25000 42.69400 23.18500
O  -3.94600 42.66200 22.00300
C  -5.70400 42.73500 23.52500
N  1.32700 42.82000 23.55900
C  0.35700 42.70900 22.60400
C  0.91600 42.97900 21.20900
C  2.47400 43.38300 21.51500
C  2.53600 43.11000 23.01200
C  0.77900 41.85300 20.13400
C  2.91700 44.81500 21.20200
C  4.20000 44.99400 20.49500
N  2.86800 43.27100 25.93100
C  3.89100 43.28000 25.06100
C  5.18400 43.14900 25.73100
C  4.78500 43.08100 27.11000
C  3.40000 43.17700 27.19300
C  6.56000 43.21700 25.12600
C  5.30900 42.91300 28.44300
O  6.45900 42.79100 28.78900
C  4.04600 42.97400 29.40600
C  4.13500 41.74000 30.25100
O  4.34200 40.60300 29.82100
O  3.98800 42.09800 31.59200
C  4.20300 40.99700 32.47100
H  -2.72600 42.32700 28.39600
H  -1.65100 42.45400 22.02100
H  4.59500 43.41300 23.06700
H  1.30800 41.84100 30.63600
H  -1.13500 43.45400 30.25800
H  -2.35500 41.86400 31.07100
H  -0.82400 40.91500 31.34500
H  -1.79000 40.70400 29.85400
H  0.32800 44.67600 31.10800
H  1.91200 44.71300 30.77300
H  1.02900 44.56100 33.13000
H  2.55300 43.76300 32.66200
H  -5.33400 43.66800 26.17900
H  -4.59400 42.82100 27.59500
H  -5.24900 41.93900 26.21400
H  -6.24700 42.87300 22.59000
H  -5.82200 43.67000 24.07300
H  -6.02400 41.86300 24.09600
H  0.37700 43.85600 20.85000
H  3.12800 42.71500 20.95400
H  0.16200 41.01100 20.44900
H  1.74300 41.38100 19.94800
H  0.30800 42.24400 19.23200
H  2.86100 45.38700 22.12800
H  2.13000 45.26000 20.59300
H  4.10100 45.74600 19.71300
H  4.38600 44.13000 19.85700
H  5.04700 45.28200 21.11900
H  6.69000 42.44900 24.36400
H  7.29800 42.92100 25.87200
H  6.81400 44.17100 24.66400
H  4.04800 43.80200 30.11500
H  5.23400 40.64400 32.42600
H  3.58400 40.10000 32.45400
H  4.16700 41.42200 33.47400

