158

Mg 42.33200 41.18100 25.62700
C  41.58500 43.44500 28.10800
C  43.47500 39.12400 28.02200
C  43.31300 39.09400 23.25000
C  41.73900 43.58300 23.20200
N  42.53800 41.38400 27.89700
C  41.90300 42.20700 28.64500
C  41.94000 41.81000 30.16600
C  42.66900 40.42100 30.12600
C  42.91200 40.27600 28.59300
C  44.03600 40.29800 31.04100
C  40.56300 41.83600 30.91400
C  40.41200 41.31100 32.26600
H  39.79900 42.08100 33.34600
N  43.26600 39.24100 25.63500
C  43.75800 38.62100 26.69800
C  44.24100 37.34900 26.28700
C  44.25400 37.37200 24.93400
C  43.59900 38.55500 24.54000
C  44.68500 36.27600 27.32600
C  44.76800 36.24600 23.97500
O  44.68000 36.31500 22.74800
C  45.35600 35.07300 24.59900
N  42.32800 41.26500 23.57100
C  42.78500 40.23300 22.78700
C  42.57500 40.49500 21.33100
C  42.12700 41.98200 21.29800
C  42.04900 42.28100 22.76200
C  43.83400 40.27600 20.48100
C  40.84900 42.31100 20.49600
C  40.95300 43.41200 19.45000
N  41.77300 43.13300 25.60300
C  41.59300 44.00600 24.53400
C  41.22800 45.26100 25.09200
C  41.18700 45.13600 26.49800
C  41.51600 43.75000 26.74800
C  40.73400 46.37000 24.24300
C  40.83000 45.80300 27.71300
O  40.47900 46.95500 27.95100
C  41.14000 44.75100 28.88500
C  42.25100 45.27000 29.76800
O  43.40300 45.25200 29.40600
O  41.78400 45.51800 31.04700
C  42.86900 45.65200 32.10900
H  43.73400 38.33700 28.73200
H  43.54100 38.36100 22.47300
H  41.42600 44.31100 22.45100
H  42.52700 42.54500 30.71500
H  42.02600 39.69200 30.62000
H  44.03000 41.15800 31.71200
H  44.92800 40.19900 30.42300
H  43.94100 39.42700 31.68900
H  39.89600 41.19300 30.34100
H  40.15100 42.84500 30.93400
H  41.40000 40.99000 32.59700
H  39.91600 40.36800 32.03900
H  44.22700 35.32100 27.06800
H  44.42000 36.49900 28.36000
H  45.77000 36.27100 27.22400
H  44.57800 34.49100 25.09400
H  46.05600 35.39200 25.37000
H  45.86800 34.56300 23.78300
H  41.74200 39.94900 20.88900
H  42.95400 42.55000 20.87100
H  43.96000 39.24400 20.15300
H  44.68600 40.54500 21.10500
H  43.80400 40.82400 19.54000
H  40.00800 42.50300 21.16200
H  40.53200 41.46100 19.89200
H  40.27000 44.23600 19.65600
H  40.58000 43.11500 18.47000
H  41.99600 43.68800 19.29100
H  40.49400 45.94800 23.26700
H  41.58900 47.03200 24.10400
H  39.88600 46.80900 24.76800
H  40.19300 44.61100 29.40700
H  43.11700 44.62600 32.38100
H  42.46900 46.14700 32.99400
H  43.69500 46.20600 31.66400
Mg -1.70500 34.09900 27.89300
C  -3.52300 32.18900 30.19800
C  -0.16100 35.52800 30.52100
C  -0.18400 36.07100 25.68800
C  -3.66600 32.58400 25.35100
N  -1.90300 33.82000 30.07200
C  -2.60800 32.98800 30.81400
C  -2.31600 33.15700 32.34300
C  -1.43000 34.45600 32.41100
C  -1.13300 34.61200 30.89200
C  -1.97000 35.77000 33.12400
C  -1.65900 31.89900 33.01600
C  -2.30900 31.44000 34.38300
H  -1.48800 31.43600 35.66200
N  -0.21300 35.43500 28.07100
C  0.20600 35.96200 29.24200
C  1.13700 37.08800 28.98300
C  1.26800 37.13400 27.50700
C  0.30500 36.18100 26.99200
C  1.80000 37.88500 30.06500
C  2.25600 37.97000 26.65600
O  2.25000 37.96300 25.41400
C  3.30100 38.80300 27.28300
N  -2.11300 34.42900 25.78700
C  -1.22000 35.20000 25.10900
C  -1.54500 35.14100 23.59400
C  -2.34200 33.86100 23.45500
C  -2.80400 33.62600 24.92900
C  -2.21200 36.37200 22.94300
C  -1.64800 32.64000 22.87700
C  -1.57300 32.61500 21.39600
N  -3.30300 32.71200 27.77900
C  -3.89800 32.11300 26.69200
C  -4.75400 31.13000 27.04700
C  -4.72500 31.00700 28.49300
C  -3.79000 32.06300 28.85000
C  -5.48700 30.24400 26.07500
C  -5.26500 30.40500 29.66600
O  -6.15200 29.55800 29.79900
C  -4.55300 31.17900 30.80200
C  -5.65100 31.85700 31.63300
O  -6.68600 32.37300 31.11700
O  -5.51000 31.60800 33.01900
C  -6.90400 31.73800 33.58400
H  0.32100 36.05400 31.34700
H  0.42600 36.57200 24.93300
H  -4.16700 31.97000 24.60000
H  -3.26400 33.42300 32.81000
H  -0.51500 34.15500 32.92300
H  -2.67800 35.49100 33.90500
H  -2.39500 36.45700 32.39100
H  -1.25300 36.38200 33.67100
H  -0.61100 32.05100 33.27300
H  -1.59700 31.12400 32.25200
H  -2.69900 30.42500 34.30400
H  -3.25000 31.98800 34.43100
H  1.49800 37.70400 31.09700
H  1.57700 38.91200 29.77600
H  2.86900 37.70300 29.95700
H  4.03500 38.12700 27.72100
H  2.92000 39.49400 28.03500
H  3.78400 39.47300 26.57100
H  -0.64400 34.98500 23.00100
H  -3.23200 34.05200 22.85500
H  -1.69500 36.97000 22.19300
H  -2.38500 37.02400 23.79800
H  -3.17900 36.12000 22.50700
H  -2.27500 31.82500 23.23800
H  -0.62400 32.42300 23.18000
H  -0.55700 32.71800 21.01600
H  -2.29700 33.33900 21.02300
H  -1.99200 31.65600 21.09000
H  -6.25500 30.61700 25.39700
H  -5.99200 29.56200 26.75800
H  -4.72000 29.77100 25.46200
H  -4.06400 30.45300 31.45200
H  -7.03300 31.77300 34.66600
H  -7.47000 30.87800 33.22900
H  -7.42800 32.62000 33.21600

