158

Mg 24.52400 2.10600 29.77300
C  26.53000 2.18800 32.61500
C  21.75000 2.02300 31.83200
C  22.48600 2.06500 26.99700
C  27.27500 1.63900 27.85400
N  24.19800 2.17300 32.04000
C  25.19700 2.24200 32.99700
C  24.57100 2.31500 34.38600
C  23.04200 2.17400 34.12200
C  22.94300 2.09300 32.57700
C  22.42200 1.07000 34.96000
C  25.06100 3.67100 35.04500
C  25.65600 3.62900 36.46300
H  25.27500 4.57400 37.59900
N  22.42000 2.03900 29.44000
C  21.49300 2.09900 30.45500
C  20.18100 2.01900 29.88000
C  20.35200 1.86700 28.48300
C  21.81300 2.05000 28.25300
C  18.85000 1.96800 30.67800
C  19.39400 1.50300 27.32700
O  19.75200 1.36200 26.18500
C  17.93200 1.21100 27.61600
N  24.80100 1.93600 27.68400
C  23.79800 1.97700 26.73500
C  24.37000 1.91100 25.29800
C  25.95700 1.96900 25.62700
C  26.07700 1.81600 27.16800
C  23.94900 0.63500 24.46700
C  26.80400 3.26300 25.16700
C  26.05600 4.61400 25.30800
N  26.53200 1.94400 30.08800
C  27.56100 1.75800 29.15900
C  28.77900 1.66800 29.88100
C  28.40200 1.78400 31.21700
C  27.02100 1.98400 31.33300
C  30.11000 1.56200 29.27300
C  28.97100 1.77300 32.59300
O  30.13500 1.66000 32.98800
C  27.79900 2.07900 33.54900
C  27.72900 1.06000 34.56100
O  27.53200 -0.16500 34.41600
O  28.32300 1.49300 35.66500
C  28.44100 0.51700 36.79700
H  20.93300 2.06500 32.55600
H  21.88200 2.10500 26.08800
H  28.16900 1.39200 27.27700
H  24.88800 1.44700 34.96400
H  22.40400 3.04700 34.25900
H  21.38600 1.33200 35.17600
H  22.99300 0.90700 35.87400
H  22.55800 0.16300 34.37100
H  24.17500 4.30400 35.09600
H  25.71900 4.27000 34.41600
H  26.72100 3.73500 36.25500
H  25.54500 2.57800 36.72900
H  18.96300 2.58800 31.56800
H  18.74400 1.00300 31.17500
H  17.92900 2.27600 30.18300
H  17.35300 1.87400 28.25900
H  17.75300 0.31900 28.21600
H  17.40000 1.02600 26.68200
H  23.92100 2.74400 24.75700
H  26.36500 1.06600 25.17100
H  23.22100 0.18000 25.13900
H  24.70900 -0.12400 24.28600
H  23.47800 0.94800 23.53500
H  27.11500 3.21400 24.12300
H  27.66900 3.24600 25.82900
H  25.67100 4.74500 26.32000
H  25.21400 4.64900 24.61600
H  26.75100 5.41400 25.05500
H  30.09500 1.93000 28.24800
H  30.36900 0.50300 29.26300
H  30.78600 2.07000 29.96100
H  28.05700 3.05900 33.95200
H  29.40100 0.03100 36.62200
H  27.65200 -0.23000 36.87500
H  28.45000 1.02600 37.76100
Mg 49.98300 45.71700 42.97100
C  46.69300 46.11700 41.61200
C  50.27300 42.83800 41.06500
C  53.32900 45.82700 43.17200
C  49.88100 49.18000 43.85300
N  48.61300 44.63300 41.51100
C  47.34300 44.96400 41.13500
C  46.77300 44.02600 40.10600
C  47.90200 42.88700 40.03100
C  49.00900 43.49900 40.94700
C  47.38400 41.44600 40.51200
C  46.66200 44.80900 38.72900
C  45.24800 44.87800 38.20300
H  45.00000 44.10100 36.94900
N  51.49900 44.31400 42.62200
C  51.41500 43.21800 41.81700
C  52.71100 42.51200 41.91600
C  53.53000 43.26600 42.74400
C  52.83400 44.54600 42.89100
C  52.94500 41.16700 41.19900
C  54.89800 42.86500 43.20200
O  55.40500 41.83900 42.81700
C  55.81200 43.85400 43.92900
N  51.31000 47.32300 43.30400
C  52.66900 46.99200 43.50500
C  53.45500 48.19900 43.97100
C  52.43000 49.26300 44.37200
C  51.14200 48.56900 43.77600
C  54.69900 48.01900 44.98600
C  52.68000 50.60000 43.72900
C  52.74400 51.79700 44.65100
N  48.55000 47.20400 43.10200
C  48.66300 48.58300 43.43500
C  47.28700 49.17600 43.39500
C  46.50000 48.20600 42.69500
C  47.34100 47.05800 42.44400
C  46.83400 50.61300 43.77300
C  45.15700 47.96100 42.19500
O  44.12500 48.63500 42.22200
C  45.19700 46.56100 41.61100
C  44.27000 45.64300 42.29800
O  44.51600 44.92200 43.29000
O  42.97500 45.70600 41.71200
C  41.97800 44.73900 42.26800
H  50.41400 41.97400 40.41300
H  54.42000 45.86300 43.20300
H  49.87700 50.18200 44.28600
H  45.75200 43.75900 40.37900
H  48.34600 42.73300 39.04700
H  47.74100 40.61000 39.91100
H  46.30400 41.44600 40.65800
H  47.91600 41.26000 41.44500
H  47.26000 44.23300 38.02300
H  47.00900 45.83500 38.85400
H  45.03000 45.92300 37.98000
H  44.46900 44.53900 38.88600
H  52.12800 40.88100 40.53600
H  53.14600 40.33300 41.87200
H  53.87500 41.14500 40.63200
H  56.57000 43.40900 44.57300
H  55.17000 44.54600 44.47500
H  56.21000 44.40900 43.08000
H  53.88500 48.42600 42.99600
H  52.26800 49.41800 45.43900
H  54.90600 46.97300 45.21200
H  54.32000 48.49300 45.89100
H  55.64400 48.45800 44.66500
H  51.87900 50.81200 43.01900
H  53.59300 50.55400 43.13500
H  53.70200 52.24300 44.38400
H  52.71300 51.47500 45.69200
H  51.97300 52.51700 44.37800
H  45.77500 50.77400 43.97500
H  47.23100 51.22700 42.96500
H  47.38400 50.83100 44.68800
H  44.77300 46.63900 40.61000
H  42.39300 43.77000 42.54600
H  41.15900 44.65400 41.55500
H  41.48100 45.15500 43.14400

