158

Mg 35.95700 1.37800 29.60300
C  33.79300 2.11500 32.22200
C  38.58600 1.30700 31.82800
C  38.06500 0.73200 27.10400
C  33.36900 1.99200 27.47400
N  36.12600 1.54500 31.83500
C  35.08200 1.84600 32.70500
C  35.61700 2.03100 34.05300
C  37.15800 2.07000 33.85800
C  37.34000 1.64100 32.39900
C  37.84500 3.35000 34.21300
C  35.09900 0.92000 35.05000
C  34.82300 1.35500 36.50700
H  35.57000 2.42200 37.25100
N  38.03800 0.92700 29.47800
C  38.89300 0.87100 30.55400
C  40.25100 0.37000 30.06600
C  40.12900 0.30000 28.63000
C  38.69200 0.59800 28.35900
C  41.44300 0.20400 31.00500
C  41.25700 -0.05600 27.60600
O  41.12000 0.00400 26.40900
C  42.62000 -0.50700 28.20300
N  35.70300 1.19500 27.61800
C  36.71900 1.00500 26.74800
C  36.25300 0.94200 25.27400
C  34.72500 1.20300 25.42200
C  34.57000 1.48200 26.97200
C  36.97900 1.90700 24.27400
C  33.88700 0.06300 24.81700
C  33.17100 -0.97400 25.69900
N  34.00700 2.00100 29.75200
C  33.05200 2.20600 28.78000
C  31.73200 2.48100 29.34800
C  32.03100 2.49700 30.72500
C  33.35500 2.22800 30.88700
C  30.52900 2.63000 28.64200
C  31.45300 2.73200 32.03400
O  30.31000 3.11800 32.26000
C  32.55100 2.50800 33.04000
C  32.72200 3.70300 33.93300
O  33.07300 4.76500 33.52000
O  32.23000 3.43200 35.20800
C  32.17200 4.60500 36.09200
H  39.35700 1.24000 32.59800
H  38.84800 0.56300 26.36100
H  32.54100 2.12400 26.77400
H  35.16600 2.92600 34.48200
H  37.58700 1.33500 34.53900
H  38.57600 3.21500 35.01000
H  37.26100 4.14500 34.67500
H  38.33800 3.73600 33.32100
H  35.71500 0.02200 35.00300
H  34.10800 0.62800 34.70400
H  34.95200 0.41400 37.04200
H  33.81100 1.75900 36.49500
H  42.12100 0.91100 30.52800
H  41.88100 -0.79100 30.92700
H  41.13700 0.61400 31.96800
H  43.12000 0.38000 28.59200
H  43.25500 -0.92600 27.42300
H  42.54600 -1.23500 29.01100
H  36.32300 -0.08400 24.91400
H  34.43100 2.13500 24.94000
H  37.92500 2.29500 24.65100
H  36.45700 2.84600 24.09200
H  37.21100 1.29600 23.40200
H  34.52400 -0.42300 24.07900
H  33.05100 0.62600 24.40000
H  32.12100 -0.83000 25.44300
H  33.41100 -0.88100 26.75800
H  33.32800 -2.03500 25.50900
H  30.39200 1.84300 27.90000
H  30.41800 3.53500 28.04400
H  29.79500 2.54600 29.44300
H  32.22600 1.77800 33.78100
H  31.18800 4.65900 36.55800
H  32.33300 5.52700 35.53300
H  32.97100 4.55300 36.83100
Mg 52.70900 23.81000 43.95500
C  49.63400 25.67500 43.33500
C  50.92200 20.89100 43.35300
C  55.71200 21.99700 43.56700
C  54.41100 26.78900 44.33700
N  50.60100 23.33400 43.20000
C  49.53200 24.24100 43.25300
C  48.21800 23.48300 43.18100
C  48.60100 21.96500 43.32400
C  50.14100 21.99700 43.32400
C  47.88000 21.21800 44.45900
C  47.27700 23.62300 41.92600
C  47.99000 23.91300 40.56200
H  47.26200 23.35900 39.26500
N  53.27600 21.73100 43.45500
C  52.35800 20.70200 43.32100
C  53.09400 19.48600 43.00900
C  54.47400 19.82600 42.87000
C  54.56200 21.19900 43.35500
C  52.46200 18.15400 42.82800
C  55.59000 18.94000 42.38400
O  55.37500 17.76800 42.11600
C  57.02300 19.46000 42.15700
N  54.70200 24.31800 43.95700
C  55.76600 23.42900 43.89000
C  57.10400 24.16800 43.93100
C  56.64700 25.62300 44.35800
C  55.16500 25.61000 44.23200
C  58.21900 23.57800 44.85700
C  57.17600 26.70100 43.42600
C  56.61100 27.02600 42.04100
N  52.16100 25.82600 44.00000
C  53.01100 26.90300 44.17600
C  52.17600 28.08100 44.27400
C  50.88300 27.61500 44.03900
C  50.91200 26.23800 43.72200
C  52.67300 29.44500 44.57300
C  49.53900 28.07900 44.07000
O  49.05400 29.15500 44.34400
C  48.71200 26.81900 43.42300
C  48.27400 27.29200 42.10700
O  49.01600 27.56400 41.18400
O  46.94400 27.36300 42.05800
C  46.43200 27.58600 40.68100
H  50.32000 19.98500 43.26300
H  56.70100 21.55200 43.70100
H  54.97700 27.68500 44.59900
H  47.59200 23.75100 44.03300
H  48.37500 21.45500 42.38800
H  48.35700 21.19000 45.43900
H  47.68200 20.18400 44.17800
H  46.91600 21.71700 44.55400
H  46.92300 24.62300 42.17600
H  46.54700 22.81900 41.83000
H  48.91300 23.34000 40.65600
H  48.25200 24.96000 40.41100
H  53.07500 17.47400 43.42000
H  52.31200 17.95300 41.76800
H  51.56800 18.02300 43.43900
H  56.97900 20.32400 41.49300
H  57.61500 18.59300 41.86500
H  57.35500 19.78900 43.14200
H  57.59100 24.12500 42.95700
H  56.93300 25.77700 45.39900
H  58.14500 24.10600 45.80700
H  59.22800 23.74100 44.47900
H  58.06000 22.51300 45.02900
H  58.23900 26.45900 43.42100
H  57.21800 27.57100 44.08100
H  56.64500 28.11200 41.96600
H  55.61700 26.69400 41.73900
H  57.28700 26.61600 41.29100
H  53.75300 29.45700 44.72200
H  52.17400 29.91800 45.41800
H  52.48300 30.12300 43.74100
H  47.82400 26.68100 44.04000
H  46.15200 26.70200 40.10800
H  46.99000 28.15800 39.94000
H  45.46900 28.09500 40.71300

