158

Mg 0.78400 43.95400 24.46100
C  2.65100 43.82600 27.32100
C  -2.19000 43.95500 26.22600
C  -0.84100 43.33900 21.49500
C  3.81200 43.96100 22.50700
N  0.23600 43.64400 26.51000
C  1.21200 43.80800 27.54600
C  0.54600 43.92900 28.93400
C  -1.01900 44.00100 28.54800
C  -1.01700 43.84300 27.01600
C  -1.97000 43.02700 29.20800
C  0.96300 45.11100 29.86700
C  1.38700 44.82200 31.28400
H  0.93900 43.49700 31.95200
N  -1.20800 43.89200 23.93600
C  -2.29300 43.92200 24.78600
C  -3.47900 43.97300 23.98800
C  -3.07900 43.87800 22.61500
C  -1.62300 43.69700 22.64800
C  -4.80700 44.11400 24.66900
C  -3.95700 43.98500 21.36600
O  -3.41000 43.93300 20.22500
C  -5.46500 44.35500 21.55900
N  1.35900 43.83000 22.32200
C  0.51900 43.53600 21.31000
C  1.26800 43.00200 20.07800
C  2.59900 43.77700 20.33200
C  2.63100 43.88700 21.80300
C  1.39900 41.48400 20.05700
C  2.66000 45.24700 19.77000
C  4.03500 45.73700 19.25700
N  2.84300 43.90400 24.75000
C  3.96900 43.92400 23.97000
C  5.09300 43.80200 24.80500
C  4.66300 43.84900 26.12700
C  3.28000 43.86200 26.04100
C  6.56000 43.84100 24.25800
C  5.11800 43.75700 27.45100
O  6.28400 43.55600 27.86800
C  3.84300 43.89100 28.33300
C  3.80100 42.87500 29.34200
O  3.35900 41.73400 29.17400
O  4.42800 43.27200 30.48700
C  4.71300 42.24000 31.62200
H  -3.05500 43.99400 26.89100
H  -1.36200 42.94700 20.61900
H  4.77500 43.78800 22.02200
H  0.70300 42.96100 29.41000
H  -1.34500 45.02300 28.74000
H  -1.47200 42.49800 30.02100
H  -2.26500 42.31600 28.43600
H  -2.89200 43.44700 29.61000
H  0.16500 45.84400 29.98800
H  1.81500 45.59200 29.38700
H  0.86600 45.49900 31.96100
H  2.42400 45.05600 31.52600
H  -5.31700 45.06400 24.50800
H  -4.74000 44.00500 25.75200
H  -5.46800 43.28400 24.42100
H  -6.01200 43.60600 22.13200
H  -5.88100 44.47800 20.56000
H  -5.53900 45.30000 22.09800
H  0.76700 43.47200 19.23200
H  3.46700 43.22300 19.97600
H  2.40200 41.06400 19.98200
H  0.82200 41.06800 19.23100
H  0.90800 41.02600 20.91600
H  2.39200 46.07100 20.43100
H  1.91300 45.28500 18.97700
H  4.01300 45.95300 18.18900
H  4.76600 44.95100 19.44800
H  4.35800 46.62800 19.79500
H  6.66500 43.08400 23.48100
H  7.26600 43.60800 25.05500
H  6.86600 44.83700 23.93900
H  3.93300 44.90200 28.73200
H  5.79900 42.20600 31.54300
H  4.33900 41.21900 31.54100
H  4.46200 42.56500 32.63100
Mg -5.84800 25.32900 26.44300
C  -4.80200 26.72500 29.66300
C  -7.68200 22.97500 28.27600
C  -6.52400 23.98500 23.57100
C  -3.52400 27.54600 25.10300
N  -6.18800 24.96200 28.66500
C  -5.72200 25.67200 29.80200
C  -6.29800 25.10000 31.04900
C  -6.92400 23.70500 30.54400
C  -6.93100 23.91400 29.07100
C  -6.09800 22.43500 30.99300
C  -7.03900 26.02100 31.96200
C  -6.91500 25.88800 33.54800
H  -6.19900 24.60100 34.05500
N  -6.88500 23.75400 26.00000
C  -7.70300 22.95000 26.87100
C  -8.46400 22.05600 26.07000
C  -8.22100 22.34600 24.74700
C  -7.17900 23.39800 24.68600
C  -9.30700 20.94700 26.71000
C  -8.79800 21.73200 23.49000
O  -8.43800 22.07300 22.38400
C  -9.87200 20.72900 23.59800
N  -5.10600 25.70400 24.66900
C  -5.60900 25.06600 23.58800
C  -5.00000 25.61600 22.24200
C  -4.04900 26.73700 22.83100
C  -4.16200 26.62300 24.31600
C  -4.21800 24.63400 21.34000
C  -4.17200 28.19300 22.20200
C  -3.24100 28.45600 20.99100
N  -4.49600 26.93200 27.18100
C  -3.65700 27.71200 26.46200
C  -2.92000 28.69200 27.32600
C  -3.39000 28.30900 28.58900
C  -4.29000 27.26400 28.49000
C  -2.04400 29.78600 26.88400
C  -3.31900 28.72200 29.99200
O  -2.83100 29.67200 30.55800
C  -4.24800 27.70000 30.70600
C  -3.48700 26.89000 31.64000
O  -2.81300 25.92700 31.35800
O  -3.58300 27.44600 32.93500
C  -2.75500 26.94400 33.95400
H  -8.24800 22.31700 28.93900
H  -6.75000 23.53300 22.60300
H  -2.77300 28.17500 24.62100
H  -5.34700 24.85400 31.52200
H  -7.90800 23.56000 30.98900
H  -5.19800 22.71900 31.53800
H  -5.67400 21.95000 30.11400
H  -6.83800 21.85700 31.54500
H  -8.11500 25.86300 31.88300
H  -6.87900 27.03800 31.60300
H  -7.93100 26.05000 33.90800
H  -6.40900 26.77400 33.93100
H  -10.34500 20.89900 26.37800
H  -9.44700 21.16000 27.76900
H  -8.80400 20.00000 26.51300
H  -9.36000 19.79900 23.84300
H  -10.34300 20.55800 22.63000
H  -10.65500 21.12300 24.24600
H  -5.73400 26.11500 21.60900
H  -3.06200 26.34300 22.59200
H  -3.78300 23.79100 21.87700
H  -3.41000 25.19100 20.86600
H  -4.84400 24.26500 20.52700
H  -3.97300 28.95100 22.96100
H  -5.22200 28.36400 21.96700
H  -2.41000 29.12200 21.22600
H  -3.65600 28.89800 20.08500
H  -2.81500 27.47600 20.77500
H  -1.08500 29.53800 26.42700
H  -1.87000 30.37200 27.78600
H  -2.56200 30.45400 26.19600
H  -5.08800 28.10100 31.27300
H  -3.33000 26.25300 34.57100
H  -2.45300 27.75300 34.61900
H  -1.89000 26.40900 33.56300

