158

Mg 1.82400 -1.84900 44.34400
C  5.08800 -1.10600 43.64200
C  0.83700 0.87900 42.25800
C  -1.30700 -3.05700 44.08900
C  2.82600 -4.98300 45.72700
N  2.86200 -0.34800 42.96600
C  4.22800 -0.18700 42.99800
C  4.62000 1.15000 42.25800
C  3.21800 1.87300 42.04500
C  2.25000 0.71400 42.39600
C  3.00600 3.15600 42.82000
C  5.22700 0.89200 40.83000
C  6.12700 2.05000 40.24800
H  5.70900 2.73800 38.97000
N  -0.07600 -1.01000 43.50100
C  -0.19600 0.03400 42.62900
C  -1.60900 0.19000 42.35400
C  -2.31000 -0.92000 42.93500
C  -1.22100 -1.80300 43.53900
C  -2.17300 1.28100 41.50900
C  -3.80000 -1.16200 42.87800
O  -4.49100 -0.31300 42.43800
C  -4.35800 -2.34800 43.49500
N  0.90600 -3.74600 44.83600
C  -0.40100 -3.95800 44.65700
C  -0.84000 -5.40700 45.03600
C  0.50700 -6.03000 45.52700
C  1.46300 -4.86900 45.39000
C  -2.03700 -5.55400 46.00200
C  0.94700 -7.25600 44.75900
C  1.12400 -8.54100 45.56400
N  3.56400 -2.78900 44.92300
C  3.84200 -3.95700 45.48900
C  5.24600 -4.04300 45.64300
C  5.81900 -2.92400 45.02800
C  4.77800 -2.25600 44.46100
C  5.89100 -5.17900 46.40900
C  7.06600 -2.24700 44.71700
O  8.22700 -2.43500 44.96200
C  6.64700 -0.99800 43.85800
C  7.12900 0.19800 44.45100
O  6.66200 0.59800 45.47900
O  8.09100 0.83600 43.58600
C  8.61900 2.07400 44.08900
H  0.52300 1.78200 41.73000
H  -2.21200 -3.66700 44.04700
H  3.20600 -5.94000 46.08900
H  5.37700 1.75000 42.76300
H  3.03800 2.21900 41.02700
H  1.95400 3.43200 42.75200
H  3.56400 3.89800 42.24800
H  3.38500 2.98500 43.82800
H  4.48300 0.69200 40.05900
H  5.90200 0.04300 40.93500
H  7.07200 1.51500 40.16100
H  6.29700 2.72300 41.08800
H  -2.31800 0.96900 40.47500
H  -1.44600 2.09200 41.47200
H  -3.11200 1.67800 41.89600
H  -5.37000 -2.15600 43.85100
H  -3.73800 -2.39700 44.39100
H  -4.17800 -3.21700 42.86300
H  -1.17300 -5.90200 44.12400
H  0.47500 -6.27800 46.58800
H  -1.81600 -6.22700 46.83000
H  -2.90800 -5.89300 45.44100
H  -2.30600 -4.59900 46.45400
H  1.96300 -7.09400 44.39800
H  0.32100 -7.51300 43.90500
H  0.58100 -9.41600 45.20600
H  1.01200 -8.41100 46.64000
H  2.18600 -8.77700 45.49800
H  6.96600 -5.01700 46.49200
H  5.60500 -6.13700 45.97400
H  5.37900 -5.12200 47.36900
H  7.16100 -1.16200 42.91100
H  9.40500 1.82500 44.80300
H  7.83800 2.69300 44.53200
H  9.01200 2.66000 43.25800
Mg -5.53800 25.59800 26.32100
C  -4.22300 27.05100 29.23000
C  -7.31000 23.43700 28.27800
C  -6.22300 24.05600 23.46900
C  -3.13900 27.69000 24.52600
N  -5.58600 25.25800 28.49200
C  -5.07600 26.00300 29.53500
C  -5.66700 25.52300 30.94400
C  -6.45900 24.26700 30.56800
C  -6.40800 24.24100 29.00900
C  -5.92600 22.96900 31.20100
C  -6.37600 26.64800 31.61100
C  -6.27700 26.84900 33.16300
H  -5.61500 25.71500 33.97900
N  -6.72200 23.94500 25.93700
C  -7.41900 23.25400 26.87200
C  -8.14700 22.22500 26.12300
C  -7.92900 22.45000 24.68800
C  -6.88900 23.49800 24.62500
C  -9.05800 21.24100 26.85600
C  -8.53300 21.87700 23.48500
O  -8.31300 22.19800 22.36900
C  -9.62700 20.80500 23.60300
N  -4.80500 25.92500 24.31300
C  -5.22700 25.04100 23.35600
C  -4.46000 25.32900 21.94500
C  -3.84000 26.76300 22.28400
C  -3.87200 26.82500 23.81300
C  -3.37700 24.26600 21.49100
C  -4.45400 27.96000 21.48900
C  -5.37000 29.00200 22.19100
N  -3.98200 27.08200 26.77800
C  -3.15200 27.79600 25.95400
C  -2.32800 28.69400 26.74600
C  -2.76700 28.52800 28.06000
C  -3.72800 27.45100 27.98800
C  -1.30900 29.75700 26.26900
C  -2.64900 28.93200 29.43400
O  -2.07800 29.83400 30.03900
C  -3.58500 27.94800 30.23300
C  -2.82800 27.21300 31.24700
O  -2.14500 26.18600 31.00800
O  -2.93600 27.77900 32.48200
C  -2.02200 27.14200 33.44900
H  -7.71200 22.67400 28.94700
H  -6.32100 23.59100 22.48600
H  -2.43600 28.31300 23.96900
H  -4.88700 25.16300 31.61400
H  -7.53100 24.43700 30.66200
H  -5.50700 22.22700 30.52100
H  -6.79600 22.52300 31.68200
H  -5.18900 23.09500 31.99500
H  -7.43900 26.58300 31.38100
H  -6.15000 27.59200 31.11600
H  -7.29800 26.89000 33.54300
H  -5.76900 27.81000 33.24200
H  -8.75300 21.09200 27.89200
H  -9.04300 20.26700 26.36600
H  -10.10600 21.53900 26.89700
H  -9.32700 19.77800 23.81100
H  -10.11100 20.76100 22.62800
H  -10.41600 21.18000 24.25600
H  -5.30200 25.50900 21.27800
H  -2.79900 26.74900 21.96100
H  -2.41100 24.76000 21.39000
H  -3.81900 23.86100 20.58000
H  -3.28900 23.41000 22.16000
H  -5.03200 27.59700 20.63900
H  -3.59900 28.48400 21.06200
H  -5.60400 28.70100 23.21200
H  -6.27700 29.00400 21.58600
H  -4.81600 29.94100 22.22300
H  -1.39100 30.65000 26.88800
H  -1.56800 30.00200 25.23900
H  -0.33700 29.26400 26.24100
H  -4.35600 28.62800 30.59500
H  -1.03000 27.58500 33.36300
H  -1.90800 26.08000 33.22900
H  -2.43400 27.14900 34.45800

