158

Mg 25.98000 -0.21700 29.52800
C  27.73400 -0.64300 32.60300
C  23.14800 0.18000 31.28500
C  24.43400 -0.24100 26.55300
C  28.96100 -1.04900 27.91500
N  25.56700 -0.24200 31.71800
C  26.39100 -0.35000 32.82800
C  25.65400 -0.05000 34.14200
C  24.14400 0.09200 33.66100
C  24.24900 -0.00700 32.09900
C  23.14200 -0.86700 34.32700
C  26.22600 1.25900 34.90900
C  26.89100 1.05700 36.28500
H  26.38500 1.93800 37.41900
N  24.07400 -0.02700 29.00300
C  23.00700 0.02100 29.86400
C  21.81100 0.01500 29.10700
C  22.13700 0.14600 27.70800
C  23.60100 -0.09200 27.64500
C  20.46800 -0.11200 29.73400
C  21.25400 0.49500 26.47800
O  21.69600 0.77700 25.36400
C  19.72100 0.52500 26.63400
N  26.64300 -0.42400 27.48400
C  25.77700 -0.46600 26.46500
C  26.46000 -0.79300 25.14000
C  27.96500 -0.77000 25.54100
C  27.94400 -0.69100 27.02800
C  25.97300 -1.99200 24.41800
C  28.76500 0.46400 25.03400
C  28.92400 0.74000 23.47500
N  27.98000 -0.81600 30.07200
C  29.06400 -1.07600 29.29000
C  30.22500 -1.38500 30.11800
C  29.77300 -1.15400 31.37900
C  28.35200 -0.84900 31.36000
C  31.55800 -1.89400 29.58100
C  30.14600 -1.08200 32.80300
O  31.23600 -1.10400 33.41000
C  28.85800 -0.82100 33.61700
C  28.51900 -1.99400 34.47800
O  27.69800 -2.89000 34.26900
O  29.10700 -1.79500 35.66900
C  28.66600 -2.70400 36.76000
H  22.17900 0.41500 31.73000
H  23.90200 -0.34500 25.60500
H  29.92900 -0.93200 27.42300
H  25.71100 -0.94300 34.76400
H  23.79000 1.04500 34.05700
H  22.34300 -1.16900 33.64900
H  22.72900 -0.32900 35.18000
H  23.59400 -1.82500 34.58400
H  25.46900 2.03800 34.99400
H  26.89400 1.80600 34.24400
H  27.97500 1.16800 36.25100
H  26.83400 -0.00900 36.50200
H  19.93300 -0.87900 29.17400
H  19.95900 0.84400 29.85800
H  20.62100 -0.46900 30.75300
H  19.16100 1.11200 25.90600
H  19.63900 0.99600 27.61400
H  19.32200 -0.48800 26.59600
H  26.20500 0.13000 24.61900
H  28.43400 -1.72100 25.29000
H  26.75500 -2.71000 24.17000
H  25.43900 -1.68400 23.51900
H  25.18700 -2.40000 25.05300
H  29.75800 0.19200 25.39300
H  28.20700 1.30200 25.45300
H  28.68800 1.79500 23.33700
H  28.20800 0.06800 23.00100
H  29.93400 0.59200 23.09100
H  32.30300 -1.61400 30.32500
H  31.78200 -1.41200 28.62900
H  31.50300 -2.98000 29.50500
H  28.91900 0.10900 34.18400
H  29.38600 -3.50500 36.92500
H  27.71300 -3.19100 36.55100
H  28.52400 -2.02500 37.60100
Mg 40.94600 7.81300 29.66200
C  42.60200 9.49500 32.35800
C  38.53700 6.75900 31.93800
C  39.70000 5.93400 27.29600
C  43.70800 8.68000 27.55700
N  40.66100 8.03700 31.87300
C  41.42000 8.82200 32.73200
C  40.82500 8.84500 34.15200
C  39.62600 7.88200 33.93500
C  39.62900 7.48900 32.51100
C  39.38800 6.68100 34.88600
C  40.53800 10.33500 34.54400
C  39.89000 10.68600 35.87900
H  40.67400 11.58200 36.94300
N  39.30400 6.58500 29.61500
C  38.40000 6.33900 30.58200
C  37.30800 5.55200 30.10100
C  37.59600 5.46900 28.72100
C  38.94000 5.98900 28.46700
C  36.10400 5.02800 30.93500
C  36.71200 4.88300 27.65200
O  37.00300 4.79800 26.47100
C  35.32000 4.65200 27.98400
N  41.69900 7.24800 27.70100
C  40.96000 6.39500 26.93300
C  41.51900 6.30400 25.42300
C  42.82500 7.25200 25.55200
C  42.75200 7.79000 27.00200
C  41.66900 4.80800 24.80500
C  42.92200 8.36300 24.48900
C  42.06100 9.59400 24.66500
N  42.80300 8.86300 29.88500
C  43.73100 9.14000 28.89600
C  44.74800 9.94500 29.49100
C  44.37700 10.08600 30.88600
C  43.11900 9.48700 31.01400
C  45.92100 10.40200 28.68300
C  44.71600 10.75300 32.13200
O  45.71200 11.33200 32.46600
C  43.61400 10.35900 33.14900
C  44.23800 9.51100 34.16900
O  45.22600 8.79600 34.01300
O  43.74800 9.89000 35.39900
C  44.34000 9.32900 36.61000
H  37.68700 6.43600 32.54300
H  39.26800 5.31000 26.51100
H  44.49400 9.07300 26.90800
H  41.54700 8.39600 34.83500
H  38.79600 8.55400 34.15500
H  40.21900 6.39400 35.53100
H  39.19100 5.75100 34.35400
H  38.45000 6.77000 35.43400
H  39.93800 10.69300 33.70800
H  41.43600 10.94600 34.46800
H  39.67900 9.72800 36.35600
H  39.01200 11.27900 35.62600
H  36.30400 4.91700 32.00100
H  35.96100 3.98200 30.66400
H  35.26800 5.69500 30.72400
H  34.78500 4.37300 27.07700
H  34.87900 5.45900 28.56900
H  35.45800 3.73200 28.55400
H  40.74400 6.77600 24.82000
H  43.76600 6.70900 25.45600
H  41.10800 4.71400 23.87500
H  41.23600 4.01800 25.41800
H  42.72500 4.54700 24.73000
H  42.72200 8.01300 23.47600
H  43.98000 8.62400 24.50000
H  42.78100 10.29900 25.08000
H  41.33600 9.47400 25.47000
H  41.66000 9.97300 23.72400
H  46.63000 9.58800 28.53300
H  46.45100 11.07900 29.35300
H  45.70900 10.85800 27.71600
H  43.36500 11.35800 33.50800
H  45.35300 9.61200 36.89300
H  44.33100 8.25200 36.44400
H  43.63500 9.52300 37.41900

