158

Mg 24.19600 -4.50700 45.79700
C  26.43400 -2.15500 44.24900
C  21.67100 -3.07500 43.90400
C  22.31100 -7.30100 46.27500
C  27.03600 -6.03600 47.07800
N  24.14200 -2.89500 44.28800
C  25.09700 -2.01000 43.88100
C  24.57200 -0.93600 42.93200
C  23.06600 -1.07300 43.25100
C  22.92000 -2.43000 43.88700
C  22.48700 0.18900 44.08300
C  25.03400 -1.14900 41.46500
C  25.96700 -0.22600 40.61500
H  25.65600 -0.30700 39.17200
N  22.16100 -5.02400 45.35500
C  21.32100 -4.30300 44.55800
C  20.06700 -4.97900 44.48800
C  20.15700 -6.19200 45.21200
C  21.61800 -6.23700 45.65400
C  18.95800 -4.40500 43.75200
C  18.96900 -7.19300 45.39600
O  17.82700 -6.89100 45.04200
C  19.13100 -8.47700 46.17200
N  24.59800 -6.38600 46.53400
C  23.67000 -7.38500 46.74800
C  24.35400 -8.61500 47.42400
C  25.77500 -8.12800 47.75500
C  25.80900 -6.74900 47.10200
C  23.68900 -9.39500 48.69100
C  26.89000 -9.19600 47.43000
C  27.57900 -9.88200 48.61100
N  26.31700 -4.04000 45.93300
C  27.28400 -4.81200 46.47700
C  28.55400 -4.06300 46.34100
C  28.24900 -3.00100 45.48900
C  26.88800 -3.10200 45.25100
C  29.92200 -4.52500 46.87800
C  28.88100 -1.91700 44.72400
O  30.02300 -1.49600 44.65200
C  27.60200 -1.32800 43.96300
C  27.39500 0.13600 44.34400
O  27.00900 0.61300 45.42100
O  27.57900 0.83600 43.19200
C  27.10600 2.23100 43.15300
H  20.87200 -2.51700 43.41000
H  21.81100 -8.26300 46.40700
H  27.94000 -6.49900 47.47900
H  25.05300 -0.01600 43.26300
H  22.51900 -1.09500 42.30900
H  23.29000 0.75200 44.55900
H  21.89500 -0.15900 44.92900
H  21.91100 0.76600 43.36000
H  24.19600 -1.37600 40.80700
H  25.53000 -2.12000 41.44800
H  26.97400 -0.61800 40.76200
H  25.95700 0.82100 40.91800
H  19.29500 -3.92300 42.83400
H  18.34600 -3.79100 44.41300
H  18.47600 -5.32700 43.42700
H  19.80600 -9.11700 45.60300
H  18.23400 -9.07000 46.35000
H  19.62200 -8.22800 47.11200
H  24.34900 -9.37100 46.63800
H  25.89500 -7.85000 48.80200
H  23.71100 -10.47000 48.51100
H  22.64700 -9.10500 48.82800
H  24.30500 -9.20600 49.57100
H  27.56500 -8.75800 46.69400
H  26.35100 -9.96000 46.87000
H  27.49800 -9.39000 49.58000
H  28.64100 -9.99100 48.39200
H  27.11500 -10.86800 48.63200
H  30.15900 -5.51000 46.47600
H  29.88500 -4.39000 47.95900
H  30.64100 -3.80000 46.49500
H  27.96200 -1.43900 42.94000
H  26.30400 2.43500 43.86300
H  26.92400 2.47800 42.10700
H  27.98900 2.82000 43.40300
Mg 43.30100 41.93000 26.65100
C  42.24900 44.17000 29.01800
C  44.20100 39.72200 29.01200
C  44.08400 39.85800 24.18200
C  42.97900 44.55500 24.22200
N  43.24000 41.96400 28.73200
C  42.62400 42.96000 29.53300
C  42.68900 42.56900 31.06000
C  43.51300 41.23400 31.02500
C  43.66100 40.95900 29.50500
C  44.90300 41.31200 31.67900
C  41.25100 42.37800 31.71200
C  40.97300 43.28100 32.94100
H  40.20100 42.70200 34.08200
N  44.04600 40.03200 26.57000
C  44.38100 39.25500 27.72800
C  44.84000 38.03500 27.31400
C  44.93000 38.04400 25.87800
C  44.31900 39.33300 25.46900
C  45.12400 36.91100 28.20900
C  45.46700 36.93500 24.93500
O  45.46100 37.12900 23.72600
C  45.96700 35.59200 25.33700
N  43.60500 42.21900 24.51000
C  43.82400 41.11100 23.73700
C  43.85800 41.51400 22.26600
C  43.38200 43.01100 22.21200
C  43.34800 43.30500 23.71900
C  45.28900 41.35900 21.67900
C  42.00400 43.23400 21.45300
C  42.16000 43.99400 20.07700
N  42.76300 43.94900 26.58800
C  42.71500 44.86100 25.54800
C  42.22600 46.12100 26.09900
C  42.00200 45.90200 27.40100
C  42.34600 44.57100 27.66900
C  41.99400 47.29600 25.35800
C  41.50200 46.47000 28.59000
O  40.93000 47.51500 28.81800
C  41.68000 45.41800 29.67600
C  42.62100 45.91000 30.79400
O  43.82900 46.11600 30.64600
O  41.98700 46.08700 32.01600
C  42.92900 46.46000 33.16400
H  44.41100 38.99300 29.79800
H  44.46500 39.16900 23.42500
H  42.67200 45.34100 23.52900
H  43.12800 43.42900 31.56500
H  42.88600 40.39200 31.31800
H  45.70500 41.39500 30.94500
H  44.89600 40.31200 32.11300
H  44.97500 42.08200 32.44600
H  40.96700 41.34700 31.91900
H  40.43500 42.69800 31.06400
H  40.55000 44.21600 32.57300
H  41.91200 43.47800 33.45900
H  44.53500 36.02600 27.96800
H  44.82500 37.09700 29.24000
H  46.17900 36.66200 28.09500
H  46.65800 35.17700 24.60300
H  45.19900 34.82400 25.42700
H  46.61000 35.51100 26.21400
H  43.14400 40.95300 21.66300
H  44.18400 43.59800 21.76500
H  45.68200 42.25200 21.19400
H  45.40800 40.51600 20.99900
H  46.05200 41.13700 22.42500
H  41.33600 43.69600 22.18000
H  41.62100 42.23400 21.25300
H  41.25300 44.57200 19.89900
H  42.41600 43.44600 19.17000
H  42.97500 44.69900 20.23800
H  41.22300 47.08700 24.61700
H  42.91200 47.60200 24.85500
H  41.76900 48.09900 26.06100
H  40.72800 45.19200 30.15700
H  42.69800 47.41500 33.63500
H  43.98200 46.52100 32.88700
H  42.75000 45.71300 33.93700

