158

Mg -1.05200 18.16500 27.45100
C  -1.67500 15.99800 30.18100
C  -1.69600 20.85000 29.57600
C  -0.73900 20.10400 24.87800
C  -1.23400 15.25000 25.40100
N  -1.50000 18.36300 29.74900
C  -1.70900 17.30900 30.65600
C  -1.98000 17.88400 32.05400
C  -2.42300 19.33600 31.68100
C  -1.79100 19.56500 30.25000
C  -3.95600 19.49400 31.82800
C  -0.82900 17.78100 33.09100
C  -1.30000 17.27900 34.46100
H  -0.56100 17.64700 35.67800
N  -1.25500 20.11200 27.26200
C  -1.52300 21.10800 28.20900
C  -1.42900 22.41500 27.62600
C  -1.23200 22.19800 26.24800
C  -1.06500 20.75700 26.06500
C  -1.63400 23.69600 28.36500
C  -1.19700 23.21300 25.12300
O  -1.06100 22.89000 23.95300
C  -1.34200 24.70600 25.37500
N  -1.04900 17.72700 25.39400
C  -0.71100 18.74200 24.51300
C  -0.47000 18.25600 23.10500
C  -0.61300 16.71200 23.22800
C  -0.97400 16.49100 24.76100
C  -1.48300 18.85500 22.05600
C  0.60600 15.82900 22.80700
C  1.75800 15.57900 23.73300
N  -1.29500 16.05500 27.69900
C  -1.27300 15.01000 26.78700
C  -1.46700 13.75200 27.43600
C  -1.63600 14.03800 28.76200
C  -1.53200 15.45700 28.88800
C  -1.42000 12.44500 26.78300
C  -1.86200 13.49200 30.03300
O  -2.12900 12.33800 30.34400
C  -1.91400 14.71000 30.97200
C  -0.92000 14.49000 32.16100
O  0.28000 14.79000 32.10100
O  -1.55400 13.89600 33.28600
C  -0.80100 13.55800 34.44300
H  -1.88000 21.66100 30.28300
H  -0.59900 20.67800 23.95900
H  -1.12100 14.32700 24.82700
H  -2.80700 17.28100 32.43100
H  -1.91300 20.00400 32.37500
H  -4.37400 18.58400 32.26000
H  -4.38000 19.62900 30.83200
H  -4.13500 20.39000 32.42200
H  -0.23000 18.68700 33.18700
H  -0.14400 16.99600 32.77200
H  -1.24700 16.19700 34.58000
H  -2.36300 17.50900 34.52400
H  -0.76300 24.33300 28.21200
H  -1.75900 23.56500 29.43900
H  -2.45500 24.25300 27.91100
H  -2.32400 24.83900 25.83000
H  -1.20400 25.44300 24.58400
H  -0.62500 25.00700 26.14000
H  0.52100 18.56800 22.77600
H  -1.52300 16.45400 22.68600
H  -1.90000 19.84000 22.26600
H  -2.21800 18.12600 21.71300
H  -0.91600 19.08900 21.15500
H  1.00000 16.24100 21.87800
H  0.22100 14.89200 22.40500
H  1.66000 16.24300 24.59100
H  2.71600 15.91600 23.33700
H  1.93900 14.55400 24.05700
H  -0.63700 12.28200 26.04300
H  -2.41000 12.39600 26.33000
H  -1.48500 11.73200 27.60500
H  -2.95500 14.51700 31.22900
H  -0.57800 12.49200 34.48200
H  -1.42800 13.86300 35.28100
H  0.17400 14.03900 34.51000
Mg 45.45200 3.61400 48.12600
C  43.59600 6.47900 47.35400
C  42.57800 1.69500 47.31900
C  47.41800 0.79200 47.89800
C  48.28600 5.50200 48.15500
N  43.22100 4.11800 47.64200
C  42.73200 5.33600 47.31000
C  41.15900 5.24900 46.98100
C  40.88500 3.72200 47.29400
C  42.31100 3.12400 47.41300
C  40.10300 3.47000 48.58100
C  40.75400 5.65500 45.50600
C  39.59200 6.62800 45.27700
H  38.70000 6.35800 43.99800
N  45.03400 1.54600 47.68800
C  43.84300 0.97200 47.36800
C  43.94200 -0.49800 47.25000
C  45.33600 -0.82200 47.52100
C  46.02800 0.54100 47.74400
C  42.75300 -1.36700 46.93400
C  45.93400 -2.22400 47.49500
O  45.21700 -3.19200 47.26100
C  47.42300 -2.48600 47.68200
N  47.55200 3.15400 48.23000
C  48.11100 1.96000 48.04300
C  49.62300 2.06200 48.24900
C  49.90100 3.61500 48.10300
C  48.49300 4.10800 48.27400
C  49.99000 1.41900 49.57300
C  50.57300 4.05100 46.75200
C  51.93400 4.70700 46.76800
N  45.90800 5.61400 47.89300
C  47.05200 6.29300 47.98100
C  46.89100 7.67200 47.56600
C  45.52000 7.77400 47.32200
C  44.98700 6.55700 47.61000
C  48.00300 8.71400 47.56700
C  44.40900 8.66000 46.98200
O  44.36700 9.91500 46.81300
C  43.11000 7.83000 46.91800
C  42.13600 8.44500 47.88200
O  41.86800 8.03400 49.01900
O  41.51200 9.47100 47.18900
C  40.53600 10.36100 47.91000
H  41.75300 1.05000 47.00900
H  48.12600 -0.03700 47.83600
H  49.07500 6.23700 47.97600
H  40.62700 5.92400 47.65100
H  40.36200 3.23400 46.47100
H  39.64800 4.39800 48.92700
H  40.74100 3.01200 49.33700
H  39.19400 2.88700 48.44100
H  40.40400 4.76400 44.98400
H  41.68800 5.94000 45.02300
H  39.93900 7.65400 45.15900
H  38.96200 6.44600 46.14800
H  42.82400 -1.64400 45.88200
H  41.79000 -0.89300 47.12300
H  42.96000 -2.20800 47.59600
H  48.04400 -2.36700 46.79400
H  47.33600 -3.54900 47.90400
H  47.66800 -1.94900 48.59800
H  50.12900 1.43300 47.51600
H  50.45200 4.06600 48.92800
H  50.72100 2.04400 50.08500
H  50.45900 0.46100 49.34900
H  49.09700 1.23500 50.17100
H  49.92700 4.71700 46.18100
H  50.67600 3.19500 46.08400
H  52.63800 4.07900 46.22300
H  52.34100 4.81300 47.77300
H  51.86900 5.65800 46.23800
H  47.92200 9.57800 46.90800
H  49.04500 8.40300 47.63900
H  47.90900 9.10700 48.58000
H  42.63600 7.87100 45.93800
H  39.97300 9.83300 48.68000
H  39.83600 10.71200 47.15100
H  41.02200 11.27000 48.26300

