158

Mg 40.99000 8.47100 30.02200
C  42.89000 9.87200 32.54500
C  38.48600 7.83700 32.22500
C  39.32900 6.98500 27.44200
C  43.63600 9.15300 27.86300
N  40.72100 8.75300 32.10000
C  41.59800 9.41800 32.94900
C  41.01600 9.55800 34.38100
C  39.70700 8.65900 34.29600
C  39.56900 8.43400 32.74800
C  39.69900 7.46200 35.19200
C  40.82100 11.09700 34.82600
C  39.72300 11.28800 35.85700
H  40.19300 12.08600 37.09000
N  39.12900 7.53500 29.86200
C  38.26600 7.35700 30.89400
C  37.16000 6.57100 30.39500
C  37.35900 6.33900 29.02900
C  38.67300 6.96700 28.70900
C  35.97600 6.08800 31.25800
C  36.35900 5.58600 28.06300
O  36.56400 5.42800 26.84700
C  34.91100 5.22200 28.51400
N  41.43000 8.07600 27.96900
C  40.58600 7.56100 27.12500
C  41.07200 7.43700 25.66300
C  42.37600 8.30400 25.75600
C  42.42000 8.68000 27.26300
C  41.18400 5.97500 25.17600
C  42.33400 9.60000 24.91800
C  43.65900 9.94700 24.18400
N  42.95800 9.13600 30.16200
C  43.86000 9.48500 29.18300
C  45.10500 10.08900 29.79700
C  44.67800 10.29300 31.13800
C  43.40500 9.75900 31.27000
C  46.41600 10.45500 29.10500
C  45.06700 10.86300 32.41700
O  46.08200 11.44800 32.73300
C  43.93900 10.63400 33.36900
C  44.36900 9.75700 34.44000
O  44.92700 8.66300 34.23300
O  44.06900 10.18100 35.72300
C  44.40400 9.24700 36.84000
H  37.67000 7.72500 32.94200
H  38.76600 6.43600 26.68400
H  44.46000 9.03200 27.15600
H  41.65200 8.97900 35.05100
H  38.87800 9.33100 34.51900
H  38.94300 7.79000 35.90500
H  40.63100 7.24700 35.71500
H  39.30600 6.60300 34.64800
H  40.75000 11.70400 33.92300
H  41.77300 11.46100 35.21300
H  39.52200 10.25100 36.12700
H  38.82900 11.73000 35.41700
H  35.86500 5.02500 31.04000
H  35.06500 6.58100 30.92000
H  36.15900 6.25000 32.32000
H  34.36400 6.08100 28.90300
H  34.87100 4.36800 29.19100
H  34.30800 5.01900 27.62900
H  40.32400 8.00400 25.10900
H  43.33700 7.81300 25.59700
H  40.50100 5.81100 24.34200
H  40.76100 5.28800 25.90900
H  42.19400 5.67100 24.90200
H  42.09400 10.50700 25.47300
H  41.52400 9.52600 24.19200
H  44.01500 9.00100 23.77500
H  44.38000 10.26400 24.93700
H  43.60000 10.68600 23.38500
H  46.23500 10.97700 28.16500
H  47.07900 9.60800 28.92800
H  46.86400 11.15100 29.81400
H  43.60100 11.59900 33.74400
H  45.29100 9.48700 37.42600
H  44.56400 8.24200 36.45200
H  43.55500 9.25500 37.52300
Mg 31.10300 59.44000 39.08000
C  28.40100 57.09500 38.08300
C  33.22200 56.94600 38.48600
C  33.43400 61.72900 39.61100
C  28.48600 61.87700 39.32900
N  30.78500 57.27700 38.36700
C  29.62900 56.44100 38.21600
C  30.02200 54.97700 38.09700
C  31.61900 55.03000 38.26000
C  31.90400 56.53700 38.41400
C  32.25200 54.00300 39.29400
C  29.44100 54.24300 36.83100
C  30.00500 54.70000 35.46000
H  29.08800 54.86500 34.21200
N  33.00400 59.35300 39.12400
C  33.74600 58.23900 38.85000
C  35.16700 58.53800 39.03800
C  35.28100 59.87700 39.43600
C  33.88300 60.43900 39.44600
C  36.26900 57.55800 38.68500
C  36.54800 60.69900 39.73100
O  37.64800 60.15700 39.54400
C  36.57100 62.09700 40.19700
N  30.96100 61.57700 39.36400
C  32.12800 62.27100 39.65600
C  31.80600 63.70600 40.08000
C  30.20500 63.71600 39.95000
C  29.85000 62.27700 39.61600
C  32.24200 64.11600 41.42400
C  29.71000 64.80100 38.89000
C  28.81000 65.91400 39.51600
N  28.94100 59.57100 38.73100
C  28.04800 60.59800 38.92600
C  26.70700 60.24200 38.46900
C  26.82200 58.85000 38.23200
C  28.18400 58.49600 38.40400
C  25.46800 61.24400 38.33300
C  26.00200 57.69500 37.96200
O  24.78100 57.59400 37.89800
C  26.95100 56.50000 37.79300
C  26.54100 55.54800 38.83900
O  26.54700 55.76800 40.01500
O  25.91500 54.47300 38.28800
C  25.53300 53.44200 39.30300
H  33.93000 56.12200 38.59500
H  34.13500 62.55600 39.74400
H  27.68700 62.61900 39.38500
H  29.54100 54.57400 38.98900
H  32.02400 54.76800 37.28300
H  32.82600 54.63200 39.97500
H  33.01200 53.37500 38.82900
H  31.65300 53.36800 39.94700
H  28.35300 54.21500 36.88700
H  29.81200 53.22900 36.97900
H  30.86100 54.09900 35.15400
H  30.35300 55.72100 35.61800
H  36.04200 56.57800 38.26400
H  36.74400 57.39100 39.65200
H  37.04000 58.00000 38.05400
H  35.95100 62.23200 41.08300
H  36.26000 62.69300 39.33900
H  37.58800 62.27300 40.54900
H  32.22800 64.35400 39.31100
H  29.77900 63.89700 40.93700
H  31.50300 63.82500 42.17100
H  32.57300 65.15400 41.41800
H  33.14500 63.60100 41.75100
H  29.13600 64.38300 38.06400
H  30.56200 65.38200 38.53500
H  29.24600 66.90900 39.43500
H  28.56300 65.82300 40.57400
H  27.82200 65.87800 39.05500
H  25.26700 61.45700 39.38300
H  24.66400 60.80800 37.74000
H  25.72900 62.22600 37.93900
H  26.77900 56.07300 36.80500
H  26.29300 53.31500 40.07400
H  25.32700 52.52500 38.75000
H  24.59100 53.76700 39.74500

