158

Mg 17.21500 -2.56300 28.41400
C  16.57200 -0.53200 31.32400
C  19.12700 -4.57300 30.46400
C  18.09100 -4.34100 25.72200
C  15.76400 -0.11400 26.46900
N  17.67000 -2.58500 30.61200
C  17.22700 -1.69500 31.65100
C  17.73300 -2.09100 33.04300
C  18.80400 -3.21200 32.67300
C  18.51300 -3.50000 31.20800
C  20.31600 -2.87500 32.88300
C  16.52400 -2.53300 33.98200
C  16.25800 -1.61400 35.22800
H  17.35000 -0.83300 35.83600
N  18.37600 -4.32900 28.15000
C  19.04700 -4.92400 29.11000
C  19.71100 -6.05200 28.54400
C  19.64500 -5.95600 27.13900
C  18.67800 -4.86600 26.89100
C  20.35300 -7.05900 29.43700
C  20.36600 -6.75100 26.09400
O  20.19900 -6.58700 24.89000
C  21.31100 -7.86100 26.45500
N  16.87900 -2.36600 26.45100
C  17.30400 -3.21900 25.47900
C  16.90700 -2.71000 24.09600
C  16.11900 -1.40800 24.40000
C  16.22100 -1.26600 25.88500
C  18.10400 -2.54000 23.15400
C  14.69200 -1.39700 23.86400
C  13.75100 -2.41600 24.52600
N  16.32400 -0.68200 28.82300
C  15.78900 0.15500 27.89800
C  15.18100 1.32000 28.49000
C  15.48300 1.12500 29.87100
C  16.16600 -0.12200 30.01100
C  14.48200 2.44200 27.76500
C  15.27400 1.65600 31.23600
O  14.72600 2.65500 31.70900
C  16.10700 0.65000 32.19900
C  17.31500 1.53000 32.56700
O  18.40500 1.60300 32.03400
O  16.93900 2.27100 33.68300
C  17.96200 3.27300 34.15800
H  19.83800 -5.12500 31.08200
H  18.38000 -4.81800 24.78300
H  15.09700 0.51300 25.87300
H  18.31100 -1.28100 33.48900
H  18.62600 -4.14200 33.21400
H  20.69400 -3.63800 33.56400
H  20.43300 -1.87400 33.30000
H  20.84100 -2.89000 31.92800
H  16.70400 -3.57100 34.26300
H  15.66800 -2.52800 33.30600
H  15.88300 -2.31300 35.97600
H  15.54000 -0.81100 35.06100
H  20.11300 -7.14300 30.49700
H  21.41600 -6.82000 29.44400
H  20.18600 -8.10700 29.18800
H  21.98300 -7.48900 27.22800
H  21.87100 -8.04800 25.53900
H  20.65900 -8.69200 26.72600
H  16.22400 -3.43700 23.65500
H  16.55000 -0.44200 24.13800
H  18.13200 -1.46300 22.98900
H  18.03400 -3.04100 22.18900
H  19.02700 -2.85500 23.64100
H  14.75100 -1.66200 22.80800
H  14.06400 -0.50600 23.88100
H  12.97500 -1.91200 25.10200
H  14.35200 -3.04500 25.18400
H  13.27600 -3.02100 23.75400
H  13.66800 2.06000 27.14900
H  15.20900 2.96600 27.14500
H  14.02600 3.12900 28.47800
H  15.43900 0.37600 33.01500
H  17.95200 4.25100 33.67600
H  18.96700 2.90500 33.95200
H  17.99400 3.26700 35.24800
Mg 25.90700 -0.34400 29.22600
C  27.89400 -0.58300 32.04800
C  23.19000 -0.31000 31.45000
C  24.08200 -0.09200 26.53500
C  28.73000 -1.12400 27.32500
N  25.56300 -0.54900 31.53900
C  26.53900 -0.48000 32.43300
C  25.98000 -0.22100 33.84700
C  24.45700 -0.51600 33.68700
C  24.36200 -0.54100 32.12000
C  23.96000 -1.85400 34.27400
C  26.42600 1.26300 34.42800
C  27.05600 1.38200 35.80300
H  26.07300 1.90600 36.88000
N  23.91200 -0.25900 28.98200
C  22.92800 -0.20400 30.02400
C  21.66200 -0.18200 29.36500
C  21.92900 -0.12600 27.94700
C  23.33800 -0.17200 27.75700
C  20.40400 -0.16200 30.19700
C  20.97200 -0.13500 26.86100
O  21.25600 -0.12600 25.64600
C  19.52100 -0.15100 27.22300
N  26.32800 -0.64200 27.23500
C  25.41000 -0.42500 26.29900
C  25.95400 -0.48800 24.87800
C  27.45800 -0.76500 25.15400
C  27.51100 -0.85900 26.65200
C  25.37800 -1.51600 23.88200
C  28.27900 0.41000 24.59900
C  28.24300 1.69900 25.47000
N  27.96900 -0.73700 29.55300
C  28.99700 -1.09200 28.74200
C  30.24500 -1.23300 29.51400
C  29.81400 -0.89100 30.79300
C  28.43600 -0.73900 30.75600
C  31.53600 -1.64600 28.89100
C  30.39100 -0.90200 32.13100
O  31.49300 -1.12800 32.53900
C  29.13700 -0.57100 32.99300
C  29.05800 -1.36300 34.28800
O  28.43100 -2.42000 34.38600
O  29.64000 -0.73200 35.35800
C  29.55200 -1.49300 36.61600
H  22.42500 -0.31700 32.23000
H  23.55600 0.15900 25.61100
H  29.62700 -1.17300 26.70400
H  26.47000 -0.94700 34.49600
H  23.93400 0.23200 34.28300
H  23.19500 -1.58400 35.00200
H  24.79400 -2.30100 34.81600
H  23.65900 -2.52100 33.46700
H  25.54300 1.89800 34.35800
H  27.06200 1.79300 33.71900
H  27.94600 1.99500 35.66000
H  27.45700 0.44900 36.19900
H  19.98800 -1.16800 30.15400
H  19.69600 0.66000 30.09300
H  20.56000 -0.12700 31.27500
H  19.23800 -1.06800 27.74200
H  18.88000 0.08400 26.37400
H  19.32800 0.70000 27.87600
H  25.75000 0.47300 24.40500
H  27.87400 -1.64000 24.65500
H  24.53800 -2.04700 24.33100
H  26.07000 -2.25200 23.47300
H  24.95500 -1.01000 23.01400
H  27.87500 0.69800 23.62900
H  29.30300 0.11800 24.36800
H  27.90800 1.45300 26.47800
H  27.65300 2.52400 25.07200
H  29.26700 2.04100 25.62500
H  31.23700 -2.57100 28.39900
H  32.22900 -1.86000 29.70500
H  31.82400 -0.84400 28.21100
H  29.26000 0.45300 33.34800
H  29.34900 -2.56000 36.52400
H  28.79300 -1.05600 37.26500
H  30.41500 -1.33800 37.26300

