158

Mg 8.35600 2.36100 27.93600
C  10.12400 1.25800 30.61900
C  6.45200 4.38300 29.90800
C  7.03300 3.57000 25.23900
C  10.03400 -0.09400 25.96900
N  8.21100 2.70500 30.08100
C  9.14000 2.21700 31.00900
C  8.89400 2.75100 32.39800
C  7.46800 3.53600 32.16400
C  7.40300 3.63100 30.65500
C  6.18500 2.92600 32.76500
C  9.99300 3.64900 32.89600
C  9.72000 4.39900 34.24500
H  10.60000 4.07700 35.50600
N  6.91900 3.82000 27.64800
C  6.16200 4.52800 28.57200
C  5.28800 5.47200 27.96800
C  5.58200 5.36800 26.55100
C  6.55100 4.20000 26.42200
C  4.23100 6.21800 28.78200
C  4.95000 6.16400 25.41000
O  5.33600 6.06400 24.29600
C  3.92800 7.33300 25.78200
N  8.54600 1.83800 25.89800
C  7.86900 2.55100 24.98300
C  7.96300 1.90700 23.53100
C  9.11300 0.91300 23.75200
C  9.13500 0.76800 25.27800
C  6.58800 1.22000 23.13000
C  10.54700 1.31700 23.14300
C  11.20700 0.16100 22.40000
N  9.66700 0.85500 28.19500
C  10.23000 -0.08400 27.34800
C  11.05800 -1.00700 28.02500
C  11.08600 -0.49300 29.35200
C  10.26900 0.63300 29.36600
C  11.80000 -2.21600 27.48000
C  11.80800 -0.62900 30.66900
O  12.75000 -1.29200 31.12400
C  11.10400 0.53000 31.59400
C  10.55400 -0.18600 32.71200
O  9.48900 -0.76500 32.67900
O  11.34200 -0.08800 33.81900
C  10.76800 -0.43400 35.11300
H  5.85900 5.01700 30.57100
H  6.56500 4.02500 24.36400
H  10.47600 -0.92700 25.41800
H  8.73300 1.98600 33.15800
H  7.57200 4.55300 32.54200
H  6.31700 2.31200 33.65600
H  5.66300 2.21300 32.12600
H  5.50600 3.72000 33.07600
H  10.17800 4.28700 32.03100
H  10.91300 3.08300 33.04300
H  8.68100 4.28100 34.55200
H  9.78100 5.46400 34.01900
H  4.12100 5.78300 29.77500
H  3.26200 6.06400 28.30700
H  4.39900 7.29500 28.74900
H  3.04100 6.89000 26.23300
H  3.53600 7.86900 24.91800
H  4.48900 8.00900 26.42700
H  8.34100 2.58800 22.76800
H  8.73000 -0.01800 23.33200
H  5.74600 1.49800 23.76400
H  6.47000 0.14300 23.24700
H  6.43700 1.66200 22.14500
H  11.22500 1.80200 23.84500
H  10.35900 2.00300 22.31700
H  12.13000 -0.05000 22.94000
H  11.55800 0.45000 21.40900
H  10.54000 -0.69000 22.26200
H  11.17400 -3.03100 27.11400
H  12.36600 -2.53600 28.35400
H  12.51900 -1.79700 26.77600
H  11.71700 1.30400 32.05400
H  10.03500 -1.23000 34.97900
H  10.45000 0.41500 35.71700
H  11.65700 -0.77100 35.64600
Mg 47.61400 25.60500 28.45000
C  48.41500 27.75300 31.14900
C  45.87700 23.51600 30.76200
C  47.22000 23.35300 26.01800
C  49.47800 27.69000 26.32200
N  47.26600 25.66600 30.72900
C  47.51200 26.75500 31.55600
C  46.84300 26.54800 32.95500
C  46.21600 25.06800 32.82400
C  46.47600 24.70000 31.34300
C  46.57500 24.05800 33.94800
C  45.90700 27.64700 33.37500
C  45.91100 28.22000 34.83500
H  46.45500 27.40600 36.02600
N  46.65100 23.72600 28.33800
C  45.98400 23.08300 29.36100
C  45.48600 21.83400 28.86800
C  45.94600 21.64000 27.51700
C  46.61800 22.94700 27.22600
C  44.67100 20.83200 29.68600
C  45.76700 20.51900 26.60000
O  46.28900 20.55600 25.50300
C  45.00800 19.27900 26.77200
N  48.19700 25.52900 26.49900
C  47.99600 24.48100 25.68800
C  48.60100 24.71300 24.27300
C  49.05400 26.17300 24.29500
C  48.99900 26.47600 25.79400
C  49.67800 23.66300 23.98400
C  48.18400 27.20800 23.52000
C  49.02300 28.11900 22.65400
N  48.78200 27.33500 28.66200
C  49.55000 28.05700 27.69700
C  50.06900 29.24300 28.29800
C  49.67700 29.09400 29.64100
C  48.87100 27.99600 29.78900
C  50.69900 30.39300 27.56500
C  49.74800 29.70000 31.01200
O  50.37300 30.76400 31.30200
C  48.89200 28.86900 31.93700
C  49.73400 28.55100 33.10100
O  50.55400 27.62500 33.18500
O  49.41400 29.31400 34.17200
C  50.39100 29.32900 35.33600
H  45.40100 22.84100 31.47700
H  47.05100 22.70300 25.15700
H  50.03300 28.39800 25.70400
H  47.59700 26.41900 33.73200
H  45.12700 25.09300 32.77900
H  47.24800 24.55800 34.64400
H  47.02500 23.17500 33.49300
H  45.72900 23.66500 34.51300
H  44.92900 27.16700 33.37600
H  45.91200 28.47500 32.66600
H  44.87800 28.45700 35.09100
H  46.60100 29.06300 34.79100
H  43.83500 20.59400 29.02900
H  44.29200 21.28400 30.60300
H  45.23200 19.92700 29.91500
H  45.21200 18.74600 27.70000
H  45.23400 18.52800 26.01500
H  43.95700 19.53100 26.63200
H  47.85400 24.58800 23.48900
H  50.12800 26.21800 24.11700
H  50.58100 24.25900 23.85000
H  49.37900 23.14300 23.07400
H  49.69700 22.93100 24.79200
H  47.64100 27.84400 24.21800
H  47.38800 26.74300 22.93900
H  50.07800 27.88700 22.79900
H  48.79200 29.17500 22.79600
H  48.79000 27.84600 21.62500
H  50.17100 30.73800 26.67600
H  51.61800 29.96200 27.16800
H  50.90500 31.17800 28.29400
H  47.98800 29.37200 32.28000
H  49.90000 28.75400 36.12100
H  50.59800 30.32000 35.74100
H  51.36700 28.89700 35.11500

