158

Mg 8.52900 3.28200 27.98700
C  9.93300 1.57300 30.71900
C  6.34300 4.74100 30.02300
C  7.31800 4.55500 25.17400
C  10.74200 1.18200 25.96700
N  8.11600 3.05200 30.08100
C  8.83100 2.44900 31.02500
C  8.45900 2.85100 32.45400
C  7.09100 3.63800 32.21100
C  7.17300 3.82000 30.65400
C  5.75300 2.81800 32.56900
C  9.57800 3.64100 33.23600
C  9.24700 4.71400 34.29200
H  9.99700 4.46000 35.64200
N  6.99400 4.44900 27.63100
C  6.27600 5.11900 28.63200
C  5.48500 6.10900 28.03500
C  5.75000 6.11400 26.65300
C  6.66300 4.94500 26.40100
C  4.54000 7.09700 28.81300
C  5.25700 7.02200 25.50700
O  5.61800 6.86300 24.32200
C  4.34300 8.16200 25.80600
N  8.89800 2.77200 25.87700
C  8.26800 3.57500 24.92000
C  8.91800 3.35400 23.51000
C  9.94100 2.33700 23.81400
C  9.86000 2.08000 25.30400
C  7.85100 2.95100 22.45700
C  11.26300 2.69200 23.23900
C  12.33300 3.41100 24.09300
N  9.93200 1.58400 28.21100
C  10.74400 0.85500 27.34900
C  11.55600 -0.10600 27.96500
C  11.36000 0.23600 29.31800
C  10.33300 1.19900 29.42200
C  12.50100 -1.12300 27.44000
C  11.79200 -0.11200 30.60300
O  12.64000 -0.88800 31.00400
C  10.92000 0.90200 31.60800
C  10.27200 0.10000 32.71900
O  9.23400 -0.57700 32.56600
O  10.95600 0.23300 33.95700
C  10.27800 -0.44500 35.14300
H  5.76700 5.30600 30.75900
H  7.06200 5.22200 24.34800
H  11.61700 0.74600 25.48100
H  8.24900 1.94100 33.01700
H  7.19600 4.66900 32.54900
H  5.21900 2.60000 31.64500
H  5.08400 3.40700 33.19700
H  6.01000 1.91800 33.12900
H  10.36400 4.01800 32.58000
H  10.23000 2.95300 33.77400
H  8.16500 4.68900 34.42700
H  9.57200 5.66000 33.85800
H  5.07700 8.04100 28.91300
H  4.24400 6.52700 29.69300
H  3.56400 7.27100 28.35900
H  3.37300 7.74600 26.08100
H  4.05300 8.81500 24.98300
H  4.77100 8.80100 26.57800
H  9.29000 4.33500 23.21500
H  9.68400 1.40200 23.31600
H  6.84500 3.30700 22.68300
H  7.68700 1.90300 22.20700
H  8.12000 3.50800 21.56000
H  11.09400 3.33400 22.37400
H  11.74000 1.76600 22.91700
H  11.99700 3.66600 25.09800
H  12.55200 4.37600 23.63400
H  13.25800 2.86200 24.27000
H  13.32400 -0.62800 26.92400
H  12.04100 -1.76300 26.68700
H  12.94300 -1.75300 28.21200
H  11.61200 1.54900 32.14700
H  10.17600 -1.53000 35.17100
H  9.24800 -0.13600 35.31900
H  10.84000 -0.23300 36.05300
Mg 47.32600 25.20600 27.93800
C  48.45400 27.40200 30.43100
C  46.39300 22.99800 30.45100
C  46.63800 23.00700 25.50600
C  48.53500 27.48100 25.56900
N  47.57800 25.13400 30.17400
C  47.93200 26.22600 30.94000
C  47.55500 26.02200 32.39800
C  47.03400 24.50900 32.37200
C  47.00700 24.19900 30.90200
C  47.90400 23.57200 33.30800
C  46.36900 27.00000 32.88500
C  46.55300 27.75000 34.18300
H  47.27600 27.04400 35.36600
N  46.66500 23.27400 27.94700
C  46.24800 22.52000 29.06700
C  45.84200 21.19300 28.63200
C  45.76400 21.21400 27.22900
C  46.41400 22.49900 26.81900
C  45.58700 20.09800 29.62400
C  45.20400 20.19000 26.34000
O  45.26000 20.25500 25.11100
C  44.41400 19.06300 26.92900
N  47.59500 25.22600 25.90900
C  47.14900 24.20900 25.11100
C  47.42200 24.55700 23.62300
C  47.89700 26.03200 23.62300
C  48.04400 26.26500 25.12100
C  48.40600 23.50600 22.99500
C  46.75800 27.00400 22.98600
C  47.17300 28.28000 22.20300
N  48.12900 27.10900 27.90000
C  48.59200 27.91600 26.90800
C  49.01400 29.15900 27.34500
C  48.95400 29.01900 28.71500
C  48.51400 27.74900 29.02200
C  49.57100 30.33100 26.47600
C  49.24100 29.63500 29.91400
O  49.72600 30.69500 30.10800
C  48.87500 28.71800 31.09200
C  50.06000 28.55000 31.93100
O  51.19100 28.14600 31.65400
O  49.63600 28.61600 33.20900
C  50.73600 28.58400 34.17400
H  46.05800 22.33600 31.25300
H  46.33300 22.34900 24.69000
H  48.87800 28.25400 24.87900
H  48.48400 26.13400 32.95700
H  45.99600 24.54000 32.70300
H  48.52000 23.04700 32.57800
H  47.23200 23.02800 33.97100
H  48.54700 24.17400 33.95000
H  45.38400 26.54400 32.78500
H  46.35700 27.74900 32.09400
H  45.61600 28.11000 34.60800
H  47.12700 28.63800 33.92000
H  45.83600 19.08100 29.32100
H  44.56900 20.09100 30.01300
H  46.20100 20.36500 30.48300
H  43.78100 19.26300 27.79400
H  45.19700 18.31400 27.05100
H  43.85200 18.52600 26.16500
H  46.48500 24.46700 23.07300
H  48.90000 26.19600 23.23000
H  48.70000 22.76500 23.73900
H  49.29900 24.09900 22.79800
H  47.97300 22.99200 22.13700
H  46.14700 27.34600 23.82100
H  46.10100 26.35400 22.40800
H  48.24700 28.23400 22.02100
H  46.77100 29.18800 22.65300
H  46.50200 28.19500 21.34800
H  48.90100 30.30100 25.61600
H  50.64000 30.14200 26.38000
H  49.40000 31.31600 26.91100
H  48.07600 29.21000 31.64800
H  50.33400 29.08000 35.05700
H  51.65200 29.13400 33.95800
H  50.92400 27.55200 34.47000

