158

Mg 23.73800 -4.92900 45.55700
C  26.33900 -2.80500 44.02100
C  21.64600 -3.92300 42.97600
C  21.90300 -7.58400 46.09600
C  26.40200 -6.25700 47.33400
N  23.97300 -3.51900 43.78200
C  25.08700 -2.79600 43.37400
C  24.78200 -2.04800 42.04100
C  23.25300 -2.40600 41.79000
C  22.91900 -3.29500 42.97800
C  22.33400 -1.24900 41.66800
C  25.66600 -2.49100 40.83600
C  26.55400 -1.47100 40.05000
H  26.10500 -1.48400 38.54800
N  21.89800 -5.66200 44.74500
C  21.20200 -4.99100 43.77300
C  19.84700 -5.61300 43.74700
C  19.91100 -6.78300 44.53800
C  21.24500 -6.75000 45.17200
C  18.75400 -5.09400 42.82500
C  18.80800 -7.75800 44.73200
O  17.68300 -7.50000 44.26100
C  18.85700 -9.01600 45.58200
N  24.16000 -6.73300 46.38800
C  23.16000 -7.65700 46.61700
C  23.69900 -8.88600 47.33200
C  25.01900 -8.32600 47.96200
C  25.22800 -7.05200 47.21500
C  22.68200 -9.61500 48.33100
C  26.30200 -9.31500 48.03100
C  26.11500 -10.92700 47.76200
N  25.82300 -4.43200 45.94100
C  26.75300 -5.05800 46.68800
C  28.02300 -4.52500 46.58500
C  27.87000 -3.56800 45.61600
C  26.55100 -3.62600 45.20500
C  29.27200 -4.98800 47.18700
C  28.64500 -2.62800 44.81100
O  29.83800 -2.35800 44.81300
C  27.66200 -2.09700 43.73900
C  27.61700 -0.58500 43.77300
O  27.17100 0.05400 44.66200
O  28.08400 0.04000 42.64300
C  28.23200 1.46900 42.65600
H  20.91400 -3.57600 42.24400
H  21.27300 -8.43200 46.37000
H  27.16500 -6.68400 47.98800
H  24.93700 -0.99300 42.26900
H  23.08000 -3.01700 40.90500
H  21.51100 -1.35700 42.37500
H  21.82700 -1.36400 40.71000
H  22.81800 -0.27200 41.66200
H  25.16200 -3.06000 40.05400
H  26.30300 -3.25200 41.28700
H  27.63900 -1.56900 40.06300
H  26.43000 -0.52000 40.56900
H  18.57400 -5.87000 42.08200
H  19.02800 -4.25600 42.18300
H  17.80600 -4.98700 43.35100
H  17.97400 -9.65200 45.51700
H  19.09500 -8.72900 46.60600
H  19.63700 -9.67100 45.19200
H  23.97700 -9.54100 46.50600
H  24.94800 -8.04700 49.01300
H  21.84200 -8.99600 48.64400
H  23.23700 -9.91600 49.22000
H  22.29200 -10.54900 47.92700
H  26.72000 -9.23000 49.03400
H  27.03600 -9.02100 47.28100
H  26.51700 -11.31500 46.82600
H  25.10400 -11.33200 47.81300
H  26.71200 -11.36100 48.56500
H  29.03600 -5.49100 48.12500
H  29.92000 -4.13000 47.36400
H  29.86500 -5.64100 46.54700
H  27.96000 -2.43000 42.74500
H  29.06400 1.73500 43.30800
H  27.40800 1.94500 43.18700
H  28.35800 1.97400 41.69800
Mg 1.15800 43.39800 26.97000
C  3.74600 43.09200 29.25400
C  -1.21700 43.00200 29.35200
C  -1.13000 42.94100 24.49100
C  3.70300 43.45500 24.35800
N  1.25700 42.89300 29.07700
C  2.37400 43.06100 29.76800
C  2.02400 43.11900 31.25500
C  0.49700 42.86200 31.32400
C  0.13100 42.98800 29.83500
C  0.06800 41.52400 31.83100
C  2.41400 44.50500 31.91100
C  2.02300 44.59000 33.38300
H  1.66300 43.27400 34.14300
N  -0.90900 42.95800 26.90500
C  -1.70400 42.97100 28.00600
C  -3.08300 42.70900 27.55300
C  -3.11800 42.61700 26.13900
C  -1.67200 42.82900 25.78500
C  -4.24200 42.55300 28.53500
C  -4.27500 42.35000 25.20000
O  -4.12100 42.24700 24.00800
C  -5.65800 42.09000 25.71600
N  1.29400 43.25700 24.75000
C  0.18000 43.08600 23.97000
C  0.47300 43.17300 22.50000
C  2.01300 43.44800 22.44400
C  2.40600 43.42300 23.90900
C  -0.04000 42.06400 21.59400
C  2.51200 44.80800 21.81600
C  1.96800 46.11100 22.47100
N  3.27800 43.31500 26.84200
C  4.16300 43.34700 25.68000
C  5.53000 43.28200 26.21600
C  5.40900 43.20800 27.61900
C  4.06500 43.22700 27.92900
C  6.75900 43.45100 25.45400
C  6.16500 43.14600 28.80100
O  7.37400 43.14500 28.90100
C  5.04800 43.16000 29.94900
C  5.32900 42.01600 30.95500
O  4.99600 40.86500 30.68700
O  5.60700 42.49900 32.27600
C  5.51500 41.50100 33.27700
H  -1.99700 43.11700 30.10700
H  -1.89900 42.87000 23.71900
H  4.40800 43.51100 23.52600
H  2.54000 42.22500 31.60300
H  -0.00100 43.68000 31.84500
H  -0.53400 40.98300 31.10200
H  -0.65500 41.48300 32.64600
H  0.95300 40.92000 32.02800
H  1.67200 45.10400 31.38300
H  3.41700 44.89000 31.72700
H  1.20400 45.30700 33.43500
H  2.96700 44.75900 33.90100
H  -3.85300 42.45600 29.54800
H  -4.51400 41.51400 28.34900
H  -5.12800 43.16000 28.35000
H  -5.97700 42.94500 26.31400
H  -5.67600 41.15800 26.28000
H  -6.27100 41.88500 24.83800
H  -0.08400 44.02200 22.10400
H  2.59300 42.61800 22.04000
H  -0.58100 41.33400 22.19600
H  0.75600 41.70000 20.94400
H  -0.74600 42.50900 20.89300
H  2.23100 44.76800 20.76400
H  3.59500 44.79500 21.69500
H  1.36700 46.59800 21.70400
H  2.81500 46.75200 22.71900
H  1.37100 45.89500 23.35800
H  6.68800 44.34000 24.82700
H  7.13700 42.63700 24.83500
H  7.49900 43.69300 26.21700
H  5.26100 44.11500 30.43000
H  4.50100 41.10300 33.23800
H  5.75900 41.94000 34.24500
H  6.11600 40.60300 33.13300

