158

Mg 47.90500 14.34200 28.05700
C  45.89200 14.38400 30.78400
C  50.14900 16.42900 29.71300
C  49.75800 14.47700 25.26600
C  45.38100 12.89400 26.16100
N  47.91800 15.42800 29.94200
C  47.00800 15.21300 30.97200
C  47.43600 15.93900 32.25000
C  48.63400 16.77700 31.73200
C  48.94300 16.19900 30.33100
C  48.40400 18.35500 31.69500
C  47.69900 14.80000 33.29000
C  47.04400 15.04800 34.70900
H  47.91300 14.85100 35.99000
N  49.80200 15.21100 27.62900
C  50.59800 15.94200 28.40000
C  51.81000 16.20700 27.74100
C  51.79000 15.58100 26.53600
C  50.40600 15.06700 26.40500
C  52.96600 17.10400 28.32900
C  52.87300 15.39700 25.47300
O  52.69100 14.80500 24.42400
C  54.21200 15.87500 25.72000
N  47.60400 13.75500 26.06200
C  48.51200 13.92300 25.06900
C  48.20700 13.28400 23.72300
C  46.75400 12.70300 24.05200
C  46.55500 13.13600 25.50900
C  48.12800 14.22100 22.54300
C  46.73900 11.11100 23.80300
C  47.85600 10.13700 24.33900
N  45.98200 13.73500 28.32000
C  45.07200 13.20000 27.50000
C  43.88000 12.79800 28.27400
C  44.15000 13.29100 29.54600
C  45.42700 13.84400 29.49100
C  42.84100 11.92700 27.63100
C  43.70200 13.31100 30.90300
O  42.68900 12.85700 31.42500
C  44.77900 13.98800 31.81600
C  44.03800 15.15300 32.47200
O  43.72800 16.22500 31.92400
O  43.76400 14.85800 33.78300
C  43.31700 15.92700 34.60700
H  50.80900 17.06500 30.30600
H  50.26900 14.49900 24.30100
H  44.54200 12.43000 25.63800
H  46.60000 16.57100 32.55100
H  49.46900 16.48100 32.36600
H  47.48600 18.63200 32.21100
H  48.42400 18.73100 30.67200
H  49.22700 18.89400 32.16500
H  48.77400 14.66900 33.40900
H  47.24300 13.85500 32.99500
H  46.21500 14.34100 34.69500
H  46.62800 16.05500 34.70100
H  53.88900 16.52500 28.34000
H  52.53800 17.45200 29.26900
H  53.09300 17.92400 27.62200
H  54.12000 16.93700 25.95000
H  54.85600 15.86000 24.84100
H  54.76000 15.29000 26.45900
H  48.92700 12.51200 23.45300
H  45.90000 13.14700 23.54200
H  47.41200 15.01700 22.74600
H  47.75300 13.66600 21.68300
H  49.05700 14.69500 22.22600
H  46.73400 11.03600 22.71500
H  45.76200 10.70700 24.06800
H  48.29700 9.58000 23.51300
H  47.45200 9.39800 25.03100
H  48.56500 10.79900 24.83600
H  43.20100 10.94000 27.33900
H  42.32100 12.42000 26.81000
H  42.12700 11.63400 28.40000
H  45.15100 13.25300 32.53000
H  43.27600 15.50400 35.61000
H  42.36100 16.18600 34.15000
H  44.00300 16.77300 34.64700
Mg 41.44800 40.64900 27.07200
C  40.80000 43.08800 29.71900
C  42.12600 38.34600 29.44000
C  42.29600 38.66200 24.55400
C  41.29400 43.49700 24.79200
N  41.48200 40.81300 29.37700
C  41.03800 41.83700 30.22100
C  40.96700 41.32500 31.65100
C  41.37000 39.77100 31.58000
C  41.76100 39.61500 30.04500
C  42.53500 39.46400 32.53800
C  39.65900 41.62600 32.39700
C  39.71200 42.70500 33.44900
H  39.04200 42.40500 34.79300
N  41.94000 38.75400 27.00500
C  42.25300 37.97700 28.09100
C  42.77600 36.72000 27.62000
C  42.68900 36.70900 26.20300
C  42.24700 38.07600 25.85200
C  43.28200 35.61600 28.50800
C  42.99400 35.51800 25.23600
O  42.79400 35.59000 24.04900
C  43.62900 34.28400 25.65200
N  41.72800 40.99200 25.00000
C  42.14400 39.98400 24.14000
C  42.12000 40.42400 22.66200
C  41.93300 42.03800 22.79000
C  41.53700 42.17500 24.32700
C  43.28400 40.02000 21.78800
C  40.88100 42.49300 21.78600
C  39.38000 42.62400 22.32400
N  41.12600 42.82600 27.17400
C  40.90400 43.72900 26.18300
C  40.41100 44.93600 26.73000
C  40.40700 44.75500 28.14000
C  40.79200 43.42000 28.37200
C  40.16200 46.21400 25.96300
C  40.17700 45.40000 29.34000
O  39.90000 46.58700 29.56800
C  40.39800 44.36600 30.47100
C  41.38800 44.91800 31.39500
O  42.57700 44.75800 31.20000
O  40.85300 45.61300 32.42300
C  41.73100 46.39200 33.30900
H  42.29800 37.49700 30.10600
H  42.61600 37.95800 23.78300
H  41.24300 44.17600 23.93900
H  41.75300 41.87900 32.16400
H  40.50600 39.13100 31.76000
H  43.41400 39.59100 31.90700
H  42.46700 38.44500 32.91700
H  42.40200 40.15000 33.37500
H  39.27700 40.70600 32.83800
H  38.89300 41.98400 31.70900
H  39.10900 43.48300 32.97900
H  40.71600 43.03300 33.71900
H  42.40800 34.98800 28.67900
H  43.62700 35.90800 29.50000
H  44.09600 35.05000 28.05300
H  42.90400 33.80400 26.30800
H  44.52700 34.60400 26.17900
H  43.83100 33.60700 24.82200
H  41.21400 40.09800 22.15200
H  42.82800 42.58700 22.49700
H  42.94600 39.86500 20.76300
H  43.57200 39.05100 22.19400
H  44.12000 40.71600 21.85900
H  40.89400 42.04200 20.79300
H  41.13200 43.50300 21.46300
H  39.34300 42.38600 23.38800
H  38.68300 41.88300 21.93400
H  38.89900 43.59400 22.19700
H  39.95800 45.96900 24.92100
H  40.98800 46.92200 26.04200
H  39.32800 46.70800 26.46200
H  39.44100 44.47800 30.98100
H  41.61100 46.04400 34.33500
H  41.33900 47.40300 33.42600
H  42.77300 46.47700 33.00100

