158

Mg 49.50800 44.67900 42.83600
C  46.21400 45.24200 41.79800
C  49.22200 41.48100 41.65500
C  52.87900 44.48000 42.84000
C  49.88000 48.27100 43.03100
N  47.93100 43.51500 41.89200
C  46.65400 43.89900 41.64000
C  45.75700 42.74700 40.96700
C  46.63700 41.53600 41.29500
C  48.01800 42.15900 41.66200
C  46.08500 40.44500 42.25000
C  45.30800 42.98900 39.47900
C  43.84000 43.18000 39.11700
H  43.48800 42.97100 37.64200
N  50.85400 43.16000 42.49500
C  50.55200 41.92500 41.99700
C  51.78200 41.16700 41.81700
C  52.80600 41.97200 42.32400
C  52.21200 43.24900 42.63700
C  51.87200 39.90700 41.01000
C  54.26300 41.54200 42.57100
O  54.56700 40.40100 42.24700
C  55.33100 42.36900 43.21600
N  51.13300 46.19200 43.02000
C  52.40200 45.81300 43.15200
C  53.35800 46.98700 43.35700
C  52.37900 48.24100 43.56700
C  51.04500 47.56100 43.19700
C  54.35400 46.79200 44.55800
C  52.68800 49.38300 42.59100
C  53.09900 50.66700 43.29800
N  48.25700 46.46400 42.65600
C  48.61300 47.82600 42.70900
C  47.34400 48.62400 42.47000
C  46.37100 47.61800 42.13100
C  47.01200 46.35000 42.16800
C  47.35900 50.19500 42.42300
C  45.03500 47.37400 41.68800
O  44.09500 48.13500 41.40500
C  44.85800 45.85700 41.47500
C  43.84200 45.50300 42.37300
O  43.91600 45.72200 43.55700
O  42.75800 44.90300 41.68400
C  41.58700 44.55200 42.48600
H  49.14200 40.44400 41.32200
H  53.96500 44.38900 42.77800
H  49.88300 49.35600 43.15300
H  44.83400 42.86200 41.53700
H  46.95100 41.06000 40.36600
H  46.03900 39.52600 41.66600
H  45.14100 40.79600 42.66700
H  46.76700 40.35400 43.09600
H  45.69600 42.26800 38.75900
H  45.74600 43.91500 39.10700
H  43.49700 44.14300 39.49500
H  43.34900 42.34400 39.61600
H  52.40700 39.12000 41.54100
H  52.60200 40.08500 40.22000
H  50.84300 39.67300 40.73800
H  55.71900 43.16400 42.57900
H  56.14600 41.79600 43.65800
H  54.84200 42.88400 44.04200
H  53.99900 47.25000 42.51500
H  52.37900 48.56800 44.60700
H  55.38100 46.84000 44.19800
H  54.07900 45.80500 44.93200
H  54.25800 47.53500 45.35000
H  51.90600 49.57500 41.85600
H  53.57300 49.12300 42.01000
H  52.88800 50.68800 44.36700
H  52.54100 51.49100 42.85200
H  54.16400 50.88200 43.20900
H  46.33300 50.56200 42.40700
H  47.82500 50.38700 41.45600
H  47.86900 50.79000 43.18000
H  44.51800 45.70000 40.45200
H  41.66800 43.56600 42.94300
H  40.64700 44.39000 41.95800
H  41.36600 45.35300 43.19000
Mg 47.43800 34.02200 26.57300
C  45.91600 32.81200 29.40000
C  47.88200 37.01200 28.28900
C  48.55000 35.49500 23.59000
C  46.62200 31.19000 24.69200
N  47.02100 34.80000 28.59500
C  46.44400 34.07900 29.60200
C  46.70100 34.73000 30.93100
C  46.97600 36.22600 30.52300
C  47.35500 35.99700 29.05800
C  45.73100 37.22600 30.66100
C  47.86800 34.07100 31.65500
C  47.85000 34.32200 33.16400
H  46.67500 35.09900 33.68800
N  48.17400 35.99700 26.05600
C  48.33700 36.99400 26.93900
C  49.11500 38.07600 26.31300
C  49.22200 37.69200 24.92100
C  48.67400 36.33400 24.79200
C  49.42700 39.41200 26.96800
C  49.95300 38.45000 23.78000
O  50.15300 37.98700 22.68000
C  50.32600 39.95100 24.06400
N  47.24500 33.50100 24.38300
C  48.03500 34.16500 23.45800
C  48.24300 33.41400 22.10400
C  47.66900 32.03600 22.53500
C  47.16700 32.23900 23.95000
C  47.59100 34.12900 20.89600
C  48.66100 30.80400 22.44200
C  49.76700 30.62900 23.50700
N  46.42900 32.37600 26.89200
C  46.23800 31.26200 26.10000
C  45.62400 30.20100 26.92100
C  45.43900 30.83200 28.19500
C  45.94700 32.12100 28.16500
C  45.27700 28.86900 26.48000
C  44.84800 30.63800 29.42700
O  44.06300 29.73400 29.73100
C  45.01400 31.86500 30.31300
C  45.41600 31.39700 31.61300
O  46.52100 31.13700 31.99000
O  44.29400 31.32500 32.40500
C  44.37600 31.41200 33.90200
H  48.32700 37.75800 28.95100
H  49.10700 35.80700 22.70400
H  46.54500 30.28200 24.09100
H  45.74900 34.66700 31.45900
H  47.88100 36.51500 31.05800
H  44.86500 36.77600 31.14700
H  45.50300 37.61500 29.66900
H  45.96300 38.09000 31.28300
H  48.82700 34.34100 31.21400
H  47.86200 32.98300 31.57900
H  48.69100 34.93200 33.49500
H  47.93500 33.30900 33.55700
H  50.50800 39.47700 27.08700
H  48.98500 39.53800 27.95700
H  49.16100 40.28700 26.37400
H  50.72900 40.28800 23.10900
H  51.14100 39.87600 24.78400
H  49.48300 40.55000 24.40700
H  49.31300 33.48700 21.91100
H  46.85500 31.86800 21.82900
H  46.87400 33.44000 20.45000
H  48.40900 34.32600 20.20300
H  47.11400 35.06900 21.17400
H  49.13500 30.98000 21.47600
H  48.09500 29.87600 22.36700
H  50.70200 30.94900 23.04500
H  49.86100 29.62100 23.91200
H  49.55100 31.35200 24.29400
H  46.19200 28.55300 25.97800
H  44.52600 28.90800 25.69100
H  44.88300 28.21800 27.26000
H  44.00000 32.25400 30.41300
H  44.80900 30.49600 34.30400
H  43.38700 31.61400 34.31400
H  45.00500 32.26200 34.16800

