158

Mg 6.87000 53.01100 41.37700
C  6.22200 49.58500 41.35300
C  10.13500 52.49200 40.60600
C  7.28100 56.45300 40.88500
C  3.41600 53.66300 41.67900
N  8.00000 51.26100 41.04000
C  7.57600 49.93700 41.00300
C  8.81300 49.06400 40.63100
C  10.06600 49.90100 40.73900
C  9.36900 51.31600 40.82100
C  11.03500 49.81200 41.98400
C  8.73500 48.25100 39.34500
C  8.73800 48.99000 38.05100
H  7.64900 48.73400 37.00100
N  8.48500 54.33200 40.92500
C  9.78200 53.89800 40.68100
C  10.68700 55.01400 40.39700
C  9.86800 56.17600 40.36700
C  8.46400 55.71400 40.72400
C  12.16800 54.90100 40.18000
C  10.35900 57.59900 40.09100
O  11.54600 57.78100 39.93200
C  9.38800 58.82400 39.89300
N  5.57600 54.81900 41.43800
C  6.01500 56.11800 41.16200
C  4.84100 57.09400 41.49500
C  3.67400 56.20600 41.38000
C  4.24400 54.75800 41.56200
C  4.90900 57.95200 42.78400
C  2.86500 56.31300 40.09300
C  1.45100 55.79900 40.28700
N  5.13800 51.89300 41.71700
C  3.82300 52.28700 41.83500
C  3.06100 51.08400 42.07000
C  3.96500 50.01500 41.84600
C  5.25900 50.54900 41.63500
C  1.54500 51.01300 42.19600
C  3.99700 48.54600 41.73600
O  3.09600 47.69200 41.80400
C  5.49900 48.24500 41.48000
C  5.63200 47.44700 40.22200
O  5.45800 47.93200 39.16200
O  5.88700 46.10000 40.45700
C  5.61700 45.29600 39.30700
H  11.18100 52.34700 40.32800
H  7.35900 57.53600 40.76400
H  2.34600 53.81200 41.83600
H  8.97500 48.37700 41.46200
H  10.78900 49.80900 39.92800
H  11.13700 50.67600 42.64200
H  11.96100 49.45700 41.53400
H  10.70700 48.99300 42.62400
H  7.92000 47.52900 39.31500
H  9.64300 47.65100 39.41000
H  9.59300 48.57000 37.52000
H  8.92000 50.06100 38.14700
H  12.72000 55.70500 40.66500
H  12.35700 54.80100 39.11100
H  12.43600 53.96800 40.67600
H  8.65900 58.51100 39.14500
H  9.93000 59.71900 39.58800
H  8.91300 58.96800 40.86400
H  4.80000 57.72700 40.60900
H  3.07600 56.40600 42.27000
H  5.55900 58.80700 42.59800
H  5.39900 57.23000 43.43700
H  3.88600 58.20100 43.06600
H  3.35700 55.67300 39.36000
H  2.79800 57.33000 39.70600
H  1.35600 54.99400 39.55800
H  0.72000 56.53400 39.95000
H  1.26300 55.49700 41.31800
H  1.23200 51.02900 43.24000
H  1.16200 50.25700 41.51000
H  1.13100 51.94600 41.81500
H  5.87700 47.70500 42.34800
H  5.70300 44.25900 39.63300
H  6.30600 45.38400 38.46700
H  4.58200 45.57700 39.11200
Mg -11.58900 16.17500 41.48100
C  -8.45300 14.66400 41.18500
C  -10.09400 19.05600 40.45200
C  -14.65100 17.42200 40.87800
C  -13.02300 13.06700 42.16900
N  -9.55600 16.70400 40.60700
C  -8.38600 15.94600 40.71000
C  -7.14800 16.72300 40.32100
C  -7.63700 18.17200 40.46000
C  -9.18900 17.98900 40.50600
C  -7.09700 18.94000 41.74100
C  -6.58100 16.42400 38.88400
C  -5.05600 16.43400 38.76200
H  -4.64500 16.93500 37.40300
N  -12.33800 17.91600 40.86700
C  -11.54700 19.02200 40.58300
C  -12.41400 20.14400 40.25500
C  -13.78500 19.76500 40.33800
C  -13.60800 18.31100 40.71800
C  -11.89700 21.46900 39.94500
C  -15.02500 20.49600 39.91600
O  -14.89900 21.62600 39.49200
C  -16.43000 19.96700 40.06300
N  -13.63100 15.32100 41.46100
C  -14.67700 16.03700 41.26400
C  -15.97200 15.22800 41.48300
C  -15.44300 13.82300 41.94200
C  -13.93700 14.10900 41.96900
C  -16.94900 15.92800 42.51800
C  -15.72700 12.70800 40.96600
C  -16.18500 11.36200 41.63100
N  -10.90500 14.24500 41.82900
C  -11.55700 13.09400 42.19500
C  -10.57800 12.05600 42.48900
C  -9.33200 12.62800 42.13400
C  -9.60800 13.90900 41.63600
C  -10.90700 10.63000 42.96400
C  -7.87400 12.43800 42.10500
O  -7.08600 11.62400 42.60700
C  -7.29300 13.71600 41.40200
C  -6.29300 14.28300 42.39300
O  -6.57700 14.84200 43.45000
O  -5.02500 14.01300 41.98800
C  -3.98600 14.55800 42.82300
H  -9.66800 20.03900 40.24100
H  -15.63900 17.87400 40.77500
H  -13.51700 12.10600 42.32800
H  -6.32500 16.50800 41.00400
H  -7.49000 18.73500 39.53800
H  -7.95300 19.09200 42.39900
H  -6.87000 19.99100 41.56200
H  -6.35200 18.31700 42.23500
H  -6.87100 17.03800 38.03200
H  -6.80500 15.38300 38.65200
H  -4.66200 15.42200 38.85800
H  -4.56700 17.03400 39.53000
H  -12.14800 21.66000 38.90200
H  -10.84700 21.70200 40.11800
H  -12.33900 22.25200 40.56100
H  -17.24700 20.68100 39.96400
H  -16.47700 19.65600 41.10700
H  -16.59500 19.08400 39.44500
H  -16.42500 15.20100 40.49100
H  -15.86300 13.52200 42.90100
H  -17.89100 16.16200 42.02100
H  -16.45700 16.85400 42.81700
H  -17.16300 15.25200 43.34600
H  -14.99700 12.42200 40.20900
H  -16.63900 12.94700 40.41900
H  -16.21400 11.47000 42.71500
H  -15.47700 10.61600 41.27200
H  -17.22700 11.06700 41.50600
H  -11.84500 10.68300 43.51600
H  -10.10400 10.12800 43.50400
H  -11.07100 10.15500 41.99700
H  -6.83200 13.40800 40.46300
H  -4.17100 15.63200 42.83400
H  -3.00800 14.19500 42.50600
H  -4.18100 14.24200 43.84800

