158

Mg 26.53200 50.07100 26.37300
C  24.41700 51.47200 28.72500
C  28.71600 49.13400 28.73300
C  28.58300 48.78200 23.87200
C  24.35900 51.33000 23.88600
N  26.58600 50.28200 28.46800
C  25.54800 50.75400 29.22800
C  25.82300 50.45600 30.81100
C  27.26800 49.86600 30.74300
C  27.52200 49.68800 29.21700
C  28.34500 50.85300 31.31600
C  24.72200 49.69500 31.49200
C  24.22400 50.13400 32.89700
H  25.12800 50.79200 33.98300
N  28.29000 49.06000 26.33400
C  29.11600 48.82300 27.40400
C  30.24800 48.10100 27.03600
C  30.15800 47.87900 25.62100
C  28.89300 48.53700 25.20000
C  31.31800 47.59100 28.01500
C  31.09300 47.01600 24.75900
O  30.82700 46.63500 23.66100
C  32.46800 46.77600 25.28500
N  26.59300 50.22700 24.13500
C  27.43900 49.49600 23.38900
C  27.16200 49.61900 21.89600
C  25.70300 50.29300 21.86500
C  25.51100 50.67000 23.35000
C  28.29700 50.34000 21.13400
C  24.62700 49.37100 21.22000
C  24.12500 48.15300 21.96500
N  24.69700 51.15000 26.26900
C  23.96000 51.57600 25.22900
C  22.80800 52.29900 25.71700
C  22.97400 52.32700 27.07000
C  24.14500 51.61100 27.38200
C  21.80900 53.03300 24.90500
C  22.36800 52.79800 28.29800
O  21.43300 53.54000 28.55400
C  23.29000 52.23900 29.42300
C  23.68600 53.42000 30.24600
O  24.21200 54.46600 29.87500
O  23.06600 53.36600 31.45400
C  23.19600 54.45200 32.46600
H  29.23500 48.80200 29.63500
H  29.31300 48.35500 23.18100
H  23.55700 51.50500 23.16600
H  25.77100 51.40300 31.34800
H  27.32700 48.88400 31.21200
H  29.15300 50.92700 30.58900
H  28.65400 50.28700 32.19500
H  28.00300 51.85100 31.59000
H  25.03500 48.65600 31.60000
H  23.91100 49.61800 30.76800
H  24.09100 49.16500 33.37800
H  23.31400 50.70500 32.71400
H  31.49400 46.53000 27.84000
H  30.84200 47.75500 28.98200
H  32.23100 48.18000 27.92500
H  32.84300 47.65900 25.80200
H  33.22900 46.57200 24.53100
H  32.54300 45.92800 25.96700
H  27.17600 48.62000 21.46000
H  25.64200 51.25000 21.34800
H  28.17500 51.40800 20.95300
H  28.57700 49.81400 20.22200
H  29.25800 50.33800 21.64900
H  25.07800 49.17800 20.24600
H  23.69400 49.84500 20.91500
H  23.08500 48.39400 22.18600
H  24.77500 48.19900 22.83900
H  24.27400 47.25400 21.36700
H  21.85600 54.07700 25.21600
H  20.80600 52.62000 25.01300
H  22.16700 52.98900 23.87700
H  22.75100 51.50000 30.01800
H  23.70000 55.31500 32.02900
H  23.78100 54.11800 33.32200
H  22.19900 54.75900 32.78200
Mg 9.25100 48.59300 25.64100
C  7.11800 49.28500 28.24500
C  11.82500 49.67000 27.54900
C  11.25700 47.73500 23.16900
C  6.48700 48.21200 23.53000
N  9.47600 49.34800 27.66500
C  8.46100 49.56000 28.58500
C  9.06100 49.94300 29.94900
C  10.38500 50.62300 29.49900
C  10.64000 49.78500 28.19100
C  10.33400 52.12100 29.07700
C  9.34800 48.79200 30.95000
C  8.84500 48.99600 32.38200
H  8.80200 47.82400 33.37200
N  11.29200 48.72900 25.38600
C  12.20300 49.11300 26.28500
C  13.51800 48.97500 25.73200
C  13.35000 48.36300 24.48900
C  11.94400 48.18900 24.31900
C  14.79500 49.30100 26.51400
C  14.33000 47.97300 23.37300
O  13.95900 47.46800 22.33600
C  15.85500 48.08100 23.53400
N  8.87300 48.25100 23.58400
C  9.88900 47.76300 22.76600
C  9.31000 46.93300 21.50300
C  7.85400 47.51900 21.45500
C  7.71400 47.98000 22.99000
C  10.12900 47.26400 20.23600
C  6.88300 46.46700 20.91800
C  7.14000 46.08100 19.41800
N  7.20600 48.68500 25.80500
C  6.19000 48.48700 24.86300
C  4.88100 48.54400 25.54500
C  5.21300 48.83500 26.90700
C  6.65300 48.92000 26.99100
C  3.53800 48.42300 24.97900
C  4.70300 49.02700 28.22200
O  3.54900 49.13800 28.58200
C  5.85800 49.38000 29.08000
C  5.84800 48.43500 30.28800
O  6.56100 47.47100 30.47900
O  5.01900 48.97700 31.29500
C  5.00800 48.17800 32.55100
H  12.62800 50.07400 28.16700
H  11.75600 47.17900 22.37300
H  5.67500 47.99400 22.83300
H  8.43100 50.69100 30.43300
H  11.18400 50.57600 30.24000
H  9.34800 52.54200 29.27400
H  10.67700 52.41000 28.08300
H  10.97500 52.59600 29.82000
H  10.39600 48.49700 30.98300
H  8.89100 47.92700 30.46900
H  7.90500 49.52900 32.24000
H  9.59400 49.68300 32.77500
H  15.08300 50.33900 26.34600
H  15.62800 48.77200 26.05200
H  14.61300 49.10100 27.57000
H  16.10600 47.35900 24.31000
H  16.22700 49.06300 23.82600
H  16.46700 47.66600 22.73300
H  9.47600 45.89700 21.79800
H  7.71200 48.41300 20.84800
H  10.96300 47.93000 20.45500
H  9.49500 47.87100 19.58900
H  10.56700 46.51800 19.57300
H  5.87500 46.87800 20.87700
H  6.97500 45.57200 21.53400
H  7.87200 45.28100 19.30500
H  7.62400 46.86300 18.83200
H  6.19400 45.77200 18.97300
H  3.50600 48.56900 23.89900
H  2.87300 49.09900 25.51700
H  3.12300 47.45900 25.27300
H  5.68100 50.38500 29.46200
H  5.73300 48.57500 33.26200
H  5.27000 47.15000 32.30200
H  3.99800 48.31500 32.93700

