158

Mg 25.00100 0.99500 28.97200
C  27.16800 0.58100 31.69100
C  22.35800 0.89000 31.07500
C  22.91600 0.94800 26.12700
C  27.77400 0.36100 26.79900
N  24.73800 0.70000 31.08800
C  25.77400 0.69100 32.02600
C  25.21500 0.94300 33.43600
C  23.72000 0.91200 33.25000
C  23.59200 0.82500 31.71900
C  23.02300 -0.35500 34.03200
C  25.91700 2.19300 34.12000
C  25.08100 2.92100 35.27900
H  25.84500 3.06900 36.57100
N  22.87200 0.89700 28.67600
C  22.00000 0.88900 29.62200
C  20.67100 0.91500 29.05100
C  20.80100 0.94800 27.65200
C  22.22300 0.89500 27.38900
C  19.41200 0.84300 29.91300
C  19.72700 1.18000 26.57800
O  20.01000 1.44500 25.42600
C  18.22900 1.13400 26.95200
N  25.26100 0.63600 26.75100
C  24.27900 0.79200 25.82200
C  24.80500 0.98300 24.46000
C  26.35400 0.77300 24.64700
C  26.49800 0.54000 26.16700
C  24.23800 0.15200 23.30800
C  27.16800 1.98200 24.06200
C  27.22600 3.22800 24.96100
N  27.03900 0.63000 29.18700
C  28.01900 0.35700 28.24500
C  29.25100 -0.04500 28.92800
C  28.93200 0.11200 30.29400
C  27.61500 0.47200 30.37900
C  30.54100 -0.59500 28.25900
C  29.47100 0.12000 31.59500
O  30.54700 -0.31700 31.92700
C  28.36800 0.48100 32.66300
C  28.25500 -0.60400 33.67400
O  27.52900 -1.56800 33.56100
O  29.03200 -0.34700 34.75100
C  28.85500 -1.16800 35.94900
H  21.51700 1.03000 31.75700
H  22.23300 0.94600 25.27500
H  28.50600 0.17000 26.01100
H  25.60600 0.09300 33.99600
H  23.22600 1.84000 33.53900
H  23.81400 -0.96500 34.46800
H  22.49200 -0.93400 33.27600
H  22.33000 -0.07100 34.82400
H  26.24000 2.88100 33.33800
H  26.78000 1.68500 34.55100
H  24.18600 2.33800 35.49600
H  24.72800 3.90900 34.98100
H  18.72000 0.11000 29.49700
H  18.88400 1.78700 29.78100
H  19.60000 0.60300 30.95900
H  17.70700 1.33800 26.01700
H  17.94300 1.77900 27.78200
H  18.00600 0.09300 27.18100
H  24.61500 2.03800 24.26500
H  26.61800 -0.11400 24.07100
H  23.53400 -0.59400 23.67900
H  24.95700 -0.37900 22.68400
H  23.61800 0.76800 22.65600
H  26.76100 2.16900 23.06800
H  28.20200 1.67800 23.89400
H  28.25900 3.52800 25.13800
H  26.71000 2.98200 25.88900
H  26.70400 4.15600 24.73100
H  31.40000 -0.27200 28.84800
H  30.68100 -0.23000 27.24100
H  30.31300 -1.66000 28.28800
H  28.61500 1.38100 33.22500
H  29.19200 -2.17800 35.71400
H  27.86400 -1.21700 36.40000
H  29.41000 -0.69400 36.75900
Mg 41.52800 41.88900 26.84100
C  40.45800 44.23400 29.30900
C  42.22800 39.86600 29.26100
C  42.84900 39.90700 24.51900
C  41.23000 44.44900 24.51600
N  41.31000 42.11900 29.03300
C  40.75000 43.01000 29.87200
C  40.72200 42.63700 31.37500
C  41.61600 41.30800 31.36100
C  41.75000 41.04700 29.80100
C  42.97500 41.34900 32.03200
C  39.27600 42.52600 31.97100
C  39.00300 43.29900 33.28700
H  38.56700 42.46600 34.48000
N  42.34600 40.09800 26.85600
C  42.54500 39.41200 27.98600
C  43.10500 38.12700 27.68400
C  43.27500 38.07900 26.24400
C  42.79400 39.40500 25.80000
C  43.26400 37.02000 28.72000
C  43.75600 37.00000 25.30800
O  43.85100 37.18200 24.12300
C  44.07000 35.65500 25.86600
N  41.73000 42.12500 24.65200
C  42.42600 41.17800 24.00300
C  42.77200 41.68600 22.56000
C  41.97200 43.02800 22.45800
C  41.66500 43.21800 23.97400
C  44.23300 41.74000 22.20100
C  40.66300 42.92100 21.66400
C  40.27800 44.29100 21.27100
N  40.90100 43.85000 26.83400
C  40.87000 44.78900 25.84400
C  40.46300 46.10100 26.36000
C  40.20000 45.87500 27.71100
C  40.54100 44.54300 27.95800
C  40.35800 47.52100 25.72400
C  39.64600 46.52400 28.92900
O  39.23500 47.64500 29.22600
C  39.87200 45.40500 29.98800
C  40.78900 45.97600 30.99200
O  41.98300 46.03900 30.85700
O  40.13500 46.38900 32.10800
C  40.96500 46.62800 33.34000
H  42.45100 39.17700 30.07900
H  43.32600 39.27300 23.76900
H  41.19900 45.24400 23.76900
H  41.30200 43.38900 31.90900
H  41.18000 40.50100 31.95000
H  43.00700 41.92900 32.95400
H  43.67800 41.88400 31.39400
H  43.39800 40.34400 32.03200
H  38.95500 41.48900 32.06200
H  38.64700 43.02400 31.23200
H  38.23400 44.05600 33.13300
H  39.94400 43.79600 33.52500
H  43.57400 37.50500 29.64600
H  44.18700 36.51500 28.43700
H  42.46900 36.27500 28.73000
H  43.20500 35.23900 26.38200
H  44.87900 35.87500 26.56200
H  44.45500 35.02000 25.06800
H  42.40200 40.92000 21.87900
H  42.66100 43.86200 22.32200
H  44.56100 42.69300 22.61700
H  44.42400 41.66300 21.13000
H  44.68800 40.91200 22.74500
H  39.88700 42.47200 22.28400
H  40.77100 42.39700 20.71400
H  39.67600 44.64500 22.10800
H  39.71400 44.37000 20.34200
H  41.08800 45.01800 21.21700
H  40.89700 48.21200 26.37200
H  39.28300 47.62600 25.58000
H  40.86000 47.61000 24.76100
H  38.91900 45.15900 30.45800
H  42.00200 46.29400 33.31800
H  40.55500 46.16500 34.23700
H  40.98500 47.69300 33.56900

