158

Mg 39.49300 9.38400 29.32800
C  41.31200 10.59100 31.90300
C  37.62100 7.50600 31.60600
C  37.94400 7.94100 26.74000
C  41.97800 10.51800 27.03300
N  39.34800 9.16200 31.43900
C  40.21700 9.86400 32.31100
C  39.79300 9.73000 33.71900
C  38.75400 8.50400 33.70400
C  38.54500 8.34100 32.17200
C  39.28700 7.16200 34.31900
C  39.19300 11.07600 34.22900
C  39.15000 11.10800 35.70900
H  39.60100 12.41100 36.35700
N  37.88400 8.04000 29.21000
C  37.18000 7.37400 30.22400
C  36.10000 6.59100 29.61500
C  36.15900 6.78200 28.19900
C  37.37100 7.61700 28.00000
C  35.16000 5.86900 30.61800
C  35.27000 6.13200 27.07300
O  35.49700 6.41400 25.87500
C  34.22000 5.16000 27.46200
N  39.98400 9.22600 27.18900
C  39.09400 8.61700 26.38700
C  39.44600 8.85400 24.94400
C  40.74900 9.71400 25.00800
C  41.00100 9.81200 26.49300
C  39.67900 7.63300 24.05300
C  40.61300 11.09600 24.27900
C  39.63300 12.11700 24.80900
N  41.29100 10.31500 29.44200
C  42.15600 10.68900 28.42200
C  43.26000 11.33200 29.10000
C  43.01300 11.30200 30.45900
C  41.75800 10.66900 30.60400
C  44.48000 11.91200 28.35400
C  43.46500 11.75500 31.75300
O  44.52000 12.33000 31.99100
C  42.40700 11.40200 32.78000
C  43.07800 10.45500 33.77500
O  43.82300 9.53800 33.56500
O  42.79100 10.85400 35.03300
C  43.09100 10.04500 36.23200
H  37.04900 6.92100 32.33000
H  37.46800 7.50100 25.86100
H  42.68300 10.99500 26.34800
H  40.67100 9.60500 34.35200
H  37.78600 8.75100 34.14000
H  40.27100 7.37100 34.73900
H  39.42500 6.43200 33.52200
H  38.64500 6.77700 35.11100
H  38.21300 11.07600 33.75200
H  39.57500 11.98200 33.75600
H  39.67100 10.25900 36.15200
H  38.09900 11.11400 36.00000
H  35.38700 5.92500 31.68200
H  35.07900 4.81900 30.33400
H  34.16800 6.30700 30.51000
H  33.67500 5.55500 28.31900
H  34.77400 4.25200 27.70400
H  33.60400 5.04000 26.57100
H  38.58200 9.37900 24.53500
H  41.54500 9.20800 24.46100
H  38.88700 7.44600 23.32800
H  39.71200 6.72900 24.66100
H  40.59500 7.60300 23.46300
H  40.28400 10.93100 23.25300
H  41.53700 11.67000 24.20700
H  39.24200 11.92800 25.80900
H  38.75000 12.02000 24.17700
H  40.03200 13.12900 24.88600
H  44.21100 12.15200 27.32600
H  45.33800 11.25700 28.50100
H  44.74800 12.78500 28.95000
H  41.98200 12.30700 33.21400
H  42.94300 9.00300 35.95000
H  42.51400 10.26600 37.13000
H  44.16900 10.12600 36.36800
Mg 48.36500 34.51300 27.67000
C  46.38200 33.19200 30.19000
C  48.62000 37.46400 29.56100
C  49.55300 36.11700 24.97100
C  47.27300 31.84500 25.63300
N  47.71000 35.14200 29.66400
C  46.94300 34.43900 30.50300
C  47.04100 35.10300 31.95100
C  47.27300 36.58500 31.53300
C  47.94000 36.40000 30.17600
C  46.07900 37.59100 31.48700
C  48.26400 34.45800 32.67400
C  48.52900 34.98000 34.10700
H  47.64600 36.01100 34.78500
N  49.26200 36.50400 27.33000
C  49.24200 37.52600 28.24500
C  49.82600 38.64000 27.63300
C  50.16900 38.39100 26.25000
C  49.68800 36.94300 26.11400
C  49.95100 39.93700 28.40900
C  50.63000 39.25600 25.16500
O  50.72400 38.86400 24.02600
C  50.76300 40.72500 25.46300
N  48.35200 34.05100 25.61700
C  48.91300 34.88500 24.72800
C  48.95300 34.30500 23.30500
C  48.24800 32.94400 23.55200
C  47.84800 32.92800 25.03600
C  48.27300 35.17700 22.09400
C  49.08500 31.67700 23.04800
C  50.22700 31.06500 24.00500
N  47.19300 32.76000 27.87300
C  46.94300 31.70500 26.99700
C  46.16400 30.71200 27.72900
C  45.87600 31.30800 28.95700
C  46.52900 32.50600 28.99100
C  45.75600 29.28200 27.24700
C  45.17600 31.09000 30.18100
O  44.54000 30.10800 30.54200
C  45.42300 32.39100 31.05700
C  45.77600 31.95600 32.45800
O  46.75800 31.24000 32.79200
O  44.79700 32.47200 33.28800
C  44.96400 32.21900 34.71100
H  48.45900 38.41500 30.07200
H  49.74800 36.59000 24.00600
H  47.10000 30.97800 24.99200
H  46.23700 34.90300 32.65900
H  48.09800 37.02200 32.09600
H  45.15800 37.06700 31.23200
H  46.22100 38.26900 30.64500
H  46.02100 38.21200 32.38100
H  49.06200 34.59200 31.94500
H  48.21200 33.37000 32.66400
H  49.56800 35.31000 34.14900
H  48.47600 34.08400 34.72500
H  50.86700 40.44300 28.10200
H  50.12700 39.69900 29.45900
H  49.08800 40.58900 28.28200
H  50.03200 41.06800 26.19500
H  50.69800 41.37600 24.59100
H  51.74000 40.86600 25.92500
H  50.04200 34.29400 23.27100
H  47.30600 32.93200 23.00300
H  48.99300 35.38400 21.30300
H  47.98600 36.12400 22.55200
H  47.42800 34.61500 21.69700
H  49.40400 32.05400 22.07600
H  48.28000 30.94800 22.96300
H  49.65700 30.27800 24.49800
H  50.49900 31.86200 24.69700
H  51.10600 30.61300 23.54400
H  45.31200 28.84300 28.14000
H  46.64400 28.75900 26.89400
H  44.96100 29.48700 26.53000
H  44.47300 32.91500 31.16100
H  45.94400 31.87000 35.03600
H  44.29600 31.44100 35.08100
H  44.64100 33.05900 35.32600

