158

Mg 25.73700 1.69900 29.67300
C  27.87900 1.38600 32.28500
C  23.19400 2.20200 31.66400
C  23.86800 1.81100 26.88800
C  28.60400 0.89100 27.49600
N  25.62200 1.84300 31.75500
C  26.66200 1.81300 32.66500
C  26.13800 2.06000 34.09100
C  24.53600 2.03000 33.87300
C  24.40500 2.06400 32.34300
C  23.84800 0.84900 34.51800
C  26.64300 3.43100 34.77500
C  27.49000 3.29900 36.07200
H  27.35300 4.20300 37.34400
N  23.78900 2.03900 29.31700
C  22.84000 2.17400 30.31600
C  21.54300 2.20300 29.64000
C  21.73300 2.12300 28.25900
C  23.18300 2.01000 28.11000
C  20.21000 2.19300 30.34100
C  20.69100 1.88800 27.18600
O  21.00300 1.58300 26.02100
C  19.21400 2.16000 27.40700
N  26.21300 1.27400 27.39100
C  25.19500 1.46100 26.57200
C  25.77000 1.47800 25.18000
C  27.30300 1.17600 25.31400
C  27.40400 1.16300 26.84700
C  25.03800 0.53300 24.18400
C  28.33700 2.12500 24.61700
C  29.54700 1.45300 23.90000
N  27.69200 1.07600 29.75400
C  28.74200 0.85300 28.86800
C  29.95900 0.50000 29.59400
C  29.65600 0.72300 30.91200
C  28.27700 1.08800 30.97500
C  31.22000 -0.04400 29.02300
C  30.17400 0.57300 32.21200
O  31.24700 0.09300 32.54600
C  29.00700 1.06100 33.24400
C  28.62400 -0.01400 34.22700
O  28.07600 -1.05400 33.97300
O  29.13900 0.33700 35.42700
C  28.73000 -0.59200 36.48200
H  22.42800 2.61800 32.32200
H  23.27300 1.88100 25.97500
H  29.40700 0.76000 26.76900
H  26.35400 1.25700 34.79600
H  24.13600 2.90600 34.38400
H  23.19300 1.39600 35.19600
H  24.49200 0.04100 34.86600
H  23.13600 0.39300 33.82900
H  25.79000 4.05200 35.04900
H  27.28100 4.08000 34.17500
H  28.46300 3.39800 35.59200
H  27.49700 2.24800 36.36200
H  19.64700 3.09600 30.10200
H  20.32100 2.01500 31.41000
H  19.75100 1.30100 29.91500
H  19.06100 3.05800 28.00600
H  18.78400 1.30400 27.92800
H  18.70600 2.16500 26.44300
H  25.74600 2.52900 24.89400
H  27.49700 0.21300 24.84100
H  24.00900 0.89300 24.15400
H  25.03700 -0.50300 24.52100
H  25.37500 0.58100 23.14800
H  28.63400 2.83400 25.39000
H  27.81900 2.75200 23.89100
H  30.27900 1.34600 24.70100
H  30.00700 2.06400 23.12400
H  29.26500 0.49700 23.46000
H  31.54800 -0.71200 29.81900
H  31.93200 0.74500 28.77900
H  31.17100 -0.64900 28.11800
H  29.26500 1.95500 33.81000
H  27.98200 -0.03200 37.04400
H  29.59200 -0.70300 37.13900
H  28.30000 -1.53500 36.14500
Mg 35.61200 48.57300 26.15400
C  36.02700 46.54500 28.95200
C  34.89500 51.19600 28.17400
C  34.77200 50.24400 23.36500
C  36.60200 45.84100 24.16400
N  35.55300 48.82600 28.37200
C  35.70500 47.88200 29.32500
C  35.46500 48.41300 30.69700
C  34.94400 49.82300 30.42000
C  35.12400 49.99700 28.90500
C  33.42800 50.12600 30.77200
C  36.86100 48.41300 31.43700
C  36.83200 47.82400 32.80400
H  36.80600 48.84300 33.88100
N  35.01500 50.41700 25.81800
C  34.89900 51.40300 26.77000
C  34.66900 52.67400 26.11300
C  34.57100 52.40100 24.66000
C  34.70500 50.97500 24.60700
C  34.41700 53.90200 26.92200
C  34.33900 53.44400 23.48400
O  34.27200 53.17300 22.32500
C  34.12500 54.87200 23.92000
N  35.37400 48.02600 24.02300
C  35.21600 49.00600 23.08400
C  35.24500 48.37400 21.67500
C  35.99000 47.05900 21.96700
C  35.99900 46.95300 23.47000
C  33.92700 48.20800 20.99400
C  37.46200 46.97100 21.47700
C  38.66000 47.60500 22.31200
N  36.02200 46.62200 26.45500
C  36.53100 45.65800 25.57600
C  36.92300 44.46900 26.35400
C  36.62000 44.75500 27.65900
C  36.22300 46.13600 27.62500
C  37.49400 43.14400 25.96100
C  36.66300 44.22100 28.94800
O  36.91000 43.12000 29.35200
C  36.22500 45.41200 29.86700
C  34.99400 44.93600 30.51800
O  33.93000 44.85800 29.93800
O  35.36700 44.46500 31.74300
C  34.27000 43.91100 32.57100
H  34.66000 52.01200 28.86000
H  34.55000 50.79900 22.45000
H  37.06500 45.08100 23.53100
H  34.68200 47.75600 31.07400
H  35.58400 50.58500 30.86500
H  32.98700 49.34300 31.38900
H  32.77600 50.17100 29.89900
H  33.26600 50.95500 31.46100
H  37.36700 49.37800 31.45800
H  37.47500 47.77300 30.80400
H  37.65300 47.11600 32.91200
H  35.94000 47.21900 32.96800
H  34.94300 53.86100 27.87700
H  33.34400 54.06100 27.02800
H  34.87000 54.77500 26.45200
H  33.46100 55.14000 23.09900
H  35.01200 55.50500 23.93200
H  33.63000 54.92300 24.89000
H  35.94800 48.96600 21.09000
H  35.54300 46.14700 21.57100
H  33.72800 49.03600 20.31400
H  33.10500 48.20000 21.71000
H  33.81700 47.39800 20.27400
H  37.47100 47.62700 20.60600
H  37.81600 45.98500 21.18000
H  39.01700 48.41700 21.68000
H  39.39800 46.80500 22.35800
H  38.51500 47.96300 23.33200
H  38.30600 42.89300 26.64300
H  37.79200 43.10300 24.91300
H  36.77200 42.34300 26.11600
H  37.07700 45.52700 30.53700
H  34.07800 42.87800 32.27900
H  33.37700 44.53600 32.58900
H  34.70800 43.88800 33.56800

