158

Mg -2.26700 17.25700 27.09000
C  -2.98400 14.95800 29.63500
C  -2.51000 19.80700 29.34600
C  -2.06700 19.45700 24.48300
C  -2.67500 14.69600 24.74600
N  -2.71400 17.32100 29.25600
C  -2.88100 16.28400 30.10700
C  -2.98300 16.88200 31.51000
C  -2.93500 18.41200 31.42000
C  -2.74400 18.52100 29.88800
C  -4.19300 19.14600 32.08200
C  -1.83600 16.41100 32.49500
C  -1.87900 17.06900 33.99100
H  -1.89600 16.24800 35.24800
N  -2.19300 19.32600 26.93100
C  -2.24900 20.23700 28.00200
C  -2.08000 21.59700 27.58100
C  -1.69900 21.40500 26.19200
C  -2.00700 20.01900 25.77300
C  -2.39500 22.80200 28.56200
C  -1.12100 22.36200 25.34900
O  -0.72000 22.11600 24.27100
C  -0.93100 23.85300 25.78200
N  -2.59800 17.12200 24.98000
C  -2.40800 18.17000 24.16300
C  -2.55800 17.77000 22.64600
C  -2.73500 16.19100 22.67800
C  -2.55000 15.97300 24.23800
C  -3.56400 18.49100 21.75600
C  -1.92300 15.25400 21.72900
C  -0.53100 14.74100 22.24600
N  -2.58200 15.19900 27.11200
C  -2.69900 14.25800 26.09100
C  -2.86800 12.95800 26.61700
C  -2.92000 13.14900 28.04100
C  -2.84000 14.53000 28.27700
C  -2.98800 11.73600 25.78400
C  -3.08600 12.40600 29.28900
O  -3.23700 11.22500 29.56000
C  -3.17900 13.61000 30.36900
C  -2.06700 13.31500 31.34000
O  -0.94800 13.71300 31.24700
O  -2.47000 12.52300 32.37300
C  -1.53800 12.10700 33.38600
H  -2.38700 20.61600 30.06800
H  -1.98800 20.19500 23.68200
H  -2.64700 13.84800 24.05900
H  -3.90300 16.38600 31.81800
H  -1.99400 18.81300 31.79900
H  -4.76800 18.31900 32.49700
H  -4.80700 19.64400 31.33100
H  -3.98000 19.78500 32.93800
H  -0.88700 16.54500 31.97500
H  -1.94000 15.33300 32.61800
H  -2.73900 17.71700 34.16100
H  -1.14600 17.87300 33.92700
H  -2.14500 23.80300 28.20900
H  -1.82600 22.57400 29.46300
H  -3.46700 22.71100 28.73800
H  -0.22000 24.16300 25.01600
H  -0.51300 23.94300 26.78400
H  -1.77500 24.52300 25.62200
H  -1.56800 18.06100 22.29300
H  -3.77300 16.02900 22.38700
H  -3.55900 17.93200 20.82000
H  -3.28400 19.53400 21.60400
H  -4.54600 18.43300 22.22500
H  -1.70700 15.78100 20.80000
H  -2.56300 14.42700 21.42300
H  0.28300 14.83700 21.52800
H  -0.53000 13.66200 22.40100
H  -0.23400 15.20300 23.18700
H  -2.72500 11.97400 24.75400
H  -3.98800 11.30600 25.72500
H  -2.34700 10.98300 26.24100
H  -4.12400 13.50400 30.90100
H  -0.81100 11.39200 33.00000
H  -1.95300 11.55500 34.23000
H  -1.01800 12.93400 33.86900
Mg -11.91400 16.14200 42.66600
C  -8.88000 14.79200 42.16400
C  -10.88300 19.15900 41.19600
C  -15.08500 17.31000 42.69600
C  -13.04300 13.10200 43.84800
N  -10.10000 16.91800 41.72800
C  -8.94400 16.16100 41.70600
C  -7.79800 17.05500 41.15400
C  -8.40600 18.46300 40.97600
C  -9.89800 18.23400 41.45700
C  -7.63500 19.62500 41.68900
C  -7.13000 16.52900 39.87900
C  -5.60200 16.38600 39.99500
H  -5.07100 15.24300 39.09300
N  -12.86100 17.96700 42.14200
C  -12.27600 19.08900 41.53500
C  -13.29900 20.02300 41.09100
C  -14.53500 19.47200 41.52400
C  -14.18300 18.23000 42.17700
C  -13.02900 21.29400 40.31400
C  -15.91700 20.13900 41.18600
O  -15.92000 21.20500 40.63000
C  -17.21800 19.56900 41.62100
N  -13.77300 15.34000 43.33200
C  -14.98900 15.95800 43.16200
C  -16.21700 14.99600 43.59500
C  -15.46600 13.82100 44.15400
C  -14.00500 14.06100 43.71700
C  -17.35100 15.62600 44.46600
C  -16.00800 12.49400 43.57200
C  -15.99000 11.24100 44.51300
N  -11.14600 14.29900 42.95300
C  -11.68000 13.16200 43.46900
C  -10.69200 12.13300 43.56500
C  -9.51900 12.75900 43.14000
C  -9.92000 14.01400 42.71900
C  -10.92900 10.77500 44.13900
C  -8.11000 12.55600 42.91700
O  -7.35200 11.54100 43.08900
C  -7.61800 13.86800 42.40700
C  -6.79500 14.43300 43.44400
O  -7.19800 15.21500 44.29600
O  -5.47400 14.11000 43.23400
C  -4.55000 14.63300 44.27900
H  -10.65800 20.19800 40.94600
H  -16.12900 17.63100 42.66000
H  -13.54100 12.23400 44.28700
H  -7.04800 17.02600 41.94400
H  -8.37300 18.76500 39.92900
H  -7.04400 19.12600 42.45600
H  -8.39400 20.18300 42.23700
H  -7.05700 20.28000 41.03700
H  -7.19100 17.25400 39.06700
H  -7.49400 15.55600 39.54800
H  -5.34100 16.14900 41.02600
H  -5.13600 17.34200 39.75500
H  -13.24100 22.19100 40.89600
H  -13.71800 21.22000 39.47200
H  -12.00200 21.42500 39.97300
H  -17.35900 18.63400 41.07900
H  -17.95500 20.35400 41.45500
H  -17.13500 19.36000 42.68800
H  -16.71700 14.86800 42.63500
H  -15.48000 13.74700 45.24100
H  -18.18100 16.01700 43.87800
H  -17.08400 16.45200 45.12500
H  -17.79000 14.89300 45.14200
H  -15.56100 12.37800 42.58500
H  -17.07100 12.51000 43.33100
H  -15.71500 10.36600 43.92300
H  -16.86500 10.99300 45.11300
H  -15.16400 11.44500 45.19400
H  -10.12400 10.58200 44.84800
H  -10.93200 10.16600 43.23500
H  -11.89500 10.64200 44.62400
H  -6.99800 13.72500 41.52100
H  -4.36700 15.70700 44.31600
H  -3.59100 14.11600 44.23500
H  -4.98500 14.32000 45.22900

