158

Mg 1.22300 -2.62400 44.74300
C  4.56600 -2.20700 44.08300
C  0.68800 0.02700 42.57600
C  -1.95300 -3.50900 44.57400
C  1.99200 -5.67100 46.23400
N  2.54100 -1.28100 43.40100
C  3.82400 -1.25800 43.37800
C  4.38000 0.01900 42.66800
C  3.06600 0.82400 42.38700
C  1.99100 -0.17500 42.83400
C  2.90900 2.17000 43.21400
C  5.23600 -0.25500 41.43000
C  6.36900 0.74200 41.28400
H  6.56200 1.34600 39.87600
N  -0.42200 -1.75300 43.81800
C  -0.46900 -0.74800 42.96200
C  -1.86700 -0.40200 42.59300
C  -2.66300 -1.36200 43.25700
C  -1.69900 -2.26900 43.92800
C  -2.14600 0.73400 41.59300
C  -4.19300 -1.38700 43.33600
O  -4.85700 -0.52400 42.72600
C  -4.98400 -2.45300 43.99100
N  0.16100 -4.39700 45.25900
C  -1.12800 -4.45700 45.22700
C  -1.68500 -5.72000 45.89100
C  -0.41600 -6.49900 46.33100
C  0.68000 -5.42500 45.97700
C  -2.52100 -5.42600 47.09900
C  -0.28700 -7.86300 45.54500
C  -0.30000 -7.92000 43.97100
N  2.90800 -3.68900 45.26700
C  3.05100 -4.93300 45.92400
C  4.43300 -5.20100 46.14500
C  5.09700 -4.04800 45.46900
C  4.12600 -3.31000 44.84300
C  4.92600 -6.42700 46.81400
C  6.40100 -3.51900 45.14500
O  7.52200 -3.94700 45.47000
C  6.13600 -2.29300 44.21600
C  6.73900 -1.01600 44.81900
O  6.62700 -0.73600 45.98100
O  7.44400 -0.23100 43.87300
C  7.81200 1.13300 44.32200
H  0.51800 0.85600 41.88600
H  -3.00100 -3.81100 44.51700
H  2.22000 -6.64200 46.67700
H  4.97600 0.56400 43.39900
H  2.90500 1.08000 41.34000
H  3.78600 2.29700 43.84900
H  2.01200 2.16100 43.83300
H  2.82000 2.98800 42.49900
H  4.52600 -0.27900 40.60300
H  5.64600 -1.26300 41.48600
H  7.26700 0.17700 41.53100
H  6.24000 1.54000 42.01500
H  -3.10800 0.50200 41.13600
H  -1.43400 0.86400 40.77800
H  -2.23400 1.67600 42.13400
H  -4.85500 -2.34000 45.06800
H  -4.77700 -3.47100 43.66100
H  -6.04700 -2.29500 43.81000
H  -2.33600 -6.24700 45.19200
H  -0.47700 -6.75900 47.38800
H  -1.92300 -5.32900 48.00500
H  -3.27000 -6.21300 47.18800
H  -3.21100 -4.60200 46.91700
H  -0.98300 -8.64900 45.83600
H  0.64500 -8.33700 45.85500
H  0.71400 -8.04200 43.59000
H  -0.67300 -6.95800 43.61700
H  -0.90400 -8.69500 43.49800
H  5.98000 -6.24900 47.02700
H  4.86100 -7.26000 46.11400
H  4.34000 -6.68000 47.69800
H  6.47200 -2.47300 43.19500
H  8.53000 1.09700 45.14100
H  6.83000 1.55800 44.52800
H  8.29800 1.65000 43.49400
Mg 8.31400 3.66600 27.62100
C  9.54500 2.00500 30.51700
C  6.34900 5.52200 29.68800
C  7.03000 4.90600 24.90700
C  9.78700 1.03600 25.74300
N  7.89200 3.63300 29.85400
C  8.65800 3.06100 30.82800
C  8.21700 3.51600 32.23700
C  6.97300 4.44900 31.96700
C  7.08800 4.59600 30.37300
C  5.49700 4.10200 32.40000
C  9.35900 4.16900 33.14900
C  8.90800 4.93500 34.37600
H  9.78400 4.79000 35.63000
N  6.99000 5.19200 27.29900
C  6.26500 5.85100 28.26600
C  5.41200 6.78200 27.64200
C  5.67700 6.61800 26.25000
C  6.60000 5.56000 26.10800
C  4.54100 7.74700 28.41200
C  5.03600 7.43100 25.11400
O  5.24100 7.27600 23.96000
C  4.09600 8.60600 25.39000
N  8.31800 2.92400 25.63500
C  7.84600 3.75000 24.69600
C  8.13100 3.15600 23.27900
C  9.07600 1.96900 23.57200
C  9.11900 2.00800 25.08200
C  6.78900 2.64500 22.60900
C  10.48700 2.10000 22.90200
C  10.96400 0.87400 22.05100
N  9.42900 1.85300 28.01500
C  9.92300 0.87200 27.16600
C  10.68700 -0.08800 27.87300
C  10.56000 0.28200 29.18400
C  9.75800 1.48100 29.21500
C  11.43800 -1.30400 27.23500
C  10.97200 -0.12600 30.56600
O  11.67400 -1.04100 31.03000
C  10.34000 1.02000 31.46200
C  9.44500 0.31800 32.43700
O  8.44800 -0.35300 32.16100
O  9.90500 0.50000 33.73700
C  9.24600 -0.17700 34.81500
H  5.81000 6.28800 30.25000
H  6.65100 5.27100 23.95100
H  10.31800 0.28100 25.16000
H  7.84100 2.57800 32.64300
H  7.10300 5.50500 32.20600
H  4.74300 4.45000 31.69400
H  5.31700 4.67500 33.31000
H  5.30100 3.03000 32.37600
H  9.96800 4.84600 32.55000
H  9.96300 3.40700 33.64000
H  7.97100 4.45100 34.64900
H  8.82800 6.00900 34.20900
H  3.54200 7.68500 27.98100
H  5.00300 8.71400 28.61300
H  4.38000 7.26100 29.37400
H  3.12600 8.39800 25.84300
H  3.78800 9.00100 24.42200
H  4.73300 9.31500 25.91800
H  8.64500 3.86400 22.62800
H  8.56100 1.05100 23.28700
H  5.94700 2.85800 23.26700
H  6.78200 1.60400 22.28500
H  6.83100 3.15200 21.64500
H  11.29300 2.06700 23.63500
H  10.65100 3.01700 22.33500
H  10.13700 0.17500 21.93000
H  11.79900 0.39300 22.56100
H  11.34900 1.21200 21.08900
H  12.10900 -1.75200 27.96800
H  12.17400 -1.01700 26.48500
H  10.80300 -2.03500 26.73300
H  11.10600 1.46200 32.09900
H  9.98000 -0.80400 35.32100
H  8.41100 -0.74700 34.40800
H  8.86900 0.51300 35.57000

