158

Mg 0.75000 7.54100 27.24000
C  1.38500 9.67900 29.91500
C  0.38200 4.97500 29.54700
C  0.01500 5.74200 24.69600
C  1.34500 10.30600 25.07900
N  0.89800 7.34200 29.42200
C  1.19700 8.38700 30.33300
C  1.32000 7.80900 31.74500
C  1.34800 6.28600 31.57600
C  0.83300 6.19500 30.09700
C  2.87100 5.83500 31.68500
C  0.11600 8.35600 32.60700
C  0.15700 7.97200 34.05700
H  1.32600 7.27100 34.83300
N  0.17300 5.63200 27.14400
C  0.00800 4.68000 28.17500
C  -0.56900 3.49200 27.58000
C  -0.67700 3.71800 26.15300
C  -0.23000 5.08400 25.92900
C  -0.99500 2.25500 28.33200
C  -1.02600 2.68300 24.98100
O  -0.79800 2.91200 23.82100
C  -1.56300 1.29700 25.29400
N  0.75800 7.98300 25.15800
C  0.41000 6.99300 24.32800
C  0.50500 7.47000 22.82400
C  0.68600 9.06000 23.00100
C  1.00800 9.13000 24.49300
C  1.60700 6.72900 22.03200
C  -0.61700 9.86400 22.67700
C  -0.39200 11.31200 22.21900
N  1.27700 9.56200 27.37800
C  1.43500 10.59500 26.45600
C  1.76400 11.79200 27.06600
C  1.87300 11.52000 28.42900
C  1.43200 10.15700 28.56500
C  2.11200 13.09300 26.47600
C  2.21000 12.05700 29.71000
O  2.47600 13.18000 29.96500
C  1.74900 10.93900 30.74000
C  2.67000 10.79300 31.82400
O  3.82200 10.39300 31.68300
O  2.18000 11.24000 33.04000
C  2.97000 11.15100 34.26900
H  0.30500 4.19200 30.30500
H  -0.38500 5.12800 23.88700
H  1.40800 11.22100 24.48600
H  2.22900 8.30200 32.08800
H  0.68000 5.72000 32.22500
H  3.02400 5.15300 32.52200
H  3.56100 6.63600 31.95000
H  3.17800 5.37700 30.74500
H  -0.81400 7.88700 32.28400
H  0.10000 9.44100 32.50600
H  -0.80400 7.50000 34.26000
H  0.04500 8.82300 34.73000
H  -2.05700 2.01400 28.29400
H  -0.74900 2.37600 29.38700
H  -0.42000 1.40700 27.96100
H  -0.69800 0.80300 25.73700
H  -1.88200 0.78300 24.38700
H  -2.42100 1.31200 25.96700
H  -0.48300 7.30500 22.39500
H  1.65000 9.36000 22.59100
H  1.27400 6.22000 21.12800
H  2.01400 5.99400 22.72600
H  2.47500 7.24000 21.61400
H  -1.27400 9.83500 23.54600
H  -1.01700 9.22500 21.89000
H  -0.53800 12.01400 23.04000
H  -1.05000 11.56800 21.39000
H  0.63000 11.55700 21.92900
H  1.23300 13.73600 26.45400
H  2.57700 12.97200 25.49800
H  2.77200 13.56500 27.20400
H  0.84500 11.41400 31.12200
H  2.63100 10.43600 35.01800
H  2.90400 12.10100 34.79900
H  4.00300 10.88100 34.05300
Mg 24.05700 -5.09300 45.83400
C  26.07500 -2.85000 44.09100
C  21.50900 -4.16400 43.47800
C  22.14400 -7.67000 46.80900
C  26.76800 -6.40500 47.44000
N  23.81600 -3.67500 44.04600
C  24.76200 -2.76900 43.61400
C  24.23400 -1.92800 42.42300
C  22.69900 -2.22000 42.47600
C  22.62700 -3.42600 43.39600
C  21.74900 -1.08300 42.90100
C  24.92400 -2.44100 41.05800
C  25.56000 -1.43400 40.22200
H  25.20500 -1.54300 38.75800
N  22.05200 -5.77900 45.20700
C  21.20100 -5.22700 44.35500
C  19.94900 -5.97900 44.43700
C  20.10700 -6.94000 45.42000
C  21.47700 -6.80500 45.88200
C  18.65200 -5.56500 43.67500
C  18.96300 -7.81700 45.92700
O  17.85700 -7.68400 45.48000
C  19.15800 -8.84900 47.00900
N  24.43100 -6.85000 46.92200
C  23.44500 -7.69400 47.32700
C  23.94500 -8.74600 48.22500
C  25.43000 -8.29100 48.48600
C  25.60300 -7.14500 47.53900
C  23.08100 -8.85900 49.48000
C  26.62400 -9.38800 48.18300
C  27.76700 -9.44900 49.25200
N  26.02400 -4.66000 45.85400
C  27.05100 -5.31100 46.59100
C  28.23200 -4.53500 46.46700
C  27.90000 -3.54200 45.48000
C  26.58700 -3.64700 45.16800
C  29.59800 -4.97600 46.84100
C  28.46300 -2.49300 44.65700
O  29.52200 -2.00200 44.54100
C  27.33100 -2.08200 43.53400
C  27.07800 -0.62400 43.69800
O  26.38700 -0.12000 44.56500
O  27.80900 0.05700 42.71800
C  27.91300 1.53900 42.76600
H  20.60900 -3.86600 42.93700
H  21.64200 -8.49100 47.32400
H  27.69000 -6.74700 47.91500
H  24.26700 -0.84300 42.52200
H  22.35700 -2.48400 41.47500
H  20.90200 -0.91100 42.23700
H  22.32300 -0.15600 42.91000
H  21.27400 -1.23400 43.87100
H  24.19000 -2.90500 40.39900
H  25.75200 -3.13200 41.21700
H  26.63900 -1.39900 40.37100
H  25.18500 -0.42700 40.40700
H  18.05500 -6.40000 43.30900
H  18.91400 -5.01300 42.77300
H  18.01300 -4.95000 44.31000
H  18.20800 -9.26900 47.34000
H  19.50200 -8.21900 47.82900
H  19.97400 -9.53400 46.77700
H  23.87200 -9.72000 47.74100
H  25.59600 -7.87600 49.48000
H  23.71000 -9.09300 50.33800
H  22.46900 -9.75700 49.39200
H  22.50600 -7.94300 49.61700
H  26.97100 -9.17100 47.17300
H  26.23800 -10.40700 48.17900
H  27.85400 -10.53200 49.34100
H  27.46300 -9.07500 50.23000
H  28.68300 -9.02300 48.84200
H  29.61400 -5.32500 47.87400
H  30.29300 -4.17900 46.57900
H  29.85500 -5.80300 46.18000
H  27.66800 -2.28600 42.51800
H  28.25200 1.90000 41.79500
H  28.56500 1.87500 43.57200
H  26.95600 2.02000 42.96500

