158

Mg 1.56700 8.68900 27.57300
C  2.17900 10.77300 30.25200
C  1.25000 6.07400 29.66500
C  1.40100 6.65700 24.76000
C  1.61900 11.58800 25.42000
N  1.74000 8.43800 29.70300
C  1.92800 9.43600 30.65100
C  1.58300 8.97400 32.05900
C  1.68000 7.39300 31.87700
C  1.47500 7.31800 30.31400
C  2.95300 6.66500 32.34800
C  0.09100 9.44000 32.54300
C  -0.17200 9.40000 34.05400
H  1.00300 8.84800 34.93400
N  1.31600 6.68400 27.26400
C  1.18200 5.73900 28.29500
C  0.83100 4.47300 27.65100
C  0.88800 4.58000 26.21800
C  1.27500 5.98800 26.01600
C  0.52100 3.24200 28.48300
C  0.63100 3.56700 25.18100
O  0.70200 3.82500 23.97700
C  0.26100 2.09800 25.54100
N  1.46800 9.05600 25.40200
C  1.42000 8.03200 24.48700
C  1.51300 8.56700 23.01900
C  1.33500 10.12400 23.25600
C  1.44200 10.31000 24.73800
C  2.93400 8.25500 22.38000
C  0.05000 10.83300 22.66700
C  0.25600 11.74900 21.50400
N  1.90400 10.68600 27.71600
C  1.94900 11.70000 26.83900
C  2.17200 12.90300 27.53700
C  2.32700 12.61600 28.87000
C  2.16400 11.24500 28.98500
C  2.26600 14.21700 26.84400
C  2.57400 13.19800 30.16700
O  2.94100 14.31300 30.51500
C  2.45200 12.01500 31.17300
C  3.57200 11.90100 32.18500
O  4.73300 11.79900 31.92800
O  3.03300 12.08000 33.44500
C  3.97800 12.08600 34.56200
H  0.91300 5.30800 30.36700
H  1.40200 6.11500 23.81200
H  1.68000 12.49000 24.80800
H  2.32400 9.34400 32.76800
H  0.89900 6.86100 32.42000
H  3.58800 7.22100 33.03900
H  3.60700 6.42500 31.51000
H  2.70800 5.76000 32.90400
H  -0.60300 8.72100 32.10800
H  -0.10800 10.42900 32.13300
H  -1.06300 8.78700 34.19100
H  -0.23000 10.41500 34.44700
H  1.26600 2.45600 28.36000
H  -0.40000 2.68200 28.31600
H  0.67500 3.39200 29.55100
H  1.02800 1.73500 26.22400
H  0.24800 1.57100 24.58700
H  -0.69200 2.17000 26.06600
H  0.70500 8.26800 22.35100
H  2.23200 10.71700 23.07800
H  3.50200 7.51000 22.93800
H  3.56700 9.12400 22.20400
H  2.69900 7.73100 21.45300
H  -0.48400 11.34000 23.47100
H  -0.64000 10.05500 22.34100
H  -0.44600 11.46800 20.71900
H  1.21600 11.76200 20.98800
H  0.04500 12.77200 21.81600
H  1.37600 14.25000 26.21600
H  3.16700 14.47800 26.29000
H  2.26900 14.94700 27.65300
H  1.60200 12.32700 31.78000
H  4.80600 12.77100 34.38600
H  4.30300 11.05400 34.69500
H  3.42900 12.33900 35.47000
Mg -10.27900 40.22700 39.35600
C  -9.53100 36.90500 38.46500
C  -7.20300 41.12000 37.95500
C  -11.31000 43.35300 39.17500
C  -13.62500 39.18000 39.88200
N  -8.62400 39.08100 38.41400
C  -8.50700 37.76000 38.04700
C  -7.15500 37.32800 37.50700
C  -6.40400 38.67000 37.50500
C  -7.44200 39.72800 38.07000
C  -5.09200 38.66000 38.25600
C  -7.21400 36.58800 36.09200
C  -7.87200 37.45600 34.98200
H  -8.99400 36.85400 34.15400
N  -9.32800 42.00900 38.87400
C  -8.06400 42.15900 38.36800
C  -7.81100 43.62000 38.11200
C  -8.98900 44.26900 38.53300
C  -9.95100 43.26400 38.85100
C  -6.50300 44.16900 37.51500
C  -9.09900 45.78400 38.52600
O  -8.18400 46.53500 38.23600
C  -10.30500 46.48400 39.13200
N  -12.19500 41.11800 39.39100
C  -12.35400 42.44400 39.33900
C  -13.86400 42.83600 39.43400
C  -14.58600 41.54700 39.62800
C  -13.46500 40.52200 39.66400
C  -14.23200 43.95100 40.44000
C  -15.71500 41.11100 38.61800
C  -17.15800 40.94100 39.26000
N  -11.34000 38.39200 39.47300
C  -12.67300 38.14800 39.70400
C  -12.91900 36.73000 39.66700
C  -11.70100 36.13300 39.20800
C  -10.80200 37.27100 39.00900
C  -14.22600 36.03100 39.99100
C  -11.01300 34.95700 38.77100
O  -11.38000 33.78700 38.80300
C  -9.64300 35.44300 38.25000
C  -8.64300 34.64900 38.98900
O  -8.56000 34.69900 40.22300
O  -7.83200 33.84800 38.15400
C  -6.66700 33.27300 38.80800
H  -6.19500 41.36000 37.61100
H  -11.75900 44.34100 39.05000
H  -14.67400 38.95200 40.08000
H  -6.87100 36.58300 38.25000
H  -6.16600 39.06800 36.51800
H  -4.84800 37.73000 38.76800
H  -5.13600 39.38500 39.06900
H  -4.27400 39.02400 37.63400
H  -7.69300 35.61000 36.13100
H  -6.18200 36.42400 35.78100
H  -7.12900 37.85700 34.29300
H  -8.42300 38.29800 35.40200
H  -6.07900 44.95300 38.14200
H  -6.84700 44.59800 36.57400
H  -5.77800 43.38100 37.31300
H  -10.67100 45.84300 39.93400
H  -10.94600 46.57400 38.25500
H  -10.12300 47.46000 39.58200
H  -14.06700 43.17400 38.41800
H  -15.00500 41.42400 40.62700
H  -14.89400 43.73200 41.27800
H  -14.55300 44.77800 39.80600
H  -13.29800 44.13900 40.96900
H  -15.45400 40.20400 38.07300
H  -15.79200 41.86500 37.83400
H  -17.88300 41.29900 38.52900
H  -17.18800 41.38600 40.25500
H  -17.33500 39.86900 39.34500
H  -14.81400 35.88700 39.08500
H  -14.74700 36.56400 40.78600
H  -14.19400 35.02200 40.40100
H  -9.66300 35.12900 37.20700
H  -6.90200 33.02700 39.84300
H  -5.76900 33.89100 38.80300
H  -6.31000 32.35700 38.33700

