158

Mg 1.98200 -0.97000 44.17000
C  5.36000 -0.20100 43.53600
C  1.13200 1.90300 42.47400
C  -1.16300 -2.27900 43.98400
C  3.20700 -4.17000 45.36800
N  3.10600 0.54300 43.01000
C  4.47900 0.68600 43.01100
C  4.89400 2.04200 42.29800
C  3.52800 2.84700 42.39500
C  2.50300 1.72000 42.66600
C  3.52900 3.93300 43.42200
C  5.33700 1.75000 40.85600
C  6.35000 2.79700 40.34200
H  5.82800 3.68000 39.18400
N  0.23500 -0.29400 43.40700
C  0.08600 0.93900 42.77300
C  -1.34300 1.09400 42.47200
C  -2.04600 -0.05200 42.98500
C  -0.96400 -0.95600 43.45900
C  -1.96600 2.31400 41.70300
C  -3.57600 -0.27700 43.07100
O  -4.35200 0.56000 42.57500
C  -4.23900 -1.39700 43.80800
N  1.16200 -2.92600 44.62900
C  -0.24200 -3.15600 44.58100
C  -0.55200 -4.61300 45.09400
C  0.83700 -5.17400 45.51000
C  1.81500 -4.03900 45.10900
C  -1.68200 -4.75700 46.11300
C  1.25900 -6.54000 44.87300
C  2.26800 -7.37000 45.55800
N  3.84400 -1.98500 44.57900
C  4.14800 -3.25600 45.00400
C  5.55600 -3.34900 45.19000
C  6.06500 -2.23300 44.55700
C  5.01000 -1.42500 44.18600
C  6.28300 -4.45200 45.71600
C  7.29400 -1.59400 44.16800
O  8.49900 -1.97900 44.30400
C  6.92500 -0.21300 43.49400
C  7.68200 0.83600 44.23000
O  7.74100 0.94600 45.45500
O  8.25700 1.81100 43.39600
C  8.96600 2.91800 44.03200
H  0.77900 2.83700 42.03200
H  -2.15900 -2.72600 44.02300
H  3.54300 -5.12200 45.78400
H  5.69600 2.49100 42.88400
H  3.34700 3.37200 41.45700
H  4.25900 3.94100 44.23200
H  2.58300 3.91900 43.96300
H  3.64800 4.83000 42.81500
H  4.53900 1.58100 40.13200
H  5.83300 0.78300 40.77400
H  7.29400 2.30800 40.10100
H  6.59000 3.48400 41.15300
H  -1.20300 2.60700 40.98200
H  -1.98900 3.11100 42.44600
H  -2.92700 2.26000 41.19100
H  -5.25600 -1.10400 44.07000
H  -3.66600 -1.70000 44.68400
H  -4.10400 -2.30100 43.21500
H  -0.94500 -5.19700 44.26200
H  0.79500 -5.19200 46.59900
H  -2.15300 -5.71000 45.87100
H  -2.40800 -3.95700 45.96900
H  -1.23300 -4.78100 47.10600
H  1.78400 -6.15400 43.99900
H  0.43700 -7.07300 44.39500
H  2.05800 -8.43600 45.47000
H  2.30100 -7.13300 46.62100
H  3.22300 -7.13700 45.08700
H  5.60100 -4.99700 46.36900
H  7.20800 -4.19400 46.23100
H  6.64500 -5.19600 45.00500
H  7.28100 -0.20000 42.46400
H  10.01800 2.75200 43.80400
H  8.77900 3.06400 45.09600
H  8.70600 3.83300 43.50000
Mg 26.05400 1.21600 28.88400
C  27.95100 0.94000 31.77000
C  23.24300 1.50500 30.87200
C  24.12700 1.54500 26.05800
C  28.83800 0.63400 26.91200
N  25.67100 1.33300 31.10500
C  26.65200 1.19400 32.08600
C  26.07200 1.38300 33.48500
C  24.48000 1.32300 33.14400
C  24.44400 1.33300 31.60800
C  23.68300 0.13600 33.76800
C  26.63500 2.64100 34.17500
C  26.94700 2.41300 35.71900
H  26.47700 3.38500 36.82300
N  23.91200 1.38200 28.51600
C  22.98000 1.64300 29.50400
C  21.71000 1.83700 28.83800
C  21.95100 1.83600 27.41300
C  23.37900 1.62800 27.23100
C  20.38300 2.05600 29.64200
C  20.92200 2.04400 26.28500
O  21.21000 1.98700 25.10100
C  19.44600 2.16100 26.61700
N  26.39300 0.72100 26.71700
C  25.45000 1.14500 25.80500
C  26.06600 1.35900 24.41100
C  27.69400 1.14400 24.67500
C  27.65900 0.82000 26.15400
C  25.47200 0.37600 23.35300
C  28.58000 2.34200 24.35000
C  29.88300 2.07600 23.67500
N  28.05400 0.98000 29.22300
C  29.02600 0.62600 28.29800
C  30.28300 0.43900 29.07400
C  29.87500 0.57500 30.40200
C  28.55900 0.83900 30.43300
C  31.62200 0.20700 28.58000
C  30.36500 0.63200 31.77600
O  31.52100 0.58100 32.16900
C  29.12800 0.60900 32.69300
C  28.96000 -0.75400 33.31200
O  28.52300 -1.71900 32.81400
O  29.45800 -0.78600 34.58300
C  28.99300 -1.90900 35.44800
H  22.40400 1.46700 31.57000
H  23.49800 1.83800 25.21500
H  29.76100 0.39800 26.37800
H  26.33300 0.55500 34.14400
H  24.00800 2.28100 33.36100
H  23.44300 -0.56400 32.96800
H  22.81000 0.49900 34.31100
H  24.16800 -0.33500 34.62300
H  25.88500 3.42200 34.04900
H  27.50300 3.00800 33.62700
H  28.03500 2.36900 35.77800
H  26.58500 1.43000 36.02100
H  20.26500 3.13800 29.57400
H  20.35700 1.64900 30.65200
H  19.62100 1.46400 29.13400
H  18.85200 2.17500 25.70400
H  19.34700 3.13600 27.09400
H  19.00800 1.38900 27.25100
H  25.81400 2.37900 24.11700
H  28.00100 0.24500 24.14200
H  25.01400 -0.53500 23.73900
H  26.33500 0.15500 22.72600
H  24.69600 0.86900 22.76600
H  28.83200 2.78300 25.31400
H  27.88300 3.01700 23.85400
H  29.63600 2.21400 22.62300
H  30.19400 1.07100 23.96100
H  30.65800 2.76200 24.01800
H  31.57200 0.04400 27.50300
H  32.01400 -0.68700 29.06600
H  32.28700 1.04200 28.79900
H  29.35000 1.36100 33.45100
H  29.78000 -2.62400 35.21000
H  28.00700 -2.25100 35.13000
H  29.02400 -1.80300 36.53200

