158

Mg -0.33700 7.00700 26.97500
C  0.57100 9.08600 29.52700
C  -0.61200 4.35200 29.41200
C  -1.04400 4.92400 24.50000
C  0.52800 9.46000 24.63000
N  -0.09900 6.78700 29.30500
C  0.21900 7.85100 30.13500
C  0.11100 7.42700 31.60400
C  0.11300 5.86800 31.48500
C  -0.24400 5.59300 29.98500
C  1.51700 5.23400 31.77600
C  -1.18700 7.95900 32.32200
C  -1.31300 8.19800 33.84800
H  -0.06900 7.88000 34.73700
N  -0.85100 5.00000 26.96300
C  -0.95000 4.08900 28.04800
C  -1.24100 2.76700 27.51000
C  -1.29800 2.87500 26.05800
C  -1.03400 4.32800 25.80900
C  -1.30400 1.57600 28.37900
C  -1.52500 1.82400 25.04300
O  -1.49300 2.00100 23.81500
C  -1.62500 0.45000 25.50800
N  -0.14000 7.17000 24.77600
C  -0.55100 6.13100 23.99500
C  -0.54100 6.53600 22.50200
C  -0.12000 8.04800 22.55100
C  0.04100 8.28600 24.03300
C  0.20200 5.69900 21.50800
C  -0.99500 9.03900 21.84100
C  -2.03600 9.76100 22.63200
N  0.42300 8.85100 27.04500
C  0.67900 9.79800 26.03400
C  1.11700 11.02200 26.57400
C  1.05500 10.85500 27.91700
C  0.71200 9.47200 28.13300
C  1.52300 12.36300 25.78800
C  1.26700 11.46500 29.20900
O  1.71000 12.61100 29.45600
C  0.99900 10.33700 30.26700
C  2.20500 10.21900 31.09200
O  3.22900 9.72200 30.70600
O  1.93500 10.75900 32.35600
C  3.15000 10.86400 33.18800
H  -0.63000 3.62900 30.22900
H  -1.17800 4.26000 23.64400
H  0.74200 10.24800 23.90400
H  1.01700 7.82600 32.05900
H  -0.67300 5.43800 32.10600
H  1.95200 4.91100 30.83000
H  1.39800 4.31900 32.35700
H  2.02800 5.98000 32.38400
H  -2.01600 7.31600 32.02700
H  -1.52300 8.90100 31.88900
H  -2.11500 7.66900 34.36200
H  -1.57500 9.24900 33.96400
H  -1.38000 1.84700 29.43200
H  -0.48800 0.91800 28.08200
H  -2.23100 1.06400 28.12000
H  -2.47000 0.35800 26.19000
H  -0.66500 0.11400 25.89900
H  -1.76700 -0.19300 24.63900
H  -1.60000 6.41300 22.27200
H  0.93900 8.13700 22.30900
H  0.81900 5.01400 22.09000
H  0.88500 6.31600 20.92400
H  -0.46200 5.05000 20.93700
H  -1.49300 8.38100 21.12800
H  -0.41900 9.81600 21.33800
H  -2.93900 10.03800 22.08900
H  -1.54200 10.72300 22.77100
H  -2.25000 9.27800 23.58500
H  2.20200 12.22500 24.94600
H  2.07100 13.15300 26.30200
H  0.62600 12.84400 25.39800
H  0.17300 10.64500 30.90900
H  3.09300 11.61400 33.97700
H  4.07400 11.05900 32.64400
H  3.42100 9.91400 33.65000
Mg 24.19600 -5.01900 45.32800
C  26.42400 -2.64300 43.93600
C  21.60500 -3.68200 43.45400
C  22.33000 -7.46300 46.29200
C  27.10700 -6.28000 47.01200
N  24.13000 -3.41000 43.78500
C  25.14200 -2.58300 43.35000
C  24.65400 -1.60100 42.31600
C  23.04400 -1.73700 42.51200
C  22.84500 -2.99900 43.30600
C  22.41600 -0.50900 43.14500
C  25.10500 -1.97700 40.87500
C  25.64200 -0.80400 40.01400
H  25.36700 -1.03800 38.47900
N  22.23600 -5.42500 45.03200
C  21.35300 -4.81400 44.17600
C  20.04900 -5.47500 44.23500
C  20.24400 -6.55900 45.09800
C  21.67300 -6.52600 45.54500
C  18.86900 -4.98200 43.56700
C  19.13400 -7.67700 45.30500
O  17.97500 -7.48800 44.97600
C  19.45600 -8.95300 46.00800
N  24.64600 -6.55800 46.54500
C  23.67000 -7.46200 46.78900
C  24.22900 -8.80800 47.34100
C  25.71300 -8.34500 47.71400
C  25.82800 -7.01600 47.03500
C  23.49300 -9.43100 48.52700
C  26.82200 -9.31000 47.34600
C  27.14100 -10.31700 48.46500
N  26.31100 -4.54200 45.48700
C  27.35800 -5.13300 46.26200
C  28.60500 -4.37900 46.12400
C  28.22300 -3.32800 45.21800
C  26.87700 -3.54200 44.88000
C  29.88900 -4.64800 46.74400
C  28.69800 -2.16600 44.54300
O  29.76800 -1.55700 44.62300
C  27.56000 -1.69800 43.63400
C  27.38900 -0.20400 43.79300
O  26.67900 0.38800 44.62700
O  28.19300 0.41300 42.85800
C  28.45300 1.92600 42.95900
H  20.77100 -3.17000 42.96900
H  21.66300 -8.20200 46.74100
H  28.00100 -6.74600 47.43200
H  25.04200 -0.61300 42.56500
H  22.58300 -1.88900 41.53600
H  21.73900 -0.70200 43.97700
H  21.81400 0.10200 42.47300
H  23.28600 0.06800 43.46100
H  24.30900 -2.46900 40.31600
H  25.94100 -2.67400 40.83100
H  26.67800 -0.59000 40.27800
H  25.12200 0.10200 40.32300
H  17.98400 -5.61500 43.63400
H  19.02200 -4.47500 42.61400
H  18.67300 -4.12600 44.21200
H  18.62400 -9.64700 45.88700
H  19.69500 -8.63800 47.02400
H  20.30600 -9.43900 45.52900
H  24.20600 -9.56100 46.55300
H  25.74400 -8.07600 48.77000
H  22.72700 -8.79300 48.96800
H  24.30000 -9.73700 49.19200
H  22.92000 -10.34200 48.35600
H  27.72500 -8.80300 47.00500
H  26.44800 -9.81000 46.45300
H  28.11500 -10.80500 48.48100
H  26.37500 -11.07700 48.31000
H  26.99800 -9.81200 49.42100
H  29.86400 -4.16300 47.72000
H  30.75500 -4.24300 46.22000
H  30.03100 -5.71800 46.89600
H  27.78500 -1.88600 42.58400
H  29.38300 2.08700 42.41300
H  28.55900 2.26600 43.98900
H  27.64900 2.48000 42.47500

