158

Mg 46.87700 15.05600 27.74900
C  44.90000 15.08500 30.72000
C  48.91800 17.41800 29.24300
C  48.47200 15.18300 25.01200
C  44.24700 13.16700 26.25600
N  46.82000 16.07600 29.74700
C  45.98100 15.94300 30.78300
C  46.52300 16.62900 32.00300
C  47.55200 17.69200 31.37400
C  47.79700 16.99700 30.01200
C  47.20200 19.16400 31.22300
C  47.28000 15.56400 32.93200
C  46.96900 15.63600 34.40000
H  48.17700 15.47800 35.40300
N  48.57900 16.04800 27.22400
C  49.28900 16.94100 27.95600
C  50.42200 17.42200 27.19500
C  50.37000 16.75500 25.92100
C  49.12800 15.97100 26.01200
C  51.41400 18.43500 27.72500
C  51.30600 16.80600 24.69700
O  51.11600 16.19200 23.62900
C  52.56900 17.68200 24.83400
N  46.26700 14.37700 25.78800
C  47.25500 14.50800 24.84600
C  46.93800 13.61100 23.62400
C  45.53800 12.96000 24.02900
C  45.31000 13.51500 25.41600
C  46.83100 14.48800 22.35800
C  45.45500 11.32700 23.96600
C  46.68400 10.57500 24.62500
N  45.02600 14.22100 28.26300
C  44.05800 13.57900 27.52400
C  42.93400 13.26800 28.38100
C  43.23700 13.85200 29.61600
C  44.49800 14.43600 29.52900
C  41.63600 12.76000 27.95200
C  42.61300 14.10100 30.96500
O  41.50300 13.89500 31.46600
C  43.82300 14.84000 31.71500
C  43.27400 16.16700 32.19600
O  43.02200 17.10300 31.50100
O  43.12500 16.13000 33.58500
C  42.67600 17.30200 34.36200
H  49.59600 18.14100 29.70300
H  49.14900 15.18900 24.15600
H  43.41500 12.64200 25.78400
H  45.70900 17.03500 32.60300
H  48.44500 17.74000 31.99700
H  46.99100 19.39700 30.17900
H  48.04400 19.76100 31.57200
H  46.27200 19.30400 31.77300
H  48.35000 15.63500 32.73400
H  46.95500 14.57000 32.62400
H  46.26000 14.86800 34.70900
H  46.48500 16.59500 34.58500
H  51.70500 19.12600 26.93400
H  52.28500 17.90100 28.10600
H  51.03000 19.01800 28.56300
H  53.12600 17.62700 23.89900
H  53.18200 17.29800 25.64900
H  52.26800 18.72900 24.85900
H  47.67500 12.80800 23.63400
H  44.79000 13.26800 23.29700
H  46.50900 15.51400 22.53600
H  46.04700 14.10400 21.70500
H  47.84100 14.55500 21.95300
H  45.49500 11.02700 22.91900
H  44.59200 10.89500 24.47200
H  47.27300 10.15200 23.81200
H  46.24700 9.77700 25.22600
H  47.23900 11.22400 25.30300
H  41.22300 13.19600 27.04300
H  40.98600 13.04300 28.78000
H  41.80600 11.69100 27.82500
H  44.16600 14.35700 32.63000
H  42.30700 18.17100 33.81800
H  43.47600 17.69100 34.99200
H  41.85900 17.01300 35.02300
Mg 9.44400 46.48100 26.53700
C  7.44900 46.15900 29.27000
C  12.11900 47.03400 28.58300
C  11.27300 46.90900 23.80300
C  6.47700 46.75000 24.52000
N  9.67300 46.57800 28.61800
C  8.76500 46.44600 29.56500
C  9.35200 46.80900 30.89400
C  10.70700 47.41400 30.59700
C  10.85800 46.90400 29.16300
C  10.87900 48.98600 30.69900
C  9.40500 45.65600 31.92400
C  8.86200 46.06300 33.38600
H  9.39800 45.28500 34.51000
N  11.43400 46.82300 26.22100
C  12.44900 47.02800 27.22800
C  13.68400 47.14200 26.46500
C  13.47400 47.13200 25.07000
C  12.02500 46.98600 24.99300
C  14.93600 47.49000 27.04700
C  14.30700 47.13800 23.86200
O  13.93600 46.89700 22.69100
C  15.76300 47.38500 24.03200
N  8.96300 46.87800 24.49100
C  9.94300 46.98100 23.55300
C  9.27700 47.06100 22.13100
C  7.72100 46.94100 22.44000
C  7.69000 46.85200 23.90700
C  9.68800 48.35900 21.23500
C  7.09900 45.72900 21.61900
C  6.11400 46.10400 20.58100
N  7.34800 46.30900 26.73400
C  6.28500 46.49200 25.84900
C  5.07700 46.18300 26.54700
C  5.44600 46.14300 27.90000
C  6.88000 46.11000 27.94600
C  3.81000 46.01700 25.87000
C  5.00300 45.94600 29.30600
O  3.87800 45.75300 29.73000
C  6.26700 46.09400 30.17700
C  6.16300 44.87600 31.08900
O  6.58000 43.76000 30.81700
O  5.36600 45.25000 32.16300
C  5.51500 44.50200 33.41800
H  12.99600 47.32700 29.16300
H  11.78200 46.76600 22.84700
H  5.61500 46.64200 23.85800
H  8.63500 47.49000 31.35300
H  11.42900 47.01200 31.30800
H  10.86100 49.39900 29.69100
H  11.71600 49.20000 31.36400
H  10.06700 49.54800 31.16100
H  10.44400 45.33600 32.00900
H  8.81500 44.82300 31.54100
H  7.78300 45.93000 33.30200
H  9.01500 47.12200 33.58900
H  15.78000 46.81000 26.92400
H  14.82900 47.69600 28.11200
H  15.33700 48.39100 26.58100
H  16.11900 46.54600 24.63100
H  15.83100 48.40300 24.41700
H  16.38700 47.40700 23.13800
H  9.63900 46.13400 21.68800
H  7.22500 47.86900 22.15800
H  8.77100 48.86300 20.93100
H  10.24000 47.87900 20.42700
H  10.28500 48.95000 21.93000
H  6.74600 44.84800 22.15600
H  7.85900 45.35400 20.93300
H  5.24000 45.45400 20.62800
H  6.53300 46.00500 19.58000
H  5.74800 47.13000 20.54800
H  3.82000 46.40000 24.85000
H  3.07600 46.50300 26.51200
H  3.41400 45.00200 25.84000
H  6.10100 46.98400 30.78300
H  5.70000 45.23200 34.20600
H  6.37800 43.83600 33.41600
H  4.61900 43.91100 33.60700

