158

Mg 25.82800 1.03900 28.76600
C  27.73100 0.61700 31.79200
C  22.98100 1.22900 30.84000
C  24.04500 1.09300 26.08100
C  28.65800 0.18000 27.04500
N  25.43800 1.01100 31.14300
C  26.34100 0.93900 32.11600
C  25.72600 1.10100 33.47800
C  24.20500 1.15200 33.16600
C  24.16000 1.15400 31.66200
C  23.31200 -0.00300 33.66400
C  26.38100 2.29500 34.28300
C  27.13300 2.09700 35.67500
H  26.92100 3.12600 36.87400
N  23.78800 1.12700 28.48600
C  22.82300 1.20600 29.44800
C  21.48200 1.19300 28.81000
C  21.78800 1.15500 27.41700
C  23.20800 1.16400 27.28800
C  20.19300 0.93400 29.47600
C  20.85600 1.06500 26.19400
O  21.26100 1.14200 25.02200
C  19.35700 0.95000 26.41100
N  26.29100 0.55300 26.83800
C  25.40300 0.87500 25.86300
C  26.11200 1.01000 24.50400
C  27.52600 0.51800 24.81100
C  27.47800 0.38000 26.31700
C  25.44300 0.21000 23.34400
C  28.68900 1.31000 24.16500
C  29.24200 0.72300 22.83800
N  27.77200 0.47500 29.30000
C  28.82800 0.16200 28.40200
C  30.02200 0.01200 29.16100
C  29.66200 0.14400 30.50100
C  28.25900 0.40700 30.51800
C  31.43200 -0.27600 28.62200
C  30.13200 0.11300 31.85900
O  31.25600 -0.16900 32.23500
C  28.90100 0.35100 32.78400
C  28.58500 -0.80600 33.68200
O  27.79500 -1.68400 33.43700
O  29.28300 -0.57400 34.84600
C  28.74800 -1.41100 35.93700
H  22.12100 1.39900 31.49200
H  23.45400 1.36000 25.20200
H  29.63500 0.08200 26.56600
H  25.86400 0.15400 34.00100
H  23.83700 2.15000 33.40300
H  22.55500 0.50100 34.26500
H  23.89100 -0.73900 34.22300
H  22.77400 -0.58000 32.91200
H  25.66900 3.07300 34.55600
H  27.03300 2.83600 33.59700
H  28.19100 2.29100 35.50000
H  26.91300 1.09300 36.03900
H  19.70800 0.03000 29.10800
H  19.59800 1.84500 29.41200
H  20.36600 0.72700 30.53200
H  18.73600 1.28700 25.58100
H  19.09900 1.59900 27.24700
H  19.06400 -0.09700 26.48800
H  26.07000 2.07100 24.26000
H  27.73700 -0.45500 24.36700
H  25.25500 1.03700 22.66000
H  24.42200 -0.14700 23.48200
H  26.16300 -0.51100 22.95700
H  29.57300 1.38200 24.79900
H  28.27800 2.28200 23.89100
H  29.08700 1.49900 22.08900
H  28.75300 -0.18600 22.48800
H  30.30100 0.52500 23.00500
H  31.55200 0.20200 27.65000
H  31.58800 -1.35300 28.55100
H  32.13500 0.25100 29.26800
H  29.09700 1.26600 33.34200
H  28.91100 -2.44600 35.63300
H  27.69800 -1.22900 36.16500
H  29.42300 -1.40500 36.79300
Mg 49.02500 35.14100 27.08900
C  47.00300 34.01300 29.81000
C  49.61200 37.95100 28.94700
C  50.05700 36.53500 24.33900
C  47.80000 32.39900 25.23000
N  48.46000 35.78200 29.25000
C  47.68700 35.15000 30.15200
C  47.67300 35.92200 31.44900
C  48.08200 37.37100 31.00500
C  48.78600 37.01600 29.65300
C  46.88500 38.46000 30.97100
C  48.60500 35.33800 32.58700
C  47.88700 35.05200 33.93800
H  46.91500 36.07800 34.41300
N  49.94600 36.89300 26.74200
C  50.10800 37.92700 27.59600
C  50.86800 39.01200 26.97700
C  50.87900 38.72600 25.55800
C  50.27400 37.36900 25.46800
C  51.26000 40.21100 27.75200
C  51.47800 39.49000 24.44300
O  51.42000 39.01600 23.31200
C  52.15900 40.78000 24.63900
N  48.98100 34.47700 25.06500
C  49.55900 35.29200 24.13400
C  49.32300 34.68000 22.76100
C  48.82500 33.20100 23.05900
C  48.56300 33.35500 24.58600
C  48.23900 35.43400 21.92700
C  49.83700 32.01500 22.79500
C  49.66300 31.26100 21.46500
N  47.75200 33.46500 27.44000
C  47.43100 32.39500 26.61000
C  46.67400 31.39700 27.34500
C  46.43100 31.98000 28.61700
C  47.07900 33.24900 28.59700
C  46.03300 30.04600 26.88900
C  45.58200 31.88500 29.80300
O  44.69600 30.99200 30.11100
C  46.02700 33.13400 30.62900
C  46.63800 32.57200 31.93100
O  47.75800 32.11200 32.04800
O  45.68000 32.39400 32.93900
C  46.06700 31.52800 34.01000
H  49.74700 38.87500 29.51300
H  50.35400 36.92600 23.36400
H  47.42900 31.60700 24.57500
H  46.62900 35.83900 31.75300
H  48.92300 37.84500 31.51100
H  47.15800 39.39700 31.45500
H  46.05500 37.97900 31.48900
H  46.58800 38.73300 29.95800
H  49.43300 35.93200 32.97200
H  48.96600 34.42100 32.12100
H  48.64500 34.96700 34.71600
H  47.34300 34.10800 33.92000
H  50.43000 40.88400 27.96900
H  51.90700 40.96500 27.30300
H  51.76300 39.81900 28.63500
H  51.43500 41.36400 25.20700
H  52.41900 41.31600 23.72700
H  53.00800 40.49200 25.26000
H  50.24100 34.61500 22.17600
H  47.83300 32.97500 22.66700
H  47.29900 34.90500 21.77100
H  48.56600 35.82000 20.96100
H  47.87600 36.24100 22.56200
H  49.76100 31.33800 23.64600
H  50.83900 32.44400 22.81000
H  50.65200 31.30100 21.01000
H  48.93100 31.67800 20.77200
H  49.40100 30.25500 21.79200
H  46.25200 29.89600 25.83200
H  44.95800 30.04500 27.07000
H  46.58900 29.31600 27.47700
H  45.16000 33.74600 30.87500
H  45.13500 31.23100 34.49100
H  46.70400 32.02900 34.73900
H  46.50000 30.57100 33.72100

