158

Mg -2.27400 17.52500 27.40600
C  -2.67100 15.29300 30.04900
C  -2.86600 20.14900 29.59200
C  -2.08500 19.73900 24.77200
C  -1.99800 14.82000 25.26000
N  -2.76900 17.62900 29.49900
C  -2.83800 16.63700 30.42000
C  -2.95200 17.17000 31.86900
C  -3.04900 18.69300 31.66700
C  -2.85700 18.86800 30.11900
C  -4.34200 19.38100 32.31900
C  -1.76500 16.67500 32.85000
C  -1.33600 17.51800 34.03200
H  -0.75800 16.78500 35.23600
N  -2.31600 19.69900 27.22600
C  -2.68300 20.56100 28.23100
C  -2.68100 21.93700 27.66000
C  -2.45700 21.77900 26.28600
C  -2.32200 20.32400 26.02300
C  -2.84400 23.11800 28.52100
C  -2.33000 22.92200 25.24900
O  -1.98400 22.69800 24.12000
C  -2.64300 24.29600 25.51500
N  -2.11500 17.36100 25.33400
C  -2.05100 18.36200 24.46600
C  -1.89100 17.90300 22.96700
C  -1.66300 16.39400 23.19500
C  -1.91100 16.16200 24.72600
C  -3.11500 18.19600 22.00900
C  -0.32600 15.73500 22.63000
C  0.92400 15.89000 23.49400
N  -2.36200 15.50600 27.52000
C  -2.23700 14.51300 26.56200
C  -2.49300 13.22300 27.12700
C  -2.66200 13.48600 28.48800
C  -2.50200 14.87200 28.73400
C  -2.50300 11.81700 26.49800
C  -2.76900 12.81600 29.78300
O  -2.86100 11.67300 30.24300
C  -2.87300 13.98400 30.89600
C  -1.84000 13.57000 31.83200
O  -0.64000 13.73800 31.69900
O  -2.42500 12.90300 32.89600
C  -1.56700 12.34500 33.96500
H  -3.01600 20.92100 30.35000
H  -2.05700 20.38600 23.89300
H  -1.84500 13.98200 24.57700
H  -3.90100 16.83000 32.28400
H  -2.11700 19.06200 32.09600
H  -4.84100 18.74900 33.05400
H  -5.04900 19.66200 31.53800
H  -3.96800 20.31300 32.74200
H  -0.96400 16.40300 32.16200
H  -2.15800 15.77300 33.31900
H  -2.26700 17.95400 34.39500
H  -0.72500 18.37400 33.74500
H  -2.53700 23.03600 29.56400
H  -3.89600 23.40500 28.51500
H  -2.18900 23.87700 28.09200
H  -3.50400 24.24000 26.18100
H  -2.75500 24.87400 24.59800
H  -1.94200 24.81400 26.17100
H  -0.94300 18.23900 22.54700
H  -2.40000 15.82100 22.63100
H  -2.53300 18.50700 21.14100
H  -3.58200 19.08800 22.42700
H  -3.86300 17.41900 21.85300
H  -0.15500 16.12700 21.62700
H  -0.57200 14.67400 22.61100
H  1.59600 16.45300 22.84700
H  1.43100 14.97400 23.79800
H  0.77700 16.40400 24.44400
H  -2.94900 11.07200 27.15800
H  -1.46400 11.59100 26.25900
H  -3.10800 11.80300 25.59100
H  -3.74300 13.98700 31.55200
H  -2.17300 12.10700 34.83900
H  -0.76900 12.99700 34.32200
H  -1.06200 11.40700 33.73300
Mg 4.97500 54.99100 40.75300
C  4.55500 51.54000 40.68200
C  7.89900 54.67400 39.29800
C  4.97800 58.28100 40.40300
C  1.78900 55.14500 42.20600
N  5.99700 53.28100 39.94400
C  5.79500 51.91900 40.15000
C  6.92800 51.06200 39.69700
C  8.10500 52.12400 39.45100
C  7.26400 53.40600 39.53800
C  9.32600 52.09000 40.41400
C  6.66600 50.07800 38.44500
C  5.63800 50.51600 37.38200
H  6.16700 51.04000 36.03300
N  6.26300 56.33400 39.90000
C  7.46400 55.98100 39.41400
C  8.11200 57.12400 38.87000
C  7.40200 58.28100 39.31800
C  6.14300 57.66300 39.90400
C  9.45500 56.99200 38.08700
C  7.75600 59.66300 39.09800
O  8.77500 59.92700 38.49400
C  6.95600 60.82900 39.62800
N  3.49500 56.47100 41.07900
C  3.82600 57.76600 40.93200
C  2.63000 58.63300 41.39500
C  1.53200 57.63000 41.57100
C  2.26200 56.32400 41.60000
C  3.03600 59.54600 42.63900
C  0.39000 57.56700 40.48600
C  -0.99200 57.86500 40.96300
N  3.47000 53.61700 41.36700
C  2.28900 53.83900 41.99300
C  1.66200 52.58500 42.37400
C  2.57100 51.56300 41.87300
C  3.53600 52.30900 41.19600
C  0.42700 52.45200 43.17800
C  2.82500 50.18400 41.72000
O  2.11600 49.21900 42.12600
C  4.23300 50.07100 41.09200
C  4.12700 49.07100 40.01700
O  3.35200 49.22300 39.03000
O  4.85000 47.90800 40.33700
C  4.85700 46.83900 39.31500
H  8.89400 54.56900 38.86200
H  4.96000 59.35900 40.22600
H  0.78800 55.15500 42.64200
H  7.25200 50.37300 40.47600
H  8.54000 51.95700 38.46600
H  10.17400 51.79000 39.79900
H  9.28900 51.45900 41.30200
H  9.44500 53.09400 40.82000
H  6.42100 49.09800 38.85600
H  7.62600 50.10800 37.93000
H  4.87500 51.21400 37.72800
H  5.21800 49.54700 37.11200
H  10.12700 56.89700 38.93900
H  9.83400 57.91500 37.64800
H  9.46800 56.08800 37.47700
H  7.55600 61.73300 39.51800
H  6.65600 60.56800 40.64300
H  5.99400 60.93700 39.12900
H  2.40100 59.34300 40.60100
H  1.19400 57.69200 42.60500
H  2.65600 59.13700 43.57400
H  2.67200 60.57300 42.59700
H  4.09600 59.61200 42.88600
H  0.20100 56.60200 40.01500
H  0.51500 58.37800 39.76800
H  -1.28300 58.82900 40.54600
H  -0.95700 57.91000 42.05100
H  -1.70800 57.08000 40.71800
H  0.17100 51.42400 42.92100
H  -0.41600 53.13700 43.08900
H  0.79200 52.41000 44.20400
H  5.02600 49.78700 41.78400
H  4.57400 47.25200 38.34700
H  4.18400 46.04000 39.62500
H  5.83900 46.37400 39.22400

