158

Mg 8.97800 3.70300 27.35800
C  10.30600 2.42200 30.25100
C  7.04100 5.84700 29.27100
C  7.42700 4.60800 24.56000
C  10.43200 1.08900 25.53900
N  8.63800 3.99800 29.56500
C  9.51200 3.50300 30.52800
C  9.16300 4.10800 31.93700
C  8.03300 5.20600 31.65100
C  7.81200 4.98200 30.05700
C  6.72900 4.95900 32.47100
C  10.36800 4.71500 32.70900
C  10.73600 3.99200 34.03900
H  10.36300 4.83300 35.29600
N  7.49900 5.04200 26.96300
C  6.81600 5.87600 27.85800
C  5.91300 6.76300 27.14400
C  6.05200 6.44700 25.75600
C  7.05700 5.34900 25.69700
C  5.03100 7.80600 27.70000
C  5.37800 7.00400 24.46000
O  5.57800 6.61000 23.31600
C  4.19700 7.97800 24.71400
N  9.06300 3.00300 25.22100
C  8.31400 3.60000 24.29600
C  8.45000 2.87300 22.93000
C  9.43100 1.68300 23.20200
C  9.73300 1.96700 24.71500
C  7.09900 2.54700 22.19000
C  10.78300 1.71800 22.44600
C  11.37600 0.31800 22.05100
N  10.13100 2.01500 27.68000
C  10.66000 1.10800 26.88400
C  11.48400 0.25200 27.67300
C  11.36400 0.65800 29.03400
C  10.61600 1.83600 28.94000
C  12.33400 -0.84800 27.22800
C  11.72200 0.40600 30.37800
O  12.50500 -0.44700 30.75900
C  11.05500 1.50700 31.22300
C  10.01900 0.86400 32.11200
O  8.85800 0.68700 31.76900
O  10.54900 0.60300 33.37300
C  9.56000 0.14000 34.32900
H  6.63500 6.66400 29.87100
H  6.91700 4.87500 23.63200
H  10.92300 0.21100 25.11200
H  8.84600 3.23800 32.51300
H  8.28200 6.24900 31.84800
H  5.87900 5.00800 31.79000
H  6.70700 5.77700 33.19100
H  6.74900 4.02400 33.03100
H  10.12400 5.75700 32.91500
H  11.26200 4.66900 32.08800
H  11.81500 3.84400 34.07900
H  10.20600 3.05300 34.20300
H  4.01500 7.54900 27.40200
H  5.22700 8.83200 27.38600
H  5.01000 7.78000 28.79000
H  4.65000 8.89300 25.09500
H  3.43800 7.61700 25.40800
H  3.77300 8.20200 23.73500
H  8.93100 3.59600 22.27200
H  8.92000 0.72700 23.09900
H  6.19700 3.02500 22.57300
H  7.03700 1.46100 22.13000
H  7.10600 2.91400 21.16400
H  11.61100 2.18900 22.97500
H  10.57700 2.19200 21.48600
H  12.18300 0.06900 22.74000
H  11.83200 0.59200 21.10000
H  10.62600 -0.46900 21.98800
H  13.10300 -1.08700 27.96300
H  12.83700 -0.41000 26.36600
H  11.76200 -1.69500 26.84900
H  11.76000 2.13600 31.76700
H  8.83900 0.95000 34.44700
H  10.09600 -0.04600 35.25900
H  8.93100 -0.73700 34.17400
Mg 47.35000 24.83600 29.46100
C  48.09400 27.24200 31.94900
C  46.22300 22.79100 32.05100
C  46.81200 22.56500 27.21800
C  48.90700 26.90900 27.05900
N  47.14500 24.98800 31.69900
C  47.52800 26.07600 32.45200
C  47.18000 25.81900 33.91600
C  47.00200 24.25400 33.95500
C  46.72900 24.01600 32.50800
C  48.19200 23.54800 34.61200
C  46.02200 26.70400 34.46500
C  46.39000 27.58800 35.72200
H  46.52100 26.84900 37.06400
N  46.57600 22.96500 29.65100
C  46.18600 22.28300 30.74100
C  45.68400 20.96000 30.36900
C  45.80300 20.92000 28.92400
C  46.39800 22.19400 28.51600
C  45.01800 19.98800 31.34400
C  45.41200 19.81000 28.02200
O  45.49700 19.89500 26.84700
C  45.13500 18.37700 28.57600
N  47.74300 24.78500 27.42500
C  47.45600 23.70100 26.65200
C  47.72300 23.89700 25.16700
C  48.33100 25.31800 25.12100
C  48.35300 25.71600 26.61200
C  48.66900 22.77300 24.69300
C  47.57500 26.46900 24.25300
C  48.54500 27.06400 23.24100
N  48.28800 26.71900 29.46400
C  48.90600 27.41100 28.41800
C  49.35800 28.71500 28.90500
C  49.10800 28.63200 30.30700
C  48.40400 27.44200 30.58500
C  50.02300 29.79600 28.17200
C  49.22000 29.43200 31.58400
O  49.69400 30.53600 31.74000
C  48.55900 28.51700 32.65500
C  49.73300 28.13600 33.63000
O  50.71000 27.42500 33.41600
O  49.52400 28.65500 34.92000
C  50.62700 28.36300 35.86300
H  46.08300 22.19900 32.95900
H  46.47400 21.93500 26.39300
H  49.28800 27.66400 26.36800
H  48.10200 25.93300 34.48600
H  46.08700 23.99000 34.48400
H  47.91300 22.76100 35.31300
H  48.93100 24.23500 35.02300
H  48.66300 22.86700 33.90300
H  45.20800 26.02200 34.71300
H  45.44800 27.27700 33.73700
H  45.70300 28.42900 35.82100
H  47.37800 28.03800 35.63100
H  45.60400 19.07600 31.45500
H  44.03100 19.60700 31.08300
H  44.95000 20.34200 32.37200
H  45.84200 18.01900 29.32400
H  45.15200 17.65700 27.75800
H  44.16400 18.49100 29.05900
H  46.80700 23.91600 24.57600
H  49.33000 25.22800 24.69500
H  49.07400 23.18200 23.76700
H  48.13200 21.86300 24.42400
H  49.40000 22.63500 25.49000
H  47.19700 27.28500 24.86800
H  46.64800 26.16100 23.77100
H  48.71000 28.13800 23.32400
H  48.07100 26.99400 22.26200
H  49.56700 26.68900 23.17400
H  49.97500 29.63900 27.09500
H  51.08700 29.88300 28.39500
H  49.43600 30.66800 28.46300
H  47.66900 28.82200 33.20400
H  50.04900 27.76200 36.56500
H  50.97400 29.29800 36.30400
H  51.41400 27.70700 35.49000

