158

Mg 36.01900 1.70200 29.52100
C  34.23400 2.86500 32.39700
C  38.87000 1.88600 31.40600
C  37.59800 1.31100 26.61000
C  32.87300 1.84300 27.76000
N  36.47000 2.22100 31.77900
C  35.60100 2.68800 32.71500
C  36.46000 2.99100 33.99100
C  37.97400 2.76600 33.62800
C  37.81200 2.15700 32.17400
C  38.55400 4.16000 33.51300
C  36.04700 2.03500 35.21000
C  36.74800 2.35100 36.57500
H  35.84300 2.48700 37.82800
N  37.92000 1.44800 29.09900
C  39.00700 1.48500 30.00900
C  40.22200 1.16500 29.29200
C  39.86600 1.14800 27.87800
C  38.33300 1.21200 27.81800
C  41.59300 1.18000 29.91400
C  40.78600 1.00800 26.69800
O  40.29800 1.05100 25.52600
C  42.31200 0.75200 26.96400
N  35.30300 1.44900 27.52100
C  36.20300 1.45200 26.48700
C  35.56500 1.48000 25.05600
C  34.03400 1.46500 25.59000
C  34.05100 1.60900 27.09500
C  35.88100 2.72700 24.19200
C  33.30500 0.11500 25.21500
C  32.86400 0.05000 23.67900
N  34.03100 2.16200 29.94600
C  32.88900 2.09400 29.15700
C  31.77700 2.59500 29.96700
C  32.23200 2.82800 31.28800
C  33.60900 2.60500 31.19400
C  30.40100 2.81500 29.46200
C  31.88600 3.37100 32.55600
O  30.89100 3.82600 32.98700
C  33.25200 3.41800 33.33400
C  33.47800 4.76400 33.77100
O  34.25700 5.58300 33.32700
O  32.57600 5.06000 34.75800
C  32.65000 6.40900 35.34600
H  39.82400 2.05300 31.91000
H  38.09900 1.33600 25.64000
H  32.00300 1.75700 27.10500
H  36.12400 3.96200 34.35600
H  38.55500 2.12400 34.29000
H  37.86700 4.98900 33.68100
H  38.90700 4.21400 32.48300
H  39.39300 4.23500 34.20500
H  36.26000 0.99400 34.96500
H  34.98000 2.14600 35.39900
H  37.35000 3.25800 36.63200
H  37.35600 1.44900 36.62800
H  42.28100 0.39700 29.59400
H  41.39200 0.99700 30.96900
H  42.01800 2.17400 29.77700
H  42.79600 0.62200 25.99600
H  42.30400 -0.21600 27.46500
H  42.72100 1.59400 27.52100
H  35.73400 0.55000 24.51200
H  33.48900 2.35200 25.26700
H  36.68000 3.32100 24.63600
H  34.94400 3.24300 23.98100
H  36.36100 2.41200 23.26600
H  32.37800 -0.02300 25.77200
H  34.07500 -0.61000 25.48000
H  33.51900 -0.67400 23.19400
H  33.00500 1.01000 23.18200
H  31.80500 -0.19900 23.62100
H  30.34200 2.38600 28.46100
H  30.33200 3.88700 29.27500
H  29.75200 2.34700 30.20200
H  33.03800 2.78600 34.19600
H  31.65400 6.79700 35.56000
H  33.04400 7.21300 34.72500
H  33.27200 6.35700 36.23900
Mg 47.67400 24.64000 28.36600
C  48.24300 27.06100 30.81200
C  46.19100 22.64200 30.86500
C  46.95400 22.30800 26.12700
C  49.18400 26.65700 25.93100
N  47.13900 24.88200 30.57500
C  47.51300 25.95800 31.35500
C  47.08300 25.75800 32.81000
C  46.55400 24.22300 32.85500
C  46.53400 23.91400 31.37200
C  47.17500 23.28500 33.83100
C  46.09600 26.67600 33.44500
C  45.99700 26.90200 35.00300
H  46.84600 26.11200 36.00400
N  46.58700 22.77400 28.47500
C  46.13700 22.14700 29.53500
C  45.44300 20.91200 29.12700
C  45.56600 20.83200 27.73800
C  46.39300 21.99300 27.36800
C  44.83600 19.90200 30.08300
C  45.00300 19.87400 26.67600
O  45.12000 19.97400 25.45100
C  44.26800 18.68100 27.24400
N  48.12400 24.42500 26.34500
C  47.67600 23.40200 25.61300
C  48.08400 23.55100 24.14200
C  48.63100 25.03500 23.99000
C  48.65400 25.40000 25.47100
C  49.17100 22.50500 23.72300
C  47.63500 25.94900 23.26500
C  48.19200 27.12000 22.22200
N  48.62600 26.41800 28.33900
C  49.17400 27.10700 27.26500
C  49.57300 28.39900 27.72600
C  49.27700 28.38000 29.06800
C  48.68200 27.16300 29.43600
C  50.26900 29.45800 27.01100
C  49.44900 29.18200 30.23400
O  49.98900 30.26700 30.44800
C  48.67200 28.36600 31.40800
C  49.54400 28.23300 32.58300
O  50.60600 27.60600 32.54500
O  49.17200 29.06600 33.67600
C  50.01100 29.02400 34.90000
H  45.71800 21.96500 31.58000
H  46.80600 21.51000 25.39600
H  49.60300 27.38100 25.22900
H  47.91400 25.89700 33.50100
H  45.51400 24.29800 33.17300
H  47.93500 23.74900 34.46000
H  47.60900 22.45800 33.26900
H  46.49000 22.92800 34.60000
H  45.09800 26.47500 33.05600
H  46.31500 27.68400 33.09400
H  44.98900 26.76400 35.39200
H  46.21500 27.96500 35.09900
H  43.75800 19.95300 29.93400
H  45.08900 20.03000 31.13600
H  45.11000 18.85900 29.92600
H  45.02700 18.18100 27.84500
H  43.83700 18.00500 26.50500
H  43.46900 19.01100 27.90800
H  47.21100 23.38400 23.51100
H  49.62600 25.16800 23.56300
H  48.68000 21.62400 23.30900
H  49.75400 22.39500 24.63700
H  49.78200 23.00700 22.97300
H  47.07300 26.59700 23.93800
H  47.02400 25.33300 22.60500
H  48.05000 28.14600 22.55900
H  47.98800 26.95900 21.16300
H  49.26200 27.03300 22.41200
H  50.27800 30.42500 27.51400
H  49.68300 29.55200 26.09700
H  51.27900 29.06500 26.88900
H  47.78800 28.92900 31.70900
H  49.38900 28.53100 35.64700
H  50.18800 30.04800 35.23000
H  50.92900 28.44400 34.80800

