158

Mg 47.67400 24.64000 28.36600
C  48.24300 27.06100 30.81200
C  46.19100 22.64200 30.86500
C  46.95400 22.30800 26.12700
C  49.18400 26.65700 25.93100
N  47.13900 24.88200 30.57500
C  47.51300 25.95800 31.35500
C  47.08300 25.75800 32.81000
C  46.55400 24.22300 32.85500
C  46.53400 23.91400 31.37200
C  47.17500 23.28500 33.83100
C  46.09600 26.67600 33.44500
C  45.99700 26.90200 35.00300
H  46.84600 26.11200 36.00400
N  46.58700 22.77400 28.47500
C  46.13700 22.14700 29.53500
C  45.44300 20.91200 29.12700
C  45.56600 20.83200 27.73800
C  46.39300 21.99300 27.36800
C  44.83600 19.90200 30.08300
C  45.00300 19.87400 26.67600
O  45.12000 19.97400 25.45100
C  44.26800 18.68100 27.24400
N  48.12400 24.42500 26.34500
C  47.67600 23.40200 25.61300
C  48.08400 23.55100 24.14200
C  48.63100 25.03500 23.99000
C  48.65400 25.40000 25.47100
C  49.17100 22.50500 23.72300
C  47.63500 25.94900 23.26500
C  48.19200 27.12000 22.22200
N  48.62600 26.41800 28.33900
C  49.17400 27.10700 27.26500
C  49.57300 28.39900 27.72600
C  49.27700 28.38000 29.06800
C  48.68200 27.16300 29.43600
C  50.26900 29.45800 27.01100
C  49.44900 29.18200 30.23400
O  49.98900 30.26700 30.44800
C  48.67200 28.36600 31.40800
C  49.54400 28.23300 32.58300
O  50.60600 27.60600 32.54500
O  49.17200 29.06600 33.67600
C  50.01100 29.02400 34.90000
H  45.71800 21.96500 31.58000
H  46.80600 21.51000 25.39600
H  49.60300 27.38100 25.22900
H  47.91400 25.89700 33.50100
H  45.51400 24.29800 33.17300
H  47.93500 23.74900 34.46000
H  47.60900 22.45800 33.26900
H  46.49000 22.92800 34.60000
H  45.09800 26.47500 33.05600
H  46.31500 27.68400 33.09400
H  44.98900 26.76400 35.39200
H  46.21500 27.96500 35.09900
H  43.75800 19.95300 29.93400
H  45.08900 20.03000 31.13600
H  45.11000 18.85900 29.92600
H  45.02700 18.18100 27.84500
H  43.83700 18.00500 26.50500
H  43.46900 19.01100 27.90800
H  47.21100 23.38400 23.51100
H  49.62600 25.16800 23.56300
H  48.68000 21.62400 23.30900
H  49.75400 22.39500 24.63700
H  49.78200 23.00700 22.97300
H  47.07300 26.59700 23.93800
H  47.02400 25.33300 22.60500
H  48.05000 28.14600 22.55900
H  47.98800 26.95900 21.16300
H  49.26200 27.03300 22.41200
H  50.27800 30.42500 27.51400
H  49.68300 29.55200 26.09700
H  51.27900 29.06500 26.88900
H  47.78800 28.92900 31.70900
H  49.38900 28.53100 35.64700
H  50.18800 30.04800 35.23000
H  50.92900 28.44400 34.80800
Mg 16.93900 52.21500 26.33500
C  18.53500 50.72300 28.99500
C  14.41100 53.04900 28.34600
C  15.19900 53.24200 23.56600
C  19.40700 51.03800 24.20700
N  16.49400 51.81000 28.37200
C  17.38200 51.40100 29.33100
C  16.85900 51.70400 30.77000
C  15.40100 52.03600 30.43300
C  15.41200 52.32400 28.96000
C  14.49000 50.78700 30.83800
C  17.69200 52.83600 31.36200
C  17.68600 53.01000 32.95000
H  16.72400 52.08400 33.76400
N  15.11200 53.08400 25.99000
C  14.20400 53.41000 26.96400
C  13.04200 54.09700 26.46700
C  13.32400 54.18200 25.04600
C  14.61800 53.37000 24.84100
C  11.84700 54.60600 27.30500
C  12.58300 54.90300 23.94000
O  12.76500 54.77800 22.75000
C  11.36100 55.61000 24.25700
N  17.17500 51.89900 24.08500
C  16.41500 52.58100 23.22900
C  17.07900 52.73700 21.82400
C  18.51600 52.26900 22.16100
C  18.38100 51.73300 23.56700
C  16.35000 51.73000 20.75100
C  19.52200 53.43300 22.00500
C  20.66700 53.09500 21.06100
N  18.64000 51.04700 26.46100
C  19.59300 50.67200 25.56500
C  20.67800 49.96900 26.26800
C  20.29200 49.94200 27.59500
C  18.96200 50.50200 27.66800
C  21.83600 49.26900 25.54800
C  20.72700 49.49800 28.92200
O  21.66500 48.84900 29.27800
C  19.56400 50.01500 29.92000
C  19.09400 48.87900 30.83100
O  18.35200 48.01600 30.40700
O  19.50500 49.11000 32.14600
C  18.92400 48.25300 33.20400
H  13.56600 53.32300 28.98100
H  14.62700 53.58100 22.70000
H  20.24400 50.71200 23.58600
H  16.80500 50.83500 31.42600
H  15.04900 52.85400 31.06100
H  13.77500 50.68600 30.02200
H  13.78300 50.87300 31.66300
H  15.08200 49.88000 30.71000
H  17.39300 53.73600 30.82600
H  18.69100 52.56900 31.01500
H  17.30000 54.01900 33.09400
H  18.72900 52.80200 33.19200
H  12.09100 55.61000 27.65200
H  11.75300 53.94800 28.16900
H  10.89500 54.58900 26.77400
H  11.62100 56.50000 24.83100
H  10.73400 54.85200 24.72600
H  10.82400 55.93800 23.36700
H  17.05400 53.78000 21.51000
H  18.81500 51.47600 21.47600
H  15.32500 51.54800 21.07200
H  16.82400 50.74900 20.70300
H  16.41300 52.14000 19.74300
H  19.86900 53.71800 22.99700
H  19.00400 54.30600 21.60800
H  21.19500 54.02400 20.84600
H  20.19400 52.55200 20.24300
H  21.44300 52.47800 21.51300
H  22.55800 48.91200 26.28200
H  22.30900 49.98800 24.87800
H  21.32000 48.42500 25.08900
H  20.10000 50.76400 30.50300
H  17.86500 48.11600 32.98500
H  18.93900 48.73400 34.18100
H  19.49200 47.33500 33.05200

