158

Mg 9.28000 4.57200 26.97000
C  10.21300 3.17500 30.13500
C  6.73400 6.19300 28.69000
C  8.07800 5.59800 24.07500
C  11.36700 2.30000 25.44200
N  8.56200 4.58900 29.22300
C  9.06300 4.03500 30.32400
C  8.44400 4.65400 31.61000
C  7.10900 5.25800 31.11900
C  7.49400 5.40300 29.62800
C  5.84200 4.29800 31.09700
C  9.36000 5.66500 32.39200
C  9.36100 5.46700 33.90200
H  10.64700 5.55200 34.72200
N  7.75000 5.90200 26.47200
C  6.86000 6.43900 27.29600
C  5.99100 7.36600 26.54900
C  6.52800 7.34600 25.22500
C  7.51500 6.27600 25.20300
C  4.90000 8.22300 27.21700
C  6.17600 8.20100 24.11400
O  6.83500 8.22900 23.08100
C  5.08400 9.24500 24.18700
N  9.62400 3.94200 24.98400
C  9.01700 4.58700 23.99200
C  9.58600 4.09300 22.58900
C  10.69700 3.07100 23.04900
C  10.57400 3.04200 24.61200
C  8.46400 3.55500 21.63300
C  12.14900 3.40000 22.49000
C  12.77000 2.71800 21.20100
N  10.62500 3.14900 27.62000
C  11.38400 2.32200 26.83800
C  12.11500 1.41500 27.76000
C  11.83500 1.90700 28.98800
C  10.79100 2.85800 28.91900
C  13.04300 0.27200 27.37800
C  12.14000 1.70000 30.40100
O  12.89200 0.88800 30.93900
C  11.20600 2.59400 31.21700
C  10.45000 1.70600 32.15300
O  9.57700 0.97300 31.79700
O  10.79300 1.96400 33.47400
C  9.81800 1.49600 34.47600
H  5.92900 6.71100 29.21600
H  7.71100 5.91300 23.09600
H  12.12500 1.62300 25.04300
H  8.20600 3.75900 32.18400
H  6.76600 6.12000 31.69200
H  5.46800 4.03200 30.10800
H  5.01700 4.84900 31.54900
H  6.19700 3.36800 31.54100
H  9.07200 6.61800 31.94800
H  10.38500 5.44300 32.09600
H  8.75700 4.58600 34.12300
H  8.92700 6.40500 34.24900
H  4.74100 8.03100 28.27800
H  3.94700 7.96900 26.75400
H  4.95400 9.29900 27.04900
H  5.44700 10.11100 24.74100
H  4.30100 8.84600 24.83100
H  4.78400 9.54100 23.18200
H  10.10400 4.99700 22.27000
H  10.35600 2.07200 22.77700
H  8.68500 2.57500 21.20900
H  8.39200 4.22900 20.77900
H  7.51300 3.51400 22.16300
H  12.89100 3.51400 23.28000
H  12.15600 4.43200 22.14000
H  12.03700 2.13800 20.64000
H  13.53200 1.98600 21.47100
H  13.12200 3.50100 20.53100
H  13.12800 0.12100 26.30200
H  12.73400 -0.68400 27.80300
H  14.05200 0.45300 27.74800
H  11.61800 3.35700 31.87800
H  9.28700 2.31200 34.96500
H  10.26600 0.88600 35.26100
H  9.08500 0.83200 34.01800
Mg 5.53600 53.66200 41.31100
C  5.17800 50.12000 40.95700
C  8.79300 53.25800 40.28300
C  5.55100 56.76400 40.95600
C  1.98400 53.59500 41.94300
N  6.79000 51.92800 40.76100
C  6.52200 50.60500 40.59400
C  7.61900 49.80500 39.84700
C  8.81700 50.71900 40.09500
C  8.13500 52.07300 40.43400
C  9.85800 50.27300 41.15000
C  7.33600 49.45900 38.34900
C  6.51700 50.43500 37.48300
H  7.39700 51.22500 36.42600
N  7.03100 54.87500 40.77000
C  8.29100 54.55500 40.34800
C  9.00300 55.70900 40.01400
C  8.07900 56.85400 40.16100
C  6.80600 56.19800 40.61100
C  10.41700 55.62800 39.42800
C  8.40700 58.33600 39.75300
O  9.54500 58.67100 39.55600
C  7.33500 59.30100 39.68600
N  3.94600 54.93900 41.21900
C  4.27200 56.27800 41.20900
C  3.12200 57.20000 41.60100
C  1.94700 56.15600 41.75000
C  2.61500 54.78500 41.63200
C  3.27200 58.18900 42.84300
C  0.86600 56.38600 40.67400
C  -0.51500 56.01800 41.29600
N  3.94600 52.18800 41.57400
C  2.60100 52.37400 41.88300
C  2.05700 51.03200 42.17600
C  3.00800 50.19900 41.78900
C  4.14200 50.89800 41.34100
C  0.71900 50.66300 42.69600
C  3.25900 48.79900 41.57600
O  2.50000 47.82800 41.76700
C  4.70400 48.70300 41.09300
C  4.59200 47.92500 39.87600
O  3.81100 48.28000 38.95000
O  5.11800 46.62600 39.93200
C  4.68400 45.74300 38.81200
H  9.86800 53.25400 40.08800
H  5.56800 57.85400 40.90200
H  0.96300 53.86800 42.21800
H  7.79100 48.84400 40.33200
H  9.42900 50.87800 39.20700
H  9.36100 50.34700 42.11700
H  10.75600 50.88100 41.03800
H  10.08300 49.22500 40.95300
H  6.76800 48.53300 38.44900
H  8.30200 49.24300 37.89300
H  5.86400 51.16500 37.96000
H  5.88200 49.72000 36.95900
H  10.44400 55.59500 38.33900
H  10.98300 54.78100 39.81700
H  10.94300 56.53000 39.74100
H  7.76600 60.12400 39.11500
H  7.07500 59.63000 40.69200
H  6.49300 58.86200 39.15100
H  2.93300 57.88300 40.77300
H  1.50000 56.15900 42.74400
H  4.28200 58.20500 43.25400
H  2.62400 57.89000 43.66800
H  3.03900 59.16300 42.41400
H  0.99500 55.61300 39.91600
H  0.88600 57.36800 40.20100
H  -1.26300 56.80900 41.25800
H  -0.51600 55.60700 42.30600
H  -0.87500 55.16600 40.71900
H  0.14900 50.07600 41.97600
H  0.25000 51.53000 43.16100
H  0.99100 49.95800 43.48100
H  5.43200 48.30000 41.79700
H  4.84700 46.21200 37.84200
H  3.61200 45.55400 38.85700
H  5.29700 44.84100 38.81800

