158

Mg 0.29500 8.13000 26.26900
C  0.87400 10.14500 29.26200
C  0.78400 5.46300 28.12200
C  0.35900 6.50300 23.49100
C  0.69200 11.21300 24.40000
N  0.84000 7.80400 28.46200
C  0.82400 8.74300 29.48100
C  0.97900 8.00400 30.83300
C  0.96100 6.47600 30.44500
C  0.80100 6.58300 28.93700
C  2.28600 5.73900 30.94900
C  -0.19700 8.42000 31.82700
C  0.09200 8.43700 33.37900
H  1.17500 7.56900 34.00100
N  0.51200 6.18600 25.81700
C  0.66600 5.19700 26.72200
C  0.46300 3.88500 26.04500
C  0.46700 4.18100 24.59400
C  0.38400 5.70000 24.58000
C  0.32500 2.54100 26.78700
C  0.27900 3.28100 23.34400
O  0.02200 3.81200 22.32000
C  0.35900 1.79600 23.46300
N  0.45200 8.78400 24.27900
C  0.31900 7.87100 23.28700
C  0.21100 8.51700 21.87600
C  -0.04600 9.99900 22.22500
C  0.47300 10.00100 23.71200
C  1.58000 8.25300 21.17300
C  -1.54300 10.33100 22.18400
C  -1.87500 11.51900 21.23400
N  0.67900 10.26700 26.72300
C  0.78500 11.31800 25.82500
C  0.92900 12.55400 26.54600
C  1.00300 12.19000 27.93100
C  0.82400 10.74400 27.98200
C  1.09500 13.94100 25.98200
C  1.27200 12.67300 29.24000
O  1.60600 13.78700 29.68600
C  1.08500 11.36000 30.21000
C  2.19300 11.23500 31.15800
O  3.14500 10.51900 30.93500
O  1.96200 11.95300 32.29100
C  3.09500 12.10400 33.18100
H  1.00100 4.56500 28.70300
H  0.30600 6.02900 22.50800
H  0.74100 12.16400 23.86500
H  1.91700 8.29300 31.30600
H  0.09100 5.93500 30.81600
H  1.99500 4.87600 31.54700
H  3.03400 6.32600 31.48200
H  2.85600 5.37100 30.09500
H  -1.02100 7.73700 31.61800
H  -0.54300 9.42700 31.59500
H  -0.77000 8.32400 34.03600
H  0.45800 9.41700 33.68400
H  0.16000 2.68600 27.85500
H  1.21300 1.93800 26.60100
H  -0.63900 2.13600 26.47900
H  -0.38100 1.40200 24.15900
H  1.28700 1.51600 23.96000
H  0.38500 1.33400 22.47600
H  -0.60900 8.18600 21.23800
H  0.59300 10.63300 21.61100
H  2.17400 7.49600 21.68500
H  2.19600 9.15100 21.12500
H  1.49300 8.03100 20.10900
H  -1.79900 10.74300 23.16000
H  -2.18200 9.48700 21.92400
H  -1.99000 12.43600 21.81100
H  -2.87800 11.26400 20.89200
H  -1.25200 11.75100 20.37000
H  0.44600 13.96700 25.10600
H  2.13600 14.15400 25.74000
H  0.75200 14.68300 26.70300
H  0.20800 11.59300 30.81300
H  3.58900 13.03500 32.90100
H  3.69900 11.20000 33.25900
H  2.60400 12.15000 34.15200
Mg 35.91200 2.50900 30.52600
C  33.72200 3.60100 32.90200
C  38.40000 2.47400 32.96700
C  38.19300 1.65200 28.05100
C  33.49700 2.78100 28.05000
N  36.03500 3.08600 32.67800
C  34.99500 3.35000 33.44400
C  35.37100 3.42800 34.95800
C  36.86600 3.21400 34.92700
C  37.13400 2.89200 33.45500
C  37.72200 4.32400 35.50100
C  34.60400 2.30500 35.69100
C  34.07700 2.79700 37.08900
H  34.97400 3.65500 38.00700
N  37.94500 2.17900 30.50400
C  38.77400 2.18200 31.61400
C  40.10500 1.72000 31.12600
C  40.03500 1.29700 29.79500
C  38.68600 1.69100 29.39000
C  41.34800 1.48200 32.06700
C  41.13000 0.61300 28.82100
O  40.90600 0.07300 27.75700
C  42.50600 0.49700 29.30700
N  35.82500 2.14800 28.40200
C  36.86100 1.91500 27.60100
C  36.63300 1.83000 26.09600
C  35.01000 2.09200 26.11900
C  34.72400 2.28300 27.65800
C  37.40100 2.97900 25.41700
C  34.20300 0.86300 25.59800
C  33.00600 1.25700 24.64900
N  34.00600 3.00300 30.43300
C  33.13100 3.14600 29.38500
C  31.85600 3.64700 29.87700
C  32.05100 3.85000 31.23000
C  33.34400 3.47200 31.50700
C  30.74100 4.13700 28.98600
C  31.40100 4.24200 32.45200
O  30.21600 4.59900 32.59600
C  32.47400 4.16900 33.57600
C  32.64500 5.60900 34.07000
O  33.27800 6.51400 33.51600
O  32.01500 5.77500 35.27700
C  32.17700 7.11900 35.90400
H  39.09000 2.35500 33.80600
H  38.85800 1.24000 27.28900
H  32.76000 2.93700 27.25900
H  35.09100 4.42000 35.31300
H  37.13400 2.25700 35.37500
H  38.26900 3.82700 36.30300
H  37.16800 5.13800 35.96800
H  38.50000 4.58300 34.78400
H  35.20200 1.40000 35.80000
H  33.69900 2.04400 35.14200
H  33.67000 1.98300 37.68800
H  33.22900 3.45800 36.90900
H  41.47700 0.40300 32.15100
H  41.10800 1.69800 33.10800
H  42.08600 2.18400 31.68100
H  43.11500 0.25200 28.43700
H  42.41000 -0.26700 30.07800
H  42.85500 1.40400 29.80000
H  36.87200 0.84600 25.69200
H  34.81200 2.99100 25.53500
H  37.29700 2.85100 24.33900
H  38.43500 2.92400 25.75700
H  36.92700 3.93900 25.62000
H  33.88700 0.28300 26.46500
H  34.91600 0.28500 25.01100
H  33.25900 0.92100 23.64400
H  33.07000 2.34200 24.56900
H  32.03800 0.95500 25.04800
H  30.74900 3.51700 28.08900
H  31.00100 5.17000 28.75700
H  29.72300 4.01100 29.35300
H  31.97300 3.54400 34.31500
H  32.80200 7.02500 36.79200
H  31.22000 7.54100 36.21400
H  32.66700 7.91000 35.33600

