158

Mg 41.59600 41.25800 26.90900
C  40.68300 43.85500 29.32800
C  42.57400 39.31600 29.37900
C  42.35600 39.10400 24.59100
C  41.32600 43.75000 24.50800
N  41.77900 41.64500 29.09300
C  41.23300 42.63500 29.90600
C  41.35300 42.30700 31.40100
C  42.10900 40.93500 31.38200
C  42.17800 40.57800 29.85300
C  43.49000 40.85900 32.09900
C  39.98500 42.29500 32.14000
C  39.78800 43.10700 33.49600
H  39.10800 42.33400 34.66500
N  42.40500 39.44900 26.96900
C  42.64000 38.76400 28.08200
C  42.98700 37.39100 27.75600
C  43.01000 37.34000 26.27700
C  42.53000 38.65200 25.88200
C  43.30900 36.31600 28.74400
C  43.34900 36.22700 25.35900
O  43.26300 36.33700 24.11500
C  43.85400 35.01800 25.92500
N  41.91600 41.47500 24.78200
C  42.04600 40.38900 24.04000
C  41.89300 40.57100 22.56500
C  41.55300 42.06800 22.47800
C  41.58000 42.50000 24.01500
C  43.05500 40.06100 21.67000
C  40.10800 42.55500 21.89700
C  38.89700 41.99800 22.77500
N  40.97400 43.32400 26.87900
C  40.94900 44.15600 25.80200
C  40.50600 45.51200 26.27200
C  40.31900 45.37500 27.63700
C  40.64500 44.07700 27.99500
C  40.30100 46.75700 25.43900
C  39.85400 46.08600 28.81100
O  39.35400 47.18700 28.96200
C  40.09200 45.15800 30.02200
C  41.07000 45.84100 30.90100
O  42.21900 46.22700 30.62000
O  40.49900 45.92100 32.15100
C  41.20900 46.46000 33.25800
H  42.88200 38.69400 30.22200
H  42.23000 38.34600 23.81400
H  41.21900 44.49800 23.71900
H  42.03900 43.00400 31.88100
H  41.59800 40.13200 31.91300
H  44.28300 40.51800 31.43400
H  43.40300 40.12900 32.90500
H  43.75600 41.87100 32.40400
H  39.64400 41.28700 32.37900
H  39.24100 42.76000 31.49300
H  39.05900 43.89600 33.31300
H  40.72700 43.60200 33.74500
H  42.51500 35.60800 28.50700
H  43.23500 36.63500 29.78300
H  44.29800 35.90300 28.54400
H  44.08100 34.27400 25.16100
H  42.97500 34.71800 26.49500
H  44.72800 35.14300 26.56500
H  40.96400 40.02800 22.39000
H  42.41800 42.57900 22.05700
H  43.85300 39.79900 22.36400
H  43.44900 40.84000 21.01800
H  42.99900 39.08100 21.19700
H  40.05600 42.07300 20.92200
H  40.00600 43.64000 21.84900
H  38.21600 42.84800 22.82400
H  39.12500 41.67800 23.79200
H  38.43400 41.20700 22.18500
H  40.52000 46.46200 24.41200
H  40.91900 47.60900 25.72200
H  39.29500 47.15200 25.57800
H  39.17500 44.77700 30.47100
H  42.16400 46.92200 33.00600
H  41.16900 45.60300 33.93000
H  40.66300 47.28600 33.71600
Mg 26.81500 51.64200 26.59900
C  25.13400 52.49100 29.42400
C  29.38600 50.37400 28.45700
C  28.63700 50.89400 23.67500
C  24.74300 53.56300 24.75300
N  27.19500 51.51300 28.77400
C  26.29200 51.82400 29.75600
C  26.84400 51.54800 31.13700
C  28.29800 50.86800 30.77400
C  28.35400 50.96600 29.25600
C  29.43100 51.66500 31.36200
C  25.92900 50.68100 32.08300
C  26.52300 50.28700 33.38600
H  26.19600 51.12300 34.63600
N  28.73000 50.68800 26.20100
C  29.65300 50.27800 27.04700
C  30.77300 49.71100 26.41100
C  30.45600 49.70000 25.01900
C  29.22100 50.41300 24.91100
C  32.01700 49.08100 27.13900
C  31.26300 49.14100 23.88000
O  30.90800 49.22400 22.74000
C  32.54800 48.47800 24.10900
N  26.77300 52.18900 24.50900
C  27.58800 51.75200 23.52600
C  27.18800 52.30600 22.12600
C  25.88900 53.19500 22.52800
C  25.76200 52.90600 24.02300
C  28.27900 53.16500 21.32500
C  24.62300 53.08200 21.64300
C  23.80900 51.81100 21.83200
N  25.21500 52.75400 26.97100
C  24.35700 53.39700 26.09400
C  23.25500 53.98800 26.83600
C  23.53600 53.70000 28.18700
C  24.72100 52.92600 28.19500
C  22.11100 54.74100 26.29100
C  23.02900 53.82800 29.52200
O  22.05000 54.41300 29.96800
C  24.05900 53.06100 30.38700
C  24.51300 54.06000 31.40300
O  25.26400 55.00900 31.17400
O  23.78200 53.91600 32.54700
C  23.98800 54.91300 33.61900
H  30.14200 49.92000 29.10100
H  29.11900 50.58000 22.74700
H  23.93000 53.96500 24.14600
H  26.93300 52.57500 31.49100
H  28.31100 49.82500 31.09100
H  29.17800 52.03700 32.35500
H  29.68000 52.52400 30.73900
H  30.21500 50.93600 31.56700
H  25.57800 49.83400 31.49200
H  25.11200 51.38900 32.22500
H  27.60800 50.37400 33.33200
H  26.27700 49.23100 33.49100
H  31.93900 47.99500 27.19900
H  32.00100 49.53800 28.12800
H  32.96800 49.37600 26.69400
H  33.28800 49.03900 24.68000
H  32.94100 48.30600 23.10600
H  32.49200 47.44100 24.44000
H  26.83100 51.41900 21.60300
H  26.14600 54.25300 22.58200
H  29.31500 52.99800 21.61800
H  27.97800 54.16400 21.00800
H  28.28600 52.54500 20.42800
H  25.03700 53.03300 20.63600
H  24.00700 53.96600 21.80600
H  22.83300 52.07700 22.23900
H  24.15800 51.17900 22.64900
H  23.72400 51.21700 20.92200
H  21.52400 54.11000 25.62400
H  22.53300 55.44700 25.57700
H  21.39800 55.09900 27.03400
H  23.53600 52.25000 30.89500
H  23.76800 54.40900 34.56100
H  23.19600 55.65400 33.51000
H  24.97300 55.36400 33.73400

