158

Mg 42.64600 41.70200 26.47500
C  42.03100 44.15600 29.01900
C  43.61000 39.57200 29.08800
C  43.68900 39.51100 24.24700
C  42.31000 44.10900 24.11800
N  42.80800 41.88300 28.85000
C  42.50600 43.02700 29.59500
C  42.61900 42.68900 31.11900
C  43.35300 41.23200 31.10000
C  43.19500 40.80700 29.61500
C  44.87200 41.35000 31.52000
C  41.09100 42.58400 31.78900
C  40.91500 43.32600 33.15700
H  40.09100 42.68300 34.20800
N  43.32600 39.71500 26.65100
C  43.67800 39.05800 27.78400
C  44.08300 37.68100 27.42300
C  44.23900 37.72900 26.00100
C  43.73800 39.01400 25.59500
C  44.54800 36.70400 28.44700
C  44.67200 36.65700 25.02300
O  44.64800 36.76000 23.81800
C  45.39100 35.41800 25.52100
N  43.13900 41.80900 24.41100
C  43.36000 40.73400 23.70900
C  43.57300 41.14700 22.21600
C  42.79600 42.42500 22.18000
C  42.76100 42.87700 23.61900
C  45.05600 41.20300 21.79700
C  41.37400 42.39100 21.48100
C  40.35300 41.24600 21.79900
N  42.22100 43.69800 26.50600
C  42.12400 44.54600 25.42500
C  41.71000 45.82300 25.81400
C  41.52300 45.66600 27.18200
C  41.99300 44.39700 27.63400
C  41.26100 47.00000 24.90700
C  41.14800 46.29800 28.43000
O  40.75300 47.43500 28.56200
C  41.41300 45.35700 29.60200
C  42.34700 46.04300 30.44200
O  43.53500 46.29100 30.11700
O  41.80200 46.39700 31.64300
C  42.66700 47.02800 32.67600
H  44.07600 38.94400 29.84900
H  43.75100 38.81100 23.41200
H  42.18200 44.82800 23.30600
H  43.26400 43.35200 31.69600
H  42.79500 40.56900 31.76200
H  44.95700 40.78200 32.44600
H  45.16000 42.39500 31.63300
H  45.57500 40.98700 30.77000
H  40.88100 41.59500 32.19600
H  40.33200 42.84600 31.05200
H  40.25000 44.18200 33.04300
H  41.87600 43.55500 33.61800
H  44.96500 35.78200 28.04200
H  43.74200 36.31200 29.06900
H  45.32400 37.10700 29.09700
H  45.83500 34.86700 24.69200
H  44.71100 34.80600 26.11200
H  46.26900 35.76000 26.07000
H  43.02600 40.43600 21.59600
H  43.46100 43.12100 21.66900
H  45.74500 40.70800 22.48200
H  45.42600 42.20100 21.56300
H  45.15600 40.69900 20.83600
H  41.37700 42.56400 20.40500
H  40.99500 43.35800 21.81200
H  39.98700 40.62400 20.98300
H  39.62100 41.68200 22.47800
H  40.80300 40.58400 22.54000
H  40.58900 47.66700 25.44700
H  40.81200 46.65400 23.97600
H  42.13800 47.59100 24.64100
H  40.54300 45.18600 30.23700
H  42.42800 48.07400 32.86500
H  43.74700 46.88300 32.63000
H  42.39200 46.53600 33.60900
Mg 30.61100 58.15400 40.10000
C  28.07900 56.17400 38.70000
C  32.76300 55.84300 39.01100
C  33.07300 60.47200 40.61800
C  28.21400 60.73500 40.43700
N  30.40100 56.30500 38.82800
C  29.27200 55.56600 38.62400
C  29.60700 54.16800 38.12800
C  31.05700 53.97100 38.73300
C  31.44900 55.45300 38.86100
C  31.10700 53.19700 40.14100
C  29.63700 54.11100 36.51200
C  28.44800 53.37600 35.83900
H  27.59600 54.18700 34.83700
N  32.62000 58.16200 39.86200
C  33.30600 57.07700 39.28900
C  34.70700 57.38300 39.38800
C  34.88400 58.70000 39.88900
C  33.51000 59.22200 40.11400
C  35.77500 56.42800 38.87200
C  36.21200 59.42700 40.19100
O  37.25800 58.83800 39.96300
C  36.31100 60.80400 40.73800
N  30.64800 60.32400 40.61200
C  31.78400 60.93800 40.92600
C  31.50800 62.41100 41.32600
C  29.96800 62.40000 41.45700
C  29.58100 61.12000 40.69900
C  32.20300 62.89900 42.56000
C  29.17200 63.64100 40.92800
C  28.67700 64.59300 41.90100
N  28.52400 58.41300 39.83000
C  27.72400 59.56300 39.97100
C  26.38200 59.17900 39.53900
C  26.49600 57.87500 39.00000
C  27.82400 57.48200 39.16200
C  25.11800 59.96400 39.57800
C  25.71300 56.75500 38.42500
O  24.51700 56.62800 38.23000
C  26.69000 55.65500 38.21600
C  26.24900 54.45600 38.88000
O  26.81600 53.93400 39.82200
O  25.11900 53.90900 38.32900
C  24.40300 52.78200 38.90900
H  33.45000 55.02100 38.80000
H  33.82900 61.25000 40.74300
H  27.49600 61.52000 40.68300
H  28.98500 53.36300 38.52000
H  31.75100 53.56100 38.00000
H  31.59500 52.22600 40.05300
H  30.09200 52.82500 40.28500
H  31.43300 53.76400 41.01300
H  30.50100 53.50800 36.23300
H  29.69600 55.14700 36.17800
H  27.84000 52.96800 36.64700
H  28.80200 52.44000 35.40600
H  35.39200 55.62300 38.24500
H  36.20200 55.89400 39.72100
H  36.57900 56.93700 38.34100
H  37.33300 61.04300 41.03100
H  35.71300 60.92900 41.64100
H  36.05200 61.59100 40.03000
H  31.82000 62.95300 40.43400
H  29.55900 62.08800 42.41800
H  32.74500 63.79500 42.25600
H  32.82600 62.12900 43.01500
H  31.47900 63.19600 43.31800
H  28.24000 63.41200 40.41100
H  29.77600 64.22500 40.23300
H  28.68500 65.59700 41.47400
H  29.18600 64.55600 42.86400
H  27.62000 64.44800 42.12400
H  25.45000 60.92900 39.19600
H  24.77200 60.10800 40.60100
H  24.38900 59.55800 38.87700
H  26.72200 55.40300 37.15600
H  23.40500 53.12400 39.18100
H  24.88800 52.52000 39.84900
H  24.53000 51.91200 38.26500

