158

Mg 6.78200 54.15500 41.45400
C  5.85200 50.94900 40.50100
C  9.84300 53.63400 39.96300
C  7.32400 57.37500 41.83700
C  3.27500 54.79800 42.14400
N  7.69800 52.47100 40.18200
C  7.18000 51.27400 39.96900
C  8.17500 50.29600 39.25200
C  9.48400 51.14700 39.26800
C  9.00100 52.53000 39.75300
C  10.62400 50.58700 40.17000
C  7.61200 49.87000 37.86000
C  8.47900 50.03300 36.62500
H  7.91300 49.60200 35.22200
N  8.38100 55.36400 41.00200
C  9.52100 54.92300 40.47400
C  10.42700 56.11400 40.38300
C  9.70100 57.18600 40.76900
C  8.40100 56.68200 41.21400
C  11.80600 56.05000 39.68300
C  10.30500 58.55400 40.94400
O  11.45400 58.78400 40.65100
C  9.55300 59.75700 41.50700
N  5.45800 55.87700 41.89900
C  6.02900 57.12400 42.18300
C  4.98100 58.11700 42.72800
C  3.75100 57.18300 42.89800
C  4.14800 55.89200 42.19500
C  5.18400 58.90200 44.07600
C  2.48100 57.73200 42.29800
C  1.19900 57.77700 43.16600
N  4.96900 53.14800 41.41000
C  3.66900 53.55000 41.66200
C  2.80400 52.37800 41.55600
C  3.59600 51.32900 41.17900
C  4.91400 51.85700 41.02800
C  1.30000 52.37800 41.84200
C  3.60200 49.92000 40.87700
O  2.74400 49.04400 40.90600
C  5.17300 49.61800 40.66900
C  5.26800 48.74000 39.52900
O  4.69200 48.86600 38.43300
O  5.91800 47.59800 39.92000
C  5.70900 46.48700 38.94900
H  10.80400 53.49500 39.46500
H  7.51200 58.41700 42.10700
H  2.25300 54.92500 42.50800
H  8.33300 49.44400 39.91400
H  9.92800 51.46300 38.32400
H  10.71400 50.99800 41.17600
H  11.53700 50.92100 39.67900
H  10.56600 49.50200 40.07800
H  6.65800 50.38600 37.75200
H  7.37500 48.80600 37.85400
H  9.42800 49.55300 36.86400
H  8.62700 51.09500 36.42500
H  12.04800 55.03300 39.37300
H  12.68900 56.24100 40.29300
H  11.82200 56.62200 38.75500
H  9.34000 59.60800 42.56500
H  8.59900 59.82500 40.98300
H  10.10400 60.63300 41.16600
H  4.64600 58.74700 41.90500
H  3.73700 56.85300 43.93700
H  6.13200 58.62800 44.53900
H  4.49700 58.60300 44.86800
H  5.15800 59.97800 43.90400
H  2.27600 57.15300 41.39800
H  2.65300 58.75600 41.96800
H  1.46800 57.70600 44.22000
H  0.52500 56.98700 42.83400
H  0.71800 58.74200 43.01100
H  0.97900 51.33800 41.79200
H  0.80400 52.91700 41.03500
H  1.10000 52.81700 42.82000
H  5.68400 49.21800 41.54400
H  6.06400 45.64600 39.54400
H  6.30700 46.73500 38.07200
H  4.66900 46.28100 38.69700
Mg -12.14700 37.77800 42.22400
C  -10.14300 34.89500 41.33900
C  -9.90700 39.61700 40.49200
C  -14.26300 40.22100 42.59600
C  -14.57600 35.50400 43.37100
N  -10.30300 37.20800 40.98400
C  -9.58700 36.06400 40.90900
C  -8.38600 36.22200 39.98300
C  -8.20300 37.78500 40.11100
C  -9.56300 38.24500 40.61800
C  -7.02300 38.18700 41.03500
C  -8.64200 35.60100 38.57900
C  -7.41500 35.20800 37.80300
H  -6.92600 36.05200 36.65300
N  -12.11700 39.67900 41.60800
C  -11.05800 40.30100 40.94300
C  -11.25300 41.76300 40.95400
C  -12.53700 41.96000 41.62500
C  -13.01800 40.59300 41.95700
C  -10.34800 42.78300 40.38000
C  -13.21200 43.31100 41.66500
O  -12.67400 44.31800 41.19700
C  -14.57900 43.47400 42.12100
N  -14.11000 37.92800 43.10300
C  -14.83600 39.01200 42.99400
C  -16.29100 38.91800 43.48400
C  -16.34000 37.40700 43.77100
C  -14.95600 36.86900 43.36300
C  -16.63400 40.04600 44.59400
C  -17.51100 36.66600 43.03900
C  -18.46200 35.79500 43.98200
N  -12.38600 35.56400 42.44200
C  -13.39100 34.84400 42.99000
C  -13.01400 33.41300 43.00700
C  -11.79400 33.34100 42.32300
C  -11.47600 34.70500 41.94700
C  -13.57400 32.24800 43.90300
C  -10.66800 32.45000 41.90900
O  -10.55000 31.24500 41.97900
C  -9.56500 33.40500 41.16900
C  -8.24700 33.28600 41.87100
O  -7.24700 32.98300 41.30600
O  -8.34500 33.44600 43.25600
C  -7.14100 33.08600 44.11000
H  -9.09400 40.28000 40.19000
H  -14.87000 41.10400 42.80400
H  -15.32000 34.77500 43.69800
H  -7.50300 35.77000 40.43400
H  -8.00600 38.14000 39.09900
H  -7.21500 38.93900 41.80000
H  -6.36900 38.70300 40.33200
H  -6.55100 37.30500 41.46800
H  -9.09300 36.40800 38.00100
H  -9.20500 34.66900 38.61500
H  -7.51000 34.18900 37.42600
H  -6.52300 35.20100 38.43000
H  -10.73700 43.27700 39.49000
H  -9.42400 42.29400 40.07000
H  -10.18600 43.57300 41.11400
H  -14.93800 44.46900 41.85800
H  -14.50200 43.27900 43.19100
H  -15.13100 42.71600 41.56600
H  -16.95500 39.07100 42.63300
H  -16.43500 37.31800 44.85300
H  -15.64000 40.45000 44.78400
H  -17.09200 39.53900 45.44400
H  -17.28900 40.83500 44.22400
H  -17.14400 35.95100 42.30300
H  -18.13000 37.38400 42.50000
H  -19.25900 36.33300 44.49500
H  -17.80100 35.38600 44.74600
H  -18.97000 34.97000 43.48300
H  -14.50500 32.58700 44.35800
H  -12.67500 31.95700 44.44500
H  -13.81600 31.39900 43.26400
H  -9.46800 32.99400 40.16400
H  -6.79400 32.19600 43.58500
H  -7.33500 32.91800 45.16900
H  -6.50200 33.96800 44.09500

