158

Mg 2.09600 -0.30100 41.95600
C  5.43200 0.63300 41.63400
C  1.26200 2.87400 40.76800
C  -0.99400 -1.25900 41.84800
C  3.20900 -3.41500 43.04100
N  3.26200 1.43700 41.26600
C  4.60000 1.64600 41.22300
C  5.06100 2.92600 40.54300
C  3.69700 3.73700 40.47700
C  2.64000 2.61200 40.91300
C  3.58900 4.93300 41.37500
C  5.89800 3.02200 39.18800
C  5.84900 1.77600 38.26400
H  5.58000 1.98000 36.81800
N  0.31800 0.68900 41.43200
C  0.15900 1.97900 40.98900
C  -1.14900 2.22700 40.59600
C  -1.85900 1.05300 41.07900
C  -0.86300 0.11900 41.49200
C  -1.61600 3.57400 40.27100
C  -3.34000 0.87200 40.89000
O  -4.02700 1.78400 40.31700
C  -4.05500 -0.41800 41.35100
N  1.21500 -2.10500 42.30300
C  -0.09800 -2.21200 42.22400
C  -0.53600 -3.70600 42.47800
C  0.83300 -4.40200 42.73400
C  1.83500 -3.25500 42.65900
C  -1.72000 -4.00200 43.50700
C  1.19100 -5.69400 41.85100
C  1.28900 -7.04500 42.56900
N  3.96100 -1.25100 42.46700
C  4.23000 -2.47900 42.91600
C  5.64800 -2.63700 43.01200
C  6.18900 -1.49300 42.51700
C  5.10900 -0.65600 42.21300
C  6.37500 -3.78600 43.42700
C  7.34700 -0.77900 42.28700
O  8.51400 -1.10200 42.56400
C  6.94000 0.61600 41.64900
C  7.61600 1.63600 42.44900
O  8.19900 2.61800 41.92200
O  7.49200 1.45200 43.78300
C  8.22800 2.53900 44.61100
H  1.17300 3.93100 40.51300
H  -1.96100 -1.76400 41.80300
H  3.57400 -4.40900 43.30800
H  5.88300 3.35600 41.11500
H  3.57500 4.09000 39.45300
H  2.65300 4.87300 41.93000
H  3.57300 5.77100 40.67900
H  4.50600 5.09500 41.94100
H  6.97600 3.08200 39.33500
H  5.65700 3.98600 38.74000
H  5.13100 1.02600 38.59400
H  6.88100 1.43000 38.19600
H  -1.94100 3.70000 39.23800
H  -0.76900 4.25100 40.38200
H  -2.43100 3.99600 40.86000
H  -3.65500 -0.68300 42.33000
H  -4.10100 -1.20100 40.59400
H  -5.08900 -0.22600 41.64000
H  -0.87500 -4.05100 41.50100
H  0.76200 -4.73100 43.77100
H  -1.27000 -4.58800 44.30800
H  -2.48200 -4.61000 43.02100
H  -1.96500 -3.00900 43.88500
H  2.20100 -5.54500 41.46700
H  0.42500 -5.75400 41.07800
H  1.14600 -6.90300 43.64000
H  2.12800 -7.69500 42.31900
H  0.34600 -7.51400 42.28800
H  6.93800 -4.08600 42.54300
H  5.68500 -4.57500 43.72500
H  7.05900 -3.71900 44.27300
H  7.20200 0.64500 40.59100
H  7.84400 3.52600 44.35100
H  9.30700 2.49000 44.46400
H  8.02200 2.33200 45.66100
Mg 47.92600 15.47500 27.89000
C  45.84900 15.00800 30.73100
C  49.83600 17.57600 29.89600
C  49.93000 15.88300 25.35900
C  45.65500 13.54400 26.00800
N  47.88600 16.08800 30.14200
C  46.93000 15.79400 31.04400
C  47.33200 16.37800 32.39200
C  48.48000 17.47200 32.03000
C  48.79800 16.96700 30.62700
C  47.98900 18.94100 31.92500
C  47.68400 15.30000 33.44400
C  47.42100 15.63200 34.95800
H  48.64900 15.50100 35.84100
N  49.61700 16.62200 27.63700
C  50.24100 17.37800 28.55500
C  51.29900 18.13700 27.89200
C  51.51300 17.49100 26.59200
C  50.40600 16.59200 26.48900
C  52.09400 19.26600 28.58100
C  52.62800 17.70100 25.46100
O  52.50300 17.37400 24.26400
C  53.79500 18.52400 25.88800
N  47.69900 14.92400 25.86700
C  48.70300 15.17800 25.04900
C  48.52100 14.31000 23.76100
C  47.10600 13.71300 23.91500
C  46.73800 14.07400 25.36700
C  48.74600 15.22900 22.50900
C  46.87000 12.27700 23.34100
C  47.08100 10.98800 24.25600
N  46.13800 14.34800 28.28500
C  45.24200 13.68100 27.36400
C  44.08300 13.17700 28.10000
C  44.35200 13.58000 29.43600
C  45.48800 14.41800 29.46000
C  42.96000 12.25300 27.63800
C  43.88300 13.54100 30.81200
O  42.87900 13.00700 31.24000
C  44.75000 14.54600 31.60900
C  43.80400 15.66200 31.99400
O  43.12000 16.37400 31.22400
O  43.66800 15.83000 33.34100
C  42.72900 16.81900 33.83400
H  50.28400 18.41800 30.42800
H  50.61500 15.98400 24.51500
H  45.04900 12.92600 25.34200
H  46.51700 16.95800 32.82400
H  49.39500 17.35000 32.61100
H  47.06500 19.11100 32.47800
H  47.76800 19.21400 30.89300
H  48.78900 19.61400 32.23300
H  48.76700 15.35400 33.33300
H  47.38200 14.30100 33.13000
H  46.67200 15.07700 35.52300
H  47.03000 16.63900 35.10800
H  51.61000 19.50500 29.52800
H  52.03300 20.05500 27.83200
H  53.13400 18.95300 28.67300
H  54.63700 18.59400 25.20000
H  54.24600 18.12200 26.79500
H  53.41000 19.54000 25.98500
H  49.36600 13.62700 23.85600
H  46.44300 14.35300 23.33200
H  48.05600 14.73500 21.82500
H  49.66600 14.92300 22.01000
H  48.42000 16.25800 22.65700
H  47.59300 12.18300 22.53100
H  45.91500 12.37600 22.82500
H  47.61400 10.15300 23.80000
H  46.15900 10.46500 24.51000
H  47.48400 11.29600 25.22000
H  41.98000 12.58200 27.98200
H  43.09300 11.26100 28.07000
H  42.93300 12.21200 26.54900
H  45.08900 14.13100 32.55800
H  42.11200 17.29800 33.07400
H  43.28600 17.63700 34.29200
H  42.05000 16.31200 34.52000

