158

Mg 17.10200 -2.20200 27.25200
C  16.11500 -0.50200 30.20000
C  18.69500 -4.41500 29.33200
C  17.94200 -3.76000 24.47300
C  15.53000 0.39500 25.45100
N  17.23500 -2.54300 29.51500
C  16.85700 -1.64600 30.48100
C  17.39600 -2.10000 31.91700
C  18.27200 -3.29500 31.58300
C  18.08200 -3.42900 30.03600
C  19.71100 -3.39500 32.14300
C  16.20900 -2.38200 32.89200
C  16.25900 -1.75300 34.33400
H  17.53200 -0.91100 34.69200
N  18.13800 -3.95500 26.97400
C  18.68600 -4.72600 27.96400
C  19.22200 -5.90400 27.28600
C  19.07200 -5.75200 25.88300
C  18.38500 -4.42700 25.69900
C  19.83900 -7.11200 28.01100
C  19.39400 -6.63500 24.66900
O  18.98700 -6.40900 23.56700
C  19.94200 -8.00600 24.94000
N  16.81000 -1.75800 25.32500
C  17.25700 -2.51600 24.31800
C  17.12500 -1.80500 22.94200
C  16.05200 -0.76700 23.31600
C  16.21500 -0.65400 24.81600
C  18.44900 -1.35700 22.25000
C  14.60800 -0.97900 22.84400
C  13.58700 -1.67700 23.76700
N  16.04900 -0.34600 27.69500
C  15.42300 0.48100 26.83500
C  14.72900 1.52800 27.60500
C  14.95400 1.18000 28.92200
C  15.80800 0.00300 28.90700
C  14.03900 2.74200 27.02100
C  14.72300 1.53000 30.29000
O  14.07600 2.49100 30.66000
C  15.50300 0.48300 31.16100
C  16.59900 1.20800 31.91300
O  17.78800 1.38800 31.55500
O  16.00900 1.82000 32.90500
C  16.75000 2.97900 33.44400
H  19.31400 -5.07600 29.94200
H  18.23700 -4.11000 23.48200
H  15.03800 1.21700 24.92800
H  17.98000 -1.23100 32.22000
H  17.78500 -4.13300 32.08000
H  20.43000 -3.56100 31.34000
H  19.73800 -4.23100 32.84100
H  20.11700 -2.51400 32.64100
H  16.24700 -3.44800 33.11200
H  15.29000 -2.40500 32.30700
H  16.30500 -2.57200 35.05100
H  15.37200 -1.12500 34.40900
H  20.82100 -7.39100 27.62900
H  19.01600 -7.82400 27.95200
H  19.91600 -6.87200 29.07100
H  21.03100 -8.04000 24.96300
H  19.59100 -8.63700 24.12400
H  19.62500 -8.56300 25.82200
H  16.67600 -2.67100 22.45500
H  16.35400 0.17100 22.85000
H  18.88900 -2.05400 21.53700
H  19.28400 -1.15700 22.92200
H  18.31100 -0.43000 21.69400
H  14.62500 -1.40000 21.83800
H  14.24500 0.04000 22.70900
H  14.09900 -2.23100 24.55300
H  12.93100 -2.38500 23.26000
H  12.99700 -0.88200 24.22500
H  13.95900 3.51200 27.78900
H  13.08100 2.44000 26.60000
H  14.62300 3.10000 26.17300
H  14.82900 -0.06900 31.81600
H  17.24000 3.51900 32.63400
H  17.56200 2.77600 34.14200
H  16.08200 3.57300 34.06900
Mg -0.06200 43.69500 26.93400
C  2.14900 43.29700 29.50400
C  -2.66900 42.90500 29.24600
C  -2.27500 43.27700 24.41000
C  2.46300 44.06500 24.65400
N  -0.15700 43.12100 29.08700
C  0.83200 43.07600 29.93700
C  0.34900 42.70700 31.36900
C  -1.13800 42.36800 31.14700
C  -1.38200 42.88400 29.77300
C  -1.47800 40.84300 31.16700
C  0.54400 43.96800 32.26300
C  1.01300 43.76300 33.74000
H  0.42700 42.68400 34.62100
N  -2.20800 43.34000 26.85900
C  -3.05000 43.11000 27.93900
C  -4.40100 42.90900 27.45100
C  -4.30300 42.86300 25.98800
C  -2.88900 43.13700 25.66700
C  -5.54800 42.47900 28.26700
C  -5.37400 42.56600 24.92100
O  -5.09900 42.35600 23.75000
C  -6.87600 42.27500 25.28400
N  0.06900 43.73600 24.76600
C  -0.95900 43.57900 24.02000
C  -0.48400 43.70100 22.48400
C  0.98700 44.30500 22.63100
C  1.23500 43.96400 24.08900
C  -0.60500 42.45900 21.58600
C  1.03500 45.92000 22.38300
C  1.70800 46.41200 21.11100
N  1.89800 43.74800 26.97600
C  2.85600 43.96200 26.00100
C  4.12300 44.01100 26.67300
C  3.94200 43.66200 27.99400
C  2.54700 43.53600 28.14000
C  5.44000 44.25200 26.01100
C  4.60200 43.34300 29.29700
O  5.76800 43.34900 29.64600
C  3.48300 43.09900 30.26800
C  3.64300 41.67000 30.82000
O  3.66700 40.60100 30.20300
O  3.71000 41.81600 32.19500
C  3.85700 40.55400 32.81100
H  -3.45400 42.76700 29.99300
H  -2.93000 43.28900 23.53600
H  3.21900 44.37400 23.92900
H  0.91800 41.84700 31.72300
H  -1.88500 42.74900 31.84400
H  -1.92700 40.61100 30.20200
H  -2.24500 40.60600 31.90500
H  -0.60900 40.22000 31.37900
H  -0.43000 44.43100 32.42200
H  1.21800 44.69100 31.80300
H  0.77400 44.75200 34.12900
H  2.09300 43.61400 33.75700
H  -6.46800 42.96000 27.93400
H  -5.48200 42.59800 29.34900
H  -5.64400 41.40000 28.14400
H  -7.42500 43.03800 25.83700
H  -6.81400 41.25100 25.65200
H  -7.34900 42.14200 24.31100
H  -1.13900 44.36800 21.92300
H  1.69300 43.76900 21.99700
H  0.23600 42.22700 20.93200
H  -1.43600 42.44600 20.88000
H  -0.66000 41.55100 22.18700
H  1.45000 46.35500 23.29200
H  0.00400 46.22300 22.20000
H  2.61200 45.88000 20.81500
H  1.93100 47.47200 21.23700
H  1.03900 46.27300 20.26200
H  5.37500 44.15700 24.92700
H  6.14400 43.46000 26.26600
H  5.90800 45.18900 26.31300
H  3.53400 43.86000 31.04600
H  3.10600 39.86400 32.42700
H  3.62300 40.53800 33.87600
H  4.81100 40.09000 32.56300

