158

Mg 1.02500 7.51400 26.13000
C  1.81400 9.78000 28.74300
C  1.40100 4.99700 28.32000
C  0.78600 5.58500 23.51900
C  1.51900 10.31500 23.92700
N  1.54400 7.47700 28.30900
C  1.68400 8.47800 29.20700
C  1.72500 7.92600 30.65800
C  1.94700 6.44100 30.40700
C  1.53600 6.28600 28.92500
C  3.36500 5.98300 30.71900
C  0.32800 8.20400 31.37100
C  0.50200 8.68000 32.84500
H  1.70400 8.04100 33.64100
N  0.94000 5.53200 25.94900
C  1.08900 4.66500 26.96900
C  0.77400 3.37200 26.51000
C  0.67300 3.43000 25.13000
C  0.76300 4.87900 24.74900
C  0.73100 2.19900 27.42500
C  0.43300 2.31500 24.05300
O  0.26900 2.53900 22.87100
C  0.48600 0.90100 24.43600
N  1.27900 7.87800 24.03700
C  0.90300 6.88500 23.17300
C  0.85300 7.40600 21.68900
C  1.17200 8.95800 21.80500
C  1.31900 9.06000 23.36400
C  1.90100 6.58500 20.81000
C  0.04900 9.99200 21.23100
C  0.51000 11.29600 20.71300
N  1.49200 9.62500 26.22800
C  1.54600 10.61700 25.27200
C  1.69400 11.91200 25.88900
C  1.73800 11.64200 27.25700
C  1.65800 10.21600 27.40000
C  1.68500 13.30000 25.19300
C  1.89800 12.22600 28.56200
O  2.08300 13.33400 28.93700
C  1.90800 11.04800 29.55900
C  2.99800 11.12200 30.49400
O  4.13800 10.73500 30.25800
O  2.57600 11.65300 31.67100
C  3.54400 11.68600 32.77700
H  1.42500 4.15000 29.00900
H  0.65900 4.90300 22.67600
H  1.67400 11.24600 23.37900
H  2.50700 8.44100 31.21600
H  1.23600 5.94100 31.06500
H  3.91000 6.90200 30.93600
H  3.78100 5.46700 29.85400
H  3.39900 5.28900 31.55800
H  -0.31400 7.32600 31.29400
H  -0.08500 9.04300 30.81100
H  -0.41900 8.47200 33.39000
H  0.61900 9.76400 32.84500
H  -0.12200 1.64100 27.03800
H  0.50700 2.44500 28.46300
H  1.71500 1.73100 27.40300
H  0.26500 0.35600 23.51800
H  -0.23700 0.57400 25.18300
H  1.39600 0.71600 25.00700
H  -0.18900 7.25000 21.41200
H  2.11300 9.26900 21.35100
H  2.49700 5.90100 21.41300
H  2.45700 7.35900 20.28000
H  1.40700 5.93300 20.09000
H  -0.78500 10.16400 21.91200
H  -0.37800 9.44700 20.38900
H  1.39900 11.16000 20.09700
H  0.78700 12.02800 21.47100
H  -0.33800 11.74700 20.19800
H  1.36200 14.12000 25.83300
H  1.05400 13.25600 24.30600
H  2.70600 13.49100 24.86100
H  0.98700 11.21100 30.11900
H  4.41900 12.23700 32.43400
H  3.85300 10.66800 33.01500
H  3.15600 12.14900 33.68400
Mg 6.46500 56.95000 42.38700
C  5.67200 53.46100 42.16400
C  9.23600 56.37800 40.57000
C  6.88800 60.19800 42.34900
C  3.22100 57.38000 43.71700
N  7.19100 55.13400 41.28800
C  6.82100 53.83800 41.43100
C  7.77800 52.87800 40.60600
C  9.08400 53.79700 40.57900
C  8.51600 55.23800 40.78200
C  10.18400 53.56200 41.66800
C  7.30200 52.57700 39.17300
C  7.69900 51.19700 38.56200
H  6.85200 50.54600 37.53500
N  7.78300 58.23500 41.40700
C  8.94700 57.74800 40.77100
C  9.80000 58.83900 40.59900
C  9.16700 59.98600 41.08800
C  7.87600 59.55800 41.67100
C  11.05800 58.79700 39.72000
C  9.59900 61.47800 40.90800
O  10.57400 61.74000 40.25700
C  8.81900 62.63600 41.43000
N  5.11500 58.56300 42.72800
C  5.59400 59.79200 42.68300
C  4.57900 60.80500 43.03300
C  3.38100 59.92300 43.46400
C  3.87500 58.49700 43.21800
C  5.03800 61.77800 44.14400
C  2.10200 60.28400 42.74000
C  0.88500 60.49500 43.58800
N  4.83100 55.69100 43.05700
C  3.67700 56.03900 43.63600
C  3.07300 54.80900 44.15700
C  3.82100 53.70800 43.60400
C  4.89100 54.31400 42.90600
C  1.82800 54.71700 44.90600
C  3.92200 52.24900 43.45800
O  3.19100 51.39100 43.88400
C  5.19100 52.06500 42.58000
C  4.85400 51.18100 41.44300
O  4.13500 51.48800 40.53500
O  5.29300 49.90400 41.63500
C  4.94800 48.78800 40.81000
H  10.20300 56.20800 40.09100
H  7.16400 61.23700 42.54400
H  2.23000 57.38400 44.17500
H  7.98100 51.94900 41.14000
H  9.58600 53.77000 39.61200
H  11.08100 53.15800 41.19900
H  9.84800 52.82500 42.39700
H  10.55400 54.47800 42.12900
H  7.83600 53.25500 38.50700
H  6.23800 52.81500 39.15600
H  7.70300 50.57600 39.45800
H  8.75500 51.28600 38.30600
H  11.04700 59.57600 38.95700
H  11.13100 57.92500 39.07000
H  12.02000 58.90300 40.22200
H  8.76500 62.56700 42.51700
H  7.87300 62.42000 40.93400
H  9.30000 63.54300 41.06400
H  4.42600 61.23400 42.04300
H  3.15300 60.02200 44.52500
H  5.98700 61.58000 44.64100
H  4.27600 62.04900 44.87500
H  5.05200 62.71500 43.58700
H  1.68100 59.42600 42.21700
H  2.17000 61.15000 42.08100
H  0.46000 61.48600 43.42400
H  1.27900 60.46300 44.60400
H  0.07900 59.78100 43.41600
H  1.97800 53.97800 45.69200
H  1.04600 54.19800 44.35100
H  1.44300 55.60000 45.41700
H  5.90000 51.40600 43.08200
H  3.99500 48.28200 40.96300
H  5.64000 47.95300 40.91400
H  5.09600 49.07900 39.77000

