158

Mg 47.36000 34.86800 28.80000
C  45.70100 32.76000 31.19400
C  47.85600 37.15100 31.43900
C  48.21700 37.06700 26.53800
C  46.34600 32.61100 26.29100
N  46.83200 34.93200 30.98400
C  46.22100 33.95900 31.73200
C  46.31900 34.34600 33.28500
C  46.30800 35.88600 33.15600
C  47.12700 35.99400 31.79500
C  44.85400 36.55000 33.00000
C  47.60800 33.82800 34.01600
C  47.30600 33.15800 35.37600
H  46.39900 33.87900 36.41500
N  48.02300 36.81100 29.00900
C  48.32600 37.59000 30.11700
C  49.07200 38.78200 29.76600
C  49.01300 38.80500 28.37600
C  48.45200 37.51000 27.91400
C  49.63700 39.77700 30.74100
C  49.44400 39.86800 27.33500
O  49.21500 39.75100 26.13100
C  50.17000 41.10700 27.85400
N  47.20100 34.83700 26.70300
C  47.67600 35.85700 26.00600
C  47.67000 35.60100 24.51900
C  47.14100 34.14700 24.40400
C  46.87300 33.82200 25.87900
C  46.79800 36.55100 23.61800
C  48.13300 33.06500 23.78200
C  47.58900 32.06800 22.76600
N  46.29600 33.07500 28.66900
C  46.03800 32.24500 27.61500
C  45.46100 31.01300 28.05800
C  45.22000 31.23500 29.48900
C  45.78400 32.45400 29.81700
C  44.95400 29.93500 27.08900
C  44.69100 30.62300 30.67900
O  44.23000 29.48900 30.70200
C  44.94500 31.58700 31.76800
C  45.62600 30.95500 32.89000
O  46.81900 30.76700 33.04800
O  44.63300 30.60300 33.75100
C  45.01000 30.14500 35.07400
H  48.04700 37.88200 32.22800
H  48.59500 37.66700 25.70800
H  46.17400 31.84500 25.53200
H  45.37100 34.10100 33.76400
H  46.87100 36.32600 33.97900
H  44.78000 37.25300 33.83000
H  43.98700 35.91500 33.18100
H  44.73800 36.90700 31.97700
H  48.30000 34.65300 34.18500
H  48.05200 33.02000 33.43500
H  48.27000 32.86000 35.78800
H  46.82700 32.20600 35.15100
H  49.14400 40.73200 30.55600
H  50.71300 39.88100 30.60700
H  49.48900 39.50800 31.78700
H  49.43500 41.74800 28.34100
H  50.63200 41.48300 26.94100
H  51.00700 40.85500 28.50500
H  48.71600 35.70000 24.22600
H  46.18300 34.10000 23.88600
H  46.27800 37.21600 24.30700
H  46.09800 36.19900 22.86100
H  47.46300 37.26900 23.13800
H  48.40300 32.34500 24.55500
H  48.96300 33.63000 23.35900
H  48.12500 32.17200 21.82200
H  46.53800 32.22600 22.52400
H  47.65500 31.00400 22.99200
H  44.12400 30.35500 26.52100
H  44.54400 29.05900 27.59300
H  45.74500 29.46900 26.50200
H  43.95100 31.92200 32.06600
H  44.36600 29.32600 35.39600
H  44.79600 30.94400 35.78400
H  46.07100 29.95900 35.24100
Mg 9.25000 47.13500 27.11200
C  7.27500 47.25200 30.13300
C  12.05500 47.68900 28.91900
C  10.87600 47.74300 24.24600
C  6.14700 47.29500 25.36800
N  9.64000 47.30400 29.28200
C  8.69600 47.26000 30.28300
C  9.40000 47.37700 31.70700
C  10.84300 47.81100 31.28200
C  10.91600 47.56000 29.69400
C  11.15100 49.30500 31.70400
C  9.24800 46.05700 32.57200
C  9.94900 46.09700 33.98100
H  9.17600 45.53500 35.18200
N  11.28800 47.39700 26.63000
C  12.36300 47.51400 27.54700
C  13.59300 47.63800 26.81100
C  13.24400 47.71600 25.46000
C  11.74300 47.65200 25.40000
C  14.98900 47.77000 27.60700
C  14.15000 47.93500 24.28400
O  13.79300 48.00400 23.10100
C  15.59700 48.05500 24.48400
N  8.53800 47.65200 25.10900
C  9.43800 47.80700 24.13500
C  8.77900 47.93600 22.79300
C  7.28000 47.57100 23.07200
C  7.29800 47.48800 24.59900
C  8.89800 49.39000 22.16700
C  6.72900 46.17100 22.59200
C  6.44000 46.07300 21.08300
N  7.15100 47.08800 27.56700
C  6.02200 47.17300 26.76000
C  4.77800 47.25600 27.50500
C  5.24200 47.23600 28.85400
C  6.62600 47.22400 28.84500
C  3.43200 47.43200 26.89800
C  4.71900 47.37600 30.11000
O  3.63000 47.54700 30.59000
C  6.07800 47.29300 31.11500
C  5.95900 45.96400 31.84600
O  6.33400 44.90900 31.47900
O  5.49700 46.25800 33.08100
C  5.19100 45.13300 33.99700
H  12.90300 47.67200 29.60700
H  11.32800 47.94500 23.27300
H  5.23300 47.17600 24.78200
H  8.82700 48.08400 32.30600
H  11.51100 47.10800 31.78000
H  12.23900 49.34200 31.76700
H  10.72700 49.61500 32.65900
H  10.81000 49.95000 30.89400
H  9.81800 45.22500 32.15900
H  8.21900 45.71600 32.69500
H  10.23300 47.14700 34.03700
H  10.82800 45.45700 33.90300
H  14.83500 47.87200 28.68200
H  15.43700 48.71300 27.29600
H  15.70200 46.95400 27.48700
H  15.84700 48.83900 25.20000
H  16.08200 48.33700 23.55000
H  15.99500 47.08500 24.78200
H  9.20400 47.23500 22.07500
H  6.61800 48.30500 22.61100
H  9.68100 49.96600 22.66000
H  7.98300 49.98200 22.19800
H  9.14600 49.36700 21.10600
H  5.75300 45.94700 23.02100
H  7.39900 45.36700 22.89700
H  6.59100 47.02700 20.57800
H  5.41600 45.69900 21.08800
H  7.10600 45.35100 20.61100
H  3.30100 46.78600 26.03000
H  3.21500 48.43000 26.51600
H  2.71500 47.12700 27.66100
H  6.13200 47.99600 31.94700
H  5.90300 44.34800 34.25200
H  4.22700 44.65700 33.81900
H  5.14000 45.67600 34.94100

