158

Mg 9.03200 3.96800 27.15800
C  10.04900 2.26200 30.07000
C  7.09900 6.05500 28.97500
C  7.95700 5.15000 24.26000
C  10.52900 1.24400 25.31300
N  8.64300 4.04700 29.37300
C  9.22100 3.31700 30.37600
C  8.87000 3.98500 31.79000
C  7.75200 5.02900 31.38700
C  7.83900 5.09600 29.82500
C  6.31600 4.81600 31.80700
C  10.07600 4.63800 32.56400
C  10.37900 4.10600 34.02200
H  10.86700 5.15900 35.12300
N  7.64700 5.42300 26.64800
C  6.98200 6.24000 27.55900
C  6.25800 7.28400 26.82400
C  6.53500 7.04500 25.40200
C  7.40900 5.87300 25.36000
C  5.37800 8.33400 27.49500
C  6.12700 7.87100 24.22100
O  6.53500 7.70900 23.11500
C  5.10100 8.96300 24.42000
N  9.37400 3.36100 25.05400
C  8.69500 3.97900 24.08000
C  9.13900 3.45300 22.75200
C  9.68100 2.04900 23.05700
C  9.89500 2.20600 24.57600
C  8.06800 3.32300 21.64600
C  10.96600 1.72100 22.31200
C  11.09000 0.28600 21.83100
N  10.13800 2.14400 27.51900
C  10.73500 1.21900 26.72400
C  11.48300 0.22000 27.51300
C  11.24400 0.63600 28.83600
C  10.44600 1.81700 28.79000
C  12.32800 -0.94900 27.00200
C  11.60100 0.38300 30.23000
O  12.39800 -0.40900 30.71500
C  10.87500 1.38800 31.02200
C  9.95800 0.63200 31.91200
O  8.89300 0.07200 31.57300
O  10.47000 0.74500 33.15100
C  9.74800 0.46400 34.40200
H  6.49800 6.76400 29.54700
H  7.67700 5.58900 23.30000
H  11.09600 0.49500 24.75600
H  8.34100 3.22100 32.36000
H  7.98800 5.97000 31.88400
H  5.73100 4.39400 30.99000
H  5.94000 5.80200 32.08100
H  6.36300 4.22600 32.72300
H  9.94000 5.71000 32.70700
H  10.98100 4.40300 32.00400
H  11.32300 3.56500 33.95500
H  9.56100 3.55600 34.48900
H  5.13600 7.98700 28.50000
H  4.43100 8.35100 26.95500
H  5.70100 9.37500 27.51900
H  4.29500 8.42700 24.92000
H  4.81500 9.30300 23.42500
H  5.56800 9.80400 24.93400
H  9.88400 4.18700 22.44600
H  8.98100 1.21700 22.98000
H  7.18600 3.25100 22.28300
H  8.08400 2.35600 21.14500
H  7.89100 4.21200 21.04000
H  11.85800 1.90000 22.91200
H  11.03200 2.35000 21.42400
H  11.88800 -0.32000 22.26100
H  11.21700 0.34800 20.75000
H  10.22100 -0.33700 22.04600
H  12.71500 -0.81000 25.99300
H  11.73200 -1.86200 27.00500
H  13.19500 -1.15000 27.63000
H  11.55000 2.04600 31.57000
H  10.23400 -0.08300 35.21000
H  8.84000 -0.09300 34.17300
H  9.33800 1.31600 34.94500
Mg 40.57800 9.31800 28.82800
C  42.36500 10.02800 31.85400
C  38.27300 7.60700 30.82500
C  39.03400 8.40500 26.11600
C  43.41600 10.24300 27.16800
N  40.28800 8.88400 31.03100
C  41.11500 9.32900 32.03900
C  40.52500 9.05000 33.40400
C  39.50000 7.92200 33.07600
C  39.30800 8.11300 31.55700
C  40.06200 6.57700 33.40500
C  39.85800 10.30300 34.14300
C  40.39900 10.47300 35.54400
H  40.66300 11.92400 36.10200
N  38.78100 8.43600 28.54100
C  37.97200 7.75400 29.43400
C  36.74700 7.23400 28.74100
C  36.95800 7.54900 27.33200
C  38.32900 8.11900 27.26300
C  35.59800 6.35500 29.40400
C  36.03300 7.29100 26.13600
O  36.31600 7.49200 24.96200
C  34.73800 6.71900 26.54800
N  41.23700 9.05000 26.90800
C  40.35600 8.75900 25.88500
C  41.07700 8.90800 24.47500
C  42.33500 9.65200 24.87400
C  42.39500 9.64800 26.39800
C  41.23900 7.58000 23.63500
C  42.59700 11.02500 24.26400
C  41.96200 12.22000 24.91200
N  42.52700 10.06500 29.36700
C  43.53200 10.45500 28.56400
C  44.62600 10.94000 29.30800
C  44.16400 10.92600 30.64000
C  42.88700 10.30400 30.57200
C  45.87100 11.54100 28.73500
C  44.43600 11.28100 32.13700
O  45.39300 11.79100 32.68900
C  43.31500 10.66300 32.91400
C  43.91600 9.64700 33.87500
O  44.26900 8.47100 33.60100
O  43.90300 10.09400 35.20100
C  44.36200 9.30100 36.28400
H  37.58200 6.93900 31.34300
H  38.52200 8.32700 25.15500
H  44.24100 10.65900 26.58600
H  41.34300 8.65300 34.00600
H  38.54200 8.14100 33.54800
H  39.54600 6.17800 34.27900
H  41.14800 6.48600 33.39600
H  39.87700 5.86500 32.60100
H  38.76900 10.25000 34.14400
H  40.09800 11.20000 33.57100
H  41.27700 9.84100 35.67200
H  39.62600 10.07500 36.20100
H  34.71500 6.99000 29.47500
H  35.98000 6.01300 30.36600
H  35.39300 5.42500 28.87300
H  34.90400 5.69600 26.88500
H  34.08800 6.59100 25.68300
H  34.14900 7.31500 27.24500
H  40.52900 9.53500 23.77100
H  43.26900 9.12800 24.67200
H  41.63800 6.86400 24.35300
H  42.01400 7.69300 22.87700
H  40.28200 7.16500 23.31900
H  42.27600 11.10700 23.22500
H  43.68100 11.10800 24.33900
H  41.26400 11.92600 25.69600
H  41.38100 12.75400 24.15900
H  42.76000 12.86300 25.28300
H  45.55300 12.36500 28.09600
H  46.44100 10.81700 28.15300
H  46.60900 11.90000 29.45300
H  42.81200 11.41900 33.51600
H  44.65400 9.98000 37.08600
H  45.23500 8.85200 35.81200
H  43.62800 8.55600 36.59100

