158

Mg -2.28400 17.35500 25.83200
C  -3.03800 14.98200 28.36000
C  -2.68300 19.79600 28.11500
C  -2.17100 19.58600 23.32700
C  -2.48700 14.72400 23.42600
N  -2.76500 17.31200 28.02500
C  -2.89400 16.31100 28.91400
C  -2.84800 16.69400 30.29800
C  -2.81700 18.25200 30.30600
C  -2.76000 18.48200 28.73500
C  -3.99900 18.98200 31.03100
C  -1.84400 15.94600 31.16500
C  -1.37900 16.65000 32.36700
H  -0.88800 15.74900 33.47500
N  -2.30500 19.33900 25.75500
C  -2.49100 20.18700 26.78100
C  -2.72800 21.59300 26.33800
C  -2.39600 21.52300 24.97300
C  -2.30700 20.09500 24.59500
C  -2.93000 22.82200 27.22700
C  -2.46200 22.71900 23.99200
O  -2.37400 22.62000 22.78600
C  -2.47300 24.10500 24.47900
N  -2.32900 17.19000 23.61900
C  -2.21000 18.25500 22.83400
C  -1.97600 17.81200 21.34700
C  -1.96300 16.24600 21.38300
C  -2.25200 16.04000 22.86400
C  -3.11400 18.27800 20.45300
C  -0.69300 15.56000 20.93000
C  -0.83300 14.40400 19.86900
N  -2.69100 15.31200 25.80400
C  -2.74100 14.41000 24.79200
C  -3.00700 13.11600 25.30800
C  -3.09000 13.31100 26.65100
C  -2.92700 14.68300 26.94500
C  -3.08300 11.83200 24.56500
C  -3.26200 12.60900 27.94800
O  -3.43400 11.42900 28.15100
C  -3.16500 13.64200 29.07800
C  -1.96900 13.12500 29.79400
O  -0.75000 13.23100 29.51800
O  -2.45600 12.56800 31.01900
C  -1.48500 11.92500 31.82800
H  -2.69300 20.62000 28.83200
H  -2.15000 20.28500 22.48800
H  -2.46800 13.79000 22.86100
H  -3.84800 16.38800 30.60600
H  -1.86100 18.65400 30.64500
H  -3.58200 19.79900 31.62000
H  -4.44400 18.35000 31.79900
H  -4.87200 19.23400 30.42900
H  -0.94800 15.67400 30.60600
H  -2.21000 15.01300 31.59200
H  -2.18100 17.28600 32.74000
H  -0.52200 17.31900 32.27400
H  -1.99500 23.37900 27.15900
H  -3.07500 22.52100 28.26500
H  -3.79800 23.40500 26.92100
H  -2.12300 24.76400 23.68400
H  -1.67200 24.10600 25.21800
H  -3.44200 24.55400 24.69900
H  -0.97200 18.08100 21.01900
H  -2.84200 15.89600 20.84300
H  -2.61000 19.13900 20.01500
H  -3.83700 18.63100 21.18900
H  -3.58400 17.65300 19.69400
H  -0.16000 15.06700 21.74300
H  0.04500 16.27700 20.56800
H  -0.37400 13.47100 20.19600
H  -0.17800 14.63200 19.02800
H  -1.83400 14.28800 19.45100
H  -2.16500 11.71700 23.98800
H  -3.81600 11.97300 23.77100
H  -3.41300 10.96800 25.14200
H  -4.01000 13.75000 29.75800
H  -1.05600 11.12500 31.22400
H  -1.92700 11.58300 32.76300
H  -0.64800 12.59300 32.03100
Mg 42.36600 41.57000 26.37200
C  41.14800 43.95200 28.79000
C  43.64900 39.78800 28.90200
C  43.65900 39.67400 24.02500
C  41.64900 43.99700 23.82000
N  42.36300 41.85600 28.60200
C  41.82200 42.84200 29.37200
C  42.07200 42.58700 30.91100
C  43.03700 41.37000 30.87100
C  42.98200 40.90000 29.40200
C  44.46000 41.71500 31.31900
C  40.66200 42.34600 31.65400
C  40.39500 43.02700 32.98200
H  41.53400 43.29700 33.94700
N  43.36300 39.83800 26.48000
C  43.85400 39.30100 27.65000
C  44.53300 38.09300 27.32000
C  44.43500 37.89700 25.89700
C  43.80300 39.17200 25.39400
C  45.15600 37.27200 28.33800
C  44.85000 36.71500 24.95400
O  44.50800 36.74300 23.78300
C  45.68600 35.57400 25.54500
N  42.64900 41.81700 24.21800
C  43.09900 40.81400 23.49500
C  43.06400 41.09100 22.00300
C  42.24700 42.42200 21.93400
C  42.25500 42.79000 23.42300
C  44.44100 41.11300 21.24200
C  40.73500 42.25800 21.44800
C  39.76500 41.62000 22.45000
N  41.47500 43.55200 26.25700
C  41.35300 44.38900 25.15600
C  40.64100 45.52000 25.64000
C  40.51800 45.48300 27.05200
C  41.12000 44.25600 27.41800
C  40.15200 46.68800 24.78800
C  40.18800 46.22900 28.28400
O  39.76200 47.34900 28.45800
C  40.51400 45.16300 29.43300
C  41.56400 45.81100 30.45200
O  42.74200 45.78000 30.18900
O  40.96900 46.45100 31.52200
C  41.80700 46.87900 32.55600
H  44.02800 39.16800 29.71800
H  44.00700 38.91900 23.31600
H  41.41700 44.70900 23.02500
H  42.52300 43.50100 31.29800
H  42.66200 40.52600 31.44900
H  44.56600 42.76400 31.59400
H  45.21600 41.38000 30.60800
H  44.62000 41.11100 32.21200
H  40.48700 41.27900 31.79000
H  39.94700 42.79000 30.96200
H  39.63100 42.44200 33.49300
H  40.04300 44.03400 32.75900
H  44.51000 36.54900 28.83600
H  45.67100 37.86900 29.09200
H  45.98100 36.68600 27.93100
H  45.38700 35.20300 26.52500
H  46.67800 36.01100 25.42800
H  45.74200 34.73800 24.84800
H  42.46600 40.30000 21.55100
H  42.71200 43.27000 21.43000
H  45.30500 40.90100 21.87200
H  44.53000 42.00400 20.62200
H  44.34200 40.35800 20.46200
H  40.75400 41.59100 20.58600
H  40.42400 43.25700 21.14000
H  40.04100 41.66200 23.50300
H  39.60900 40.57600 22.17600
H  38.78400 42.04400 22.23300
H  39.31000 46.35700 24.18000
H  40.96000 47.06900 24.16400
H  39.97900 47.52800 25.46100
H  39.60900 44.98700 30.01500
H  41.62600 46.35500 33.49500
H  41.69900 47.92200 32.85600
H  42.85300 46.65000 32.35500

