158

Mg 35.06500 3.09500 30.20800
C  32.73400 3.94100 32.63800
C  37.40600 2.98200 32.61300
C  37.26100 2.48200 27.74600
C  32.53000 3.52800 27.73200
N  35.06800 3.40400 32.35500
C  33.97800 3.75400 33.14700
C  34.36000 3.75200 34.63100
C  36.00600 3.76200 34.51200
C  36.19500 3.46300 33.04800
C  36.76200 5.02100 35.04200
C  33.80700 2.55700 35.44000
C  33.45600 2.74700 36.92600
H  34.07500 3.90500 37.73000
N  37.13900 2.68200 30.23200
C  37.93000 2.59100 31.32000
C  39.20900 2.12400 30.98700
C  39.14700 1.91900 29.57200
C  37.80300 2.37200 29.10800
C  40.28800 1.72200 31.98100
C  40.23100 1.52400 28.60200
O  40.06500 1.30900 27.38500
C  41.60800 1.14700 29.14900
N  34.94600 3.17900 28.02800
C  35.97600 2.83000 27.26200
C  35.64800 2.76400 25.77700
C  34.12600 2.98900 25.77400
C  33.84700 3.22400 27.23400
C  36.44400 3.72300 24.89600
C  33.29500 1.81900 25.19000
C  32.88100 0.66000 26.18000
N  33.12500 3.76500 30.16000
C  32.20000 3.84900 29.07700
C  30.91300 4.11400 29.60800
C  31.11000 4.16200 30.97900
C  32.41700 3.91800 31.28800
C  29.66000 4.47900 28.77000
C  30.37600 4.48500 32.23200
O  29.24800 4.92000 32.44000
C  31.40500 4.15100 33.37600
C  31.33900 5.35400 34.26100
O  31.88500 6.40900 34.06900
O  30.69700 5.02600 35.50000
C  30.68700 6.22100 36.42000
H  38.19600 2.83400 33.35200
H  37.92600 2.08900 26.97400
H  31.72600 3.46000 26.99600
H  33.97200 4.70300 34.99600
H  36.52000 2.96500 35.04900
H  37.28900 4.77600 35.96400
H  35.97700 5.73800 35.28100
H  37.56600 5.41500 34.42000
H  34.65300 1.87000 35.45600
H  32.98300 2.06000 34.92800
H  33.71500 1.78600 37.37100
H  32.37600 2.81300 37.05500
H  41.21400 2.27300 31.82000
H  40.48200 0.65300 31.88600
H  39.93900 1.90800 32.99700
H  41.90700 2.02200 29.72600
H  42.31000 1.00700 28.32700
H  41.36900 0.22500 29.67900
H  35.86300 1.71100 25.59500
H  33.73800 3.90000 25.31800
H  35.91400 4.41100 24.23700
H  37.13300 3.20700 24.22700
H  37.11600 4.36600 25.46400
H  33.95000 1.52200 24.37000
H  32.34500 2.25100 24.87700
H  31.91900 0.26200 25.85400
H  32.88400 0.82500 27.25700
H  33.59100 -0.14500 25.98800
H  29.72200 5.52100 28.45400
H  28.91900 4.43000 29.56800
H  29.56600 3.69900 28.01400
H  31.11000 3.28100 33.96300
H  30.37800 7.22300 36.12100
H  31.62300 6.19600 36.97700
H  29.82100 6.07900 37.06700
Mg -6.23600 25.37500 25.68400
C  -4.80100 26.45000 28.62500
C  -8.30300 23.29800 27.48100
C  -7.27700 24.00700 22.81800
C  -3.68400 27.01700 23.93000
N  -6.37900 24.79000 27.74200
C  -5.78500 25.46000 28.81400
C  -6.44700 25.18900 30.18700
C  -7.19800 23.89400 29.81400
C  -7.37100 23.98100 28.25900
C  -6.63300 22.56700 30.19900
C  -7.40700 26.28800 30.77600
C  -7.62500 26.28000 32.31400
H  -6.84500 25.26800 33.19000
N  -7.61900 24.03600 25.22300
C  -8.47700 23.34800 26.10000
C  -9.55100 22.72400 25.35900
C  -9.15500 22.76600 23.98100
C  -8.00900 23.62200 23.97600
C  -10.75100 21.99800 25.98800
C  -9.87400 22.05300 22.79600
O  -9.44800 22.14300 21.63700
C  -11.02500 21.14300 23.04800
N  -5.58500 25.48800 23.64900
C  -6.12000 24.79000 22.63800
C  -5.40000 25.04100 21.27700
C  -4.35100 26.11800 21.65400
C  -4.54100 26.23900 23.18300
C  -4.90900 23.83500 20.43300
C  -4.59900 27.53300 21.02800
C  -3.67800 27.79000 19.86600
N  -4.51800 26.45500 26.14300
C  -3.61800 27.07100 25.31000
C  -2.70100 27.82800 26.08800
C  -3.17200 27.76400 27.45100
C  -4.23500 26.87600 27.40600
C  -1.54900 28.66900 25.60800
C  -2.93700 28.19700 28.75900
O  -2.15600 29.04800 29.20500
C  -3.96000 27.31900 29.65100
C  -3.23400 26.53900 30.67300
O  -2.65400 25.52600 30.37900
O  -3.14900 27.17500 31.87900
C  -2.14300 26.72500 32.86800
H  -9.15900 23.01600 28.09800
H  -7.69800 23.59500 21.89800
H  -2.88400 27.64100 23.52600
H  -5.56100 25.09800 30.81500
H  -8.18400 23.83000 30.27400
H  -6.28100 21.98400 29.34700
H  -7.34900 21.90400 30.68400
H  -5.83900 22.64200 30.94200
H  -8.40600 26.31000 30.34100
H  -6.98000 27.27400 30.59500
H  -8.66900 26.23400 32.62500
H  -7.29600 27.27000 32.62800
H  -10.80200 20.92600 25.79500
H  -11.65600 22.40600 25.53700
H  -10.90400 22.25800 27.03500
H  -11.49700 20.63300 22.20800
H  -11.83500 21.77300 23.41400
H  -10.76500 20.31900 23.71200
H  -6.05800 25.48500 20.53000
H  -3.36200 25.69000 21.49100
H  -5.44900 23.65100 19.50400
H  -4.95100 22.88100 20.95800
H  -3.85700 23.97300 20.18300
H  -4.36500 28.28500 21.78200
H  -5.64100 27.74800 20.79300
H  -4.34500 27.94100 19.01800
H  -2.94900 27.02900 19.59100
H  -2.97600 28.60800 20.03300
H  -1.88400 29.66400 25.31400
H  -0.99700 28.23900 24.77300
H  -0.88900 28.91200 26.44100
H  -4.69900 27.92500 30.17500
H  -2.52300 25.96500 33.55100
H  -1.92200 27.54500 33.55100
H  -1.26500 26.29500 32.38700

