158

Mg 25.42400 1.05400 29.32800
C  27.46500 1.00600 32.17000
C  22.68700 1.91700 31.30800
C  23.40100 1.31200 26.57200
C  28.06700 0.12600 27.31100
N  25.10700 1.32400 31.50500
C  26.12200 1.35300 32.48100
C  25.60000 1.67700 33.90200
C  24.03900 1.84700 33.61200
C  23.87100 1.64000 32.06600
C  23.11900 0.83200 34.39400
C  26.16800 2.93600 34.67300
C  26.76600 2.74300 36.08000
H  26.61200 3.84000 37.11200
N  23.32000 1.48000 28.94100
C  22.39000 1.84200 29.88500
C  21.10800 2.17600 29.33000
C  21.36000 1.99600 27.88600
C  22.74400 1.57600 27.72400
C  19.79700 2.43600 30.12600
C  20.24500 2.08000 26.70800
O  20.59700 1.88900 25.59700
C  18.91100 2.50500 26.96900
N  25.62500 0.62600 27.24200
C  24.68800 0.85500 26.31400
C  25.31100 0.87200 24.85000
C  26.75900 0.42700 25.11400
C  26.83700 0.38600 26.65000
C  24.45200 0.08600 23.87400
C  27.85200 1.40900 24.57600
C  29.00800 0.73300 23.86700
N  27.41300 0.61900 29.62000
C  28.39100 0.26100 28.70800
C  29.66600 0.05000 29.43500
C  29.34600 0.37300 30.79500
C  27.96100 0.67400 30.89500
C  30.90400 -0.45500 28.95300
C  29.86800 0.39600 32.15300
O  30.97200 0.16200 32.60400
C  28.63500 0.87200 33.07400
C  28.50300 -0.17600 34.15100
O  28.36600 -1.35400 33.88900
O  28.71500 0.34500 35.45200
C  29.02300 -0.65100 36.55300
H  21.89500 2.17000 32.01500
H  22.80800 1.43700 25.66300
H  28.81900 -0.34700 26.67500
H  25.80000 0.83000 34.55800
H  23.65300 2.85800 33.74200
H  22.62200 0.13000 33.72400
H  22.44300 1.36700 35.06100
H  23.65300 0.20600 35.10900
H  25.39100 3.69900 34.72900
H  26.98400 3.41200 34.12900
H  27.83400 2.74800 35.86400
H  26.67200 1.76600 36.55400
H  19.94500 2.52900 31.20200
H  19.06600 1.67200 29.86000
H  19.26000 3.34400 29.85100
H  18.35100 2.73800 26.06300
H  18.82200 3.47800 27.45200
H  18.33100 1.79200 27.55500
H  25.35600 1.94300 24.65200
H  26.98200 -0.60100 24.82900
H  23.61100 -0.44600 24.31800
H  25.23600 -0.55800 23.47800
H  24.09800 0.78600 23.11700
H  28.32000 1.96500 25.38800
H  27.24800 2.09700 23.98600
H  29.99700 1.16500 24.02100
H  28.73900 0.78300 22.81200
H  29.15800 -0.30900 24.14700
H  30.86400 -1.53500 28.80700
H  31.59900 -0.09100 29.71000
H  31.02700 0.03400 27.98700
H  28.72400 1.68400 33.79500
H  28.23300 -0.58200 37.30100
H  29.97600 -0.42100 37.03000
H  29.07500 -1.64000 36.09700
Mg 35.10700 2.59300 29.81100
C  32.73900 3.69600 32.29100
C  37.56300 2.95300 32.14200
C  37.42400 2.16500 27.30300
C  32.56400 3.05800 27.42800
N  35.11100 3.40900 31.87400
C  34.09000 3.65600 32.74300
C  34.45900 3.66900 34.24300
C  36.03400 3.64200 34.09800
C  36.29800 3.35900 32.60200
C  36.68400 4.96400 34.57500
C  33.94100 2.36600 34.92900
C  33.83100 2.34900 36.50600
H  34.41800 3.55800 37.25300
N  37.15300 2.38200 29.71700
C  38.00700 2.54200 30.84400
C  39.36200 2.18400 30.34300
C  39.34200 1.95600 28.93400
C  37.92200 2.21700 28.60200
C  40.51300 2.29100 31.26800
C  40.50800 1.71600 27.98200
O  40.40300 1.67700 26.74700
C  41.93600 1.57000 28.50400
N  34.94500 2.52100 27.65100
C  36.05700 2.31700 26.86300
C  35.67700 2.40400 25.34100
C  34.14200 2.57500 25.42700
C  33.81400 2.77700 26.92900
C  36.30800 3.59300 24.49000
C  33.34400 1.39700 24.90700
C  33.69000 -0.01800 25.31700
N  33.02800 3.21600 29.81300
C  32.16000 3.30000 28.75900
C  30.82800 3.70900 29.29300
C  31.07800 3.83200 30.70600
C  32.37600 3.46900 30.97400
C  29.70200 3.97700 28.35500
C  30.35400 4.09700 31.92100
O  29.25900 4.59100 32.14700
C  31.40500 3.93100 33.04100
C  31.53700 5.10200 33.90100
O  31.84300 6.24700 33.61400
O  31.02600 4.80800 35.19800
C  30.96300 5.79400 36.24900
H  38.32600 3.08700 32.91100
H  38.11500 1.93800 26.48800
H  31.74000 3.09600 26.71400
H  34.07000 4.56000 34.73500
H  36.51200 2.88500 34.71900
H  36.94500 5.51500 33.67100
H  37.53300 4.94800 35.25900
H  35.96100 5.67500 34.97500
H  34.58800 1.56800 34.56500
H  32.94200 2.09500 34.58600
H  34.26500 1.38300 36.76100
H  32.80100 2.21600 36.83800
H  41.26500 2.94900 30.83300
H  40.87000 1.27300 31.42200
H  40.24600 2.73500 32.22700
H  42.06800 1.39500 29.57100
H  42.48600 2.43800 28.13700
H  42.23600 0.71900 27.89200
H  35.88300 1.42300 24.91300
H  33.88400 3.43900 24.81500
H  36.66400 3.18900 23.54200
H  37.12500 3.98000 25.10000
H  35.60600 4.38800 24.24200
H  33.46100 1.50000 23.82800
H  32.26200 1.51500 24.96900
H  34.05000 -0.59200 24.46300
H  32.76400 -0.46300 25.68200
H  34.46900 0.05100 26.07600
H  29.07800 3.08400 28.32600
H  29.89400 4.23000 27.31300
H  29.13800 4.84900 28.68600
H  31.01500 3.05600 33.56100
H  30.02900 6.35100 36.17200
H  31.84300 6.43700 36.25500
H  30.99100 5.19700 37.16100

