158

Mg 34.99700 2.10700 29.98200
C  32.99200 3.26400 32.42000
C  37.72200 2.29200 32.24900
C  37.08900 1.31300 27.40200
C  32.47300 2.61600 27.66800
N  35.34900 2.72600 32.07400
C  34.31600 3.04900 32.86400
C  34.78900 3.25400 34.27100
C  36.37400 3.47300 34.18100
C  36.52800 2.82500 32.76800
C  36.91600 4.92700 34.11500
C  34.32200 1.97400 34.94900
C  34.53800 1.93900 36.53000
H  35.28400 3.11200 37.16900
N  37.04500 1.67700 29.92100
C  37.94100 1.78800 30.93300
C  39.28900 1.50700 30.44400
C  39.14400 1.21800 29.02400
C  37.68700 1.39300 28.72800
C  40.52800 1.51900 31.23500
C  40.26200 0.90800 27.92600
O  40.03700 0.79100 26.72300
C  41.77400 0.52200 28.30300
N  34.70700 1.73200 27.89100
C  35.71000 1.40500 27.03700
C  35.24600 1.38700 25.54000
C  33.67700 1.66100 25.68000
C  33.58900 1.95300 27.19900
C  35.94800 2.48900 24.63700
C  32.84700 0.44300 25.25900
C  32.36000 0.29700 23.75800
N  33.06700 2.86500 29.99400
C  32.14700 3.05400 28.95800
C  30.85000 3.39700 29.53200
C  31.15900 3.56300 30.97600
C  32.50300 3.20100 31.16400
C  29.57900 3.59400 28.83800
C  30.62000 3.89200 32.26900
O  29.50400 4.28200 32.66200
C  31.80800 3.75900 33.26300
C  32.04000 5.01800 34.01800
O  32.57600 6.06300 33.61500
O  31.51000 4.84800 35.26800
C  31.61000 6.09000 36.11000
H  38.52900 2.48100 32.96100
H  37.80000 1.34800 26.57400
H  31.62300 2.82900 27.01700
H  34.39500 4.19600 34.65300
H  36.73900 2.94600 35.06300
H  37.57400 5.17200 34.94900
H  36.05100 5.57100 34.27700
H  37.36200 5.12400 33.14000
H  34.97400 1.16100 34.63000
H  33.30800 1.65500 34.70900
H  34.88000 0.92500 36.74000
H  33.62900 2.04500 37.12100
H  40.41200 0.61700 31.83500
H  40.55700 2.39900 31.87800
H  41.37600 1.53200 30.54900
H  42.32900 1.42800 28.54400
H  42.16700 0.05300 27.40200
H  41.85900 -0.19900 29.11700
H  35.53900 0.41000 25.15600
H  33.43300 2.50700 25.03700
H  36.63900 3.12700 25.18800
H  35.27300 3.13100 24.07100
H  36.55200 1.94200 23.91300
H  31.89000 0.37800 25.77700
H  33.40000 -0.48100 25.42600
H  32.61400 -0.70300 23.40800
H  32.87800 1.04200 23.15400
H  31.27800 0.41100 23.70400
H  29.51100 3.08400 27.87700
H  29.51700 4.65000 28.57700
H  28.78500 3.35500 29.54500
H  31.55600 3.01300 34.01600
H  30.78800 6.00600 36.82000
H  31.31000 6.96900 35.54000
H  32.58900 6.29400 36.54400
Mg -1.61700 34.67800 27.09000
C  -3.64300 33.03700 29.50600
C  -0.51400 36.70000 29.68400
C  -0.16200 36.68000 24.89000
C  -3.35700 33.02100 24.58600
N  -2.11900 34.87400 29.34000
C  -2.87800 34.04700 30.08100
C  -2.73200 34.28800 31.61800
C  -2.08400 35.71400 31.65000
C  -1.54700 35.80800 30.13300
C  -3.16600 36.86500 31.98000
C  -2.01600 33.11400 32.34100
C  -2.72600 32.46500 33.58100
H  -1.95100 32.55500 34.91400
N  -0.24700 36.20000 27.30800
C  0.11300 36.85200 28.45200
C  1.03900 37.93000 28.08900
C  1.25600 37.85800 26.73000
C  0.29300 36.87500 26.26000
C  1.74300 38.76200 29.21300
C  2.21600 38.70500 25.94600
O  2.38600 38.62100 24.70200
C  3.00700 39.82200 26.67500
N  -1.91700 34.87200 24.94200
C  -1.06000 35.74800 24.25100
C  -1.03800 35.45100 22.71000
C  -2.04700 34.19500 22.62200
C  -2.40600 33.95700 24.08300
C  -1.56500 36.60000 21.93100
C  -1.53000 32.91500 21.86800
C  -0.73900 31.87800 22.76500
N  -3.24500 33.32000 27.00500
C  -3.79000 32.69900 25.93600
C  -4.73400 31.69200 26.32700
C  -4.66900 31.75200 27.80500
C  -3.79200 32.78600 28.14100
C  -5.52100 30.75100 25.38700
C  -5.06800 31.08600 29.04800
O  -5.76400 30.12800 29.13000
C  -4.37300 31.86700 30.19800
C  -5.49900 32.24700 31.10400
O  -6.23200 33.19700 31.03100
O  -5.63100 31.22100 32.08200
C  -6.54700 31.55600 33.18300
H  -0.20500 37.36100 30.49700
H  0.41600 37.31500 24.21600
H  -3.83700 32.36500 23.85700
H  -3.74300 34.34600 32.02000
H  -1.23300 35.69800 32.33100
H  -2.94600 37.57800 31.18600
H  -2.90800 37.26900 32.96000
H  -4.17700 36.47300 31.86900
H  -1.05500 33.49700 32.68400
H  -1.84700 32.30500 31.63100
H  -2.86000 31.39500 33.42400
H  -3.74700 32.83200 33.68600
H  1.41600 39.80200 29.21100
H  2.81500 38.59600 29.11600
H  1.43400 38.44100 30.20800
H  3.49100 40.39000 25.88000
H  3.79000 39.30200 27.22700
H  2.34800 40.45300 27.27200
H  -0.05500 35.23600 22.29100
H  -3.01300 34.47800 22.20200
H  -1.54900 37.51900 22.51600
H  -2.58900 36.37700 21.63100
H  -1.00700 36.80400 21.01800
H  -1.04400 33.34500 20.99200
H  -2.44900 32.46100 21.49900
H  -0.60500 32.21800 23.79200
H  0.26000 31.75400 22.34600
H  -1.26300 30.92200 22.77600
H  -6.07300 31.37600 24.68400
H  -6.22100 30.19000 26.00600
H  -4.69300 30.15100 25.01000
H  -3.66000 31.17500 30.64500
H  -6.07800 32.28600 33.84200
H  -6.67300 30.69400 33.83800
H  -7.51900 32.00800 32.98800

