158

Mg 46.59700 24.73200 28.02900
C  47.39900 27.16500 30.51100
C  45.85400 22.53300 30.44500
C  46.32900 22.32700 25.50800
C  47.68700 26.84400 25.61800
N  46.67600 24.80700 30.24900
C  46.82600 25.99900 31.01600
C  46.54800 25.73400 32.53700
C  45.94900 24.30800 32.39700
C  46.16100 23.80100 30.98200
C  46.47800 23.16600 33.29700
C  45.52500 26.71100 33.19500
C  45.81000 27.08300 34.63800
H  44.69300 27.04200 35.62400
N  46.09000 22.75100 28.06100
C  45.78400 21.98700 29.12400
C  45.53200 20.63900 28.72900
C  45.84600 20.50600 27.34000
C  46.14600 21.88900 26.89700
C  45.05000 19.55700 29.68900
C  45.92900 19.27500 26.44900
O  46.23500 19.21500 25.26800
C  45.77700 17.92800 27.13800
N  46.95500 24.56500 25.81400
C  46.57600 23.57200 24.98700
C  46.79700 23.92600 23.48000
C  46.98000 25.46200 23.63300
C  47.27100 25.62200 25.11200
C  47.95300 23.19700 22.86500
C  45.83500 26.31400 23.00700
C  44.33700 25.95900 23.42200
N  47.39500 26.57200 27.97000
C  47.76100 27.39300 26.93000
C  48.29100 28.63900 27.31900
C  48.14400 28.59300 28.73400
C  47.54900 27.32200 29.11400
C  48.77900 29.69000 26.45400
C  48.45700 29.27900 29.93800
O  48.93100 30.41000 30.10700
C  47.80400 28.50400 31.09200
C  48.85600 28.34900 32.16600
O  49.87100 27.64300 32.08200
O  48.44600 29.07700 33.29800
C  49.29600 28.86900 34.47600
H  45.36800 21.83100 31.12500
H  46.17100 21.50500 24.80800
H  47.82400 27.66700 24.91300
H  47.51800 25.67400 33.03000
H  44.86500 24.25200 32.49200
H  46.66400 23.51600 34.31300
H  47.21800 22.50700 32.84300
H  45.62700 22.50400 33.45300
H  44.48200 26.43500 33.04400
H  45.60100 27.67100 32.68300
H  46.29300 28.05000 34.49600
H  46.53500 26.43200 35.12700
H  44.25700 18.87000 29.39600
H  44.67400 20.07300 30.57200
H  45.92200 19.00100 30.03500
H  46.54900 17.92000 27.90700
H  46.15300 17.19700 26.42100
H  44.73400 17.84000 27.44400
H  45.91200 23.62000 22.92200
H  47.91400 25.78000 23.16900
H  48.09500 23.66900 21.89300
H  47.71000 22.14600 22.70900
H  48.77000 23.38000 23.56400
H  45.83600 26.22400 21.92100
H  46.03200 27.35100 23.27800
H  43.68400 25.74100 22.57700
H  43.93100 26.78500 24.00500
H  44.29100 25.09200 24.08200
H  48.14800 30.55300 26.67000
H  48.81100 29.60100 25.36800
H  49.81900 29.85000 26.74000
H  46.96300 29.04700 31.52500
H  48.99200 27.98500 35.03800
H  49.23000 29.74600 35.12100
H  50.37000 28.75200 34.33200
Mg 47.11900 34.98600 26.70500
C  45.43200 33.29100 29.38300
C  47.59800 37.52600 28.89100
C  48.90700 36.50400 24.28100
C  46.60100 32.19700 24.72900
N  46.62400 35.23400 28.90600
C  46.04900 34.41100 29.79600
C  46.05300 34.89000 31.22500
C  46.46600 36.35200 30.91100
C  46.90600 36.40600 29.44800
C  45.36300 37.40200 31.11700
C  47.13300 34.14500 32.14800
C  46.67500 33.93600 33.60000
H  47.52700 34.68700 34.68300
N  48.03500 36.79100 26.54200
C  48.03400 37.76300 27.56500
C  48.80000 38.91800 27.09400
C  49.25600 38.60000 25.79700
C  48.72900 37.24500 25.44600
C  49.14000 40.15100 27.97700
C  50.23800 39.33500 24.80500
O  50.52100 38.88800 23.68300
C  50.84700 40.70100 25.14400
N  47.55900 34.46500 24.84800
C  48.37400 35.22400 24.06200
C  48.49700 34.62500 22.60600
C  47.55800 33.32500 22.69500
C  47.29200 33.27700 24.16800
C  48.08000 35.52400 21.42600
C  48.12000 32.10500 21.98600
C  49.28900 31.33100 22.72300
N  46.18300 33.12500 26.94900
C  46.06700 32.12600 26.00700
C  45.29500 30.97400 26.59100
C  44.97100 31.45600 27.88100
C  45.56100 32.76800 28.08100
C  44.95600 29.67000 25.98600
C  44.26300 31.09900 29.11400
O  43.73900 30.03600 29.42800
C  44.43600 32.33700 30.06000
C  44.66400 31.86400 31.46800
O  45.64800 31.29100 31.89300
O  43.59700 32.25600 32.26700
C  43.67500 31.86500 33.65200
H  47.71200 38.43400 29.48600
H  49.41700 36.93200 23.41500
H  46.25300 31.40000 24.06900
H  45.03800 34.74600 31.59600
H  47.20200 36.62300 31.66900
H  44.52800 36.84500 31.54200
H  44.85000 37.74100 30.21700
H  45.66100 38.28300 31.68600
H  48.10600 34.63600 32.13500
H  47.24600 33.09500 31.87700
H  46.67900 32.87300 33.84300
H  45.65000 34.30500 33.58000
H  50.16000 39.95300 28.30700
H  48.48800 40.23700 28.84600
H  49.19300 41.04600 27.35700
H  50.16600 41.54400 25.03300
H  51.64500 40.92200 24.43500
H  51.40300 40.63000 26.08000
H  49.51900 34.29200 22.42200
H  46.53700 33.36900 22.31500
H  47.57100 36.30100 21.99600
H  47.32000 35.06200 20.79600
H  48.96400 35.81300 20.85900
H  48.57600 32.48000 21.07000
H  47.26600 31.46500 21.76600
H  50.00200 31.11900 21.92700
H  48.81400 30.41500 23.07600
H  49.70000 32.02300 23.45800
H  45.13300 28.85700 26.69000
H  45.51600 29.43500 25.08200
H  43.88100 29.64300 25.80600
H  43.48300 32.86000 30.13600
H  44.39600 31.07000 33.84300
H  42.70400 31.52700 34.01500
H  43.98300 32.72300 34.24900

