158

Mg 7.02800 53.42300 40.41400
C  6.67300 49.90700 40.38200
C  10.33300 53.00500 39.95700
C  7.09900 56.61500 39.59800
C  3.65700 53.68000 41.03500
N  8.36100 51.61800 40.07600
C  7.99300 50.27500 40.13200
C  9.21600 49.36600 40.19900
C  10.35100 50.36600 40.46800
C  9.69200 51.77900 40.17800
C  11.02900 50.27000 41.90300
C  9.43000 48.57600 38.86400
C  9.54600 49.32900 37.49400
H  8.25000 49.28900 36.59900
N  8.51600 54.65700 39.86600
C  9.85900 54.30100 39.69700
C  10.58500 55.41600 39.32800
C  9.75100 56.52000 39.31400
C  8.38500 56.00100 39.55000
C  12.11200 55.51400 39.14300
C  10.23100 57.95900 39.02000
O  11.41500 58.25800 38.93200
C  9.23100 59.06500 38.79800
N  5.49800 54.93400 40.05200
C  5.85100 56.26400 39.98800
C  4.60800 57.20900 40.09500
C  3.43900 56.23000 40.60200
C  4.24400 54.84400 40.58800
C  4.83300 58.37500 41.09100
C  2.15500 56.33600 39.71400
C  1.02200 56.95900 40.41700
N  5.50100 52.20400 40.70700
C  4.23500 52.38500 41.01800
C  3.50100 51.14600 41.11700
C  4.49300 50.15100 40.92400
C  5.64500 50.83900 40.60200
C  2.13700 50.91900 41.66900
C  4.79200 48.71300 41.08700
O  4.09000 47.81600 41.49100
C  6.13100 48.53900 40.51100
C  6.04300 47.83600 39.18300
O  5.42300 48.27400 38.18800
O  6.55400 46.62500 39.28300
C  6.52700 45.76500 38.02000
H  11.41300 52.84800 39.92300
H  6.96000 57.67400 39.37300
H  2.61100 53.88800 41.26800
H  9.06000 48.60000 40.95800
H  11.16200 50.42400 39.74100
H  12.11500 50.36200 41.88600
H  10.78500 49.30900 42.35600
H  10.85300 51.21400 42.41900
H  8.62000 47.84700 38.83300
H  10.31500 47.95000 38.97300
H  10.35100 48.88900 36.90600
H  9.89400 50.36000 37.55400
H  12.48200 54.51400 39.36900
H  12.49100 56.11300 39.97100
H  12.43100 55.80000 38.14100
H  8.68400 58.80900 37.89000
H  9.79600 59.98400 38.64400
H  8.56200 59.01200 39.65600
H  4.44100 57.67200 39.12300
H  3.28500 56.48900 41.64900
H  5.08300 59.14400 40.36000
H  5.71000 58.20800 41.71600
H  3.98500 58.57900 41.74600
H  1.98100 55.32600 39.34300
H  2.38400 56.99000 38.87300
H  1.18200 56.82700 41.48700
H  0.17100 56.33500 40.14500
H  0.82000 57.95900 40.03200
H  1.71200 51.85500 42.03000
H  2.22400 50.35900 42.60000
H  1.52100 50.54800 40.84900
H  6.69300 47.98700 41.26400
H  6.10200 44.80700 38.31800
H  7.53400 45.76000 37.60300
H  5.85200 46.11900 37.24000
Mg -1.76400 34.81600 26.86700
C  -3.04100 32.84500 29.53200
C  -0.23400 36.76500 29.07100
C  -0.97500 36.73600 24.23500
C  -3.40600 32.53800 24.59500
N  -1.81500 34.86700 29.11400
C  -2.19200 33.82600 29.99300
C  -1.72100 34.09600 31.41500
C  -0.76600 35.41200 31.19100
C  -0.97200 35.77200 29.69000
C  -1.02500 36.55600 32.18700
C  -0.98400 32.91800 32.04400
C  -1.67200 32.27800 33.25200
H  -0.82200 32.29700 34.53200
N  -0.72700 36.56500 26.69000
C  -0.13700 37.18600 27.73700
C  0.59200 38.22900 27.19900
C  0.44600 38.23400 25.76900
C  -0.46700 37.12700 25.48400
C  1.38700 39.18900 28.07900
C  1.02600 39.22200 24.72000
O  0.72900 39.25600 23.51700
C  2.02900 40.18500 25.14200
N  -2.53100 34.90300 24.68900
C  -1.80300 35.69100 23.87100
C  -1.84600 35.24300 22.40200
C  -2.35300 33.73800 22.62100
C  -2.85300 33.70300 24.02400
C  -2.85300 36.10100 21.55300
C  -1.21100 32.64000 22.35600
C  -1.74600 31.28300 21.92100
N  -3.03900 33.09100 26.95100
C  -3.55000 32.28000 25.97800
C  -4.12700 31.18000 26.64200
C  -4.08400 31.38000 28.04300
C  -3.32100 32.56000 28.16400
C  -4.88300 30.08800 25.98200
C  -4.50500 30.91700 29.31000
O  -5.27200 29.98000 29.59700
C  -3.79200 31.80800 30.33900
C  -4.93800 32.38100 31.10500
O  -5.60000 33.35600 30.81700
O  -5.13400 31.70600 32.33800
C  -5.99600 32.24700 33.36500
H  0.39500 37.28700 29.79400
H  -0.44400 37.19500 23.39800
H  -3.65700 31.76200 23.86900
H  -2.61600 34.33900 31.98800
H  0.26000 35.05800 31.29400
H  -1.55500 37.42400 31.79500
H  -0.00900 36.89500 32.38400
H  -1.45600 36.15600 33.10500
H  -0.00200 33.24400 32.38600
H  -0.85100 32.13900 31.29400
H  -1.85500 31.22500 33.04000
H  -2.68000 32.61100 33.50000
H  2.31700 39.50800 27.60800
H  1.67400 38.65700 28.98600
H  0.69000 40.02300 28.15400
H  1.65500 40.86300 25.90800
H  2.29800 40.65200 24.19400
H  2.90300 39.69700 25.57500
H  -0.81600 35.35500 22.06400
H  -3.10900 33.40600 21.91000
H  -3.15800 36.91600 22.20900
H  -3.74500 35.57000 21.22000
H  -2.48600 36.55000 20.63000
H  -0.64800 32.39100 23.25600
H  -0.55800 33.16500 21.66000
H  -1.29500 30.50000 22.53000
H  -1.44900 31.14900 20.88100
H  -2.83600 31.29100 21.94600
H  -5.07400 29.25900 26.66300
H  -4.37500 29.55400 25.17900
H  -5.83100 30.41300 25.55400
H  -3.16600 31.18900 30.98200
H  -6.73300 32.98500 33.04700
H  -5.39000 32.63200 34.18500
H  -6.45500 31.34200 33.76200

