158

Mg 28.82700 57.28500 41.37600
C  26.27300 55.06600 40.25300
C  31.04800 55.00100 39.82100
C  31.00600 59.59800 41.58800
C  26.30100 59.45000 42.42600
N  28.64000 55.28800 40.08100
C  27.48700 54.53800 39.86700
C  27.89600 53.18800 39.32700
C  29.42600 53.07100 39.47900
C  29.70300 54.51800 39.80100
C  30.02400 52.08600 40.59500
C  27.34100 52.90300 37.89200
C  27.20100 54.19400 37.12800
H  27.35100 54.13700 35.60700
N  30.78500 57.23300 40.92700
C  31.53000 56.23300 40.31000
C  32.90100 56.63500 40.21700
C  32.94400 57.90900 40.82700
C  31.56900 58.33800 41.13900
C  33.96800 55.79800 39.53100
C  34.23500 58.66200 41.06300
O  35.29800 58.16100 40.74100
C  34.27200 59.98500 41.56700
N  28.69500 59.21900 41.98500
C  29.72700 60.01900 42.01400
C  29.49800 61.42300 42.76100
C  27.94300 61.44900 42.75400
C  27.62700 59.99000 42.30200
C  30.11500 61.57400 44.17000
C  27.18800 62.58700 41.93600
C  26.81200 63.88000 42.71600
N  26.70800 57.30500 41.41500
C  25.85200 58.24700 41.92100
C  24.48400 57.73400 41.69400
C  24.59500 56.51900 41.11100
C  25.99800 56.31700 40.89300
C  23.21900 58.37600 42.08600
C  23.87700 55.38600 40.65900
O  22.67200 55.10800 40.68200
C  24.93000 54.39300 40.20100
C  24.82800 53.12000 40.94200
O  25.12700 52.94900 42.11400
O  24.23600 52.13200 40.20300
C  23.74900 50.94300 40.93200
H  31.76200 54.23700 39.50600
H  31.77900 60.36600 41.52800
H  25.62000 60.20700 42.82000
H  27.44900 52.50500 40.04900
H  29.81900 52.71200 38.52800
H  29.22100 51.54400 41.09500
H  30.47900 52.64100 41.41600
H  30.72200 51.37800 40.14800
H  26.30900 52.55300 37.92000
H  28.01700 52.21700 37.38200
H  27.92500 54.96300 37.39800
H  26.18100 54.56300 37.23400
H  34.41800 56.40700 38.74700
H  33.47700 55.03200 38.93100
H  34.67000 55.35400 40.23600
H  33.91000 60.60700 40.74800
H  35.32400 60.23400 41.70400
H  33.71700 60.02900 42.50400
H  29.97200 62.12700 42.07600
H  27.54100 61.58800 43.75700
H  30.40700 62.58500 44.45400
H  30.98400 60.91700 44.18800
H  29.42100 61.25400 44.94700
H  26.29400 62.28100 41.39200
H  27.84300 62.89000 41.11900
H  26.97400 63.81800 43.79200
H  25.76100 63.95800 42.43900
H  27.45200 64.68300 42.34900
H  23.29600 59.43600 41.84400
H  23.00800 58.28700 43.15200
H  22.37100 58.01400 41.50400
H  24.71300 54.14800 39.16100
H  23.65800 51.09600 42.00700
H  24.41400 50.12600 40.65400
H  22.74700 50.74800 40.54800
Mg -12.07400 37.73900 41.24900
C  -9.62100 35.41300 40.38100
C  -10.31400 40.11700 39.33500
C  -14.77300 39.63300 41.03300
C  -13.78900 35.18700 42.87400
N  -10.24200 37.73900 39.92000
C  -9.42500 36.62500 39.77600
C  -8.20900 36.94900 38.98800
C  -8.24600 38.54200 38.84200
C  -9.67000 38.85600 39.35300
C  -7.26500 39.34400 39.67100
C  -8.31500 36.26100 37.58300
C  -7.06700 35.42100 37.05900
H  -5.94100 36.26300 36.41300
N  -12.51300 39.66900 40.32500
C  -11.63800 40.50400 39.69300
C  -12.36600 41.72600 39.37300
C  -13.66400 41.63400 39.90100
C  -13.70600 40.29800 40.47500
C  -11.67500 42.83500 38.56200
C  -14.73200 42.62600 39.77000
O  -14.45900 43.60400 39.07200
C  -16.13900 42.48500 40.28800
N  -14.00600 37.47900 41.89100
C  -14.98300 38.37100 41.56800
C  -16.34800 37.93900 42.10000
C  -15.99200 36.57900 42.75600
C  -14.50800 36.34400 42.45400
C  -17.16000 38.99800 42.98100
C  -16.87300 35.40800 42.16000
C  -17.56900 34.50600 43.17100
N  -11.75800 35.68700 41.70800
C  -12.47400 34.80500 42.45400
C  -11.69300 33.63700 42.61800
C  -10.56100 33.73300 41.85600
C  -10.67500 35.04600 41.26300
C  -12.08700 32.41200 43.45000
C  -9.40600 33.14600 41.30400
O  -9.01700 31.98700 41.42200
C  -8.65000 34.14900 40.41300
C  -7.39700 34.36000 41.27400
O  -6.40800 33.65200 41.40600
O  -7.46400 35.60400 41.91000
C  -6.26600 36.15500 42.61000
H  -9.67000 40.85600 38.85300
H  -15.73600 40.14700 41.03100
H  -14.22800 34.29100 43.31600
H  -7.25700 36.70000 39.45600
H  -8.06400 38.80900 37.80100
H  -6.35600 39.49000 39.08700
H  -6.91500 38.73800 40.50700
H  -7.68400 40.29900 39.98800
H  -8.69800 36.94700 36.82700
H  -9.14100 35.55000 37.58700
H  -7.48200 34.65800 36.40000
H  -6.69600 34.88300 37.93100
H  -12.24900 43.41100 37.83600
H  -10.65000 42.69400 38.21800
H  -11.39800 43.59500 39.29200
H  -16.61600 43.45200 40.12900
H  -16.24800 42.10200 41.30300
H  -16.61200 41.79500 39.58900
H  -17.05000 37.89900 41.26700
H  -16.06400 36.43700 43.83400
H  -17.84500 39.64100 42.42800
H  -16.51300 39.71200 43.49100
H  -17.68400 38.45200 43.76600
H  -16.39100 34.66900 41.52000
H  -17.65400 35.80000 41.50800
H  -18.08400 33.67100 42.69500
H  -18.23500 35.18100 43.70800
H  -16.88200 34.12100 43.92600
H  -12.36600 32.80600 44.42700
H  -11.18500 31.81700 43.59600
H  -12.93900 31.90800 42.99300
H  -8.32700 33.65000 39.49900
H  -6.56900 36.98500 43.24900
H  -5.64900 36.41500 41.75100
H  -5.83000 35.46300 43.33100

