158

Mg 29.93400 58.72600 40.44900
C  26.89000 57.00000 39.78900
C  31.63900 56.15200 39.13700
C  32.61000 60.77100 40.45300
C  27.97700 61.53700 41.44000
N  29.30000 56.81400 39.51700
C  28.03000 56.35400 39.28900
C  28.05200 55.00200 38.59000
C  29.61200 54.57900 38.57500
C  30.26600 55.94400 39.11700
C  30.02400 53.27500 39.42100
C  27.36000 55.00500 37.18100
C  27.49600 56.19700 36.24700
H  28.09800 55.94100 34.79700
N  31.85900 58.43800 40.03700
C  32.41900 57.31300 39.57100
C  33.80300 57.33100 39.49900
C  34.14700 58.69200 39.86900
C  32.87600 59.39700 40.22900
C  34.74200 56.16700 39.13900
C  35.59800 59.20500 39.80000
O  36.54100 58.50300 39.38900
C  35.84600 60.64200 40.24100
N  30.23200 60.85700 40.85700
C  31.47300 61.43200 40.79900
C  31.50900 62.92200 41.22000
C  30.02400 63.11200 41.66600
C  29.34200 61.75200 41.32100
C  32.54800 63.04500 42.42600
C  29.41400 64.39900 40.91200
C  28.69100 65.43500 41.70500
N  27.86800 59.24400 40.56700
C  27.22900 60.40100 41.05800
C  25.82000 60.23600 40.99600
C  25.57000 58.87200 40.69600
C  26.88400 58.33100 40.37300
C  24.82400 61.26600 41.37600
C  24.53600 57.84900 40.45300
O  23.35000 57.87300 40.47300
C  25.36700 56.57200 39.81600
C  25.11900 55.28500 40.69100
O  25.03900 55.23500 41.91700
O  25.01000 54.14300 39.81900
C  24.88100 52.87100 40.54200
H  32.11700 55.28800 38.67000
H  33.43700 61.47500 40.33500
H  27.36600 62.38100 41.76500
H  27.50100 54.30700 39.22400
H  29.93900 54.39400 37.55200
H  29.06500 52.93700 39.81300
H  30.76800 53.37000 40.21300
H  30.56500 52.53100 38.83600
H  26.29600 54.78200 37.25600
H  27.63200 54.08500 36.66300
H  28.08700 57.01900 36.65000
H  26.51100 56.66300 36.19500
H  35.40200 55.81900 39.93400
H  35.43900 56.51700 38.37700
H  34.29600 55.37100 38.54300
H  35.26600 61.19600 39.50200
H  36.88100 60.98100 40.28900
H  35.42400 60.74800 41.24000
H  31.83100 63.53600 40.37900
H  29.98800 63.29600 42.74000
H  32.80700 62.03800 42.75100
H  32.04500 63.50600 43.27600
H  33.37400 63.66900 42.08400
H  28.72400 63.98300 40.17800
H  30.13400 64.96000 40.31700
H  27.62600 65.43400 41.47100
H  29.09600 66.43900 41.57500
H  28.70700 65.20700 42.77100
H  24.77300 61.83100 40.44500
H  25.03300 61.88000 42.25200
H  23.81300 60.87300 41.48500
H  24.99100 56.27800 38.83600
H  25.84900 52.37300 40.47600
H  24.23800 52.28000 39.88900
H  24.44600 53.01600 41.53000
Mg 36.69400 49.86400 24.79500
C  36.90700 47.80300 27.63600
C  35.60600 52.35800 26.86900
C  36.13800 51.73900 22.09100
C  37.82100 47.33800 22.81900
N  36.06000 49.98600 27.02000
C  36.34600 49.07300 27.98500
C  35.99300 49.66300 29.42200
C  35.72300 51.13800 29.07300
C  35.75600 51.16200 27.59300
C  34.33600 51.60700 29.61600
C  37.04800 49.45800 30.51700
C  37.04400 50.42200 31.71200
H  35.67500 50.46500 32.49400
N  36.05100 51.82700 24.51600
C  35.65200 52.65600 25.52000
C  35.24200 53.91000 24.86500
C  35.46600 53.81000 23.47700
C  35.92900 52.43200 23.33000
C  34.73300 55.03400 25.77800
C  35.18800 54.85600 22.35900
O  35.20100 54.51700 21.16800
C  34.94300 56.28300 22.75300
N  37.01000 49.61100 22.71200
C  36.63100 50.50500 21.77300
C  36.96000 50.03700 20.35600
C  37.57000 48.62500 20.62900
C  37.53400 48.52000 22.15800
C  35.68100 50.07700 19.51400
C  38.92500 48.28100 19.90400
C  40.20700 48.12900 20.80900
N  37.28500 47.93000 25.11800
C  37.71500 46.97300 24.19100
C  38.07500 45.72100 24.93400
C  37.76900 46.03700 26.26100
C  37.26600 47.38400 26.31500
C  38.36500 44.50400 24.31600
C  37.65100 45.38400 27.54400
O  37.89200 44.30900 27.99000
C  37.07500 46.53600 28.47100
C  35.77600 46.17000 29.05200
O  34.69900 46.20500 28.48300
O  36.04100 45.88900 30.36800
C  34.86100 45.80200 31.29300
H  35.21400 53.16600 27.49100
H  35.87700 52.33100 21.21200
H  38.30100 46.64600 22.12300
H  35.04500 49.16600 29.62800
H  36.45100 51.85800 29.44900
H  34.53000 52.35200 30.38800
H  33.87400 50.82600 30.22100
H  33.68200 51.94700 28.81400
H  37.96400 49.52400 29.92900
H  37.03000 48.45800 30.95100
H  37.12800 51.45800 31.38500
H  37.83800 50.19500 32.42300
H  33.97800 54.66700 26.47300
H  34.26000 55.86400 25.25200
H  35.49900 55.59300 26.31400
H  33.90800 56.38400 23.07900
H  35.17100 57.02700 21.99100
H  35.61000 56.51300 23.58400
H  37.72700 50.68700 19.93600
H  36.89100 47.83400 20.31300
H  36.02400 49.99300 18.48300
H  34.94500 50.82300 19.81300
H  35.15800 49.12400 19.59800
H  39.20400 49.03200 19.16500
H  38.75800 47.29300 19.47300
H  40.76700 47.25800 20.46700
H  39.97400 48.10900 21.87400
H  40.83700 48.99500 20.60700
H  37.71100 43.73200 24.72200
H  39.41900 44.22400 24.30700
H  38.21400 44.55600 23.23800
H  37.77500 46.75500 29.27800
H  33.86100 45.63300 30.89300
H  34.69200 46.71800 31.85900
H  35.14400 45.04500 32.02400

