158

Mg 41.04100 41.77700 26.46900
C  40.36400 43.87500 29.26000
C  42.50500 39.65500 28.54100
C  42.06600 40.05500 23.71200
C  39.83300 44.34100 24.42400
N  41.39200 41.76700 28.68000
C  40.84800 42.63600 29.60700
C  40.97600 42.09900 31.01300
C  41.91600 40.84000 30.75700
C  41.93100 40.68400 29.23700
C  43.38600 40.92000 31.22700
C  39.65500 41.92100 31.82700
C  39.80900 41.26800 33.25000
H  39.00000 41.87800 34.34400
N  42.06700 40.08800 26.21500
C  42.58000 39.32000 27.16100
C  43.08000 38.09000 26.58800
C  42.87000 38.19800 25.20500
C  42.35800 39.50600 24.97800
C  43.68100 36.96900 27.38700
C  43.09300 37.14500 24.19300
O  42.84800 37.25200 23.00600
C  43.67200 35.82400 24.62400
N  40.90700 42.12700 24.40100
C  41.44000 41.29000 23.44700
C  41.25400 41.87100 22.01400
C  40.18700 43.02600 22.30000
C  40.27600 43.21600 23.78000
C  42.65200 42.38400 21.41100
C  38.70400 42.77300 21.84200
C  38.13900 41.46700 22.25400
N  40.26400 43.71300 26.68800
C  39.87800 44.65500 25.78900
C  39.62700 45.88700 26.43400
C  39.74200 45.62600 27.78700
C  40.15800 44.27700 27.92200
C  39.21400 47.14200 25.79100
C  39.63400 46.23100 29.09200
O  39.35600 47.31500 29.44200
C  40.02000 45.13300 30.13600
C  41.16600 45.57600 31.02000
O  42.31800 45.66000 30.64800
O  40.81200 45.87400 32.26000
C  41.92800 46.19800 33.20100
H  42.67500 38.81000 29.21100
H  42.29000 39.47800 22.81300
H  39.44000 45.17600 23.84000
H  41.62800 42.84800 31.46300
H  41.41700 39.96800 31.17700
H  44.16700 40.86900 30.46800
H  43.46700 40.10800 31.94900
H  43.47100 41.81600 31.84300
H  39.02500 41.34800 31.14700
H  39.18200 42.88000 32.04200
H  40.87900 41.27800 33.46000
H  39.48400 40.23000 33.17700
H  44.48000 36.59900 26.74400
H  42.88700 36.28700 27.69100
H  44.21200 37.42600 28.22200
H  43.21300 35.34000 25.48600
H  44.75700 35.91900 24.68100
H  43.56000 35.19300 23.74200
H  40.78400 41.11400 21.38600
H  40.57900 43.93500 21.84300
H  42.65900 43.47300 21.36300
H  42.82100 41.99200 20.40800
H  43.49600 42.13800 22.05600
H  38.60300 42.89700 20.76400
H  38.01100 43.53900 22.19100
H  37.12500 41.52800 22.64800
H  38.65700 40.97600 23.07800
H  38.18300 40.87200 21.34200
H  39.74200 47.22500 24.84100
H  39.44400 48.00800 26.41100
H  38.13900 47.28600 25.68800
H  39.17500 44.93900 30.79700
H  42.54600 46.96000 32.72700
H  42.40700 45.22700 33.32600
H  41.48000 46.63300 34.09400
Mg 10.14300 47.75900 26.03300
C  7.79600 48.09200 28.75100
C  12.32300 49.39700 27.95000
C  12.07200 47.94200 23.41500
C  7.36600 46.93700 23.88100
N  10.05500 48.42500 28.10900
C  9.10500 48.42400 29.08700
C  9.63300 48.93800 30.48200
C  10.86000 49.74000 29.94500
C  11.09900 49.17900 28.55600
C  10.70600 51.28500 29.91200
C  9.98900 47.80000 31.47400
C  10.01800 48.08800 33.00100
H  9.47500 47.12000 34.07400
N  12.02800 48.34200 25.84000
C  12.83500 48.94000 26.72000
C  14.16400 49.02200 26.21700
C  14.10800 48.60000 24.85800
C  12.67900 48.27600 24.64000
C  15.24900 49.48000 27.16300
C  15.15500 48.50700 23.84700
O  14.90600 48.10900 22.71000
C  16.61500 48.82000 24.14200
N  9.78300 47.63800 23.88200
C  10.78100 47.56600 23.06300
C  10.41600 47.19000 21.59700
C  9.00700 46.60100 21.82900
C  8.71000 47.04300 23.30000
C  10.31400 48.42300 20.68900
C  8.87100 45.01100 21.60200
C  9.24800 44.13000 22.78000
N  8.03300 47.53000 26.24800
C  7.07500 47.10700 25.27700
C  5.78600 47.28400 25.88000
C  6.03500 47.63300 27.24000
C  7.42800 47.79300 27.39200
C  4.51400 47.06200 25.22700
C  5.39400 47.84900 28.47700
O  4.19100 47.73700 28.65400
C  6.51900 48.31400 29.53600
C  6.38600 47.46700 30.71500
O  6.82200 46.34500 30.88400
O  5.66500 48.15300 31.64300
C  5.52000 47.50800 32.95400
H  12.89200 50.10500 28.55700
H  12.71400 47.99300 22.53400
H  6.52100 46.68100 23.23800
H  8.90100 49.58600 30.96300
H  11.67600 49.71900 30.66800
H  9.74500 51.62700 30.29600
H  10.81900 51.65700 28.89400
H  11.58800 51.76700 30.33300
H  10.96700 47.43400 31.16200
H  9.32200 46.95300 31.31200
H  9.52600 49.05700 33.08500
H  11.07700 48.23600 33.20800
H  15.05500 49.35900 28.22900
H  15.43600 50.53200 26.94800
H  16.18500 48.96600 26.94600
H  16.96700 48.09500 24.87600
H  16.56400 49.82600 24.55800
H  17.19100 48.78100 23.21800
H  11.10400 46.47400 21.14800
H  8.28900 47.12900 21.20100
H  11.12400 48.22400 19.98700
H  10.59100 49.25100 21.34200
H  9.42800 48.58100 20.07400
H  9.68200 44.73500 20.92900
H  7.90800 44.88600 21.10500
H  8.83100 44.43600 23.74000
H  10.30700 43.98800 22.99800
H  8.88300 43.13800 22.51200
H  3.95600 47.99400 25.13200
H  3.99000 46.38800 25.90500
H  4.57500 46.52900 24.27900
H  6.39700 49.39000 29.65700
H  5.46700 46.41900 32.95400
H  4.52800 47.75300 33.33300
H  6.32700 47.81700 33.61800

