158

Mg 24.83500 -5.26700 46.71400
C  27.27300 -3.22700 45.38000
C  22.64800 -4.11500 44.43500
C  22.76500 -7.69900 47.65900
C  27.34200 -6.58000 48.79500
N  25.03900 -3.94200 45.00500
C  26.07600 -3.11800 44.66700
C  25.71900 -2.12500 43.54000
C  24.15700 -2.18700 43.57800
C  23.88600 -3.46200 44.44300
C  23.46200 -0.95000 44.16300
C  26.36200 -2.45900 42.17300
C  26.61900 -1.15100 41.24200
H  26.02500 -1.15100 39.81300
N  22.97200 -5.85400 46.08300
C  22.16900 -5.19200 45.24200
C  20.91800 -5.95400 45.10000
C  20.94300 -7.04600 45.97900
C  22.27600 -6.95200 46.58800
C  19.96700 -5.66000 44.07300
C  19.76900 -8.09000 46.20700
O  18.77100 -8.02200 45.48500
C  19.89100 -9.24100 47.13500
N  25.05000 -6.89300 48.06500
C  23.96700 -7.70800 48.27800
C  24.44600 -8.91000 49.15800
C  25.89800 -8.54200 49.60000
C  26.10300 -7.27000 48.81900
C  23.50200 -9.23900 50.42400
C  26.84400 -9.75200 49.21000
C  28.11600 -9.83400 50.11300
N  26.84900 -4.91900 47.12500
C  27.72700 -5.55500 47.98600
C  28.98600 -4.91200 47.91000
C  28.86800 -3.96600 46.94100
C  27.57900 -4.05300 46.46600
C  30.21600 -5.30000 48.74800
C  29.57700 -2.98000 46.18600
O  30.68200 -2.39500 46.32600
C  28.57500 -2.38700 45.10900
C  28.33600 -0.96200 45.41900
O  27.49600 -0.46900 46.18300
O  29.26900 -0.17100 44.76200
C  28.93800 1.18500 44.89800
H  21.79900 -3.61100 43.96700
H  22.08400 -8.43700 48.08800
H  28.06000 -6.90000 49.55200
H  26.12000 -1.15100 43.82200
H  23.86000 -2.30400 42.53500
H  24.06300 -0.38200 44.87300
H  22.72900 -1.30500 44.88800
H  23.11900 -0.28200 43.37300
H  25.63900 -3.08100 41.64400
H  27.26400 -3.03700 42.37500
H  27.70200 -1.21300 41.14200
H  26.48300 -0.19100 41.73900
H  20.27100 -4.98600 43.27100
H  19.10500 -5.19100 44.54700
H  19.66400 -6.50900 43.46100
H  19.98400 -8.90400 48.16800
H  20.77100 -9.80700 46.83000
H  18.98600 -9.82200 46.96000
H  24.51500 -9.74700 48.46300
H  25.99000 -8.27800 50.65300
H  22.43800 -9.07100 50.26100
H  23.89000 -8.88300 51.37900
H  23.55900 -10.32000 50.55000
H  27.19900 -9.62800 48.18700
H  26.37100 -10.73300 49.25400
H  28.03000 -10.65700 50.82200
H  28.26900 -8.90100 50.65500
H  28.98900 -9.83100 49.46100
H  30.44000 -6.31700 48.42500
H  29.84200 -5.40200 49.76600
H  31.18300 -4.79800 48.72100
H  28.81700 -2.50100 44.05200
H  28.96800 1.45600 45.95400
H  27.92300 1.37900 44.55100
H  29.57300 1.83300 44.29400
Mg 16.73500 52.04200 25.91900
C  18.49100 50.79400 28.60900
C  14.29800 53.01000 28.08300
C  14.97100 52.97000 23.22600
C  19.36400 50.83800 23.79000
N  16.35900 51.80100 28.18500
C  17.28300 51.41000 29.06700
C  16.90000 51.43100 30.52200
C  15.35500 52.02100 30.28900
C  15.30200 52.33300 28.77000
C  14.19500 51.15300 30.79000
C  17.82900 52.41300 31.30500
C  17.61100 52.67400 32.77500
H  16.55700 51.81700 33.39300
N  14.91700 52.91400 25.68000
C  14.11100 53.25400 26.73500
C  12.94500 54.01400 26.16300
C  13.09700 54.05600 24.71400
C  14.33100 53.30600 24.47200
C  11.94900 54.61500 27.07800
C  12.24200 54.63600 23.66100
O  12.54200 54.66600 22.47300
C  11.04200 55.42900 24.02400
N  17.18400 51.91900 23.77800
C  16.29400 52.37800 22.94700
C  16.85000 52.32600 21.48800
C  18.27300 51.81000 21.66000
C  18.32000 51.48500 23.16800
C  15.92500 51.54100 20.49200
C  19.37100 52.83400 21.34900
C  20.79100 52.30100 20.88600
N  18.42500 50.95500 26.06600
C  19.44000 50.56300 25.11200
C  20.44600 49.78900 25.77700
C  20.07500 49.78200 27.13800
C  18.85100 50.52800 27.24800
C  21.64500 49.37900 25.22000
C  20.58000 49.41700 28.44500
O  21.55900 48.81200 28.76500
C  19.49300 49.98000 29.47000
C  18.99300 48.80000 30.12900
O  18.19400 48.03300 29.67300
O  19.21300 48.92000 31.51500
C  18.45000 47.95600 32.40300
H  13.59400 53.27100 28.87600
H  14.54500 53.19100 22.24500
H  20.13400 50.49700 23.09500
H  16.84900 50.41900 30.92300
H  15.21600 52.98300 30.78200
H  13.53500 51.70300 31.46100
H  14.50800 50.22500 31.27000
H  13.58900 50.80800 29.95300
H  17.72700 53.39100 30.83600
H  18.85800 52.07400 31.18500
H  17.25100 53.68000 32.98800
H  18.59600 52.45700 33.18700
H  10.91300 54.27600 27.07100
H  12.00600 55.62700 26.67600
H  12.33400 54.65000 28.09700
H  11.36600 56.26900 24.63800
H  10.32600 54.85000 24.60800
H  10.56800 55.77300 23.10500
H  16.90100 53.36900 21.17400
H  18.42800 50.88700 21.10100
H  16.56000 51.04900 19.75600
H  15.24500 52.30200 20.11200
H  15.25400 50.85500 21.01000
H  19.64000 53.44000 22.21500
H  18.98900 53.49400 20.57100
H  20.69900 51.23900 20.65700
H  21.47100 52.55800 21.69800
H  20.95500 52.91900 20.00400
H  22.48000 50.05300 25.40900
H  21.67600 49.17400 24.14900
H  21.96900 48.43200 25.65200
H  20.06100 50.54500 30.20900
H  18.32400 46.97700 31.94100
H  17.54600 48.39600 32.82300
H  19.01100 47.76900 33.31900

