158

Mg 1.70900 -1.40900 44.45400
C  5.07200 -0.53300 43.83500
C  0.89700 1.76000 42.95500
C  -1.51400 -2.36200 43.96400
C  2.74300 -4.47000 45.38700
N  2.87100 0.42200 43.41900
C  4.25000 0.46400 43.36900
C  4.75300 1.82400 42.79200
C  3.39400 2.65800 42.73900
C  2.31300 1.59000 42.98600
C  3.16900 3.72800 43.76600
C  5.47100 1.63600 41.45900
C  6.67700 2.58800 41.09900
H  6.92900 2.86000 39.63800
N  -0.10400 -0.40500 43.62800
C  -0.17200 0.83300 43.11200
C  -1.57200 1.14900 42.80500
C  -2.36900 -0.00000 43.12600
C  -1.35200 -1.01800 43.59900
C  -2.10500 2.47200 42.27800
C  -3.90300 -0.15700 43.04100
O  -4.59800 0.73200 42.59400
C  -4.57700 -1.40200 43.43200
N  0.77500 -3.11600 44.56500
C  -0.57000 -3.31400 44.46200
C  -0.94700 -4.81500 44.79300
C  0.43200 -5.42400 45.22000
C  1.41600 -4.29700 45.02300
C  -2.17500 -5.09000 45.65700
C  0.81300 -6.85500 44.54400
C  1.61900 -7.87600 45.46200
N  3.55200 -2.36800 44.56700
C  3.80000 -3.61600 45.05200
C  5.25400 -3.78300 45.12800
C  5.83800 -2.59200 44.69700
C  4.72800 -1.78500 44.30300
C  5.94600 -4.95600 45.58300
C  7.06700 -1.87000 44.50200
O  8.24100 -2.17700 44.72200
C  6.60300 -0.52900 43.90800
C  7.09600 0.63200 44.71300
O  6.55500 0.96900 45.74900
O  8.22500 1.23100 44.16900
C  8.48400 2.52100 44.70100
H  0.53700 2.72400 42.59100
H  -2.44100 -2.91800 43.81200
H  3.07600 -5.39700 45.85700
H  5.53300 2.32600 43.36300
H  3.15100 3.13900 41.79200
H  2.33400 3.49300 44.42700
H  2.91500 4.64400 43.23200
H  4.09900 3.99900 44.26500
H  4.81900 1.84500 40.61100
H  5.76900 0.59300 41.35900
H  7.59500 2.17300 41.51600
H  6.52100 3.53800 41.61000
H  -3.11500 2.53700 41.87500
H  -1.47100 2.66700 41.41200
H  -1.76000 3.32000 42.87000
H  -5.64700 -1.33400 43.23100
H  -4.45200 -1.52500 44.50800
H  -4.11500 -2.28700 42.99500
H  -1.24800 -5.18600 43.81300
H  0.44800 -5.54000 46.30400
H  -2.62100 -4.12700 45.90600
H  -2.00400 -5.48200 46.66000
H  -2.86000 -5.78500 45.17100
H  1.52600 -6.53500 43.78400
H  0.00400 -7.34900 44.00600
H  0.77300 -8.26100 46.03200
H  2.48800 -7.39600 45.91100
H  2.02800 -8.70900 44.89100
H  7.00500 -4.71200 45.49600
H  5.74400 -5.85300 44.99700
H  5.51200 -5.14600 46.56400
H  7.05700 -0.51300 42.91700
H  7.66400 3.09500 45.13300
H  8.82500 3.27900 43.99600
H  9.35600 2.43500 45.35000
Mg -11.80600 39.10500 42.70100
C  -10.00700 36.46000 41.50600
C  -9.28900 41.23600 41.53600
C  -14.00400 41.72400 43.08600
C  -14.48300 36.97200 43.57800
N  -9.92000 38.94900 41.51000
C  -9.39500 37.64400 41.19200
C  -8.08700 37.86000 40.43100
C  -7.78700 39.39800 40.48700
C  -9.01200 39.90300 41.31000
C  -6.36700 39.78000 41.09200
C  -8.02800 37.23200 38.92600
C  -6.80900 36.27000 38.69600
H  -5.86700 36.79200 37.64100
N  -11.67800 41.14600 42.37500
C  -10.55500 41.84700 41.87600
C  -10.82100 43.27000 41.86400
C  -12.16700 43.44000 42.31600
C  -12.70900 42.11700 42.63100
C  -9.82600 44.41400 41.43000
C  -12.82800 44.82900 42.41700
O  -12.29600 45.82800 42.01200
C  -14.21500 44.96800 43.02900
N  -13.98900 39.36200 43.19100
C  -14.65700 40.50300 43.42200
C  -16.04300 40.33100 44.01900
C  -16.18600 38.71900 43.85500
C  -14.78100 38.30900 43.54700
C  -16.16100 40.93800 45.47000
C  -17.17800 38.20900 42.73900
C  -18.23600 37.11500 43.26000
N  -12.15700 37.09600 42.78100
C  -13.22700 36.39100 43.11100
C  -12.86700 34.98400 42.94600
C  -11.59900 35.00800 42.31300
C  -11.29500 36.32000 42.10400
C  -13.66400 33.73800 43.36800
C  -10.55900 34.13100 41.75700
O  -10.51400 32.90700 41.70300
C  -9.48900 35.01900 41.26400
C  -8.33700 34.66000 42.14700
O  -8.37500 34.43200 43.37400
O  -7.24300 34.54400 41.36900
C  -5.98400 34.23900 42.01000
H  -8.51100 41.94500 41.24400
H  -14.62400 42.60000 43.29000
H  -15.18200 36.20600 43.92000
H  -7.39700 37.36200 41.11200
H  -7.65500 39.80200 39.48300
H  -6.00700 38.98700 41.74700
H  -6.60400 40.61100 41.75600
H  -5.62900 40.08000 40.34800
H  -8.02600 38.00700 38.16000
H  -8.90100 36.64700 38.63600
H  -7.21900 35.26800 38.57500
H  -6.18300 36.24700 39.58800
H  -10.24800 44.97100 40.59300
H  -8.83000 43.98300 41.32800
H  -9.75900 45.22800 42.15200
H  -14.85200 44.45600 42.30700
H  -14.50400 46.01700 43.08700
H  -14.25600 44.60600 44.05600
H  -16.74200 40.84900 43.36300
H  -16.39000 38.22900 44.80700
H  -15.23700 41.41900 45.79200
H  -16.36000 40.17300 46.22100
H  -16.96400 41.67500 45.49300
H  -16.63300 37.80200 41.88800
H  -17.84800 39.01000 42.42800
H  -19.16500 37.39300 42.76200
H  -18.37000 37.14500 44.34100
H  -17.92200 36.18200 42.79200
H  -14.13400 33.89200 44.33900
H  -12.96500 32.90200 43.34900
H  -14.43200 33.55700 42.61700
H  -9.28800 34.84900 40.20600
H  -5.95600 33.15100 41.95700
H  -5.89500 34.73500 42.97700
H  -5.35100 34.73600 41.27500

