158

Mg 52.47300 24.19900 44.47200
C  49.75600 26.34200 44.02600
C  50.27600 21.52700 44.11400
C  55.13300 22.26600 43.90600
C  54.51900 27.05100 44.81900
N  50.31500 23.99400 43.83700
C  49.41000 25.04200 43.75000
C  47.97400 24.48600 43.59900
C  48.13200 22.98300 43.91000
C  49.71000 22.78200 44.01200
C  47.40100 22.30300 45.11800
C  47.17700 24.71300 42.26900
C  47.95700 24.58500 40.95000
H  47.40700 25.21400 39.72500
N  52.68100 22.10300 44.16400
C  51.65700 21.20600 44.29800
C  52.25100 19.90900 44.31400
C  53.68800 20.00100 44.22900
C  53.88300 21.48600 44.04100
C  51.40600 18.61800 44.58000
C  54.70700 18.90800 44.38500
O  54.39400 17.74800 44.58900
C  56.12600 19.30000 44.36000
N  54.46800 24.64000 44.30100
C  55.37200 23.62400 44.12700
C  56.82200 24.27800 43.94200
C  56.60800 25.81300 44.25100
C  55.10500 25.84800 44.42600
C  57.94100 23.50700 44.71800
C  57.20000 26.93300 43.30900
C  57.75100 28.22600 43.96700
N  52.21300 26.22800 44.50100
C  53.12800 27.25500 44.89400
C  52.35600 28.47400 45.11900
C  51.06900 28.11800 44.80000
C  51.05400 26.78400 44.37200
C  52.68500 29.75300 45.75300
C  49.71200 28.69000 44.79100
O  49.26000 29.68700 45.25500
C  48.84200 27.62700 44.11900
C  48.30000 28.06200 42.83200
O  48.89100 28.01400 41.74100
O  47.05100 28.54200 42.97700
C  46.40600 29.10800 41.80500
H  49.56300 20.71200 44.25300
H  56.02000 21.73000 43.56100
H  55.14600 27.93000 44.98100
H  47.43300 24.90900 44.44600
H  47.84200 22.31600 43.09900
H  47.15300 21.31600 44.72600
H  46.45600 22.76800 45.39900
H  48.05700 22.30000 45.98800
H  46.55900 25.60700 42.35800
H  46.49000 23.86800 42.29800
H  47.82000 23.54000 40.67400
H  48.96500 24.84600 41.27100
H  51.35100 17.86400 43.79500
H  50.45400 18.96800 44.97900
H  51.75700 18.01000 45.41300
H  56.67900 18.40200 44.63600
H  56.25700 20.04200 45.14800
H  56.48000 19.71800 43.41800
H  57.19000 24.17000 42.92200
H  57.08400 25.98300 45.21600
H  58.72000 24.23300 44.95200
H  58.22500 22.62300 44.14700
H  57.57400 23.12100 45.66900
H  56.34700 27.22300 42.69700
H  57.97900 26.51900 42.66900
H  57.86700 28.13300 45.04700
H  57.04400 29.02700 43.75300
H  58.63700 28.55200 43.42200
H  52.31300 30.63400 45.23100
H  53.76800 29.84000 45.84700
H  52.37800 29.80200 46.79700
H  47.94800 27.44900 44.71600
H  45.35300 29.31800 41.99300
H  46.41900 28.46900 40.92200
H  46.98000 29.95700 41.43500
Mg 41.82900 41.85200 26.99400
C  40.83200 44.21600 29.52800
C  42.49000 39.72600 29.27500
C  42.75100 39.90600 24.48900
C  41.19700 44.38300 24.70100
N  41.51200 42.01100 29.17200
C  41.18600 42.98300 30.05300
C  41.38100 42.58000 31.49300
C  41.96100 41.13200 31.39200
C  42.06300 40.90200 29.85900
C  43.36500 40.87500 32.12900
C  40.03200 42.71800 32.33700
C  39.90800 41.73300 33.51500
H  39.59000 42.32300 34.83800
N  42.57200 40.00500 26.92200
C  42.85100 39.23200 27.96000
C  43.36400 38.02800 27.54600
C  43.38100 38.02900 26.13800
C  42.87300 39.33600 25.76000
C  43.71900 36.97600 28.57600
C  43.69000 36.96200 25.05900
O  43.54200 37.12200 23.87400
C  44.17700 35.65800 25.46600
N  41.94200 42.12400 24.91800
C  42.37500 41.16200 24.10400
C  42.28800 41.63900 22.64500
C  41.52600 42.99400 22.68000
C  41.61800 43.24500 24.13600
C  43.72800 41.58500 22.00200
C  40.06400 43.07200 22.19900
C  39.09800 42.14200 22.92900
N  41.15900 43.94700 27.07200
C  41.01000 44.78600 26.00800
C  40.64000 46.07900 26.50900
C  40.52900 45.97500 27.84800
C  40.85200 44.59200 28.15700
C  40.33600 47.29200 25.63600
C  40.20500 46.62600 29.11700
O  39.84200 47.76500 29.39600
C  40.42100 45.49100 30.20600
C  41.34000 45.98500 31.33300
O  42.52900 46.26200 31.27600
O  40.52600 46.36000 32.30000
C  41.23300 46.93400 33.51000
H  42.72300 39.03800 30.09100
H  43.13300 39.35500 23.62700
H  41.06800 45.14500 23.93100
H  42.21400 43.20100 31.82200
H  41.25500 40.34500 31.65600
H  44.03100 41.61500 32.57200
H  44.01800 40.40500 31.39400
H  43.03500 40.13000 32.85400
H  39.16300 42.65700 31.68200
H  40.06400 43.67600 32.85700
H  40.79400 41.12800 33.71000
H  39.13200 41.04100 33.18700
H  44.80500 36.91400 28.64000
H  43.32800 36.01600 28.23800
H  43.24000 37.13200 29.54300
H  43.35100 35.21500 26.02200
H  45.15800 35.73000 25.93500
H  44.21700 35.04400 24.56500
H  41.69000 40.90900 22.09900
H  42.06200 43.86500 22.30300
H  44.51200 41.42200 22.74100
H  44.01100 42.48200 21.45300
H  43.58900 40.73900 21.32900
H  39.93900 42.90200 21.13000
H  39.72600 44.08300 22.42700
H  38.50900 42.64700 23.69400
H  39.61300 41.28100 23.35400
H  38.39000 41.66300 22.25200
H  41.11300 48.00500 25.91000
H  39.36700 47.75000 25.83500
H  40.33600 46.98600 24.59000
H  39.46600 45.38100 30.72000
H  41.80100 46.12500 33.97000
H  40.43900 47.21000 34.20500
H  41.96800 47.68600 33.22300

