158

Mg 39.86900 8.75200 29.53800
C  41.53900 10.08900 32.29500
C  37.49900 7.38600 31.53800
C  38.59800 7.04400 26.86200
C  42.59900 9.74900 27.60200
N  39.61300 8.69800 31.64800
C  40.31500 9.46400 32.59000
C  39.60600 9.48000 33.98700
C  38.54000 8.34800 33.84700
C  38.57700 8.03700 32.29000
C  38.88700 6.95600 34.54600
C  39.03500 10.85700 34.41100
C  38.75400 11.16500 35.94100
H  39.65700 12.11700 36.77700
N  38.29300 7.45200 29.22600
C  37.38400 7.08200 30.15100
C  36.37400 6.37000 29.52500
C  36.57000 6.33600 28.11000
C  37.84000 6.92600 28.02900
C  35.25100 5.74100 30.35200
C  35.80300 5.71000 27.04700
O  36.28300 5.52300 25.91600
C  34.31300 5.47500 27.31400
N  40.60600 8.41600 27.57000
C  39.83600 7.73500 26.66500
C  40.54500 7.72500 25.24500
C  41.51300 8.91000 25.49500
C  41.56900 9.11100 26.98800
C  41.28400 6.35600 24.96800
C  41.04200 10.19800 24.74800
C  39.74000 10.81300 25.10300
N  41.70600 9.78000 29.81400
C  42.76200 10.09800 28.96100
C  43.86200 10.66400 29.64700
C  43.36700 10.74600 31.01600
C  42.12200 10.16700 31.00200
C  45.16600 11.24400 29.10200
C  43.64700 11.43300 32.28000
O  44.40200 12.30500 32.66300
C  42.49800 10.85800 33.17100
C  43.09000 10.09300 34.33100
O  43.96300 9.29400 34.23900
O  42.54700 10.59300 35.52500
C  43.11400 10.01500 36.74500
H  36.69300 7.07700 32.20700
H  38.25400 6.50400 25.97800
H  43.43100 10.09500 26.98500
H  40.35400 9.23000 34.73900
H  37.58600 8.73700 34.20000
H  38.82000 6.17300 33.79100
H  38.15500 6.75100 35.32700
H  39.82200 6.86600 35.09900
H  38.15300 11.13300 33.83300
H  39.71200 11.67900 34.17800
H  38.73600 10.28100 36.57800
H  37.76000 11.57500 36.12200
H  35.35200 5.63700 31.43300
H  34.97300 4.77200 29.93700
H  34.35700 6.35800 30.26600
H  33.87500 6.32600 27.83600
H  34.26800 4.57900 27.93300
H  33.70200 5.19000 26.45800
H  39.87800 7.91100 24.40300
H  42.50900 8.51600 25.29600
H  42.32000 6.34200 24.63100
H  40.67800 5.87100 24.20300
H  41.21000 5.71900 25.85000
H  41.02700 9.94300 23.68900
H  41.83100 10.92500 24.94300
H  39.88200 11.84700 25.41600
H  39.19300 10.16700 25.79100
H  39.20000 10.81200 24.15600
H  45.25800 12.25000 29.51000
H  45.20100 11.28400 28.01300
H  45.96600 10.56900 29.40500
H  41.98800 11.73900 33.55900
H  42.84500 10.59900 37.62500
H  44.18400 10.20300 36.65400
H  43.01000 8.93100 36.80900
Mg 0.11700 43.75700 26.84000
C  2.48000 43.45300 29.35100
C  -2.29100 42.59900 28.98100
C  -2.00700 43.46500 24.20400
C  2.78600 44.57900 24.58800
N  0.15200 43.12000 28.95500
C  1.17500 43.33600 29.83100
C  0.73000 43.04000 31.30000
C  -0.69800 42.38900 31.05800
C  -1.01000 42.66700 29.56600
C  -0.85200 40.92900 31.33600
C  0.73700 44.38000 32.19000
C  1.22200 44.25400 33.65100
H  0.64300 43.12400 34.46600
N  -1.87400 43.08300 26.58100
C  -2.67800 42.67100 27.62900
C  -3.98700 42.44600 27.11000
C  -3.93600 42.57600 25.66800
C  -2.54700 43.03500 25.39900
C  -5.13900 42.07500 27.97400
C  -5.01500 42.42400 24.67300
O  -4.80900 42.60400 23.50400
C  -6.41000 42.09600 25.08800
N  0.36400 43.91400 24.77700
C  -0.74200 43.91500 23.95800
C  -0.39600 44.29400 22.55700
C  1.10400 44.74100 22.60200
C  1.49800 44.42300 24.10900
C  -0.76400 43.19800 21.49500
C  1.34600 46.23000 22.21400
C  1.14800 47.23500 23.37200
N  2.20500 43.99600 26.90700
C  3.19000 44.26800 25.92000
C  4.52000 44.25200 26.50800
C  4.28400 43.91900 27.78900
C  2.86500 43.79300 28.00900
C  5.88900 44.43900 25.83600
C  4.93400 43.50400 29.05100
O  6.08600 43.23200 29.30800
C  3.81200 43.40500 30.10000
C  3.84200 42.13200 30.84000
O  3.48100 41.04100 30.45100
O  4.31000 42.36700 32.05200
C  4.39500 41.23900 33.01300
H  -3.03100 42.07600 29.59100
H  -2.63700 43.51300 23.31300
H  3.53700 44.90900 23.86800
H  1.41000 42.36700 31.82200
H  -1.48100 42.96100 31.55400
H  -1.41400 40.51300 30.50000
H  -1.49700 40.81600 32.20700
H  0.04300 40.30700 31.35100
H  -0.25700 44.82600 32.19800
H  1.41100 45.03200 31.63300
H  0.84000 45.16100 34.12000
H  2.30600 44.15100 33.60800
H  -4.85900 41.70400 28.96000
H  -5.63000 41.23200 27.48900
H  -5.81000 42.92800 28.07600
H  -6.43200 41.09400 25.51500
H  -7.08200 42.12300 24.23000
H  -6.76300 42.87000 25.77000
H  -1.00800 45.18800 22.43700
H  1.74400 44.09800 21.99700
H  0.21900 42.98200 21.07700
H  -1.55700 43.55300 20.83800
H  -0.99100 42.21100 21.90000
H  0.69900 46.53600 21.39100
H  2.38000 46.39400 21.90800
H  0.57000 48.09100 23.02700
H  2.11000 47.58500 23.74600
H  0.63400 46.80600 24.23200
H  5.71400 44.59600 24.77200
H  6.61500 43.63100 25.92900
H  6.32200 45.36800 26.20600
H  3.93800 44.25800 30.76600
H  3.67500 40.43300 32.86600
H  4.07900 41.61200 33.98800
H  5.37800 40.76700 33.01800

