158

Mg 8.99600 2.59600 27.31400
C  10.29800 1.01800 30.28300
C  7.16100 4.67600 29.31300
C  7.23400 3.43500 24.70200
C  10.40500 -0.16800 25.58700
N  8.70800 2.72500 29.49200
C  9.44400 2.12500 30.50800
C  9.13800 2.88300 31.83300
C  7.99100 3.89100 31.52500
C  7.88700 3.68600 30.01000
C  6.63500 3.78200 32.26600
C  10.50900 3.62200 32.32500
C  10.50500 4.54900 33.52700
H  10.93300 4.03000 34.96500
N  7.51600 4.02200 27.00600
C  6.91600 4.80300 27.93400
C  6.01500 5.71600 27.26200
C  5.95400 5.30300 25.92400
C  6.98100 4.22700 25.84200
C  5.19700 6.72300 28.02900
C  5.01700 5.79900 24.83800
O  5.17100 5.37400 23.73000
C  4.03900 6.94200 25.08600
N  9.00800 1.87600 25.36600
C  8.05100 2.39300 24.48700
C  8.33200 1.76300 23.16400
C  9.26200 0.56200 23.43100
C  9.56900 0.68000 24.88500
C  7.08800 1.23100 22.32800
C  10.54800 0.56700 22.53400
C  10.55100 -0.66300 21.58700
N  10.15900 0.74400 27.76000
C  10.67000 -0.27400 26.96200
C  11.42400 -1.12900 27.74400
C  11.40300 -0.65200 29.02900
C  10.52000 0.46300 28.97400
C  12.09500 -2.34900 27.16900
C  11.86100 -0.83200 30.39900
O  12.65900 -1.63300 30.86800
C  11.26100 0.31200 31.29800
C  10.60900 -0.47000 32.36300
O  9.56900 -1.14000 32.21200
O  11.27000 -0.20400 33.53900
C  10.77700 -0.88300 34.73100
H  6.69200 5.46500 29.90400
H  6.62200 3.62600 23.81700
H  10.73000 -0.99300 24.95000
H  8.76800 2.07400 32.46200
H  8.37700 4.89300 31.71300
H  6.90600 3.20500 33.15000
H  5.81500 3.31300 31.72300
H  6.29700 4.71800 32.71200
H  10.85600 4.20000 31.46900
H  11.20200 2.79800 32.49500
H  9.44500 4.78800 33.61500
H  11.17400 5.38200 33.31100
H  5.58400 7.01800 29.00400
H  4.27100 6.21800 28.30700
H  4.93300 7.62100 27.47000
H  3.45400 7.15500 24.19100
H  4.52300 7.87500 25.37400
H  3.38500 6.67300 25.91600
H  8.80700 2.55100 22.57900
H  8.87200 -0.42200 23.16900
H  6.33500 1.64100 23.00200
H  7.03100 0.14400 22.27800
H  6.94100 1.71200 21.36200
H  11.42800 0.49300 23.17300
H  10.61300 1.48200 21.94500
H  9.57600 -1.06900 21.32000
H  11.07700 -1.46000 22.11300
H  11.26300 -0.38300 20.81100
H  12.68200 -2.19000 26.26400
H  11.29300 -3.05200 26.94400
H  12.85300 -2.73500 27.85100
H  12.03000 0.95800 31.72200
H  10.27300 -1.84700 34.65600
H  10.25900 -0.11300 35.30200
H  11.64600 -1.08100 35.35900
Mg 48.18500 34.55000 26.87500
C  45.92600 33.68500 29.45000
C  48.62900 37.58100 28.55100
C  49.38600 35.91700 23.97800
C  47.22400 31.75600 25.10500
N  47.48800 35.48500 28.93500
C  46.65100 34.87800 29.78500
C  46.64100 35.54000 31.17600
C  47.35300 36.93200 30.85100
C  47.83300 36.66400 29.38600
C  46.36000 38.11000 30.80300
C  47.58500 34.74600 32.14400
C  47.04600 34.62100 33.55200
H  47.74400 35.50900 34.59900
N  49.13600 36.42000 26.34300
C  49.15600 37.49300 27.24600
C  49.84300 38.52500 26.56000
C  50.08600 38.11100 25.24100
C  49.57700 36.77500 25.11600
C  50.09800 39.95700 27.15700
C  50.69100 38.93500 24.02600
O  50.72200 38.40900 22.87300
C  51.30100 40.34400 24.28900
N  48.28000 33.96000 24.87300
C  48.75200 34.66800 23.86600
C  48.60400 33.89900 22.50700
C  48.14800 32.44700 22.85400
C  47.85300 32.71200 24.37600
C  47.58300 34.57200 21.54200
C  49.15600 31.26100 22.67500
C  50.03700 30.83400 23.90300
N  46.93500 32.92900 27.21500
C  46.71800 31.83100 26.45700
C  45.73000 31.03300 27.08800
C  45.32200 31.78100 28.26000
C  46.13500 32.89400 28.29500
C  45.16300 29.82100 26.51600
C  44.38100 31.79500 29.42700
O  43.53200 31.01700 29.78500
C  44.74700 33.07300 30.23300
C  45.01900 32.64400 31.57100
O  45.94300 31.88000 31.77400
O  44.01900 33.02700 32.45300
C  44.02800 32.29300 33.77700
H  48.70500 38.52500 29.09400
H  49.74100 36.28600 23.01400
H  46.82000 30.94100 24.50000
H  45.69100 35.73200 31.67500
H  48.06100 37.23500 31.62200
H  46.66600 38.86900 31.52300
H  45.32900 37.79500 30.96000
H  46.39100 38.56800 29.81400
H  48.54000 35.26700 32.20500
H  47.81400 33.74200 31.78600
H  47.32400 33.61500 33.86600
H  45.96600 34.76400 33.51900
H  49.59300 40.18300 28.09700
H  49.79200 40.73200 26.45400
H  51.16500 40.13700 27.28900
H  50.50100 41.08200 24.35800
H  51.85200 40.52900 23.36800
H  51.89300 40.33800 25.20400
H  49.56400 33.85500 21.99200
H  47.18000 32.16500 22.44000
H  47.25500 35.54700 21.90400
H  46.68100 33.97600 21.40700
H  48.03900 34.58900 20.55200
H  49.72300 31.42800 21.75900
H  48.51500 30.38800 22.55000
H  49.57300 29.98000 24.39600
H  50.09500 31.54600 24.72600
H  51.02900 30.56000 23.54300
H  45.04100 29.88500 25.43500
H  44.21100 29.56800 26.98400
H  45.81200 28.96800 26.71500
H  43.88200 33.73200 30.16200
H  44.38600 31.26900 33.67500
H  42.99500 32.13500 34.08800
H  44.63300 32.88500 34.46300

