158

Mg 8.92400 48.86300 26.68500
C  6.44700 48.45600 29.17900
C  11.20100 49.52600 29.07800
C  10.99600 49.11000 24.22000
C  6.29900 48.12400 24.29200
N  8.81000 48.98200 28.92200
C  7.75500 48.78100 29.70900
C  8.06500 49.04200 31.21800
C  9.47000 49.64600 31.15400
C  9.91700 49.32200 29.64300
C  9.60800 51.19000 31.42300
C  7.89500 47.87900 32.20000
C  8.82700 47.85900 33.46100
H  8.40600 47.25700 34.84000
N  10.81200 49.23600 26.63100
C  11.63800 49.52600 27.72300
C  12.97200 49.60700 27.28500
C  13.00000 49.41600 25.87700
C  11.56500 49.26900 25.50500
C  14.16200 49.81400 28.16300
C  14.16600 49.42400 24.87200
O  14.04000 49.36000 23.66400
C  15.52600 49.43400 25.36500
N  8.63000 48.86600 24.57800
C  9.71200 48.91000 23.79500
C  9.39700 48.54000 22.29900
C  7.94500 48.04300 22.38200
C  7.58200 48.36900 23.83100
C  9.74100 49.47300 21.12400
C  7.77400 46.49900 22.12200
C  7.14300 46.05200 20.79000
N  6.77900 48.52000 26.66000
C  5.91000 48.13100 25.62700
C  4.60900 47.97100 26.20600
C  4.73800 48.09800 27.53300
C  6.06700 48.37300 27.81700
C  3.39600 47.50700 25.53200
C  4.05600 48.06700 28.75700
O  2.85300 48.01400 29.01900
C  5.09200 48.35300 29.90000
C  5.09400 47.24400 30.87300
O  5.65600 46.14000 30.75700
O  4.37300 47.66700 32.00100
C  4.29300 46.67100 33.11000
H  11.97600 49.60000 29.84400
H  11.64100 49.11400 23.33900
H  5.68800 47.81800 23.44000
H  7.30300 49.76500 31.51000
H  10.20500 49.11200 31.75600
H  8.64300 51.61900 31.69400
H  9.97300 51.69100 30.52600
H  10.32900 51.26300 32.23800
H  8.15700 46.99300 31.62300
H  6.84600 47.91400 32.49500
H  9.06000 48.88800 33.73300
H  9.78700 47.39500 33.23200
H  13.97900 49.93800 29.23000
H  14.78000 50.64900 27.83400
H  14.81900 48.96700 27.96100
H  15.79500 50.16900 26.12400
H  16.12700 49.77200 24.52000
H  15.81200 48.44300 25.71600
H  10.07900 47.69600 22.20100
H  7.21100 48.65800 21.86100
H  10.49500 48.94900 20.53800
H  10.02100 50.43700 21.55000
H  8.82600 49.66600 20.56400
H  7.26000 46.09400 22.99500
H  8.78100 46.12300 21.94300
H  6.06400 45.95100 20.90200
H  7.50600 45.06800 20.49300
H  7.36400 46.62800 19.89200
H  3.07300 46.63000 26.09300
H  3.73700 47.37900 24.50500
H  2.67200 48.31500 25.63400
H  4.82600 49.25500 30.45200
H  4.62600 47.18500 34.01100
H  4.97700 45.82400 33.04800
H  3.32100 46.19600 33.24200
Mg -10.55200 39.69000 41.50900
C  -9.48300 36.41000 40.86500
C  -7.59100 40.88300 40.17800
C  -11.99700 42.69700 41.36000
C  -13.58400 38.39300 42.70000
N  -8.76100 38.75600 40.71800
C  -8.59700 37.39800 40.45500
C  -7.22700 37.12100 39.70400
C  -6.50000 38.54200 39.71100
C  -7.66800 39.45600 40.23600
C  -5.18300 38.68600 40.49400
C  -7.36700 36.51100 38.24800
C  -6.17700 35.56200 37.87000
H  -5.22900 35.94800 36.74300
N  -9.83400 41.50000 40.96600
C  -8.52900 41.83700 40.54400
C  -8.46100 43.29700 40.43000
C  -9.75300 43.81400 40.71800
C  -10.62300 42.66600 41.03100
C  -7.28800 44.05300 39.83000
C  -9.98500 45.32400 40.92400
O  -9.03600 46.08600 40.83500
C  -11.33600 45.93700 41.25100
N  -12.59900 40.36900 41.79700
C  -12.89800 41.65100 41.72300
C  -14.38400 41.97500 42.07100
C  -14.89300 40.64500 42.65900
C  -13.65700 39.69000 42.30900
C  -14.67700 43.16200 43.00300
C  -16.26300 40.13300 42.08700
C  -17.58100 40.36600 43.00300
N  -11.43000 37.77100 41.79200
C  -12.55700 37.39200 42.41200
C  -12.53900 35.93700 42.53100
C  -11.37200 35.53000 41.92600
C  -10.73600 36.70600 41.47500
C  -13.72500 35.09400 42.95900
C  -10.55200 34.34700 41.64000
O  -10.71000 33.17200 41.92800
C  -9.24300 34.92200 41.01200
C  -8.01800 34.62000 41.82300
O  -7.77900 35.11700 42.92000
O  -7.15900 33.88800 41.14000
C  -5.86500 33.69500 41.72900
H  -6.68200 41.21100 39.67000
H  -12.39500 43.71400 41.32400
H  -14.31400 38.01100 43.41600
H  -6.67000 36.48000 40.38700
H  -6.31700 38.97900 38.73000
H  -4.52900 39.31200 39.88700
H  -4.77100 37.67900 40.57000
H  -5.16700 39.13900 41.48600
H  -7.38700 37.26600 37.46100
H  -8.34900 36.06000 38.10800
H  -6.64900 34.59400 37.69900
H  -5.55600 35.47900 38.76100
H  -6.53900 43.36400 39.44000
H  -6.84100 44.69200 40.59100
H  -7.71400 44.61200 38.99700
H  -11.97600 45.85800 40.37100
H  -11.17100 47.00900 41.35300
H  -11.68800 45.55200 42.20800
H  -14.79300 42.26700 41.10400
H  -14.93900 40.82300 43.73400
H  -13.80700 43.33600 43.63700
H  -15.56700 42.98200 43.60500
H  -14.85000 44.09700 42.47000
H  -16.23700 39.04300 42.08700
H  -16.50800 40.51800 41.09800
H  -18.50600 40.05900 42.51500
H  -17.80400 41.39900 43.26900
H  -17.56600 39.79800 43.93300
H  -13.79800 34.26000 42.26100
H  -14.65800 35.65500 42.91000
H  -13.51000 34.67200 43.94100
H  -9.07100 34.36200 40.09300
H  -6.07800 33.04000 42.57400
H  -5.48000 34.68900 41.95500
H  -5.12600 33.20400 41.09500

