158

Mg -2.30800 16.71200 27.13200
C  -2.60600 14.64900 29.93700
C  -2.58900 19.46500 28.95100
C  -2.32100 18.55600 24.28600
C  -2.81900 13.81400 25.16800
N  -2.62900 16.99700 29.23900
C  -2.56400 16.04100 30.21700
C  -2.38000 16.78700 31.56200
C  -2.38300 18.26500 31.21900
C  -2.67100 18.26100 29.69800
C  -3.35400 19.16500 32.09700
C  -1.11100 16.24700 32.36000
C  -0.54100 17.18000 33.42100
H  -0.19500 16.60500 34.82400
N  -2.43300 18.71500 26.74500
C  -2.57900 19.73900 27.61000
C  -2.64600 21.00300 26.92300
C  -2.31300 20.71200 25.57300
C  -2.43900 19.26700 25.49800
C  -2.90000 22.22900 27.62700
C  -2.03200 21.66900 24.43000
O  -1.82100 21.37500 23.25500
C  -1.74500 23.12800 24.83300
N  -2.32900 16.17800 25.03200
C  -2.32600 17.15600 24.06600
C  -2.45200 16.57300 22.65100
C  -2.55500 14.97900 22.92800
C  -2.55700 14.97200 24.44900
C  -3.54300 17.04800 21.69400
C  -1.34800 14.13700 22.31100
C  -1.50300 13.55000 20.93400
N  -2.58900 14.60800 27.40800
C  -2.76600 13.57700 26.54600
C  -2.88100 12.34300 27.23600
C  -2.75800 12.67300 28.60100
C  -2.62500 14.06200 28.65300
C  -3.04000 11.05100 26.50000
C  -2.72100 12.14900 29.91400
O  -2.70800 10.97800 30.34200
C  -2.52500 13.40300 30.89000
C  -1.27700 13.08000 31.59300
O  -0.12800 13.18100 31.13600
O  -1.50700 12.68200 32.87000
C  -0.39300 12.60400 33.78600
H  -2.61400 20.37800 29.54900
H  -2.29400 19.08300 23.32900
H  -3.09000 12.96300 24.54000
H  -3.31100 16.64500 32.10900
H  -1.35100 18.61000 31.27800
H  -2.75200 19.72200 32.81400
H  -4.12700 18.58600 32.60300
H  -3.77000 19.83200 31.34200
H  -0.38700 16.02000 31.57700
H  -1.34800 15.32900 32.89600
H  -1.10500 18.11100 33.48100
H  0.42300 17.45100 32.98900
H  -3.64600 22.85300 27.13500
H  -1.91800 22.69800 27.69300
H  -3.30900 22.05100 28.62200
H  -1.33600 23.57200 23.92600
H  -0.94900 23.13400 25.57900
H  -2.69000 23.63700 25.02400
H  -1.57800 16.85600 22.06400
H  -3.46900 14.49600 22.58300
H  -3.41700 18.11400 21.50600
H  -4.46500 16.95100 22.26800
H  -3.71100 16.53400 20.74800
H  -1.22400 13.25900 22.94500
H  -0.42800 14.72000 22.26000
H  -2.52700 13.73500 20.60900
H  -1.30900 12.47900 20.98200
H  -0.71900 13.96100 20.29900
H  -2.76500 10.22700 27.15900
H  -2.50200 10.96200 25.55700
H  -4.11600 11.08700 26.33200
H  -3.34400 13.45100 31.60900
H  -0.04000 11.58400 33.63000
H  -0.77200 12.89600 34.76500
H  0.41700 13.24700 33.44100
Mg 16.66100 -2.16000 27.31000
C  15.69100 -0.10400 30.03500
C  18.90400 -3.70900 29.40800
C  18.34500 -3.56800 24.54900
C  14.77700 -0.26300 25.07200
N  17.14100 -1.96200 29.54100
C  16.73500 -0.97600 30.41600
C  17.30500 -1.34200 31.84700
C  18.43600 -2.33800 31.49200
C  18.14400 -2.71700 30.10100
C  19.86600 -1.73600 31.69400
C  16.31000 -1.62600 33.00900
C  16.45800 -0.98800 34.40500
H  17.83500 -0.49100 35.05600
N  18.16500 -3.58800 27.03900
C  18.86900 -4.19700 28.05300
C  19.68800 -5.23300 27.52300
C  19.65000 -5.15600 26.06100
C  18.67800 -4.08700 25.85700
C  20.39200 -6.23800 28.41600
C  20.40400 -5.98100 25.00800
O  20.30300 -5.80700 23.77000
C  21.40900 -7.02500 25.44900
N  16.59600 -1.95500 25.28500
C  17.40100 -2.57600 24.32800
C  16.84000 -2.35800 22.82900
C  15.76800 -1.27900 22.99400
C  15.62400 -1.20300 24.57600
C  17.90900 -2.00900 21.77000
C  14.40400 -1.67000 22.26200
C  14.28100 -1.27600 20.76700
N  15.40900 -0.61900 27.48400
C  14.61100 0.06500 26.47100
C  13.84900 1.10200 27.16900
C  14.24700 0.95700 28.54900
C  15.22100 -0.01200 28.68200
C  12.78500 2.04800 26.50100
C  13.89600 1.61500 29.84700
O  13.13300 2.54000 30.15100
C  14.85600 0.88100 30.90300
C  15.68500 1.81100 31.64300
O  16.81900 2.07600 31.35800
O  14.92300 2.28500 32.70400
C  15.46600 3.35500 33.56400
H  19.61400 -4.16600 30.10200
H  18.82000 -3.88000 23.61700
H  14.13200 0.29700 24.39200
H  17.72400 -0.37300 32.11600
H  18.42800 -3.15200 32.21700
H  19.79400 -0.90100 32.39100
H  20.32800 -1.47400 30.74300
H  20.53200 -2.44400 32.18800
H  16.11900 -2.69300 33.12900
H  15.35000 -1.27500 32.62900
H  16.11600 -1.73300 35.12400
H  15.87000 -0.07900 34.53000
H  21.25200 -5.88200 28.98300
H  20.59500 -7.16200 27.87600
H  19.66800 -6.36700 29.22100
H  21.91700 -6.53400 26.27900
H  22.05500 -7.24800 24.60000
H  20.89200 -7.89400 25.85700
H  16.41500 -3.31900 22.54100
H  16.09600 -0.26600 22.76000
H  18.85800 -1.92200 22.29900
H  17.60800 -1.05300 21.34000
H  18.03600 -2.81700 21.05000
H  13.60300 -1.31300 22.90900
H  14.26600 -2.74700 22.35200
H  15.16000 -0.72700 20.43000
H  13.47700 -0.57500 20.54100
H  14.18800 -2.21500 20.22100
H  11.88500 2.22500 27.09100
H  12.34000 1.69900 25.56900
H  13.32400 2.97900 26.32600
H  14.18800 0.39000 31.61100
H  16.45900 3.01700 33.85900
H  14.87200 3.60700 34.44200
H  15.57600 4.17400 32.85300

