158

Mg 24.42900 1.33800 29.19100
C  26.47900 0.88200 32.11700
C  21.86700 1.63600 31.33300
C  22.53100 1.35500 26.44900
C  27.25300 0.76400 27.21400
N  24.23800 1.22600 31.50000
C  25.17700 1.18500 32.47300
C  24.63200 1.55000 33.89300
C  23.10900 1.51600 33.62500
C  23.03900 1.43700 32.06900
C  22.22200 0.46900 34.16900
C  25.20300 2.81200 34.45800
C  26.13100 2.69100 35.61900
H  25.78500 3.54000 36.85200
N  22.49800 1.38600 28.89900
C  21.56900 1.59100 29.95900
C  20.27200 1.44300 29.30400
C  20.45100 1.26400 27.90600
C  21.83700 1.36100 27.67100
C  19.04100 1.37900 30.18300
C  19.34900 0.89300 26.88900
O  19.57700 0.69500 25.68800
C  17.93800 0.77700 27.30800
N  24.83600 0.98800 27.07600
C  23.87100 1.26100 26.14800
C  24.52800 1.30700 24.76500
C  26.05300 1.45400 25.07800
C  26.04900 1.06200 26.54500
C  24.15800 0.08600 23.86900
C  26.80800 2.72100 24.69800
C  26.91500 3.84200 25.73900
N  26.40100 0.71700 29.51200
C  27.40100 0.51000 28.57500
C  28.66100 0.28700 29.29800
C  28.30800 0.43500 30.66500
C  26.92700 0.69700 30.82100
C  29.94800 0.09500 28.73100
C  28.85400 0.56400 31.98000
O  30.01000 0.45800 32.34500
C  27.69800 0.93100 33.00100
C  27.68400 0.05000 34.19200
O  27.03300 -1.01200 34.21700
O  28.42300 0.47200 35.26700
C  28.13600 -0.40600 36.48100
H  21.08000 1.90400 32.04100
H  21.97200 1.39000 25.51200
H  28.14000 0.70000 26.58000
H  24.87200 0.72300 34.56100
H  22.78300 2.52300 33.88400
H  21.64200 0.09200 33.32700
H  21.43900 0.87300 34.81100
H  22.67300 -0.37600 34.69000
H  24.38200 3.46400 34.75400
H  25.72700 3.38200 33.69100
H  27.12500 3.04900 35.35000
H  26.17100 1.65200 35.94500
H  19.20500 1.29500 31.25700
H  18.34200 0.57000 29.97000
H  18.54900 2.30300 29.88200
H  17.98200 -0.16600 27.85400
H  17.17200 0.67300 26.53900
H  17.71700 1.57500 28.01600
H  24.17500 2.16700 24.19600
H  26.56800 0.64600 24.55700
H  23.25700 -0.34800 24.30300
H  24.99600 -0.61000 23.87800
H  24.07200 0.37100 22.82000
H  26.29500 3.15200 23.83800
H  27.81300 2.46200 24.36700
H  26.41500 3.45500 26.62700
H  26.36300 4.71600 25.39500
H  27.94700 4.07200 26.00600
H  30.46700 -0.68000 29.29700
H  30.52500 1.01900 28.69700
H  29.77500 -0.23800 27.70800
H  27.95900 1.97000 33.19800
H  27.17100 -0.17100 36.93100
H  28.84000 -0.19400 37.28600
H  28.21000 -1.46700 36.24000
Mg 34.05400 2.93400 29.45200
C  31.96100 3.78000 32.16600
C  36.79900 2.89100 31.54300
C  36.06000 2.19500 26.83000
C  31.26400 3.32200 27.35500
N  34.28600 3.18500 31.55300
C  33.33200 3.59000 32.50600
C  33.94100 3.62200 33.92000
C  35.50000 3.54200 33.62300
C  35.51800 3.15100 32.13400
C  36.18700 4.97300 33.94700
C  33.42200 2.37000 34.72500
C  32.95400 2.65400 36.22900
H  33.68100 3.70300 37.06900
N  36.20900 2.58500 29.18200
C  37.16600 2.62200 30.16800
C  38.36100 2.10500 29.62500
C  38.16700 1.75000 28.25500
C  36.80700 2.18300 28.02900
C  39.58600 1.81500 30.50300
C  39.07600 1.22300 27.25600
O  38.75700 1.02600 26.06900
C  40.53300 0.89600 27.61200
N  33.72600 2.96400 27.43900
C  34.68700 2.51300 26.58200
C  34.14900 2.46900 25.18700
C  32.59500 2.55700 25.37400
C  32.50000 3.05600 26.79400
C  34.74300 3.42600 24.16700
C  31.81800 1.29100 25.13300
C  31.61200 0.64800 23.71800
N  32.04200 3.49500 29.67500
C  31.02700 3.49500 28.74600
C  29.79500 3.79100 29.44700
C  30.13600 3.88300 30.82100
C  31.48400 3.63500 30.85100
C  28.47900 3.98200 28.89300
C  29.59100 4.22800 32.09600
O  28.41900 4.42300 32.47400
C  30.78600 4.10000 33.04800
C  30.99300 5.36600 33.74300
O  31.11300 6.39800 33.10300
O  30.95600 5.28700 35.13700
C  30.83400 6.53700 35.77000
H  37.55400 2.82900 32.33000
H  36.58100 1.84900 25.93500
H  30.36700 3.40600 26.73800
H  33.71100 4.54500 34.45200
H  35.99700 2.77700 34.21900
H  37.08700 5.18800 33.37100
H  36.62700 4.88100 34.94000
H  35.59400 5.88600 33.88600
H  34.19300 1.59900 34.74500
H  32.53900 1.89100 34.30300
H  33.08600 1.64400 36.61800
H  31.92800 3.02100 36.21400
H  40.51800 2.14800 30.04600
H  39.62300 0.76100 30.77800
H  39.49500 2.23900 31.50400
H  40.45700 0.15300 28.40600
H  41.05900 1.78200 27.96600
H  41.00900 0.42200 26.75400
H  34.29100 1.45000 24.82600
H  32.13800 3.28700 24.70600
H  35.33100 4.24500 24.58000
H  33.93900 3.82100 23.54700
H  35.46400 2.79500 23.64600
H  30.84000 1.46100 25.58300
H  32.41700 0.52900 25.63200
H  32.55600 0.85100 23.21300
H  30.84700 1.10100 23.08700
H  31.46700 -0.42500 23.84000
H  27.90500 3.05600 28.84900
H  28.55500 4.35000 27.87000
H  27.89800 4.66600 29.51100
H  30.60400 3.44500 33.90000
H  30.84900 6.31500 36.83700
H  29.84000 6.90700 35.52000
H  31.54900 7.32000 35.51600

