158

Mg 23.74000 -5.80300 45.43100
C  26.09400 -3.58800 43.79500
C  21.43600 -4.57100 43.21600
C  21.91500 -8.49800 46.07900
C  26.45800 -7.24000 47.09100
N  23.80400 -4.23700 43.75700
C  24.86500 -3.50200 43.21200
C  24.39500 -2.64600 41.99300
C  22.82600 -2.62000 42.24800
C  22.64600 -3.94500 43.09300
C  22.30100 -1.34400 42.96500
C  24.88000 -3.18700 40.61100
C  25.53200 -2.30200 39.43800
H  24.94200 -2.37200 38.03800
N  21.87700 -6.43600 44.76500
C  21.00700 -5.75500 43.88100
C  19.70500 -6.42900 43.91500
C  19.83900 -7.64400 44.68400
C  21.26400 -7.57500 45.18200
C  18.57500 -5.82100 43.15900
C  18.80600 -8.74300 44.87500
O  17.64600 -8.47300 44.49400
C  18.94400 -9.98200 45.75300
N  24.11500 -7.71400 46.45500
C  23.19300 -8.59800 46.64500
C  23.67300 -9.82500 47.55100
C  25.12700 -9.26100 47.95400
C  25.28000 -8.00000 47.14500
C  22.67000 -10.15300 48.79600
C  26.26600 -10.30500 47.72300
C  27.16800 -10.61800 48.95200
N  25.80100 -5.42000 45.62800
C  26.72700 -6.09200 46.34300
C  27.99400 -5.42400 46.13300
C  27.85000 -4.49600 45.19500
C  26.48600 -4.52000 44.86300
C  29.32300 -5.86500 46.71000
C  28.51600 -3.49600 44.34900
O  29.77600 -3.35400 44.18200
C  27.36500 -2.80600 43.50000
C  27.33200 -1.39200 43.97500
O  26.54300 -0.90400 44.75300
O  28.19300 -0.58600 43.24800
C  27.70400 0.82600 43.11200
H  20.62100 -4.23300 42.57300
H  21.36300 -9.41100 46.31000
H  27.23800 -7.84100 47.56300
H  24.84300 -1.66200 42.12600
H  22.30300 -2.77200 41.30400
H  21.38000 -0.94100 42.54500
H  23.04700 -0.56900 43.14100
H  22.05700 -1.54600 44.00800
H  23.97200 -3.53800 40.12000
H  25.45600 -4.09100 40.80700
H  26.59100 -2.56100 39.40900
H  25.54000 -1.26200 39.76300
H  18.40600 -6.09600 42.11800
H  18.71000 -4.74600 43.27900
H  17.61900 -6.00700 43.64800
H  18.03200 -10.57000 45.85000
H  19.24300 -9.54500 46.70600
H  19.74400 -10.61600 45.37100
H  23.59800 -10.72000 46.93300
H  25.02400 -8.93800 48.99000
H  22.00500 -9.30200 48.94600
H  23.11700 -10.12500 49.79000
H  22.10300 -11.08000 48.71800
H  26.98400 -9.90400 47.00800
H  25.82200 -11.25300 47.42100
H  28.19800 -10.56900 48.59900
H  26.99800 -11.64000 49.29000
H  26.90700 -9.97200 49.79000
H  29.87300 -6.59800 46.12100
H  29.08600 -6.29700 47.68200
H  29.88900 -4.93400 46.76300
H  27.63400 -2.80300 42.44300
H  26.62400 0.81500 42.96400
H  28.03500 1.21800 42.15000
H  28.01500 1.40600 43.98000
Mg 47.10600 24.77000 28.02600
C  48.03400 27.02000 30.63000
C  46.52700 22.46800 30.50500
C  46.82900 22.41200 25.69000
C  48.24300 27.09300 25.73200
N  47.16600 24.89300 30.31100
C  47.51600 25.86100 31.19400
C  47.33300 25.44400 32.66900
C  46.84600 23.99100 32.53900
C  46.91000 23.74700 31.01200
C  47.62400 22.93900 33.44800
C  46.33600 26.37900 33.37800
C  45.56500 25.85800 34.60600
H  45.53800 26.92900 35.78500
N  46.65800 22.70700 28.11100
C  46.51900 21.99200 29.24600
C  46.33100 20.64900 28.94900
C  46.25600 20.54300 27.46400
C  46.58000 21.91500 26.96300
C  46.21200 19.58000 30.00200
C  46.09300 19.33500 26.51100
O  46.21600 19.44400 25.30700
C  45.75800 17.95200 27.08000
N  47.50400 24.74000 26.03900
C  47.28700 23.67900 25.23600
C  47.43700 24.01500 23.74500
C  47.72200 25.59400 23.82400
C  47.81800 25.80400 25.29900
C  48.49300 23.26800 22.85700
C  46.61500 26.43800 23.07900
C  46.14100 25.85800 21.67900
N  47.87600 26.72400 28.05500
C  48.33500 27.49600 27.04000
C  48.91400 28.70300 27.59500
C  48.76700 28.55500 29.02100
C  48.15100 27.28200 29.22100
C  49.74500 29.79900 26.84500
C  49.03900 29.23500 30.29400
O  49.60600 30.27300 30.56500
C  48.47500 28.22200 31.36400
C  49.31900 28.02500 32.60100
O  50.40000 27.35100 32.71800
O  48.83500 28.78900 33.66600
C  49.47000 28.56400 34.97300
H  46.29800 21.84400 31.37100
H  46.84500 21.68600 24.87400
H  48.53700 27.84400 24.99600
H  48.29400 25.55100 33.17200
H  45.79100 23.85200 32.77500
H  47.82500 23.33100 34.44500
H  48.51400 22.57000 32.93800
H  47.04000 22.03000 33.58800
H  45.63800 26.84000 32.67900
H  46.93300 27.21100 33.75100
H  46.04700 24.95800 34.98800
H  44.51400 25.78800 34.32600
H  45.30400 18.99500 29.85600
H  46.38500 19.89100 31.03200
H  46.99800 18.84500 29.83200
H  45.68000 17.20400 26.29100
H  44.74100 18.16000 27.41300
H  46.47000 17.64100 27.84400
H  46.43100 23.97500 23.32800
H  48.62300 25.91500 23.30200
H  49.28500 23.91800 22.48400
H  48.08400 22.80600 21.95800
H  48.84200 22.44700 23.48300
H  46.98200 27.45600 22.95500
H  45.81300 26.47100 23.81600
H  45.16000 25.38600 21.73000
H  46.81000 25.12700 21.22500
H  46.10900 26.64200 20.92300
H  49.94200 29.49100 25.81800
H  50.71100 29.96700 27.32100
H  49.25600 30.76500 26.72300
H  47.63000 28.87800 31.57300
H  50.27400 29.27200 35.17700
H  49.89700 27.56200 35.00000
H  48.75300 28.77200 35.76700

