158

Mg 8.00400 3.02100 27.59500
C  9.17700 1.57800 30.47600
C  5.94500 5.12400 29.63500
C  6.26700 4.05000 24.87000
C  9.52700 0.58100 25.72600
N  7.62600 3.30500 29.76400
C  8.42200 2.70600 30.74700
C  8.28200 3.41400 32.13900
C  7.09700 4.42500 31.77200
C  6.91500 4.32300 30.28500
C  5.82800 4.23400 32.60200
C  9.52200 3.95800 32.81200
C  9.90700 3.33000 34.09700
H  10.15400 4.23000 35.27900
N  6.36400 4.43900 27.32500
C  5.70600 5.24600 28.27700
C  4.90200 6.22600 27.56200
C  5.06300 6.01600 26.16200
C  5.87700 4.77400 26.04700
C  4.32400 7.47800 28.27900
C  4.46700 6.79700 25.06700
O  4.68900 6.54100 23.84800
C  3.56300 7.96600 25.33900
N  7.95600 2.44600 25.61600
C  7.12400 2.99400 24.71000
C  7.16700 2.23800 23.39600
C  8.38800 1.37000 23.56500
C  8.68600 1.45700 25.04700
C  5.84000 1.59600 22.86700
C  9.68200 1.77000 22.72900
C  10.46700 0.67400 21.96000
N  9.22000 1.36400 27.96200
C  9.75800 0.49300 27.13300
C  10.64400 -0.39700 27.89900
C  10.45200 -0.04100 29.23700
C  9.54700 1.03700 29.24600
C  11.37500 -1.63700 27.39500
C  10.82500 -0.36800 30.59000
O  11.51800 -1.23500 31.06900
C  10.01700 0.69800 31.42100
C  9.11500 0.03500 32.38200
O  7.90700 -0.02900 32.39900
O  9.90900 -0.31900 33.49000
C  9.15400 -0.73500 34.71500
H  5.55600 5.89100 30.30900
H  5.82800 4.29500 23.90100
H  10.09100 -0.15300 25.14700
H  7.87800 2.65200 32.80500
H  7.54000 5.41200 31.90000
H  5.97800 3.36900 33.24700
H  4.94200 4.21200 31.96600
H  5.70100 5.05100 33.31200
H  9.33600 5.02100 32.96400
H  10.30700 3.88900 32.05900
H  10.86100 2.89400 33.80200
H  9.29400 2.48300 34.40500
H  4.70700 8.38500 27.81200
H  4.54100 7.46600 29.34700
H  3.24900 7.41800 28.10900
H  2.70100 7.48300 25.79900
H  3.20100 8.26000 24.35400
H  4.02100 8.82200 25.83500
H  7.46100 3.03600 22.71400
H  8.02600 0.37500 23.30600
H  5.12400 1.68100 23.68400
H  5.93500 0.55500 22.55700
H  5.55500 2.23700 22.03300
H  10.36600 2.21400 23.45200
H  9.45600 2.52200 21.97300
H  11.46200 0.73600 22.40000
H  10.49200 0.76000 20.87300
H  10.15700 -0.31800 22.28800
H  11.24400 -2.39300 28.16800
H  12.43900 -1.45400 27.24900
H  10.85300 -2.09700 26.55600
H  10.76400 1.26200 31.97800
H  8.74100 -1.72000 34.49800
H  8.30500 -0.05500 34.78100
H  9.66700 -0.70700 35.67700
Mg 45.54400 4.02800 46.76100
C  43.48200 6.76400 47.09100
C  42.58000 2.06500 46.20500
C  47.49900 1.44200 45.88000
C  48.32300 6.07300 46.82100
N  43.29700 4.44500 46.49100
C  42.69400 5.64700 46.77900
C  41.12700 5.52400 46.68200
C  40.85000 3.98100 46.50100
C  42.33100 3.43300 46.40900
C  39.94000 3.35700 47.64000
C  40.52300 6.29900 45.50600
C  41.28600 6.31200 44.17100
H  40.47800 5.85400 42.89300
N  45.08100 2.01000 46.22600
C  43.83200 1.38600 46.16000
C  44.06500 -0.00500 45.91000
C  45.51100 -0.29300 46.03400
C  46.13100 1.08500 46.05600
C  42.94800 -1.06700 45.90200
C  46.15700 -1.65100 46.02400
O  45.52400 -2.70000 46.06000
C  47.68200 -1.80300 45.92900
N  47.65900 3.82500 46.18700
C  48.17800 2.65000 45.96500
C  49.73300 2.78600 46.01000
C  49.89500 4.28100 46.37700
C  48.52700 4.78000 46.44100
C  50.55100 1.78900 46.90700
C  51.05700 5.07500 45.59000
C  52.32200 5.42600 46.23300
N  45.93500 6.05900 46.91300
C  47.10900 6.76700 46.98200
C  46.82100 8.18400 47.14500
C  45.38800 8.25700 47.23000
C  44.90700 6.91100 47.08800
C  47.74200 9.27200 47.29000
C  44.22000 9.10100 47.39300
O  44.14100 10.31000 47.54800
C  42.99500 8.17900 47.29200
C  42.01900 8.29400 48.42200
O  42.23100 7.91500 49.57300
O  40.88100 9.01600 48.09700
C  39.99000 9.40600 49.17100
H  41.69300 1.47600 45.95800
H  48.18100 0.66600 45.52500
H  49.14900 6.74000 47.07700
H  40.61800 5.89000 47.57400
H  40.27900 3.80600 45.58800
H  40.40400 2.79800 48.45300
H  39.12200 2.74000 47.26700
H  39.48500 4.22700 48.11300
H  40.56500 7.34300 45.81900
H  39.53700 5.83400 45.49800
H  42.09200 5.57700 44.17900
H  41.67300 7.33100 44.14800
H  42.66900 -1.34200 46.91900
H  43.07100 -1.89900 45.20900
H  42.00900 -0.64700 45.54100
H  48.07000 -1.09100 46.65800
H  48.00000 -1.61400 44.90300
H  48.00800 -2.77600 46.29600
H  50.07500 2.74800 44.97600
H  50.23600 4.32300 47.41100
H  51.13500 2.37700 47.61500
H  51.33400 1.22400 46.40200
H  49.91700 1.05600 47.40700
H  50.53200 5.97900 45.28000
H  51.29600 4.48600 44.70500
H  53.10700 5.40400 45.47800
H  52.47000 4.53700 46.84700
H  52.23800 6.31300 46.86100
H  48.05900 9.48300 46.26800
H  48.63300 9.07100 47.88500
H  47.16900 10.12200 47.66000
H  42.62100 8.59900 46.35800
H  40.44000 10.29300 49.61500
H  39.83900 8.75900 50.03500
H  39.02900 9.66500 48.72600

