158

Mg 8.01500 2.49100 27.25600
C  9.50800 1.19000 30.16700
C  6.11200 4.58100 29.31100
C  6.02300 3.53400 24.70100
C  9.40900 0.15100 25.34000
N  7.93800 2.91300 29.48600
C  8.62400 2.23700 30.48400
C  8.38200 2.90600 31.91000
C  7.13800 3.88700 31.60400
C  7.03700 3.75500 30.01600
C  5.79000 3.56100 32.26900
C  9.65200 3.57600 32.62000
C  9.43700 3.99700 33.99400
H  10.22900 3.52100 35.16000
N  6.40300 3.87000 27.00500
C  5.82400 4.69700 27.95900
C  4.85800 5.65000 27.32300
C  4.91800 5.35500 25.94100
C  5.84700 4.21800 25.81700
C  4.13200 6.67500 28.14100
C  4.09300 5.99900 24.85700
O  4.27700 5.62700 23.66000
C  3.04800 7.13000 25.15600
N  7.77800 2.00200 25.20300
C  6.88100 2.50800 24.36300
C  7.03900 1.79400 22.92200
C  8.22100 0.81200 23.16900
C  8.52200 0.97500 24.60200
C  5.80400 0.89800 22.58500
C  9.44500 1.02500 22.32100
C  10.07000 -0.20300 21.59300
N  9.25400 1.08700 27.58400
C  9.78900 0.21900 26.73500
C  10.81000 -0.58800 27.44300
C  10.65800 -0.34000 28.83600
C  9.78500 0.73800 28.84100
C  11.62500 -1.71400 26.82800
C  10.93700 -0.78300 30.17900
O  11.74000 -1.65400 30.63900
C  10.37800 0.33800 31.12900
C  9.69300 -0.27600 32.26500
O  8.73000 -1.08100 32.21000
O  10.53400 -0.09700 33.41000
C  10.07200 -0.69800 34.70100
H  5.51300 5.28500 29.89200
H  5.41100 3.75400 23.82300
H  9.94000 -0.52900 24.67000
H  8.21300 2.01400 32.51300
H  7.46500 4.86800 31.95000
H  5.02000 3.51500 31.49800
H  5.70000 4.45900 32.88000
H  5.75800 2.62200 32.82200
H  10.08600 4.33900 31.97400
H  10.49600 2.88600 32.62900
H  8.38100 3.97300 34.26300
H  9.58200 5.07600 33.94500
H  3.05600 6.57400 28.00200
H  4.58900 7.65200 27.98400
H  4.17300 6.53900 29.22100
H  2.08700 6.66500 25.37900
H  2.89700 7.82300 24.32900
H  3.35800 7.73400 26.00900
H  7.24700 2.57600 22.19100
H  7.93100 -0.23700 23.21500
H  5.01900 1.01100 23.33200
H  6.02800 -0.12800 22.29300
H  5.43400 1.13400 21.58700
H  10.19800 1.43000 22.99700
H  9.26900 1.73600 21.51400
H  10.17800 0.05700 20.54000
H  9.42500 -1.07700 21.49900
H  10.96200 -0.56100 22.10700
H  12.16000 -1.44400 25.91800
H  10.94000 -2.51100 26.53800
H  12.26000 -2.18700 27.57700
H  11.21500 0.89700 31.54900
H  9.38900 -1.53200 34.53700
H  9.58300 0.02200 35.35700
H  10.86700 -1.03000 35.36900
Mg 8.88100 47.87200 26.68200
C  6.95200 47.27700 29.52700
C  11.61100 48.29400 28.76800
C  10.58500 48.53400 24.08600
C  5.97100 47.48100 24.70800
N  9.22100 47.88400 28.87000
C  8.26200 47.60100 29.87100
C  8.86400 47.76600 31.24400
C  10.26900 48.43100 30.97300
C  10.37300 48.21000 29.42500
C  10.43200 49.99800 31.17900
C  8.77000 46.60600 32.22900
C  9.70000 46.57300 33.47300
H  9.25900 45.77200 34.70500
N  10.88400 48.15500 26.48200
C  11.85000 48.30100 27.42700
C  13.10600 48.51800 26.75200
C  12.83100 48.48700 25.31500
C  11.37100 48.33400 25.25100
C  14.38300 48.48600 27.47500
C  13.83700 48.66800 24.25400
O  13.46500 48.59600 23.10100
C  15.33300 48.94400 24.57800
N  8.28100 47.99300 24.70300
C  9.23000 48.35000 23.80400
C  8.65600 48.49600 22.36300
C  7.16300 48.06400 22.58100
C  7.08800 47.83500 24.01600
C  8.82700 49.92200 21.80200
C  6.81400 46.85100 21.73300
C  6.16700 47.09700 20.42100
N  6.90800 47.50700 26.99200
C  5.85600 47.36700 26.17100
C  4.67500 47.02400 26.82400
C  5.04600 46.98200 28.14100
C  6.37200 47.28000 28.20300
C  3.35100 46.74400 26.24300
C  4.60600 46.81500 29.49700
O  3.47400 46.53000 29.83300
C  5.77700 46.92000 30.44600
C  5.99900 45.63900 31.19200
O  6.68500 44.70500 30.85300
O  5.30700 45.67100 32.41000
C  5.43000 44.52800 33.26000
H  12.41700 48.54700 29.46000
H  11.12100 48.73800 23.15700
H  5.11400 47.37400 24.04000
H  8.16600 48.50600 31.63700
H  11.14900 47.94900 31.40100
H  10.18100 50.56600 30.28300
H  11.45500 50.22300 31.48200
H  9.79800 50.33500 31.99900
H  8.87600 45.66700 31.68500
H  7.76300 46.75100 32.62000
H  9.96500 47.58700 33.77300
H  10.65000 46.12400 33.18300
H  14.92900 47.66900 27.00400
H  14.31800 48.22200 28.53100
H  14.95100 49.40500 27.32400
H  15.78800 49.23800 23.63100
H  15.80100 47.99000 24.82000
H  15.41500 49.76100 25.29500
H  9.24200 47.86700 21.69300
H  6.52100 48.89600 22.29200
H  9.87800 50.20200 21.73900
H  8.32200 50.65100 22.43600
H  8.40300 50.01400 20.80200
H  6.19900 46.14300 22.28800
H  7.75700 46.34700 21.51900
H  6.07200 48.15000 20.15400
H  5.11900 46.80100 20.46800
H  6.75500 46.53400 19.69600
H  2.90400 45.92700 26.80900
H  3.52500 46.41000 25.22000
H  2.71900 47.61700 26.07800
H  5.59100 47.62200 31.25900
H  4.52100 43.95400 33.08400
H  5.43800 44.94400 34.26700
H  6.33600 43.92900 33.16600

