158

Mg 42.70600 4.83400 47.71800
C  41.00000 7.94000 47.29900
C  39.78900 3.19200 47.43900
C  44.51000 2.02700 47.16400
C  45.79800 6.76200 47.37600
N  40.59000 5.49000 47.39000
C  40.12600 6.73500 47.30700
C  38.54000 6.80400 47.52600
C  38.18100 5.29700 47.75200
C  39.59200 4.59500 47.50500
C  37.52000 4.84600 49.07300
C  37.74700 7.55800 46.39000
C  38.09200 7.05100 44.91800
H  38.50400 8.08900 43.92400
N  42.25200 2.83500 47.52300
C  40.96200 2.33300 47.46700
C  40.98400 0.91200 47.47500
C  42.35600 0.54200 47.22000
C  43.15500 1.78200 47.28800
C  39.66700 0.12300 47.60500
C  42.73000 -0.83600 47.01900
O  41.95300 -1.78600 46.96200
C  44.11600 -1.12000 46.84700
N  44.81700 4.48100 47.17100
C  45.25500 3.17400 47.15100
C  46.79400 3.13400 47.13100
C  47.18500 4.65800 47.08300
C  45.85500 5.41200 47.16600
C  47.42400 2.34900 48.33700
C  48.06900 5.05400 45.82300
C  49.51300 5.11200 45.97600
N  43.34500 6.92100 47.46900
C  44.63600 7.53300 47.34500
C  44.41300 9.02700 47.26800
C  43.02200 9.20000 47.34400
C  42.45700 7.89400 47.33100
C  45.44400 9.93500 47.11500
C  41.97200 10.21100 47.24300
O  41.98700 11.40700 47.12100
C  40.63300 9.37800 47.31700
C  39.91800 9.84800 48.55700
O  40.16300 9.47000 49.67300
O  38.95800 10.78800 48.17600
C  38.10700 11.42300 49.18300
H  38.86200 2.62000 47.35300
H  45.25700 1.23200 47.20400
H  46.71200 7.35300 47.29500
H  38.43200 7.37600 48.44800
H  37.56500 4.92300 46.93500
H  37.10400 5.60700 49.73300
H  38.27800 4.27200 49.60500
H  36.74500 4.10300 48.88600
H  38.05000 8.60400 46.44200
H  36.68200 7.39200 46.55000
H  37.22200 6.56800 44.47300
H  38.86500 6.28800 45.00500
H  39.14400 0.21300 46.65300
H  39.00700 0.47800 48.39800
H  39.57100 -0.95500 47.73400
H  44.66600 -0.66800 47.67200
H  44.54500 -0.74800 45.91700
H  44.26400 -2.19100 46.98200
H  47.13600 2.65700 46.21300
H  47.77700 4.82600 47.98200
H  46.71300 2.15600 49.14000
H  48.27600 2.91700 48.71200
H  47.72800 1.35600 48.00300
H  47.69200 6.03900 45.55000
H  47.81300 4.33600 45.04400
H  49.80700 4.97300 47.01700
H  49.99500 6.05700 45.72600
H  50.10000 4.44600 45.34300
H  46.03000 9.97100 48.03400
H  45.09100 10.91600 46.79700
H  46.07000 9.61300 46.28200
H  39.93200 9.66500 46.53400
H  37.83600 12.46000 48.98100
H  38.56500 11.33300 50.16800
H  37.20300 10.87100 49.43800
Mg 43.16600 42.01200 26.05900
C  42.40500 44.30200 28.58300
C  43.85600 39.67700 28.37500
C  44.14000 39.93200 23.55900
C  42.88900 44.55100 23.69900
N  43.32200 42.09400 28.25900
C  42.68900 43.07000 29.04300
C  42.59000 42.65400 30.49700
C  43.20200 41.15000 30.45300
C  43.47100 40.92700 28.91600
C  44.54300 41.08300 31.28800
C  41.16900 42.61000 31.11500
C  41.20100 42.12200 32.51700
H  41.10700 43.24500 33.61500
N  43.82900 40.05500 25.98700
C  44.12500 39.28900 27.07400
C  44.53300 37.96900 26.65100
C  44.46700 37.98400 25.20500
C  44.17100 39.38500 24.85300
C  44.98800 36.77100 27.57300
C  44.57700 36.85500 24.29900
O  44.49300 37.08900 23.08100
C  44.77700 35.43400 24.74600
N  43.61200 42.19600 23.96400
C  43.89400 41.22200 23.13200
C  44.14700 41.67300 21.72500
C  43.49200 43.03300 21.72000
C  43.37800 43.29900 23.20400
C  45.64500 41.85300 21.30100
C  42.12300 43.08800 21.01200
C  40.87600 42.29000 21.61800
N  42.72100 43.99300 26.09900
C  42.61800 44.88400 25.04500
C  42.12100 46.15600 25.57400
C  41.95400 45.93400 26.96400
C  42.46500 44.64000 27.20100
C  41.92000 47.45300 24.96100
C  41.51500 46.56200 28.16200
O  41.06500 47.70800 28.33100
C  41.90000 45.61700 29.34500
C  42.95500 46.19000 30.13700
O  44.13600 46.11500 29.92100
O  42.34600 46.75500 31.26600
C  43.17900 47.29400 32.31100
H  43.89400 38.99500 29.22700
H  44.61400 39.38800 22.74000
H  42.54100 45.38700 23.08800
H  43.17400 43.29600 31.15600
H  42.45300 40.44100 30.80500
H  45.21900 41.86200 30.93400
H  44.96600 40.07900 31.24500
H  44.41000 41.29400 32.34900
H  40.51800 41.99400 30.49500
H  40.75300 43.61500 31.03800
H  42.12400 41.66300 32.87100
H  40.45100 41.34700 32.67000
H  44.28300 35.94200 27.50300
H  44.99100 37.20100 28.57400
H  46.03900 36.48500 27.52400
H  45.03000 34.81900 23.88200
H  43.82200 35.15300 25.19100
H  45.66400 35.37800 25.37700
H  43.56700 40.97500 21.12100
H  44.12100 43.83500 21.33300
H  45.71400 41.50500 20.27000
H  46.21000 41.25700 22.01800
H  46.02300 42.86900 21.41900
H  42.29300 42.59200 20.05700
H  41.73400 44.10700 21.01500
H  41.20200 41.54000 22.33900
H  40.38600 41.74800 20.81000
H  40.17000 42.90100 22.18100
H  41.03600 47.32900 24.33500
H  42.72200 47.47800 24.22300
H  42.09200 48.39100 25.48800
H  40.98200 45.46200 29.91200
H  44.24400 47.37200 32.09400
H  43.21600 46.56100 33.11700
H  42.70200 48.15600 32.77700

