158

Mg 50.61900 44.83600 42.29300
C  47.37500 45.22300 41.07900
C  50.39700 41.38400 41.28000
C  53.92500 44.49200 42.53600
C  51.02200 48.37400 42.05000
N  49.07200 43.49600 41.20000
C  47.82900 43.91200 40.90600
C  47.08200 42.78200 40.22400
C  47.94600 41.47400 40.65300
C  49.27500 42.14300 40.95900
C  47.45800 40.63400 41.91200
C  47.11000 43.02900 38.67400
C  45.80500 42.65000 37.90200
H  46.01600 42.28600 36.43100
N  51.94600 43.13000 42.08200
C  51.62000 41.84600 41.78600
C  52.84600 41.04900 41.93700
C  53.86700 41.88200 42.41100
C  53.26300 43.23300 42.42800
C  52.95600 39.60400 41.49300
C  55.35600 41.43400 42.64500
O  55.74900 40.27000 42.58500
C  56.32700 42.43100 43.13000
N  52.21500 46.27700 42.14900
C  53.50900 45.84800 42.44400
C  54.44800 47.08700 42.50900
C  53.45600 48.22600 42.32200
C  52.12200 47.63100 42.20100
C  55.29900 47.20800 43.85500
C  53.76900 49.10300 41.00700
C  53.56800 50.62700 41.20900
N  49.41500 46.45200 41.86400
C  49.69700 47.86400 41.82700
C  48.50400 48.57100 41.47600
C  47.59200 47.62500 41.16000
C  48.17900 46.32700 41.40500
C  48.42800 50.09100 41.48900
C  46.23800 47.36300 40.62300
O  45.39400 48.09300 40.17300
C  46.00200 45.80600 40.65100
C  44.86100 45.37900 41.41400
O  43.96900 44.68700 40.98300
O  44.79600 46.05600 42.56700
C  43.42200 46.15900 43.15100
H  50.25000 40.31500 41.11000
H  55.00300 44.33600 42.62200
H  51.08200 49.46100 41.97600
H  46.02900 42.73700 40.50100
H  48.15900 40.77800 39.84200
H  46.38900 40.79300 42.05400
H  47.89100 40.93600 42.86600
H  47.58000 39.56300 41.74900
H  47.93900 42.49700 38.20700
H  47.22700 44.10800 38.57600
H  45.08200 43.46600 37.90300
H  45.32300 41.82600 38.42600
H  51.95200 39.24500 41.26700
H  53.38400 39.04200 42.32300
H  53.69400 39.33600 40.73600
H  55.72200 42.89100 43.91100
H  56.60800 43.11900 42.33300
H  57.15300 42.04400 43.72700
H  55.05700 46.97100 41.61200
H  53.39900 48.92500 43.15600
H  56.27600 47.64400 43.64600
H  55.57600 46.24500 44.28300
H  54.89200 47.87300 44.61700
H  53.20000 48.80700 40.12500
H  54.83300 49.07100 40.77100
H  54.50000 51.08400 40.87700
H  53.41700 50.99100 42.22500
H  52.77500 51.01600 40.57000
H  49.00100 50.48900 42.32700
H  47.36400 50.32000 41.55100
H  48.77000 50.40700 40.50400
H  45.66800 45.46900 39.67000
H  43.48000 45.59600 44.08300
H  42.59100 45.79100 42.55000
H  43.22500 47.16300 43.52600
Mg 17.60100 51.46300 26.70400
C  19.62500 49.91800 29.20400
C  15.26100 52.29900 28.93000
C  15.89900 52.54500 24.04600
C  20.22300 50.25900 24.37900
N  17.40500 50.97700 28.83100
C  18.39400 50.50400 29.69500
C  18.02300 50.82400 31.21100
C  16.49800 51.34600 31.03400
C  16.34800 51.58700 29.45700
C  15.32000 50.38100 31.59400
C  18.96400 51.89600 31.80300
C  19.35500 51.71000 33.26600
H  18.55200 50.79300 34.22000
N  15.82200 52.18300 26.53700
C  14.96000 52.52500 27.58600
C  13.74500 53.02900 26.98900
C  13.91600 53.24300 25.57800
C  15.24500 52.67000 25.32600
C  12.45300 53.23400 27.80300
C  12.94700 53.86800 24.50800
O  13.30500 54.03300 23.32800
C  11.59200 54.25700 24.86400
N  17.99000 51.32500 24.51700
C  17.14800 51.96400 23.68600
C  17.58000 51.93700 22.24700
C  19.07100 51.37900 22.39400
C  19.09300 50.95500 23.85600
C  16.66400 51.06500 21.30600
C  20.14000 52.51800 22.16700
C  21.50500 52.06300 21.62200
N  19.51700 50.29700 26.69300
C  20.38800 49.89000 25.75200
C  21.48400 49.12100 26.29900
C  21.24000 49.13900 27.65600
C  20.04500 49.84600 27.86600
C  22.73100 48.69500 25.48500
C  21.69100 48.75200 28.99100
O  22.65100 48.02800 29.31200
C  20.70200 49.31700 30.01300
C  20.20200 48.25900 30.84700
O  19.68100 47.26700 30.37400
O  20.51900 48.45700 32.19500
C  20.33400 47.24600 33.11300
H  14.52800 52.63100 29.66900
H  15.29200 52.80800 23.17800
H  20.99900 49.92700 23.68600
H  17.97100 49.86300 31.72400
H  16.37200 52.31200 31.52200
H  14.63000 50.98300 32.18600
H  15.73200 49.57300 32.20000
H  14.81100 49.97500 30.72000
H  18.45500 52.85900 31.76500
H  19.90200 52.12800 31.29900
H  19.40000 52.64600 33.82200
H  20.37300 51.32300 33.24700
H  11.66600 52.68500 27.28600
H  12.26100 54.30200 27.90900
H  12.59500 52.78700 28.78700
H  11.14800 54.98600 24.18600
H  11.36800 54.76600 25.80100
H  10.93700 53.38800 24.92800
H  17.53800 52.94100 21.82300
H  19.27500 50.46300 21.83900
H  15.73700 50.86300 21.84200
H  17.16300 50.12900 21.05300
H  16.33700 51.53100 20.37700
H  20.48400 52.73200 23.17900
H  19.83400 53.42900 21.65200
H  21.67200 52.76100 20.80100
H  21.44900 50.99700 21.40400
H  22.33400 52.24200 22.30800
H  23.01400 49.46400 24.76600
H  22.56400 47.71800 25.03300
H  23.51400 48.67500 26.24300
H  21.21100 50.02900 30.66200
H  20.89700 47.33900 34.04200
H  20.48200 46.24800 32.69900
H  19.29100 47.35000 33.41300

