158

Mg 54.32300 24.15900 43.62500
C  51.72500 26.44000 43.12200
C  52.20100 21.67600 42.33900
C  57.05900 22.20500 43.28900
C  56.38900 26.86500 44.30900
N  52.24000 24.06400 42.91300
C  51.40300 25.14600 42.74900
C  49.91200 24.66600 42.33300
C  50.05300 23.11500 42.29800
C  51.60600 22.97900 42.51400
C  49.35500 22.31100 43.35000
C  49.31200 25.26600 41.01800
C  50.17300 25.46500 39.68800
H  49.91200 24.40700 38.61500
N  54.61300 22.13500 43.06200
C  53.61200 21.33400 42.52900
C  54.18200 20.00900 42.20500
C  55.62500 20.11400 42.49400
C  55.85600 21.49800 42.98000
C  53.41300 18.82400 41.67400
C  56.61600 18.98900 42.21200
O  56.26500 17.97000 41.72000
C  58.08800 19.04100 42.64600
N  56.47700 24.47800 43.62400
C  57.36000 23.52800 43.58900
C  58.83200 23.95100 43.85600
C  58.54600 25.48800 44.29200
C  57.07400 25.68400 44.09200
C  59.40000 23.03100 44.91000
C  59.37700 26.47300 43.37400
C  60.84900 26.43500 43.87400
N  54.20400 26.22200 43.75000
C  55.05800 27.17300 44.16400
C  54.35700 28.42300 44.30500
C  53.07000 28.16000 43.90400
C  53.02700 26.82100 43.56500
C  54.98300 29.75100 44.56800
C  51.79800 28.87400 43.68800
O  51.47900 30.03800 43.87100
C  50.85400 27.74900 43.10900
C  50.33200 28.32100 41.86800
O  51.00500 28.45300 40.82000
O  48.98900 28.60200 41.98900
C  48.22300 29.08700 40.83100
H  51.44100 20.92200 42.11900
H  57.90400 21.53900 43.10100
H  56.99700 27.72800 44.58700
H  49.26400 24.93300 43.16700
H  49.91900 22.73500 41.28500
H  49.95000 22.41500 44.25700
H  49.18200 21.27800 43.05000
H  48.40100 22.84000 43.36800
H  48.83900 26.23000 41.20600
H  48.54100 24.53800 40.76700
H  51.21300 25.39300 40.00700
H  49.90900 26.51000 39.52300
H  53.46000 18.84900 40.58500
H  52.40600 18.96100 42.06800
H  53.81900 17.86800 42.00400
H  58.37000 18.00300 42.82400
H  58.31400 19.66300 43.51200
H  58.57600 19.52100 41.79800
H  59.35200 23.98700 42.89800
H  58.70500 25.66700 45.35500
H  59.56200 23.50700 45.87700
H  60.36400 22.76100 44.47700
H  58.87200 22.08800 45.05000
H  59.10300 27.52600 43.43200
H  59.24300 26.12700 42.34900
H  61.56900 26.14000 43.11000
H  60.88000 25.74100 44.71400
H  61.22200 27.43100 44.11400
H  54.56000 30.01500 45.53700
H  54.75700 30.52700 43.83700
H  56.07200 29.70700 44.57100
H  49.96300 27.63300 43.72600
H  48.40100 28.56200 39.89200
H  48.04900 30.15000 40.66000
H  47.20200 28.83500 41.11800
Mg 49.21300 35.80200 27.82300
C  47.14700 34.03400 30.10300
C  49.20700 38.43700 30.12300
C  50.93600 37.71300 25.55200
C  48.43300 33.45500 25.35800
N  48.39900 36.08900 29.83100
C  47.71200 35.20900 30.57900
C  47.41300 35.77300 32.03100
C  47.70000 37.30400 31.83700
C  48.48100 37.29600 30.49400
C  46.44600 38.15900 31.73900
C  48.40200 35.24900 33.10100
C  47.85600 34.95700 34.51800
H  47.70900 36.15500 35.47600
N  50.08100 37.71600 27.92000
C  50.06200 38.60900 29.04300
C  50.93000 39.76000 28.72300
C  51.40400 39.57200 27.34700
C  50.85600 38.25800 26.89900
C  51.15700 40.89100 29.73800
C  52.22600 40.55200 26.54200
O  52.53800 40.38100 25.37400
C  52.59000 41.87800 27.03300
N  49.61900 35.61100 25.79800
C  50.39200 36.49700 25.09800
C  50.73900 36.03600 23.68300
C  50.12000 34.55400 23.70100
C  49.28700 34.53700 25.02900
C  49.98200 36.88600 22.51400
C  51.18100 33.37300 23.48400
C  50.70600 32.23100 22.54100
N  48.11600 34.08200 27.76000
C  47.86000 33.21500 26.64500
C  46.98200 32.10600 27.03100
C  46.73500 32.39200 28.37400
C  47.36800 33.62100 28.76300
C  46.36500 30.88500 26.22100
C  45.90500 31.91700 29.51300
O  45.22900 30.93100 29.65500
C  46.12200 33.02000 30.65800
C  46.69300 32.31100 31.85500
O  47.86400 31.99000 32.10500
O  45.65600 32.13100 32.73700
C  45.96100 31.47700 34.02900
H  49.20900 39.27700 30.82200
H  51.44100 38.22600 24.73100
H  48.35400 32.66800 24.60500
H  46.38400 35.60900 32.35200
H  48.26600 37.72000 32.67100
H  46.51800 38.87400 30.91900
H  46.38100 38.69900 32.68400
H  45.56100 37.53200 31.63100
H  49.29300 35.83200 33.33400
H  48.78600 34.29000 32.75100
H  48.52500 34.29200 35.06600
H  46.94300 34.36700 34.44200
H  51.02800 40.49800 30.74700
H  50.53400 41.72400 29.41300
H  52.17700 41.25500 29.60700
H  51.72100 42.41400 27.41400
H  52.96000 42.35100 26.12300
H  53.33400 41.71500 27.81300
H  51.82600 36.05500 23.61700
H  49.26200 34.52200 23.02900
H  49.46800 36.32700 21.73100
H  50.75300 37.49100 22.03700
H  49.30500 37.51800 23.08800
H  51.35800 32.88000 24.43900
H  52.16100 33.72100 23.15900
H  50.97400 31.24400 22.91800
H  51.16200 32.26100 21.55200
H  49.63300 32.30400 22.36600
H  45.34600 30.66200 26.53900
H  46.88600 29.97500 26.52000
H  46.36100 31.03200 25.14100
H  45.23300 33.55100 30.99900
H  45.34500 31.99100 34.76700
H  47.02400 31.43600 34.26700
H  45.65800 30.43100 34.00700

