158

Mg 47.69600 25.50200 27.72900
C  48.71600 27.79400 30.24300
C  46.61100 23.40900 30.17500
C  47.26700 23.32400 25.48800
C  49.88500 27.23400 25.43400
N  47.71600 25.70100 29.95900
C  47.97100 26.74200 30.75300
C  47.35500 26.58500 32.16300
C  46.92300 25.11400 32.04800
C  46.95000 24.71000 30.59700
C  47.43100 24.13700 33.14900
C  46.22700 27.64500 32.44600
C  46.36300 28.45300 33.80300
H  45.23200 28.14800 34.78700
N  46.94700 23.68000 27.79600
C  46.62800 22.88700 28.87100
C  45.89800 21.68900 28.37400
C  45.90300 21.74000 27.03900
C  46.70400 22.99800 26.70400
C  45.27800 20.71800 29.35500
C  45.25200 20.83800 26.06800
O  45.37400 21.01100 24.85000
C  44.59000 19.54000 26.60800
N  48.59000 25.20200 25.79600
C  47.99400 24.31800 25.04300
C  48.47500 24.32800 23.59200
C  49.09700 25.72200 23.53100
C  49.23200 26.07200 24.99800
C  49.54100 23.26800 23.35400
C  48.21400 26.74800 22.84300
C  48.45400 26.95400 21.35200
N  49.01900 27.15500 27.74800
C  49.75800 27.76500 26.74800
C  50.33700 28.98400 27.33600
C  49.98200 29.05500 28.61400
C  49.17700 27.91900 28.86000
C  51.20700 29.91400 26.56000
C  50.02700 29.86900 29.76400
O  50.55400 30.94300 29.99700
C  49.17600 29.15000 30.90500
C  49.92800 29.07800 32.20800
O  51.02800 28.69000 32.32800
O  49.20900 29.75800 33.13800
C  49.85000 29.91600 34.44100
H  46.36000 22.68900 30.95800
H  47.09700 22.62000 24.67200
H  50.41600 27.79300 24.66000
H  48.08900 26.71600 32.95800
H  45.84400 25.05900 32.19400
H  46.57700 23.55600 33.49500
H  47.80100 24.58600 34.07100
H  48.20500 23.52500 32.68500
H  45.27900 27.11900 32.55500
H  46.15300 28.34200 31.61100
H  46.34600 29.53600 33.68100
H  47.28600 28.12500 34.28100
H  44.20200 20.74500 29.18800
H  45.61700 20.81200 30.38700
H  45.64800 19.75700 28.99700
H  43.80100 19.77700 27.32200
H  45.39800 18.98300 27.08300
H  44.26400 18.92700 25.76800
H  47.60500 24.18900 22.94900
H  50.05200 25.83400 23.01800
H  50.47300 23.76100 23.07700
H  49.18600 22.47300 22.69700
H  49.70200 22.71900 24.28200
H  48.19900 27.73900 23.29500
H  47.18000 26.47700 23.05200
H  47.53500 26.86700 20.77200
H  49.16100 26.21100 20.98400
H  48.95900 27.91800 21.29200
H  50.86500 29.93700 25.52500
H  52.21200 29.49400 26.55000
H  51.37200 30.88500 27.02700
H  48.27500 29.75000 31.02900
H  49.59700 29.09900 35.11700
H  49.46200 30.87000 34.79600
H  50.92500 30.07600 34.34900
Mg 49.76500 35.33800 25.73700
C  47.55500 34.43500 28.20800
C  50.26200 38.41200 27.41100
C  51.75400 36.39400 23.14700
C  49.38500 32.24500 24.36200
N  48.79600 36.42700 27.47900
C  48.08400 35.68300 28.44000
C  48.04200 36.43800 29.78000
C  48.49100 37.88300 29.34400
C  49.22700 37.59600 27.99400
C  47.45000 39.02300 29.07000
C  48.94600 35.80300 31.00000
C  48.35300 35.63200 32.39500
H  47.09600 36.40800 32.86100
N  50.79200 37.15800 25.30000
C  50.99500 38.15900 26.17400
C  52.08100 39.05800 25.67300
C  52.33100 38.63300 24.37400
C  51.62100 37.37900 24.20300
C  52.67400 40.20800 26.46500
C  53.16300 39.32100 23.32000
O  53.26700 38.85400 22.19900
C  54.01400 40.41500 23.75800
N  50.52200 34.43500 24.06800
C  51.15200 35.08100 23.00000
C  51.21900 34.21900 21.70600
C  50.69400 32.84400 22.21400
C  50.19300 33.15100 23.68300
C  50.55200 34.83400 20.48700
C  51.61400 31.56800 22.15800
C  51.70500 30.80300 20.81600
N  48.60500 33.67100 26.07800
C  48.61200 32.44500 25.45700
C  47.59800 31.63200 26.04500
C  47.09400 32.32800 27.12600
C  47.80700 33.59800 27.08200
C  46.99800 30.44200 25.40500
C  46.27100 32.34500 28.25900
O  45.49500 31.50300 28.64500
C  46.59200 33.66500 29.04100
C  47.09300 33.10000 30.33500
O  48.15100 32.57300 30.47100
O  46.09700 33.10200 31.31800
C  46.37500 32.23700 32.48800
H  50.29000 39.32500 28.01000
H  52.50000 36.61500 22.38100
H  49.27300 31.29600 23.83500
H  47.01200 36.52700 30.12500
H  49.27500 38.16700 30.04600
H  47.62100 39.86200 29.74500
H  46.44400 38.60800 29.13100
H  47.53100 39.44000 28.06600
H  49.91200 36.26300 31.21100
H  49.25500 34.78900 30.74600
H  49.08200 35.83400 33.17900
H  48.30500 34.55500 32.55500
H  53.67000 39.97100 26.84000
H  52.13400 40.29000 27.40900
H  52.70900 41.19000 25.99300
H  54.70100 40.68800 22.95700
H  54.62900 40.06600 24.58700
H  53.44700 41.31700 23.98800
H  52.27100 34.13100 21.43500
H  49.84200 32.64500 21.56300
H  49.80600 35.54200 20.84900
H  49.95100 34.15300 19.88400
H  51.27600 35.34500 19.85300
H  51.31900 30.81800 22.89100
H  52.58000 32.00500 22.41200
H  52.74600 31.00500 20.56400
H  51.09000 31.12000 19.97300
H  51.54600 29.74600 21.03000
H  46.69700 29.64000 26.07900
H  47.72700 29.94600 24.76400
H  46.20000 30.79700 24.75200
H  45.70500 34.28500 29.16800
H  45.47600 32.13400 33.09600
H  47.16600 32.70800 33.07300
H  46.62000 31.22100 32.18000

