158

Mg 39.86900 8.75200 29.53800
C  41.53900 10.08900 32.29500
C  37.49900 7.38600 31.53800
C  38.59800 7.04400 26.86200
C  42.59900 9.74900 27.60200
N  39.61300 8.69800 31.64800
C  40.31500 9.46400 32.59000
C  39.60600 9.48000 33.98700
C  38.54000 8.34800 33.84700
C  38.57700 8.03700 32.29000
C  38.88700 6.95600 34.54600
C  39.03500 10.85700 34.41100
C  38.75400 11.16500 35.94100
H  39.65700 12.11700 36.77700
N  38.29300 7.45200 29.22600
C  37.38400 7.08200 30.15100
C  36.37400 6.37000 29.52500
C  36.57000 6.33600 28.11000
C  37.84000 6.92600 28.02900
C  35.25100 5.74100 30.35200
C  35.80300 5.71000 27.04700
O  36.28300 5.52300 25.91600
C  34.31300 5.47500 27.31400
N  40.60600 8.41600 27.57000
C  39.83600 7.73500 26.66500
C  40.54500 7.72500 25.24500
C  41.51300 8.91000 25.49500
C  41.56900 9.11100 26.98800
C  41.28400 6.35600 24.96800
C  41.04200 10.19800 24.74800
C  39.74000 10.81300 25.10300
N  41.70600 9.78000 29.81400
C  42.76200 10.09800 28.96100
C  43.86200 10.66400 29.64700
C  43.36700 10.74600 31.01600
C  42.12200 10.16700 31.00200
C  45.16600 11.24400 29.10200
C  43.64700 11.43300 32.28000
O  44.40200 12.30500 32.66300
C  42.49800 10.85800 33.17100
C  43.09000 10.09300 34.33100
O  43.96300 9.29400 34.23900
O  42.54700 10.59300 35.52500
C  43.11400 10.01500 36.74500
H  36.69300 7.07700 32.20700
H  38.25400 6.50400 25.97800
H  43.43100 10.09500 26.98500
H  40.35400 9.23000 34.73900
H  37.58600 8.73700 34.20000
H  38.82000 6.17300 33.79100
H  38.15500 6.75100 35.32700
H  39.82200 6.86600 35.09900
H  38.15300 11.13300 33.83300
H  39.71200 11.67900 34.17800
H  38.73600 10.28100 36.57800
H  37.76000 11.57500 36.12200
H  35.35200 5.63700 31.43300
H  34.97300 4.77200 29.93700
H  34.35700 6.35800 30.26600
H  33.87500 6.32600 27.83600
H  34.26800 4.57900 27.93300
H  33.70200 5.19000 26.45800
H  39.87800 7.91100 24.40300
H  42.50900 8.51600 25.29600
H  42.32000 6.34200 24.63100
H  40.67800 5.87100 24.20300
H  41.21000 5.71900 25.85000
H  41.02700 9.94300 23.68900
H  41.83100 10.92500 24.94300
H  39.88200 11.84700 25.41600
H  39.19300 10.16700 25.79100
H  39.20000 10.81200 24.15600
H  45.25800 12.25000 29.51000
H  45.20100 11.28400 28.01300
H  45.96600 10.56900 29.40500
H  41.98800 11.73900 33.55900
H  42.84500 10.59900 37.62500
H  44.18400 10.20300 36.65400
H  43.01000 8.93100 36.80900
Mg 17.01700 52.24100 25.23100
C  18.87600 51.03300 28.08200
C  14.66600 53.26000 27.40900
C  15.29100 53.06600 22.58800
C  19.57300 50.90200 23.20700
N  16.94500 52.29900 27.47300
C  17.81500 51.85600 28.42300
C  17.33600 52.11400 29.84400
C  15.87600 52.71700 29.65000
C  15.81100 52.69800 28.12300
C  14.83800 51.88600 30.38400
C  18.34800 53.06900 30.64300
C  18.79700 52.62100 32.12200
H  17.85500 51.78100 32.95100
N  15.25100 53.06300 25.00500
C  14.40900 53.38100 26.03400
C  13.19600 53.96900 25.46800
C  13.27600 53.79700 24.06400
C  14.67300 53.29600 23.81500
C  12.06200 54.57400 26.27400
C  12.20100 54.08800 23.03000
O  12.38000 53.77700 21.81400
C  10.80800 54.58300 23.43600
N  17.29500 51.78500 23.21500
C  16.47100 52.33700 22.26900
C  16.87400 52.03100 20.79900
C  18.25500 51.44200 21.07700
C  18.38700 51.42400 22.58900
C  15.95500 50.99600 20.17100
C  19.31500 52.27500 20.42200
C  20.60200 51.65800 20.06500
N  18.74600 51.09100 25.49300
C  19.68300 50.59000 24.56700
C  20.72500 49.92800 25.27400
C  20.47300 50.07500 26.64900
C  19.23000 50.72500 26.73000
C  21.95500 49.45100 24.55600
C  21.00900 49.71200 27.97400
O  22.05900 49.11300 28.32400
C  19.91600 50.29400 28.96200
C  19.31400 49.12200 29.60200
O  19.01900 48.11400 29.06400
O  19.22800 49.25400 30.97800
C  18.77900 48.13400 31.77200
H  13.83500 53.54500 28.05800
H  14.71300 53.20400 21.67100
H  20.33400 50.40000 22.60700
H  17.26900 51.16500 30.37700
H  15.73600 53.70600 30.08500
H  14.07300 52.51900 30.83500
H  15.16600 51.27000 31.22100
H  14.20100 51.27300 29.74600
H  17.82000 54.02100 30.70400
H  19.28100 53.02700 30.08200
H  19.01000 53.46900 32.77400
H  19.59600 51.89600 31.96800
H  12.12400 55.62700 25.99900
H  12.16400 54.45000 27.35200
H  11.13800 54.04600 26.03700
H  10.93700 55.45200 24.08300
H  10.31800 53.79800 24.01300
H  10.28800 54.76700 22.49600
H  16.79900 52.87900 20.11700
H  18.28700 50.40000 20.75800
H  15.38900 50.46200 20.93400
H  16.44200 50.26900 19.52200
H  15.18600 51.47700 19.56700
H  19.46000 53.04800 21.17600
H  18.87700 52.75900 19.54900
H  20.62800 51.48500 18.99000
H  20.60500 50.63200 20.43500
H  21.43600 52.24800 20.44600
H  22.79300 49.25600 25.22500
H  22.36600 50.13200 23.81100
H  21.83700 48.48800 24.05900
H  20.26000 50.87100 29.82100
H  17.81600 47.69500 31.51400
H  18.79200 48.40700 32.82700
H  19.45100 47.27500 31.79900

