158

Mg 26.26300 0.78400 28.73700
C  28.09200 -0.05400 31.69800
C  23.52900 1.22600 30.66200
C  24.47300 0.84100 25.85600
C  29.11500 -0.30900 26.89700
N  25.93500 0.61900 30.92000
C  26.82400 0.41700 31.96500
C  26.22100 0.82900 33.32600
C  24.71800 1.01000 32.95300
C  24.71000 0.95300 31.42700
C  23.77000 -0.00800 33.71200
C  27.03400 1.98200 33.93200
C  27.55100 1.71000 35.31000
H  27.49500 2.81800 36.27600
N  24.24500 1.00500 28.33900
C  23.29200 1.23900 29.22200
C  22.03100 1.43300 28.50000
C  22.29400 1.23300 27.14300
C  23.70000 1.09700 27.06100
C  20.73500 1.71800 29.25000
C  21.36200 1.24500 25.93800
O  21.71100 1.11500 24.77300
C  19.89000 1.49800 26.24600
N  26.76900 0.30800 26.70500
C  25.85800 0.75300 25.69200
C  26.53700 0.58700 24.29900
C  28.06200 0.51500 24.69300
C  27.99000 0.09400 26.15800
C  26.02700 -0.65700 23.45400
C  28.90400 1.79800 24.34600
C  29.28500 1.90400 22.85400
N  28.14300 -0.00800 29.11300
C  29.18900 -0.47300 28.29200
C  30.28100 -0.95500 29.11800
C  29.90500 -0.72900 30.38700
C  28.63300 -0.21100 30.38800
C  31.58400 -1.35300 28.59400
C  30.37900 -0.86100 31.72500
O  31.41600 -1.24700 32.18000
C  29.22700 -0.44200 32.71600
C  28.83600 -1.42600 33.78300
O  27.95100 -2.22500 33.78600
O  29.62400 -1.21800 34.91100
C  29.39200 -2.11500 35.99100
H  22.85000 1.75200 31.33600
H  23.96400 1.02300 24.90700
H  30.07400 -0.52700 26.42200
H  26.43800 -0.04800 33.93700
H  24.41000 2.03700 33.14700
H  24.42400 -0.72100 34.21500
H  23.15700 -0.50200 32.95900
H  23.18100 0.53900 34.44800
H  26.47100 2.91400 33.88800
H  27.93400 2.10900 33.33000
H  28.60000 1.44700 35.17400
H  27.13100 0.80800 35.75600
H  19.98900 0.92500 29.21900
H  20.41100 2.74400 29.07400
H  21.11600 1.81600 30.26700
H  19.48700 0.94100 27.09200
H  19.38700 1.18200 25.33300
H  19.76300 2.54500 26.52100
H  26.25600 1.50500 23.78300
H  28.63400 -0.27900 24.21300
H  26.71000 -1.47600 23.23100
H  25.46900 -0.26900 22.60100
H  25.17200 -0.99400 24.03900
H  29.74700 1.93200 25.02300
H  28.29000 2.66200 24.59700
H  28.88800 1.14600 22.17900
H  30.36000 1.77200 22.73300
H  28.88300 2.83900 22.46500
H  32.34900 -1.10000 29.32800
H  31.91200 -0.77700 27.72900
H  31.55400 -2.42500 28.39900
H  29.67200 0.35900 33.30500
H  28.44500 -1.82000 36.44200
H  30.24400 -2.10900 36.67200
H  29.32400 -3.16100 35.69300
Mg -2.20300 35.18000 26.58400
C  -3.71500 33.33600 29.21600
C  -0.67400 37.14500 28.72200
C  -1.39200 36.94200 23.92200
C  -4.06800 32.96400 24.42100
N  -2.27100 35.24900 28.74700
C  -2.94500 34.43600 29.62500
C  -2.53800 34.80300 31.04500
C  -1.59000 36.05000 30.84300
C  -1.40100 36.11200 29.30500
C  -2.10900 37.39600 31.51000
C  -1.81700 33.59100 31.74600
C  -2.46300 32.86400 32.93500
H  -1.70700 32.89100 34.30700
N  -1.09200 36.77700 26.30700
C  -0.50600 37.48700 27.33500
C  0.21000 38.58100 26.73400
C  0.05900 38.49800 25.36300
C  -0.79200 37.32300 25.13300
C  0.89200 39.59600 27.60800
C  0.65800 39.36200 24.28300
O  0.55400 39.08100 23.09500
C  1.45900 40.58900 24.54400
N  -2.62400 34.96200 24.50500
C  -2.22900 35.89300 23.59400
C  -2.67800 35.60300 22.12900
C  -3.40400 34.21700 22.36400
C  -3.30600 34.00400 23.83800
C  -3.54200 36.70500 21.53900
C  -2.89500 32.96600 21.63000
C  -1.54300 32.35300 22.12000
N  -3.71200 33.51600 26.79400
C  -4.30600 32.74000 25.78400
C  -5.13300 31.69500 26.39100
C  -4.92500 31.93800 27.76000
C  -4.02400 32.98400 27.95100
C  -5.82800 30.65200 25.66100
C  -5.17100 31.38100 29.08800
O  -5.74300 30.36500 29.51000
C  -4.48200 32.37200 30.03400
C  -5.59300 33.02700 30.81300
O  -6.10300 34.10200 30.55600
O  -5.84200 32.29800 31.95100
C  -6.79500 32.93000 32.91200
H  -0.14100 37.71200 29.48800
H  -1.17400 37.57400 23.05800
H  -4.55100 32.24600 23.75600
H  -3.40700 35.13300 31.61500
H  -0.58500 35.82200 31.19900
H  -3.12100 37.27600 31.89900
H  -2.17400 38.13600 30.71300
H  -1.54300 37.73500 32.37700
H  -0.87000 33.93200 32.16300
H  -1.71700 32.68400 31.14900
H  -2.76900 31.84600 32.69300
H  -3.37400 33.45900 33.00600
H  1.17800 39.13800 28.55500
H  0.24900 40.46200 27.76300
H  1.84600 39.95700 27.22300
H  1.50600 41.21100 23.65000
H  2.49700 40.39000 24.80900
H  1.01700 41.20100 25.33000
H  -1.86600 35.55300 21.40300
H  -4.44100 34.34000 22.05300
H  -3.09200 37.10400 20.63000
H  -3.65600 37.45600 22.32100
H  -4.49700 36.26800 21.24800
H  -2.74900 33.32800 20.61200
H  -3.69000 32.22400 21.55800
H  -1.68400 31.27700 22.02000
H  -1.25200 32.62700 23.13400
H  -0.77300 32.68600 21.42400
H  -5.17900 30.14500 24.94700
H  -6.63500 31.16700 25.13800
H  -6.25200 29.93500 26.36300
H  -3.77300 31.80100 30.63400
H  -7.29900 32.17600 33.51700
H  -7.56900 33.49000 32.38600
H  -6.22200 33.54900 33.60200

