158

Mg 8.35600 2.36100 27.93600
C  10.12400 1.25800 30.61900
C  6.45200 4.38300 29.90800
C  7.03300 3.57000 25.23900
C  10.03400 -0.09400 25.96900
N  8.21100 2.70500 30.08100
C  9.14000 2.21700 31.00900
C  8.89400 2.75100 32.39800
C  7.46800 3.53600 32.16400
C  7.40300 3.63100 30.65500
C  6.18500 2.92600 32.76500
C  9.99300 3.64900 32.89600
C  9.72000 4.39900 34.24500
H  10.60000 4.07700 35.50600
N  6.91900 3.82000 27.64800
C  6.16200 4.52800 28.57200
C  5.28800 5.47200 27.96800
C  5.58200 5.36800 26.55100
C  6.55100 4.20000 26.42200
C  4.23100 6.21800 28.78200
C  4.95000 6.16400 25.41000
O  5.33600 6.06400 24.29600
C  3.92800 7.33300 25.78200
N  8.54600 1.83800 25.89800
C  7.86900 2.55100 24.98300
C  7.96300 1.90700 23.53100
C  9.11300 0.91300 23.75200
C  9.13500 0.76800 25.27800
C  6.58800 1.22000 23.13000
C  10.54700 1.31700 23.14300
C  11.20700 0.16100 22.40000
N  9.66700 0.85500 28.19500
C  10.23000 -0.08400 27.34800
C  11.05800 -1.00700 28.02500
C  11.08600 -0.49300 29.35200
C  10.26900 0.63300 29.36600
C  11.80000 -2.21600 27.48000
C  11.80800 -0.62900 30.66900
O  12.75000 -1.29200 31.12400
C  11.10400 0.53000 31.59400
C  10.55400 -0.18600 32.71200
O  9.48900 -0.76500 32.67900
O  11.34200 -0.08800 33.81900
C  10.76800 -0.43400 35.11300
H  5.85900 5.01700 30.57100
H  6.56500 4.02500 24.36400
H  10.47600 -0.92700 25.41800
H  8.73300 1.98600 33.15800
H  7.57200 4.55300 32.54200
H  6.31700 2.31200 33.65600
H  5.66300 2.21300 32.12600
H  5.50600 3.72000 33.07600
H  10.17800 4.28700 32.03100
H  10.91300 3.08300 33.04300
H  8.68100 4.28100 34.55200
H  9.78100 5.46400 34.01900
H  4.12100 5.78300 29.77500
H  3.26200 6.06400 28.30700
H  4.39900 7.29500 28.74900
H  3.04100 6.89000 26.23300
H  3.53600 7.86900 24.91800
H  4.48900 8.00900 26.42700
H  8.34100 2.58800 22.76800
H  8.73000 -0.01800 23.33200
H  5.74600 1.49800 23.76400
H  6.47000 0.14300 23.24700
H  6.43700 1.66200 22.14500
H  11.22500 1.80200 23.84500
H  10.35900 2.00300 22.31700
H  12.13000 -0.05000 22.94000
H  11.55800 0.45000 21.40900
H  10.54000 -0.69000 22.26200
H  11.17400 -3.03100 27.11400
H  12.36600 -2.53600 28.35400
H  12.51900 -1.79700 26.77600
H  11.71700 1.30400 32.05400
H  10.03500 -1.23000 34.97900
H  10.45000 0.41500 35.71700
H  11.65700 -0.77100 35.64600
Mg 17.65100 51.06900 26.54400
C  19.42400 50.29400 29.38500
C  15.07700 52.10100 28.40400
C  16.22100 52.10200 23.65300
C  20.17600 49.43900 24.69700
N  17.34700 51.13300 28.70100
C  18.23000 50.85600 29.69800
C  17.61300 51.13800 31.08900
C  16.11900 51.28800 30.62200
C  16.10500 51.50000 29.13200
C  15.10200 50.18500 31.15200
C  18.18700 52.43200 31.80200
C  18.38700 52.37300 33.39300
H  17.56500 51.44500 34.26100
N  16.01100 52.06200 26.12800
C  15.00000 52.41200 27.01200
C  14.03200 53.25300 26.28000
C  14.39800 53.33200 24.92900
C  15.66800 52.50500 24.87100
C  12.91400 53.95200 26.98900
C  13.78500 54.15500 23.85200
O  14.24400 54.29800 22.73900
C  12.53400 54.94600 24.10500
N  18.20200 50.79300 24.47100
C  17.35400 51.28300 23.46700
C  18.00500 51.06100 22.07800
C  19.13600 50.04500 22.51100
C  19.14400 50.06800 23.95100
C  17.06500 50.44100 21.04100
C  20.54900 50.30200 21.85300
C  21.35100 51.57400 22.41300
N  19.42400 50.07700 26.91800
C  20.35300 49.50500 26.05500
C  21.45000 48.90300 26.76100
C  21.12800 49.20500 28.10000
C  19.91300 49.94500 28.14300
C  22.66500 48.15700 26.34600
C  21.59200 49.10500 29.52100
O  22.61300 48.65000 30.03700
C  20.44000 49.75100 30.35100
C  19.84700 48.65100 31.12900
O  18.83500 48.04000 30.77500
O  20.62000 48.41600 32.27600
C  20.07100 47.32600 33.14300
H  14.22800 52.49800 28.96500
H  15.66300 52.36200 22.75100
H  20.97200 48.95200 24.12900
H  17.69800 50.26800 31.74000
H  15.60400 52.18300 30.97000
H  14.24900 50.61800 31.67500
H  15.64000 49.65600 31.93800
H  14.74500 49.44900 30.43200
H  17.45700 53.23100 31.66700
H  19.15100 52.63000 31.33200
H  18.26500 53.34900 33.86200
H  19.44700 52.14600 33.50800
H  11.92100 53.84800 26.55300
H  13.19000 55.00600 27.03600
H  12.84300 53.61300 28.02300
H  11.85200 54.25400 24.59900
H  11.98500 55.21600 23.20200
H  12.77400 55.76400 24.78400
H  18.62400 51.86700 21.68400
H  18.70400 49.06100 22.33200
H  16.88800 51.25100 20.33300
H  16.05900 50.23300 21.40600
H  17.48800 49.55600 20.56600
H  20.45700 50.58300 20.80400
H  20.98500 49.30400 21.81400
H  21.77700 52.10100 21.55900
H  22.05200 51.14500 23.12900
H  20.57700 52.03600 23.02500
H  23.46600 48.89300 26.27300
H  22.39300 47.81200 25.34800
H  22.95300 47.24200 26.86400
H  20.82300 50.45100 31.09400
H  19.17700 47.74400 33.60600
H  20.83700 47.12800 33.89300
H  19.75600 46.42700 32.61300

