158

Mg 2.35300 -1.12600 43.56700
C  5.69200 -0.56500 42.91400
C  1.71700 1.56800 41.33700
C  -0.85600 -1.95300 43.44700
C  3.15000 -4.15600 45.06900
N  3.59400 0.25700 42.23200
C  4.95400 0.34400 42.16300
C  5.49900 1.45400 41.22600
C  4.17300 2.20400 40.94500
C  3.03200 1.29300 41.50300
C  4.23300 3.59400 41.55700
C  6.11400 0.71600 39.94700
C  7.67300 0.77000 39.76900
H  8.38500 1.41200 38.57800
N  0.56600 -0.15400 42.75500
C  0.53300 0.93600 41.87600
C  -0.83900 1.15700 41.56400
C  -1.64500 0.23400 42.35000
C  -0.67400 -0.62000 42.98200
C  -1.30700 2.14400 40.60000
C  -3.14300 0.23000 42.43200
O  -3.78200 0.97500 41.74200
C  -3.89100 -0.63700 43.43400
N  1.32000 -2.76800 44.13300
C  -0.04700 -2.91900 43.98800
C  -0.64300 -4.24700 44.51700
C  0.61100 -4.82200 45.20700
C  1.76400 -3.90300 44.78000
C  -1.85700 -4.15000 45.48200
C  1.04400 -6.27600 44.77200
C  1.59600 -7.16000 45.89900
N  4.04900 -2.18500 43.97700
C  4.25000 -3.44300 44.62500
C  5.69100 -3.62300 44.80200
C  6.23900 -2.45500 44.24500
C  5.25000 -1.69700 43.66800
C  6.36600 -4.80300 45.41000
C  7.50300 -1.88200 44.02100
O  8.62500 -2.39000 44.28600
C  7.27500 -0.64400 43.16500
C  7.77200 0.55800 43.85000
O  7.35800 0.94300 44.95700
O  8.85700 1.13800 43.14600
C  9.53100 2.28400 43.90200
H  1.49600 2.36700 40.62700
H  -1.88000 -2.33100 43.41400
H  3.47700 -5.03900 45.62200
H  6.27400 1.97500 41.78800
H  3.97400 2.31500 39.87900
H  4.00400 3.48000 42.61600
H  3.34100 4.08600 41.16900
H  5.12000 4.21800 41.44800
H  5.81700 1.19600 39.01400
H  5.74900 -0.31100 39.94200
H  8.16300 -0.18900 39.94000
H  8.05600 1.41500 40.56000
H  -0.47900 2.35100 39.92200
H  -1.53000 2.92800 41.32400
H  -2.24400 1.88500 40.10800
H  -4.82300 -0.11200 43.64100
H  -3.43200 -0.76300 44.41500
H  -4.07600 -1.62100 43.00300
H  -0.83300 -4.82300 43.61200
H  0.64800 -4.76300 46.29400
H  -2.10600 -3.08900 45.47100
H  -1.61300 -4.49900 46.48500
H  -2.72300 -4.67300 45.07600
H  1.75700 -6.23400 43.94800
H  0.17100 -6.75400 44.32700
H  1.19400 -8.17300 45.90000
H  1.43600 -6.70600 46.87700
H  2.65200 -7.23100 45.64200
H  6.45500 -5.67700 44.76500
H  5.87100 -4.93300 46.37300
H  7.38000 -4.48000 45.64400
H  7.74800 -0.92700 42.22500
H  10.41600 1.92100 44.42400
H  8.84500 2.73000 44.62200
H  9.93100 2.97900 43.16400
Mg 26.68000 50.14000 26.97000
C  24.74500 51.29100 29.61300
C  29.10700 49.10600 29.16400
C  28.78300 49.29200 24.31100
C  24.35400 51.34600 24.71700
N  26.87100 50.28700 29.16800
C  25.99000 50.78000 30.04000
C  26.43000 50.44000 31.52700
C  27.88900 49.96800 31.33400
C  27.99500 49.77800 29.79700
C  29.01700 50.82900 31.86000
C  25.46500 49.38800 32.18500
C  24.54200 50.10000 33.22400
H  24.40700 49.63400 34.74600
N  28.55100 49.17900 26.76100
C  29.43100 48.83000 27.79000
C  30.71300 48.33700 27.28700
C  30.70400 48.46100 25.87500
C  29.24400 49.02000 25.58900
C  31.74700 47.72900 28.11000
C  31.78800 48.18300 24.94800
O  31.59400 48.08700 23.70200
C  33.16400 48.04600 25.49000
N  26.59000 50.32100 24.77600
C  27.52100 49.83500 23.93000
C  27.02200 49.85700 22.42600
C  25.51600 50.38800 22.59200
C  25.42300 50.60000 24.12000
C  27.91800 50.60900 21.44600
C  24.40100 49.36000 22.14000
C  24.17900 48.08700 22.97600
N  24.93300 51.17900 27.09400
C  24.10100 51.64000 26.11600
C  22.93600 52.20300 26.71800
C  23.11100 52.06100 28.14000
C  24.35500 51.40200 28.30000
C  21.85200 52.78800 25.98700
C  22.53800 52.40100 29.42000
O  21.54800 53.04400 29.68100
C  23.57300 51.86400 30.44900
C  23.86000 52.94300 31.38600
O  24.86000 53.63800 31.34400
O  22.86300 53.17800 32.28300
C  23.23100 54.29500 33.24000
H  29.94600 48.94200 29.84300
H  29.38100 48.94300 23.46700
H  23.62000 51.63100 23.96000
H  26.43000 51.35200 32.12300
H  28.01200 48.98900 31.79600
H  29.82000 50.09200 31.88400
H  29.01700 51.28900 32.84800
H  29.11400 51.62500 31.12100
H  26.11900 48.62000 32.59800
H  24.86100 48.86700 31.44200
H  23.56900 49.92400 32.76600
H  24.64100 51.18500 33.26800
H  31.32000 47.53000 29.09300
H  32.49400 48.51700 28.21100
H  32.33200 46.90000 27.71200
H  33.25100 48.77500 26.29500
H  33.85900 48.08000 24.65000
H  33.13200 47.02200 25.86200
H  26.95100 48.83600 22.05100
H  25.47600 51.33200 22.04800
H  27.39400 51.39100 20.89700
H  28.33500 49.82800 20.81000
H  28.77100 50.97900 22.01500
H  24.63200 49.00900 21.13400
H  23.46600 49.90600 22.01200
H  23.16600 48.17100 23.37000
H  24.74500 47.93500 23.89500
H  24.28000 47.17400 22.38900
H  21.80200 52.45100 24.95200
H  22.02400 53.85900 26.09900
H  20.98300 52.48700 26.57200
H  23.02300 51.14800 31.05900
H  23.51300 55.16800 32.65200
H  24.13300 54.03800 33.79500
H  22.30700 54.54100 33.76400

