158

Mg 35.85300 1.06100 29.53400
C  33.70200 2.27000 32.19400
C  38.48700 1.50400 31.70600
C  37.97000 0.39000 27.03000
C  33.24600 1.66400 27.31500
N  36.03500 1.88200 31.75100
C  35.05500 2.18700 32.64900
C  35.64900 2.24700 34.04900
C  37.20500 2.31000 33.79000
C  37.25800 1.90500 32.29600
C  37.87100 3.69200 34.08700
C  35.18300 1.04800 34.97100
C  35.23100 1.32000 36.53000
H  36.29100 2.27400 37.11800
N  37.92500 0.86600 29.40300
C  38.82300 1.02500 30.44100
C  40.08500 0.52300 29.95900
C  39.99000 0.18400 28.56000
C  38.60800 0.57700 28.26300
C  41.23100 0.25500 30.92800
C  41.09100 -0.29300 27.50900
O  40.79100 -0.39300 26.31500
C  42.45400 -0.57200 27.98900
N  35.63400 1.07200 27.59200
C  36.58700 0.57400 26.64500
C  36.01600 0.48100 25.18900
C  34.59400 0.56500 25.47800
C  34.47600 1.23000 26.86200
C  36.61200 1.55500 24.22800
C  33.80700 -0.76200 25.33700
C  32.65500 -0.82500 24.36900
N  33.87100 1.62900 29.71900
C  32.97900 1.94900 28.69500
C  31.68200 2.34900 29.26100
C  31.90000 2.44300 30.62500
C  33.23100 2.04600 30.84900
C  30.40600 2.45400 28.50900
C  31.24500 2.67100 31.88800
O  30.10500 3.04400 32.11300
C  32.42000 2.50400 33.00100
C  32.41800 3.68200 33.89200
O  32.36600 4.85700 33.47600
O  32.47600 3.29300 35.18300
C  32.88800 4.35900 36.08200
H  39.27200 1.41000 32.46000
H  38.53500 0.17300 26.12100
H  32.39000 1.69100 26.63800
H  35.25600 3.20600 34.38600
H  37.60600 1.55900 34.47100
H  37.08900 4.45100 34.05700
H  38.53600 3.83200 33.23500
H  38.32600 3.64000 35.07700
H  35.62100 0.09300 34.67800
H  34.12600 0.86900 34.77800
H  35.19700 0.34200 37.01000
H  34.28500 1.82400 36.72800
H  41.37600 -0.82500 30.95100
H  40.85700 0.39400 31.94200
H  42.08400 0.89300 30.69400
H  42.43700 -1.41000 28.68600
H  42.94700 0.33200 28.34700
H  42.91900 -1.01000 27.10700
H  36.25300 -0.49900 24.77400
H  34.19500 1.27500 24.75500
H  37.61000 1.86300 24.53700
H  35.85700 2.33400 24.12000
H  36.72600 1.04400 23.27200
H  33.40100 -0.95800 26.32900
H  34.44300 -1.63700 25.20700
H  31.74600 -0.70400 24.95800
H  32.71400 -1.76900 23.82600
H  32.58400 -0.01400 23.64400
H  30.42500 1.58100 27.85700
H  30.32300 3.32800 27.86300
H  29.59200 2.48200 29.23400
H  32.14400 1.62500 33.58300
H  32.03000 5.01400 36.23300
H  33.62400 5.02500 35.63100
H  33.39100 3.92300 36.94500
Mg -11.91400 37.73000 42.20400
C  -9.20800 35.42900 41.85300
C  -9.95900 40.14900 40.56000
C  -14.59000 39.77200 41.98200
C  -13.94400 34.94000 42.97300
N  -9.91100 37.68800 41.12200
C  -8.98200 36.68800 41.30500
C  -7.65500 37.18200 40.75400
C  -7.82500 38.70000 40.63200
C  -9.33000 38.91000 40.78200
C  -6.91600 39.48200 41.60000
C  -7.22900 36.55800 39.40000
C  -5.69600 36.39400 39.24500
H  -5.07000 37.21800 38.12800
N  -12.23900 39.74500 41.47100
C  -11.29800 40.57100 40.90500
C  -11.86400 41.88700 40.64300
C  -13.29200 41.78200 40.90900
C  -13.47400 40.39000 41.47000
C  -11.23700 43.02500 39.93800
C  -14.35400 42.84100 40.50800
O  -14.02600 43.98000 40.12700
C  -15.79000 42.63400 40.59100
N  -13.90100 37.40200 42.34400
C  -14.79400 38.45900 42.46400
C  -16.11100 38.01400 43.03200
C  -15.91000 36.47700 43.24700
C  -14.48100 36.21300 42.76700
C  -16.56700 38.67500 44.30700
C  -16.89800 35.52700 42.42800
C  -18.07200 35.01100 43.28800
N  -11.69600 35.56000 42.56400
C  -12.58400 34.60200 42.89100
C  -11.85400 33.40200 43.17200
C  -10.51500 33.61600 42.78600
C  -10.49700 34.94300 42.40100
C  -12.43500 32.08900 43.66800
C  -9.19100 33.13400 42.81000
O  -8.73100 32.13000 43.25500
C  -8.22900 34.25700 42.16100
C  -7.18200 34.57700 43.13600
O  -6.01500 34.71600 42.89400
O  -7.70700 34.74500 44.40300
C  -6.65000 35.22900 45.35700
H  -9.24700 40.90200 40.21500
H  -15.46300 40.42600 42.03900
H  -14.62400 34.16900 43.34100
H  -6.90100 36.84800 41.46600
H  -7.47800 39.08600 39.67300
H  -6.13900 38.83400 42.00700
H  -7.52100 39.88400 42.41300
H  -6.41900 40.35100 41.17000
H  -7.57300 37.08400 38.51000
H  -7.61300 35.54400 39.29200
H  -5.39500 35.34700 39.26100
H  -5.25000 36.82600 40.14100
H  -11.57600 43.93600 40.43100
H  -11.42100 43.03400 38.86400
H  -10.14900 43.05100 39.99300
H  -16.31700 43.50500 40.20300
H  -16.09100 42.51200 41.63100
H  -16.05700 41.72700 40.04900
H  -16.87900 38.24200 42.29400
H  -15.83000 36.18000 44.29300
H  -16.74300 37.87900 45.03000
H  -17.40300 39.33100 44.06400
H  -15.81700 39.30700 44.78100
H  -16.48700 34.66400 41.90300
H  -17.39200 36.15000 41.68200
H  -18.19700 33.93800 43.14300
H  -19.03500 35.39900 42.95600
H  -17.89900 35.20300 44.34700
H  -12.49500 31.29400 42.92400
H  -13.41900 32.25700 44.10400
H  -11.75400 31.73800 44.44400
H  -7.74900 33.89600 41.25100
H  -7.18000 35.42000 46.29000
H  -6.21900 36.18600 45.06200
H  -5.95000 34.50200 45.76800

