158

Mg 35.49000 0.79400 29.91800
C  33.28100 2.15700 32.18700
C  37.92000 1.15500 32.39100
C  37.78800 -0.36900 27.77100
C  33.16600 0.91300 27.41700
N  35.57800 1.52000 32.03700
C  34.48500 1.92400 32.76500
C  34.82800 2.11800 34.23400
C  36.37000 2.14900 34.14700
C  36.66100 1.65800 32.72100
C  37.04600 3.40000 34.53500
C  34.15700 0.92800 34.89500
C  33.49700 1.30200 36.18500
H  34.24400 2.22100 37.15500
N  37.55400 0.47400 29.97600
C  38.37900 0.67500 31.10000
C  39.67100 0.14700 30.84700
C  39.70000 -0.19600 29.44000
C  38.31600 -0.04500 28.96300
C  40.73100 -0.22200 31.85800
C  40.83100 -0.73800 28.57100
O  40.63500 -1.13400 27.44200
C  42.27800 -0.85900 29.15900
N  35.45200 0.32800 27.89300
C  36.53500 -0.25800 27.22500
C  36.20100 -0.51500 25.76100
C  34.66900 -0.28600 25.71100
C  34.39500 0.30700 27.15200
C  37.06100 0.46800 24.89400
C  33.69500 -1.37300 25.27900
C  33.31300 -2.39900 26.30300
N  33.58200 1.41800 29.70600
C  32.69400 1.34500 28.67200
C  31.50100 1.99500 29.11500
C  31.61400 2.24500 30.53300
C  32.95800 1.93700 30.85200
C  30.31300 2.42800 28.20300
C  30.94800 2.88100 31.66100
O  29.83400 3.47300 31.73500
C  31.99900 2.67300 32.87700
C  32.22600 4.00900 33.54500
O  32.79800 5.00500 33.08200
O  31.50800 4.02600 34.69600
C  31.63800 5.25900 35.46100
H  38.67500 1.29700 33.16700
H  38.49800 -0.64200 26.98700
H  32.43600 0.90800 26.60500
H  34.41300 3.05500 34.60600
H  36.71700 1.32200 34.76700
H  37.75600 3.22200 35.34200
H  36.27400 4.02300 34.98600
H  37.34000 3.90600 33.61500
H  34.86900 0.17100 35.22500
H  33.54200 0.29300 34.25700
H  33.25600 0.33700 36.63200
H  32.50900 1.69700 35.94600
H  40.64700 -1.28800 32.06900
H  40.76800 0.38300 32.76400
H  41.73300 0.01300 31.50000
H  42.53400 0.11100 29.58500
H  42.87200 -1.11100 28.28000
H  42.34300 -1.76900 29.75600
H  36.44300 -1.56900 25.62300
H  34.48600 0.57900 25.07400
H  38.13900 0.45000 25.05500
H  36.67300 1.47900 25.01600
H  36.78000 0.21300 23.87200
H  34.02300 -1.88800 24.37600
H  32.75900 -0.88600 25.00300
H  33.79300 -2.26900 27.27300
H  33.48100 -3.39100 25.88400
H  32.24300 -2.29700 26.48500
H  29.69700 3.12300 28.77400
H  29.86400 1.52100 27.79900
H  30.81900 2.90200 27.36300
H  31.69000 1.93200 33.61500
H  32.68000 5.22700 35.77800
H  30.96200 5.22600 36.31600
H  31.40000 6.11600 34.83100
Mg 46.83000 24.32600 27.35800
C  47.82200 26.27800 30.02400
C  46.12800 21.87900 29.69500
C  46.26500 22.16900 24.78700
C  47.91800 26.67300 25.13000
N  46.96100 24.09900 29.60200
C  47.32800 25.07700 30.49400
C  46.93900 24.68100 31.94000
C  46.64000 23.14600 31.81600
C  46.53800 23.03500 30.26800
C  47.68900 22.33300 32.40700
C  45.89400 25.52300 32.65200
C  45.48900 25.01600 34.06000
H  46.02300 25.76200 35.29500
N  46.23800 22.30100 27.29800
C  46.02400 21.42300 28.35500
C  45.87900 20.14100 27.79700
C  45.90400 20.20300 26.39800
C  46.03900 21.60500 26.09400
C  45.64500 18.88500 28.78200
C  45.99100 19.05500 25.46600
O  46.05500 19.18900 24.24100
C  45.99400 17.57100 26.03200
N  46.97000 24.40900 25.26500
C  46.69800 23.39200 24.45000
C  46.95100 23.82300 22.96100
C  47.36200 25.23600 23.04100
C  47.37500 25.49300 24.53800
C  48.00100 22.89200 22.24900
C  46.31400 26.12000 22.29900
C  44.93200 26.21800 22.90700
N  47.67100 26.16800 27.47300
C  48.06000 27.05500 26.44600
C  48.64100 28.20700 27.05700
C  48.53500 27.98000 28.47800
C  47.96300 26.70000 28.67800
C  49.31200 29.32700 26.43300
C  48.83000 28.51400 29.78200
O  49.38000 29.52300 30.10700
C  48.22400 27.47900 30.81000
C  49.25100 27.15300 31.74900
O  50.05600 26.25100 31.79200
O  49.08400 27.95700 32.84400
C  49.79100 27.55500 34.09200
H  45.83800 21.12600 30.43000
H  46.14100 21.45100 23.97400
H  48.17600 27.40400 24.36000
H  47.89000 24.78400 32.46200
H  45.71700 22.80600 32.28600
H  48.10700 22.78400 33.30700
H  48.51300 22.16100 31.71400
H  47.25900 21.36000 32.64200
H  45.02200 25.64000 32.00800
H  46.32000 26.52400 32.72200
H  45.78800 23.97900 34.21300
H  44.41200 25.17100 34.12500
H  46.44300 18.14300 28.73700
H  44.69600 18.43200 28.49300
H  45.43100 19.13400 29.82100
H  45.04100 17.48700 26.55400
H  46.88400 17.33500 26.61400
H  45.93100 16.93500 25.14900
H  46.02500 23.79700 22.38700
H  48.34700 25.45000 22.62700
H  47.57500 22.51300 21.32000
H  48.34300 22.01800 22.80200
H  48.83700 23.52000 21.93900
H  46.29700 25.85100 21.24300
H  46.71900 27.12700 22.20100
H  44.23200 25.99900 22.10100
H  44.69500 27.25400 23.14900
H  44.75400 25.50400 23.71200
H  49.18600 30.20500 27.06600
H  48.76100 29.45700 25.50200
H  50.38200 29.18900 26.28000
H  47.41800 28.07900 31.23200
H  49.71800 26.46900 34.14800
H  49.19300 27.99800 34.89000
H  50.83700 27.86100 34.11200

