158

Mg 44.04400 42.32700 26.09300
C  43.07900 44.62800 28.64000
C  45.29300 40.36900 28.48300
C  45.09900 40.45100 23.75500
C  43.38400 44.98000 23.77500
N  44.02400 42.56900 28.34800
C  43.65100 43.49600 29.22700
C  43.87900 43.09200 30.71100
C  44.85300 41.88200 30.49300
C  44.74400 41.55200 28.98700
C  46.31100 42.07300 31.02000
C  42.46200 42.80000 31.34500
C  42.11200 43.28200 32.73500
H  43.28700 43.47900 33.79900
N  44.99100 40.52800 26.11500
C  45.37900 39.84000 27.20700
C  45.81800 38.56000 26.80400
C  45.76100 38.53100 25.38100
C  45.22500 39.84200 25.01800
C  46.20500 37.45900 27.69600
C  46.27500 37.53600 24.42300
O  46.08800 37.63100 23.17800
C  46.97700 36.33600 24.89900
N  44.40600 42.78000 24.08000
C  44.80500 41.77200 23.35400
C  44.79400 42.13900 21.82800
C  44.13100 43.55400 21.83500
C  44.01500 43.79900 23.34000
C  46.11200 42.04800 21.11200
C  42.76300 43.57400 21.07100
C  41.72600 42.64600 21.63400
N  43.31500 44.37800 26.17800
C  43.11000 45.27100 25.15100
C  42.54900 46.53700 25.64800
C  42.53100 46.28800 27.00800
C  43.02200 44.97600 27.28400
C  42.05700 47.74300 24.88600
C  42.18700 46.87000 28.28800
O  41.63000 47.92600 28.52000
C  42.49400 45.82000 29.38900
C  43.38300 46.41500 30.49700
O  44.60300 46.66400 30.46500
O  42.59700 46.71400 31.54900
C  43.23800 47.15600 32.77400
H  45.74300 39.76300 29.27200
H  45.13800 39.73900 22.92800
H  43.12200 45.73200 23.02800
H  44.34500 43.95900 31.18000
H  44.47800 40.97600 30.96900
H  46.42000 43.10200 31.36400
H  47.02500 42.00600 30.20000
H  46.55000 41.39500 31.83900
H  42.24500 41.74100 31.20100
H  41.77600 43.32900 30.68500
H  41.39200 42.63400 33.23600
H  41.64900 44.26800 32.72600
H  47.25500 37.22700 27.51500
H  45.51300 36.62500 27.57900
H  46.21400 37.81300 28.72700
H  47.85400 36.56000 25.50700
H  47.10600 35.60500 24.10100
H  46.22500 35.77600 25.45500
H  44.08400 41.51200 21.28900
H  44.86800 44.19700 21.35400
H  46.10000 41.24200 20.37800
H  46.93800 41.97200 21.82000
H  46.25200 42.95100 20.51900
H  42.87100 43.41200 19.99800
H  42.40800 44.59900 21.17300
H  42.17600 41.91700 22.30800
H  41.28400 42.02400 20.85500
H  40.93600 43.22500 22.11300
H  42.02700 47.40400 23.85000
H  42.86200 48.45500 25.06600
H  41.07300 48.14900 25.12200
H  41.54700 45.45900 29.79100
H  44.01400 47.86200 32.47600
H  43.67200 46.39200 33.42000
H  42.45600 47.59800 33.39100
Mg 17.41400 50.87400 26.34300
C  19.50100 49.64800 28.80700
C  14.93800 51.59500 28.62400
C  15.68200 51.96800 23.78200
C  20.08800 49.88200 24.09100
N  17.19100 50.61400 28.42400
C  18.21900 50.19800 29.25200
C  17.97800 50.50800 30.71700
C  16.40200 50.89100 30.61700
C  16.09700 51.05100 29.14400
C  15.48000 49.81300 31.23400
C  18.81800 51.61000 31.29000
C  18.86600 51.66100 32.87800
H  17.76500 51.04200 33.75200
N  15.49600 51.66800 26.20100
C  14.67700 51.97600 27.26300
C  13.61600 52.80100 26.79500
C  13.82700 52.95800 25.39100
C  14.97100 52.09300 25.05300
C  12.52900 53.33700 27.70600
C  12.99200 53.89800 24.38900
O  13.35600 53.94800 23.22200
C  11.73400 54.64500 24.85700
N  17.82500 50.83200 24.23100
C  16.86300 51.27800 23.39800
C  17.34900 51.10000 21.96800
C  18.83000 50.64600 22.01700
C  18.92700 50.43300 23.49200
C  16.34800 50.21500 21.24300
C  19.85400 51.83800 21.59300
C  20.67700 51.54400 20.27100
N  19.33700 49.82200 26.38300
C  20.25100 49.51300 25.41400
C  21.34600 48.82100 25.94400
C  21.13700 48.79800 27.31500
C  19.92100 49.49300 27.48300
C  22.49100 48.39200 25.15400
C  21.71300 48.49100 28.62300
O  22.74900 48.10800 28.99900
C  20.64000 49.02100 29.60900
C  20.29500 47.92600 30.61100
O  19.44800 47.11700 30.47600
O  21.01100 48.20400 31.70800
C  20.61400 47.46800 32.89600
H  14.22500 52.00200 29.34400
H  15.19600 52.40300 22.90600
H  20.93200 49.85100 23.39900
H  18.17400 49.68500 31.40400
H  16.25900 51.87600 31.06200
H  14.82800 49.34200 30.49800
H  14.94100 50.28700 32.05400
H  16.06000 48.96200 31.59100
H  18.50200 52.61100 30.99600
H  19.84000 51.50400 30.92500
H  19.11100 52.66100 33.23500
H  19.79500 51.09700 32.94800
H  11.63900 52.89800 27.25500
H  12.58400 54.42400 27.75300
H  12.65100 52.95500 28.72000
H  11.06000 54.04500 25.46800
H  11.19500 55.01600 23.98500
H  12.01300 55.54400 25.40600
H  17.36500 52.04900 21.43200
H  19.00700 49.69700 21.51000
H  16.01200 50.66600 20.31000
H  15.46000 50.15900 21.87200
H  16.70000 49.18400 21.23800
H  20.41200 52.29000 22.41300
H  19.28200 52.70800 21.27200
H  20.31900 50.66700 19.73200
H  21.75200 51.60800 20.43900
H  20.48200 52.37900 19.59800
H  23.19200 47.85500 25.79300
H  22.98500 49.18800 24.59600
H  22.13900 47.65700 24.43000
H  21.28300 49.74000 30.11500
H  19.56500 47.59300 33.16500
H  21.22700 47.90000 33.68800
H  20.88900 46.41800 32.78600

