158

Mg -1.96800 17.85600 27.30000
C  -2.46100 15.31400 29.70100
C  -2.87400 20.13100 29.69900
C  -2.37600 20.15300 24.91100
C  -2.05700 15.34400 24.94000
N  -2.46700 17.70900 29.51600
C  -2.53600 16.59900 30.30500
C  -2.72000 16.94400 31.80000
C  -3.06900 18.50200 31.69200
C  -2.72800 18.81400 30.24000
C  -4.50500 18.95800 32.18200
C  -1.52300 16.70100 32.71700
C  -1.80300 16.03900 34.07100
H  -0.85900 16.36100 35.29700
N  -2.27200 19.90600 27.34800
C  -2.62300 20.63100 28.43900
C  -2.71300 22.03600 28.09200
C  -2.43400 22.16700 26.68400
C  -2.33700 20.71400 26.19200
C  -3.01500 23.17600 29.03100
C  -2.15400 23.42800 25.84900
O  -1.84100 23.34700 24.67500
C  -2.01300 24.70200 26.54400
N  -2.04400 17.79200 25.23200
C  -2.32200 18.88000 24.45100
C  -2.40200 18.44200 22.95300
C  -2.27100 16.88600 23.02400
C  -2.01200 16.65100 24.49200
C  -3.68300 18.91700 22.17900
C  -1.13600 16.37500 22.11400
C  0.25600 16.34800 22.70100
N  -2.13700 15.74700 27.19200
C  -2.12000 14.88000 26.20800
C  -2.27300 13.52700 26.57200
C  -2.33100 13.59600 27.99000
C  -2.34300 14.98900 28.29400
C  -2.40700 12.26100 25.78100
C  -2.51800 12.89100 29.23900
O  -2.44600 11.61400 29.35600
C  -2.61600 13.95300 30.38900
C  -1.60800 13.48400 31.43100
O  -0.38800 13.66100 31.37800
O  -2.29800 12.75400 32.33600
C  -1.52900 12.23600 33.50000
H  -3.15400 20.87500 30.44900
H  -2.55700 20.90500 24.14000
H  -2.05000 14.57000 24.17000
H  -3.57700 16.41500 32.21700
H  -2.34600 19.19100 32.12900
H  -5.14900 19.05500 31.30800
H  -4.35000 19.87500 32.75000
H  -4.80800 18.19300 32.89700
H  -1.02200 17.66300 32.82800
H  -0.79900 16.11900 32.14600
H  -1.87600 14.95700 33.96800
H  -2.79700 16.36600 34.37700
H  -2.15400 23.82300 29.19500
H  -3.51500 22.96200 29.97600
H  -3.73400 23.74800 28.44500
H  -1.78900 25.50200 25.83800
H  -1.18700 24.54700 27.23800
H  -2.99200 25.00000 26.91700
H  -1.65800 18.93900 22.33100
H  -3.16900 16.33900 22.73800
H  -3.53400 19.67400 21.40900
H  -4.41800 19.44300 22.78700
H  -4.18800 18.04200 21.77000
H  -1.30300 16.98800 21.22800
H  -1.34100 15.35000 21.80600
H  0.46200 15.27800 22.71000
H  0.43300 16.58600 23.75000
H  0.99700 16.89400 22.11700
H  -2.33000 11.35700 26.38500
H  -1.57000 12.31000 25.08600
H  -3.31900 12.22200 25.18500
H  -3.61000 13.71700 30.77000
H  -1.51100 11.14600 33.52200
H  -1.91300 12.65900 34.42800
H  -0.50100 12.59400 33.56700
Mg 10.44600 47.41300 26.53700
C  8.31600 47.66900 29.57400
C  12.99000 48.59100 28.50600
C  12.29200 47.75500 23.73500
C  7.53200 46.88600 24.60800
N  10.59000 47.91800 28.80400
C  9.66300 47.86500 29.81700
C  10.44400 48.16700 31.21900
C  11.78300 48.78700 30.77400
C  11.82500 48.37200 29.25800
C  11.93600 50.28500 30.87200
C  10.64900 46.95800 32.22300
C  10.35400 47.41800 33.60600
H  10.48900 46.35800 34.80200
N  12.36900 47.87900 26.16100
C  13.26900 48.34800 27.10200
C  14.60400 48.39200 26.56100
C  14.43900 48.04700 25.20800
C  13.00000 47.91100 24.96900
C  15.73500 48.82200 27.43500
C  15.51500 47.96100 24.10600
O  15.19100 47.78100 22.90800
C  17.01300 48.11300 24.32400
N  10.00400 47.37800 24.53500
C  10.92800 47.51900 23.58300
C  10.38500 47.26300 22.17700
C  8.91000 46.80400 22.43300
C  8.75200 47.01900 23.95200
C  10.48700 48.54700 21.30500
C  8.59800 45.34100 22.04800
C  9.57800 44.27100 22.60800
N  8.27700 47.30700 26.92500
C  7.25400 47.06500 26.02200
C  6.02700 47.09400 26.78500
C  6.34700 47.28400 28.18500
C  7.75700 47.43800 28.21300
C  4.66200 46.79400 26.18200
C  5.80100 47.34600 29.60400
O  4.67500 47.23300 30.03500
C  7.14100 47.57000 30.49100
C  7.24900 46.33100 31.31200
O  7.78300 45.27600 30.93500
O  6.64900 46.48600 32.52400
C  6.67300 45.28900 33.41700
H  13.76600 48.94300 29.18900
H  12.74100 47.67100 22.74300
H  6.68700 46.74900 23.92900
H  9.75000 48.85400 31.70400
H  12.67600 48.36500 31.23300
H  11.22000 50.78300 31.52600
H  11.81200 50.76600 29.90100
H  12.95700 50.47300 31.20200
H  11.71000 46.70700 32.21600
H  9.96400 46.17100 31.90700
H  9.31300 47.73700 33.55100
H  10.98400 48.25600 33.90600
H  15.90200 48.01400 28.14800
H  15.52000 49.74900 27.96600
H  16.67300 48.89400 26.88400
H  17.21300 48.90100 25.05000
H  17.52700 48.46400 23.42800
H  17.53300 47.21500 24.65600
H  10.86700 46.42000 21.68200
H  8.22300 47.53000 21.99900
H  10.67700 49.40800 21.94600
H  9.67600 48.64100 20.58300
H  11.44000 48.27300 20.85100
H  8.67900 45.25000 20.96500
H  7.56400 45.05300 22.24100
H  9.09100 43.56700 23.28300
H  10.34900 44.74500 23.21600
H  10.03700 43.61000 21.87300
H  4.82600 46.32800 25.21000
H  4.01500 47.63400 25.93200
H  4.22600 46.18400 26.97300
H  7.08400 48.46900 31.10400
H  5.68700 44.84900 33.26800
H  6.89900 45.42300 34.47400
H  7.38500 44.53400 33.08500

