158

Mg 48.87200 34.63700 26.67700
C  46.63300 33.29600 29.07700
C  49.36900 37.32800 28.73200
C  50.41700 36.21400 24.09000
C  47.93800 32.02200 24.49600
N  48.12400 35.24900 28.71500
C  47.25100 34.52800 29.51500
C  47.27400 35.07600 31.00300
C  47.84000 36.53900 30.67800
C  48.54700 36.38800 29.35800
C  46.85700 37.81700 30.71200
C  48.40800 34.24800 31.84200
C  48.11700 33.94000 33.30700
H  47.05000 34.81700 34.00900
N  49.84000 36.49200 26.43400
C  49.89900 37.44900 27.39100
C  50.62400 38.53800 26.90000
C  51.01000 38.21800 25.57400
C  50.39900 36.92700 25.34300
C  50.76800 39.86100 27.62500
C  51.79100 39.03100 24.54000
O  52.21800 38.60100 23.46100
C  52.14600 40.42700 24.81200
N  49.12000 34.16600 24.64400
C  49.86500 34.97300 23.78300
C  49.69500 34.46600 22.34300
C  49.24700 32.94600 22.49500
C  48.85600 32.98200 24.01900
C  48.81600 35.35700 21.49100
C  50.37200 31.92800 22.24600
C  49.93200 30.87800 21.18700
N  47.68500 32.95300 26.76400
C  47.32300 31.98500 25.77700
C  46.33300 31.07700 26.24600
C  46.02200 31.60200 27.54900
C  46.92600 32.71500 27.78300
C  45.67900 29.87500 25.60600
C  45.16600 31.38000 28.68600
O  44.22800 30.52400 28.84000
C  45.51800 32.43500 29.76100
C  45.91100 31.89300 31.08600
O  46.94000 31.24900 31.33000
O  44.84600 31.94500 31.94700
C  44.86600 31.29400 33.29100
H  49.40500 38.20100 29.38700
H  50.96200 36.61300 23.23200
H  47.59300 31.24300 23.81400
H  46.32600 35.01900 31.53600
H  48.61400 36.80800 31.39700
H  47.39600 38.61900 31.21700
H  45.95200 37.50000 31.23100
H  46.62800 38.04000 29.67000
H  49.42400 34.64500 31.82100
H  48.40200 33.27800 31.34500
H  49.09500 34.15300 33.73900
H  47.88600 32.87600 33.35000
H  51.84100 40.05000 27.66300
H  50.49700 39.74500 28.67400
H  50.25800 40.66000 27.08700
H  52.28300 40.83200 23.81000
H  53.09000 40.56000 25.34000
H  51.30200 40.94300 25.27100
H  50.72800 34.57400 22.01100
H  48.33100 32.78400 21.92800
H  49.21000 36.37200 21.44200
H  47.86300 35.55900 21.98000
H  48.73000 34.95500 20.48100
H  50.51100 31.29800 23.12500
H  51.29000 32.45400 21.98300
H  50.50400 31.13500 20.29600
H  48.89200 31.05400 20.91100
H  50.08000 29.87500 21.58600
H  44.75600 30.19100 25.11900
H  45.37600 29.32700 26.49800
H  46.30000 29.30600 24.91400
H  44.61600 33.04400 29.81700
H  45.00100 30.21300 33.26100
H  43.99400 31.54100 33.89700
H  45.76300 31.77800 33.67800
Mg -9.63400 38.69200 40.78100
C  -8.85900 35.40900 40.09000
C  -6.53600 39.69100 39.75200
C  -10.77700 41.84200 40.76400
C  -12.85400 37.57100 41.68400
N  -7.89300 37.66000 39.96900
C  -7.88000 36.29400 39.67600
C  -6.48300 35.95000 39.11500
C  -5.62500 37.29700 39.27300
C  -6.71300 38.29800 39.70900
C  -4.60100 37.19900 40.44700
C  -6.69500 35.49300 37.64000
C  -7.31900 36.42900 36.61000
H  -8.28600 35.87600 35.54500
N  -8.77500 40.55400 40.33900
C  -7.49100 40.76000 39.98300
C  -7.26900 42.16300 39.77300
C  -8.45400 42.85300 39.99900
C  -9.41000 41.75700 40.41600
C  -5.88500 42.77600 39.51200
C  -8.75500 44.33200 39.90900
O  -7.91300 45.13200 39.48700
C  -10.16900 44.90300 40.13000
N  -11.48700 39.55200 41.17400
C  -11.70100 40.92600 41.15200
C  -13.17700 41.29700 41.50800
C  -13.82300 39.90800 41.91900
C  -12.65000 38.93100 41.58500
C  -13.46300 42.48100 42.48300
C  -15.21200 39.57000 41.22600
C  -16.21600 38.83400 42.09200
N  -10.64100 36.87100 40.97800
C  -11.92000 36.52600 41.37900
C  -12.12400 35.21000 41.38700
C  -10.92600 34.65300 40.85200
C  -10.10500 35.73900 40.58700
C  -13.45900 34.57500 41.51100
C  -10.24400 33.40700 40.48500
O  -10.61000 32.25800 40.53400
C  -8.88000 33.88600 39.95600
C  -7.86500 33.10300 40.79000
O  -7.92900 32.78000 41.99000
O  -6.83300 32.69100 39.89600
C  -5.74900 31.81400 40.39100
H  -5.56400 39.94300 39.32300
H  -11.23400 42.82300 40.90400
H  -13.81800 37.12300 41.93200
H  -6.04200 35.12500 39.67500
H  -5.17500 37.68200 38.35800
H  -3.65100 37.54600 40.04100
H  -4.42000 36.19400 40.82800
H  -4.85300 37.79400 41.32500
H  -7.29500 34.58300 37.67000
H  -5.69500 35.22700 37.29800
H  -6.44500 36.88600 36.14700
H  -7.75700 37.21500 37.22600
H  -5.69600 43.37600 38.62100
H  -5.16300 41.96000 39.50400
H  -5.67700 43.44000 40.35100
H  -10.60600 44.68300 41.10400
H  -10.75900 44.74500 39.22700
H  -9.93200 45.96400 40.05300
H  -13.70600 41.45800 40.56900
H  -13.89900 39.79400 43.00100
H  -12.54600 43.02300 42.71300
H  -13.82600 42.02700 43.40500
H  -14.22700 43.20400 42.19700
H  -15.04700 38.88700 40.39300
H  -15.63500 40.44200 40.72700
H  -17.10900 39.45600 42.03200
H  -15.95900 38.79300 43.15000
H  -16.48800 37.83800 41.74200
H  -14.00500 34.71400 40.57800
H  -14.10200 34.94700 42.30800
H  -13.30700 33.51300 41.70100
H  -8.89900 33.50200 38.93600
H  -4.74100 32.17700 40.19100
H  -5.70500 30.84600 39.89200
H  -5.94200 31.62400 41.44600

