158

Mg 47.95600 15.82000 28.56500
C  45.96400 15.40400 31.57500
C  50.05000 17.67500 30.43000
C  49.23900 16.78400 25.74800
C  45.40300 13.96700 26.90400
N  48.08700 16.28900 30.81400
C  47.22800 15.91900 31.82200
C  47.79300 16.51800 33.15900
C  49.12200 17.24100 32.75000
C  49.13500 16.98200 31.26200
C  49.43200 18.66700 33.37700
C  48.13400 15.45200 34.29300
C  47.68900 15.64700 35.77900
H  47.82800 17.09500 36.48700
N  49.44200 16.98300 28.12600
C  50.21600 17.66500 29.05000
C  51.20200 18.43700 28.31700
C  50.96300 18.24500 26.93900
C  49.84700 17.29900 26.89100
C  52.33900 19.16500 28.96000
C  51.75700 18.68900 25.67800
O  51.67800 18.25400 24.51200
C  52.82000 19.71100 25.89100
N  47.45000 15.38100 26.64600
C  48.17800 15.91900 25.60300
C  47.86000 15.31200 24.22800
C  46.63000 14.33400 24.66100
C  46.47100 14.53400 26.17000
C  47.52900 16.38600 23.11500
C  46.98200 12.89100 24.33800
C  45.92100 12.19800 23.48100
N  46.10000 14.87200 29.04700
C  45.23100 14.12400 28.28800
C  44.01700 13.69500 29.10800
C  44.33000 14.16900 30.34000
C  45.56700 14.86900 30.30600
C  42.81500 12.94900 28.79900
C  43.84200 14.18700 31.71900
O  42.82100 13.64200 32.20400
C  44.91700 14.97000 32.57200
C  44.17300 16.06800 33.26300
O  43.82100 17.06200 32.63600
O  44.06800 15.76200 34.61300
C  43.55700 16.81000 35.37700
H  50.80400 18.23700 30.98600
H  49.77900 17.05000 24.83700
H  44.63000 13.44400 26.33600
H  47.07600 17.23500 33.55900
H  49.94800 16.63300 33.11900
H  49.14200 19.39200 32.61700
H  50.51000 18.75400 33.50800
H  48.95400 18.89100 34.33100
H  49.20300 15.24600 34.34900
H  47.60700 14.54000 34.01200
H  48.24000 15.07600 36.52600
H  46.67400 15.32200 36.00800
H  53.07300 18.36200 28.90000
H  52.20000 19.36800 30.02200
H  52.64200 20.13000 28.55500
H  52.29600 20.52500 26.39200
H  53.25200 20.00700 24.93500
H  53.54100 19.26600 26.57700
H  48.68400 14.71400 23.83900
H  45.74100 14.72300 24.16400
H  47.57400 15.87200 22.15500
H  48.17900 17.25900 23.05300
H  46.48700 16.69300 23.20400
H  47.10200 12.25300 25.21400
H  47.91100 12.78600 23.77900
H  45.29300 11.61100 24.15200
H  46.50900 11.53700 22.84400
H  45.24800 12.86800 22.94600
H  42.91200 12.49500 27.81300
H  42.02900 13.70300 28.75300
H  42.69500 12.24700 29.62400
H  45.39400 14.29600 33.28400
H  42.53900 17.06300 35.08300
H  44.30100 17.60400 35.30100
H  43.44900 16.43300 36.39400
Mg -2.76100 34.81000 26.57800
C  -4.22400 33.00800 28.98300
C  -1.71900 37.04800 28.84900
C  -1.27600 36.65800 24.12800
C  -3.90600 32.57800 24.13500
N  -3.05400 35.04700 28.78900
C  -3.62400 34.12000 29.56900
C  -3.39900 34.47600 31.01800
C  -2.89000 35.98400 30.96200
C  -2.56100 36.08100 29.44500
C  -3.92500 37.04300 31.45400
C  -2.40000 33.58700 31.71800
C  -2.94200 32.55500 32.76000
H  -2.15900 32.41200 34.07500
N  -1.59800 36.61900 26.49200
C  -1.26600 37.30600 27.56200
C  -0.40600 38.43300 27.20700
C  -0.43200 38.45200 25.80600
C  -1.10700 37.22400 25.38300
C  0.27000 39.34100 28.20300
C  0.32000 39.45200 24.93700
O  0.36000 39.31400 23.70700
C  0.91400 40.70500 25.53800
N  -2.57300 34.66700 24.36900
C  -1.97600 35.54000 23.55700
C  -1.80500 34.99500 22.15600
C  -2.52200 33.62100 22.31400
C  -3.11100 33.67800 23.68300
C  -2.16300 35.85400 20.85100
C  -1.70000 32.35100 21.91800
C  -0.33000 32.23900 22.67900
N  -3.96300 33.22200 26.49700
C  -4.38500 32.39300 25.44500
C  -5.20800 31.36400 25.94500
C  -5.16900 31.54500 27.27300
C  -4.41600 32.72700 27.61100
C  -5.96400 30.26700 25.21700
C  -5.61700 31.08100 28.57000
O  -6.39500 30.20100 28.74400
C  -4.94200 31.90600 29.70200
C  -5.93700 32.36200 30.68800
O  -6.62600 33.33100 30.55500
O  -6.02900 31.53300 31.78300
C  -6.89900 31.79100 32.92900
H  -1.48000 37.77900 29.62500
H  -0.75000 37.22100 23.35400
H  -4.10400 31.85500 23.34100
H  -4.37700 34.57300 31.49000
H  -1.93800 36.10200 31.47900
H  -3.74200 37.25600 32.50700
H  -4.88600 36.53000 31.43400
H  -3.96800 37.92700 30.81700
H  -1.66600 34.18100 32.26100
H  -1.77500 33.04400 31.01000
H  -3.12000 31.57400 32.31900
H  -3.95600 32.85900 33.01900
H  1.27600 39.53900 27.83100
H  0.26100 38.95800 29.22300
H  -0.21500 40.31600 28.23400
H  0.33700 41.17500 26.33400
H  0.98400 41.42900 24.72600
H  1.90700 40.49000 25.93200
H  -0.73900 34.78700 22.06200
H  -3.39300 33.56400 21.66000
H  -2.61700 36.80400 21.13200
H  -2.88500 35.25200 20.30000
H  -1.30000 36.05300 20.21500
H  -1.50600 32.35100 20.84600
H  -2.20200 31.41300 22.15600
H  -0.29500 32.97400 23.48400
H  0.39600 32.42100 21.88700
H  -0.28900 31.28500 23.20700
H  -5.38000 29.35100 25.12600
H  -6.18200 30.66400 24.22600
H  -6.97100 30.21000 25.63000
H  -4.24800 31.31300 30.29800
H  -6.37300 32.50900 33.55800
H  -7.17900 30.85100 33.40400
H  -7.82600 32.18000 32.50700

