158

Mg 47.60900 44.77700 44.01600
C  44.11300 44.66700 43.75500
C  47.59100 41.37600 43.13700
C  50.75800 45.06300 43.56300
C  47.21400 48.41300 44.33200
N  46.05800 43.29800 43.36200
C  44.78900 43.49300 43.33100
C  44.03300 42.33700 42.61500
C  45.04800 41.22900 42.82000
C  46.35700 42.01100 43.16000
C  44.73600 40.20200 43.88700
C  43.78300 42.66000 41.15400
C  42.32900 42.53100 40.66500
H  42.11300 41.68800 39.35000
N  48.95900 43.40200 43.54000
C  48.78700 42.03800 43.18400
C  50.13600 41.51300 42.83900
C  51.05500 42.50400 43.20100
C  50.28400 43.70200 43.43100
C  50.42000 40.06800 42.48200
C  52.57800 42.30800 43.36400
O  53.08000 41.22900 43.04200
C  53.40300 43.47800 43.90700
N  48.82000 46.53900 43.87900
C  50.12000 46.30000 43.86900
C  50.94900 47.59000 44.01500
C  49.83500 48.68200 44.31700
C  48.51300 47.84700 44.11400
C  52.06200 47.48200 45.12200
C  49.86100 49.80800 43.27000
C  49.26600 51.16000 43.73400
N  45.95900 46.30600 44.08300
C  45.97800 47.68600 44.33400
C  44.61200 48.14800 44.32400
C  43.81000 47.02800 44.07500
C  44.69800 45.92200 43.96600
C  44.25300 49.58100 44.59500
C  42.41000 46.55500 43.86100
O  41.28000 47.05200 43.91900
C  42.59200 44.97800 43.63600
C  41.79900 44.14100 44.60900
O  40.84800 43.35100 44.26500
O  42.20900 44.30500 45.89800
C  41.51300 43.66100 46.96500
H  47.63000 40.31500 42.88200
H  51.82400 45.19300 43.36800
H  47.12100 49.49000 44.48700
H  43.14500 42.05900 43.18300
H  45.16500 40.64800 41.90500
H  44.04800 40.54800 44.65900
H  45.67300 39.88100 44.34300
H  44.27700 39.38700 43.32700
H  44.41500 42.08400 40.47800
H  44.05300 43.69900 40.96700
H  41.85200 43.50700 40.56500
H  41.78000 41.87800 41.34300
H  49.71900 39.69000 41.73800
H  50.41400 39.43900 43.37100
H  51.40000 40.01800 42.00600
H  53.49200 44.17900 43.07700
H  54.37200 43.04200 44.15200
H  53.06500 43.89700 44.85400
H  51.46400 47.72700 43.06400
H  49.68100 49.06600 45.32600
H  52.22800 46.47800 45.51300
H  51.68500 48.16400 45.88400
H  53.01500 47.79800 44.69600
H  49.36700 49.45100 42.36600
H  50.89800 50.01900 43.00800
H  48.42700 51.50300 43.12800
H  49.97000 51.98700 43.65200
H  48.86700 51.12800 44.74800
H  44.33500 49.71100 45.67400
H  43.33500 49.93400 44.12400
H  45.11400 50.04400 44.11300
H  42.22200 44.64600 42.66600
H  42.35200 43.35600 47.59000
H  40.86800 42.82700 46.68800
H  41.03400 44.37600 47.63300
Mg -8.80400 40.45800 42.57900
C  -8.08200 36.97100 41.70700
C  -6.10200 41.35300 40.90000
C  -10.01500 43.52200 42.75300
C  -12.08600 39.16900 43.52000
N  -7.49700 39.28500 41.19400
C  -7.17700 37.91400 41.22400
C  -5.90100 37.61800 40.37900
C  -5.16900 39.02300 40.45900
C  -6.31900 39.96200 40.86000
C  -4.01700 39.20900 41.52500
C  -6.18300 37.03800 38.93900
C  -5.42700 35.76200 38.50900
H  -4.53400 35.81700 37.24700
N  -8.10700 42.27400 42.01600
C  -6.89800 42.41200 41.37500
C  -6.66400 43.82300 41.19100
C  -7.74800 44.53700 41.76000
C  -8.68000 43.47200 42.28900
C  -5.40800 44.26100 40.45400
C  -8.03000 46.04200 41.72400
O  -7.23400 46.77400 41.11500
C  -9.24200 46.62300 42.29700
N  -10.78200 41.16900 43.06100
C  -10.92100 42.51000 43.08100
C  -12.36500 42.90300 43.52400
C  -13.08200 41.50500 43.74500
C  -11.98100 40.54800 43.36800
C  -12.58900 43.85100 44.67700
C  -14.36100 41.25500 42.94100
C  -15.60900 40.58300 43.56500
N  -9.78900 38.48800 42.90900
C  -11.07100 38.19600 43.31200
C  -11.24800 36.75800 43.26300
C  -10.08400 36.26800 42.77500
C  -9.28200 37.33000 42.37800
C  -12.48700 36.08500 43.81100
C  -9.39300 35.03900 42.41200
O  -9.59000 33.84100 42.61900
C  -8.09000 35.53600 41.63500
C  -6.84000 35.00100 42.21800
O  -6.31100 35.37200 43.25500
O  -6.36400 33.98700 41.43700
C  -5.05700 33.50700 41.98900
H  -5.07000 41.60500 40.64800
H  -10.45600 44.49500 42.97900
H  -12.99100 38.70400 43.91600
H  -5.22100 36.93800 40.89200
H  -4.78000 39.18000 39.45300
H  -3.89800 38.31500 42.13800
H  -4.37000 39.89400 42.29600
H  -3.05900 39.49100 41.08700
H  -6.00400 37.86500 38.25100
H  -7.27200 37.01200 38.90100
H  -6.20100 35.03900 38.25200
H  -4.89900 35.35600 39.37100
H  -5.03500 45.13800 40.98300
H  -5.53700 44.65700 39.44700
H  -4.54400 43.60800 40.56900
H  -9.31700 47.71000 42.27000
H  -9.21500 46.26800 43.32700
H  -10.15000 46.34100 41.76300
H  -12.76400 43.37100 42.62400
H  -13.32600 41.39200 44.80100
H  -11.62000 44.24700 44.98000
H  -13.09000 43.39700 45.53200
H  -13.20000 44.71000 44.39600
H  -14.12700 40.76000 41.99900
H  -14.65800 42.20100 42.48700
H  -15.44200 40.47400 44.63700
H  -15.81300 39.60900 43.12100
H  -16.49400 41.21900 43.53200
H  -12.08300 35.11600 44.10300
H  -13.19800 36.05000 42.98500
H  -12.89400 36.59000 44.68700
H  -7.95500 35.13600 40.63000
H  -4.33200 34.30700 42.14400
H  -4.65300 32.94400 41.14700
H  -5.05700 32.83600 42.84700

