158

Mg 46.64700 25.10000 28.84600
C  47.55700 27.34400 31.49200
C  45.52400 23.00600 31.30100
C  46.02900 22.85900 26.45500
C  47.97700 27.34300 26.64900
N  46.71400 25.10500 31.04600
C  46.97700 26.16700 31.84600
C  46.87500 25.83300 33.31700
C  46.51900 24.25500 33.29500
C  46.15800 24.10500 31.78000
C  47.69800 23.35100 33.87400
C  45.82400 26.76800 34.06500
C  46.29200 27.47700 35.34300
H  45.52900 27.30400 36.58300
N  45.80100 23.20400 28.84700
C  45.38800 22.55100 29.92000
C  44.73300 21.38400 29.45500
C  44.81000 21.28100 28.07100
C  45.58900 22.47300 27.73200
C  44.14700 20.32400 30.46600
C  44.56300 20.11600 27.08800
O  44.80900 20.14600 25.92600
C  43.90000 18.90100 27.61900
N  47.21900 24.95600 26.90000
C  46.76300 23.96700 26.08800
C  47.08700 24.32800 24.67600
C  47.30000 25.85800 24.69000
C  47.46100 26.08400 26.13400
C  48.21000 23.44800 23.95900
C  46.00500 26.61200 24.16900
C  44.61300 26.18900 24.60900
N  47.53300 26.98600 28.97600
C  48.14300 27.71500 27.99600
C  48.71200 28.92100 28.54400
C  48.46100 28.89500 29.96100
C  47.88400 27.60900 30.17400
C  49.56600 29.92400 27.74700
C  48.67400 29.53200 31.26900
O  49.17000 30.59900 31.57300
C  48.14500 28.49800 32.39000
C  49.34600 28.20000 33.16100
O  50.15300 27.29700 32.84600
O  49.36400 28.90000 34.39400
C  50.39500 28.42200 35.32400
H  45.12600 22.35900 32.08500
H  45.85600 22.25200 25.56400
H  48.39900 27.97300 25.86300
H  47.86500 25.86400 33.77300
H  45.66500 24.10800 33.95600
H  47.83500 22.40500 33.35000
H  47.47900 23.28500 34.94000
H  48.63300 23.90700 33.80500
H  45.00000 26.10300 34.32100
H  45.55600 27.49900 33.30200
H  46.31900 28.54700 35.13900
H  47.28400 27.08200 35.56400
H  44.43700 19.31600 30.16900
H  43.06000 20.34500 30.53700
H  44.48700 20.41500 31.49800
H  44.45800 18.24300 28.28500
H  43.52900 18.31000 26.78200
H  42.99800 19.17000 28.17000
H  46.12800 24.10600 24.20700
H  48.24000 26.14700 24.22000
H  48.58200 22.68000 24.63700
H  49.06600 24.00600 23.57900
H  47.87700 22.89800 23.07900
H  45.92300 26.74800 23.09100
H  46.19300 27.60600 24.57500
H  44.48700 25.41600 25.36700
H  43.86400 26.15000 23.81900
H  44.26400 26.97700 25.27700
H  49.84000 29.55400 26.75900
H  50.52600 30.12500 28.22000
H  49.10300 30.90400 27.63100
H  47.37600 29.00200 32.97500
H  51.36900 28.23300 34.87200
H  50.08300 27.48100 35.77800
H  50.50300 29.25500 36.01800
Mg -11.91400 37.73000 42.20400
C  -9.20800 35.42900 41.85300
C  -9.95900 40.14900 40.56000
C  -14.59000 39.77200 41.98200
C  -13.94400 34.94000 42.97300
N  -9.91100 37.68800 41.12200
C  -8.98200 36.68800 41.30500
C  -7.65500 37.18200 40.75400
C  -7.82500 38.70000 40.63200
C  -9.33000 38.91000 40.78200
C  -6.91600 39.48200 41.60000
C  -7.22900 36.55800 39.40000
C  -5.69600 36.39400 39.24500
H  -5.07000 37.21800 38.12800
N  -12.23900 39.74500 41.47100
C  -11.29800 40.57100 40.90500
C  -11.86400 41.88700 40.64300
C  -13.29200 41.78200 40.90900
C  -13.47400 40.39000 41.47000
C  -11.23700 43.02500 39.93800
C  -14.35400 42.84100 40.50800
O  -14.02600 43.98000 40.12700
C  -15.79000 42.63400 40.59100
N  -13.90100 37.40200 42.34400
C  -14.79400 38.45900 42.46400
C  -16.11100 38.01400 43.03200
C  -15.91000 36.47700 43.24700
C  -14.48100 36.21300 42.76700
C  -16.56700 38.67500 44.30700
C  -16.89800 35.52700 42.42800
C  -18.07200 35.01100 43.28800
N  -11.69600 35.56000 42.56400
C  -12.58400 34.60200 42.89100
C  -11.85400 33.40200 43.17200
C  -10.51500 33.61600 42.78600
C  -10.49700 34.94300 42.40100
C  -12.43500 32.08900 43.66800
C  -9.19100 33.13400 42.81000
O  -8.73100 32.13000 43.25500
C  -8.22900 34.25700 42.16100
C  -7.18200 34.57700 43.13600
O  -6.01500 34.71600 42.89400
O  -7.70700 34.74500 44.40300
C  -6.65000 35.22900 45.35700
H  -9.24700 40.90200 40.21500
H  -15.46300 40.42600 42.03900
H  -14.62400 34.16900 43.34100
H  -6.90100 36.84800 41.46600
H  -7.47800 39.08600 39.67300
H  -6.13900 38.83400 42.00700
H  -7.52100 39.88400 42.41300
H  -6.41900 40.35100 41.17000
H  -7.57300 37.08400 38.51000
H  -7.61300 35.54400 39.29200
H  -5.39500 35.34700 39.26100
H  -5.25000 36.82600 40.14100
H  -11.57600 43.93600 40.43100
H  -11.42100 43.03400 38.86400
H  -10.14900 43.05100 39.99300
H  -16.31700 43.50500 40.20300
H  -16.09100 42.51200 41.63100
H  -16.05700 41.72700 40.04900
H  -16.87900 38.24200 42.29400
H  -15.83000 36.18000 44.29300
H  -16.74300 37.87900 45.03000
H  -17.40300 39.33100 44.06400
H  -15.81700 39.30700 44.78100
H  -16.48700 34.66400 41.90300
H  -17.39200 36.15000 41.68200
H  -18.19700 33.93800 43.14300
H  -19.03500 35.39900 42.95600
H  -17.89900 35.20300 44.34700
H  -12.49500 31.29400 42.92400
H  -13.41900 32.25700 44.10400
H  -11.75400 31.73800 44.44400
H  -7.74900 33.89600 41.25100
H  -7.18000 35.42000 46.29000
H  -6.21900 36.18600 45.06200
H  -5.95000 34.50200 45.76800

