158

Mg 24.71700 -5.76200 46.17200
C  26.51700 -2.96000 45.09200
C  22.10400 -4.60500 44.02200
C  23.22300 -8.60100 46.67600
C  27.63400 -6.98700 47.82100
N  24.47200 -4.02800 44.65200
C  25.30700 -3.05000 44.38400
C  24.73300 -2.07500 43.32700
C  23.22000 -2.34000 43.52300
C  23.27400 -3.74500 44.11400
C  22.37500 -1.37600 44.45700
C  25.35600 -2.61700 41.98400
C  25.65200 -1.55400 40.88200
H  25.27100 -1.95300 39.46200
N  22.85600 -6.51200 45.50300
C  22.00900 -5.91200 44.63600
C  20.92100 -6.86400 44.40700
C  21.16400 -8.03400 45.16700
C  22.44800 -7.73800 45.87600
C  19.70400 -6.47400 43.65700
C  20.37900 -9.30000 45.12600
O  19.44600 -9.21700 44.32000
C  20.65200 -10.47300 45.92100
N  25.35400 -7.57800 47.05200
C  24.45300 -8.54800 47.23700
C  25.12500 -9.76300 47.91500
C  26.49700 -9.12100 48.40400
C  26.57700 -7.82500 47.64600
C  24.37700 -10.49100 49.04300
C  27.76100 -10.00200 48.23000
C  28.62300 -9.82700 46.94900
N  26.60800 -5.12300 46.51800
C  27.71800 -5.71900 47.18200
C  28.83200 -4.81400 47.05000
C  28.44600 -3.75500 46.21600
C  27.06500 -3.89500 46.00500
C  30.20900 -4.99700 47.70300
C  28.92100 -2.59300 45.50900
O  29.99000 -1.99000 45.56400
C  27.64900 -2.01400 44.76200
C  27.33600 -0.66400 45.17200
O  26.42900 -0.25300 45.81300
O  28.31100 0.10100 44.65100
C  28.15500 1.46100 45.03900
H  21.31800 -4.24400 43.35600
H  22.77800 -9.58200 46.85800
H  28.54000 -7.31300 48.33700
H  25.06500 -1.05100 43.49400
H  22.65900 -2.31500 42.58900
H  21.70100 -1.87300 45.15600
H  21.70100 -0.75200 43.87000
H  23.01900 -0.70500 45.02400
H  24.54500 -3.18000 41.52200
H  26.29800 -3.16500 42.01300
H  26.71700 -1.32500 40.86700
H  25.02200 -0.68400 41.07000
H  18.80900 -6.84600 44.15600
H  19.84600 -6.77900 42.62000
H  19.60100 -5.39200 43.73300
H  19.81300 -11.15500 45.78300
H  20.79100 -10.16200 46.95600
H  21.56700 -10.85200 45.46700
H  25.43000 -10.53200 47.20400
H  26.56100 -8.90000 49.47000
H  24.17900 -11.51600 48.73000
H  23.41400 -10.04700 49.29200
H  24.90700 -10.41200 49.99300
H  27.34300 -11.00600 48.15000
H  28.30700 -9.95800 49.17300
H  28.76500 -10.80400 46.48700
H  29.62200 -9.48800 47.22600
H  28.24400 -9.11300 46.21800
H  30.09400 -5.22500 48.76300
H  30.82300 -4.09900 47.64800
H  30.83500 -5.74200 47.21200
H  27.65100 -2.16400 43.68200
H  28.93500 2.05300 44.56000
H  28.13000 1.48300 46.12800
H  27.22800 1.94700 44.73400
Mg -0.74100 34.83000 26.84200
C  -2.77900 33.13000 29.35300
C  0.42300 36.85700 29.29100
C  0.71300 36.68200 24.40900
C  -2.29900 32.89900 24.39800
N  -1.30400 35.07400 29.02900
C  -1.95500 34.15600 29.87400
C  -1.86100 34.54500 31.37600
C  -0.90800 35.79200 31.18900
C  -0.50100 35.91000 29.69000
C  -1.54000 37.11100 31.72600
C  -1.23900 33.39300 32.29500
C  -1.83600 33.18100 33.67700
H  -1.00600 32.96600 34.96000
N  0.47100 36.49500 26.84900
C  0.93500 37.07500 27.99000
C  1.94300 37.99200 27.65700
C  2.01000 38.09100 26.21200
C  1.05200 37.00800 25.75400
C  2.69000 38.77400 28.72400
C  2.91200 38.89900 25.41500
O  2.92100 38.69500 24.20500
C  3.85300 39.93000 25.98800
N  -0.88300 34.89600 24.74700
C  -0.16400 35.69500 23.96700
C  -0.36300 35.44300 22.39400
C  -1.16400 34.14400 22.42600
C  -1.46800 33.93300 23.91800
C  -1.10000 36.60200 21.64700
C  -0.50500 32.84600 21.82800
C  0.54600 32.04900 22.65100
N  -2.16900 33.28600 26.80300
C  -2.65300 32.57500 25.71200
C  -3.53800 31.52700 26.23600
C  -3.57700 31.63700 27.64500
C  -2.81300 32.81500 27.91500
C  -4.12200 30.40200 25.44500
C  -4.14000 31.16000 28.93500
O  -4.82400 30.19200 29.26000
C  -3.56400 32.07100 30.10200
C  -4.69500 32.56400 30.94200
O  -5.52800 33.41900 30.58000
O  -4.56100 31.99900 32.13200
C  -5.56600 32.42000 33.12800
H  0.80400 37.34900 30.18900
H  1.28200 37.10700 23.58000
H  -2.63500 32.16100 23.66800
H  -2.81700 34.76400 31.85200
H  -0.04800 35.56500 31.82000
H  -2.57500 36.93000 31.43600
H  -1.24300 38.04900 31.25700
H  -1.49200 37.30800 32.79700
H  -0.21200 33.71400 32.47200
H  -1.13700 32.47900 31.71000
H  -2.41400 32.25800 33.64500
H  -2.57000 33.96900 33.84500
H  2.95100 38.15700 29.58300
H  2.11100 39.65700 28.99600
H  3.64400 39.12200 28.32800
H  4.34000 40.49900 25.19600
H  4.66200 39.45600 26.54300
H  3.31800 40.64900 26.60800
H  0.57800 35.19800 21.90100
H  -2.11900 34.28300 21.92000
H  -0.46500 36.93500 20.82700
H  -1.14200 37.36100 22.42900
H  -2.10500 36.33600 21.31800
H  -0.10600 33.00200 20.82600
H  -1.27200 32.11900 21.56300
H  0.65200 32.46800 23.65100
H  1.54700 31.99900 22.22100
H  0.14500 31.04800 22.81300
H  -3.57100 30.32100 24.50900
H  -5.16600 30.58000 25.18800
H  -4.02300 29.42200 25.91400
H  -2.89100 31.45500 30.69800
H  -5.76800 31.50000 33.67700
H  -6.45800 32.77900 32.61400
H  -5.08600 33.07900 33.85100

