158

Mg 35.12100 49.20600 24.87900
C  35.24600 47.40100 27.85400
C  33.92800 51.85000 26.44900
C  34.79800 50.62600 21.78600
C  36.35800 46.26000 23.24800
N  34.57100 49.57900 26.91400
C  34.86300 48.71500 27.97100
C  34.52700 49.44500 29.29800
C  34.00400 50.80400 28.84500
C  34.17100 50.75200 27.34400
C  32.54100 51.11700 29.29300
C  35.83400 49.45500 30.24400
C  35.61900 49.09200 31.72600
H  34.20500 49.25100 32.29500
N  34.39900 50.95100 24.23400
C  34.14500 51.97700 25.06600
C  33.99300 53.19500 24.25900
C  34.08400 52.80300 22.92900
C  34.43700 51.35500 22.89800
C  33.66500 54.54400 24.87700
C  33.88000 53.70200 21.76400
O  33.83200 53.24700 20.62100
C  33.64600 55.20400 21.83300
N  35.57000 48.54000 22.78200
C  35.27900 49.29200 21.75600
C  35.50900 48.57700 20.38800
C  36.22900 47.27800 20.87700
C  36.07000 47.34400 22.36000
C  34.22200 48.26200 19.65200
C  37.72200 47.01600 20.44100
C  38.70300 48.07700 20.98700
N  35.66100 47.23800 25.38800
C  36.10000 46.13200 24.64700
C  36.29400 45.03300 25.55200
C  35.95700 45.44500 26.76800
C  35.65800 46.85000 26.63400
C  36.84600 43.70400 25.16700
C  35.89200 45.10800 28.18400
O  36.21200 44.08100 28.75500
C  35.53100 46.37700 28.94100
C  34.40100 45.93100 29.66600
O  33.27500 45.93000 29.15500
O  34.61200 45.56600 30.93900
C  33.39000 45.20700 31.66000
H  33.59200 52.78400 26.90300
H  34.97300 51.25200 20.90700
H  36.48300 45.27600 22.79300
H  33.72900 48.87900 29.77900
H  34.64000 51.63000 29.16400
H  32.15100 50.36600 29.97900
H  31.85900 51.37300 28.48200
H  32.70500 52.01600 29.88900
H  36.34100 50.42000 30.23600
H  36.50800 48.73500 29.77900
H  36.32200 49.61400 32.37500
H  35.90600 48.06800 31.96400
H  34.41300 55.23900 24.49500
H  33.86200 54.54100 25.94900
H  32.64000 54.79600 24.60700
H  34.33700 55.68600 22.52500
H  32.59400 55.36200 22.07000
H  33.81100 55.70700 20.88000
H  36.15200 49.19000 19.75600
H  35.69100 46.40200 20.51300
H  33.35700 48.87500 19.90200
H  33.91000 47.21700 19.66700
H  34.34200 48.54000 18.60500
H  37.71500 47.05600 19.35100
H  37.98900 46.09100 20.95300
H  39.48600 47.61500 21.58900
H  38.27000 48.90400 21.55000
H  39.34200 48.56700 20.25300
H  37.60800 43.42000 25.89200
H  37.31100 43.93500 24.20800
H  35.94500 43.10200 25.04200
H  36.36500 46.67900 29.57400
H  32.91200 44.26600 31.38700
H  32.58600 45.94300 31.67500
H  33.73400 45.23400 32.69400
Mg -2.35500 34.49500 27.30300
C  -3.26700 32.39900 29.90700
C  -0.50200 36.35900 29.40000
C  -2.02200 36.75500 24.88000
C  -4.19900 32.48000 25.05600
N  -2.01500 34.34600 29.48700
C  -2.39000 33.36900 30.32900
C  -1.83900 33.67800 31.77100
C  -0.85700 34.96600 31.53800
C  -1.16400 35.30400 30.06500
C  -1.07600 36.09900 32.55100
C  -1.03700 32.52900 32.24200
C  -1.48500 31.93200 33.52000
H  -0.38500 32.03100 34.63000
N  -1.46400 36.30500 27.20200
C  -0.75400 36.95000 28.14100
C  0.00100 38.09000 27.62900
C  -0.60900 38.35000 26.33600
C  -1.40400 37.05000 26.06500
C  0.96300 38.89500 28.47900
C  -0.42800 39.54500 25.31400
O  -0.88800 39.50000 24.20900
C  0.29800 40.75200 25.76300
N  -2.97800 34.58000 25.26300
C  -2.75400 35.66300 24.50400
C  -3.36400 35.46300 23.09900
C  -3.66600 33.97400 23.06400
C  -3.64400 33.63400 24.57200
C  -4.59800 36.35300 22.86700
C  -2.62600 33.09900 22.18600
C  -3.29000 32.24300 21.11300
N  -3.44600 32.70900 27.43900
C  -4.17500 32.04800 26.45600
C  -4.89500 30.94500 27.01800
C  -4.58200 30.99800 28.45200
C  -3.71700 32.11400 28.59900
C  -5.69600 29.87900 26.29000
C  -4.83900 30.48400 29.75600
O  -5.62000 29.58100 30.07400
C  -3.98100 31.35500 30.72200
C  -4.91400 31.97500 31.75500
O  -5.59600 32.98900 31.61700
O  -4.75700 31.31300 32.94000
C  -5.57000 31.75700 34.05200
H  0.25100 36.64900 30.13700
H  -1.95600 37.49700 24.08200
H  -4.65600 31.73600 24.40000
H  -2.68600 33.96500 32.39500
H  0.21600 34.77200 31.51800
H  -0.14700 36.22200 33.10700
H  -1.82100 35.64500 33.20500
H  -1.32500 37.01300 32.01200
H  0.01800 32.79800 32.18800
H  -1.09800 31.74000 31.49200
H  -1.70300 30.88000 33.33800
H  -2.36600 32.48500 33.84800
H  1.48300 38.23600 29.17400
H  0.47900 39.67700 29.06400
H  1.59200 39.36900 27.72500
H  0.18300 41.47900 24.95900
H  1.38200 40.76000 25.88300
H  -0.01600 41.18100 26.71400
H  -2.64200 35.73500 22.32800
H  -4.64600 33.69900 22.67500
H  -5.11200 36.48100 23.82000
H  -5.24200 35.85500 22.14200
H  -4.46500 37.25300 22.26600
H  -2.14400 32.41700 22.88600
H  -1.79100 33.70100 21.82800
H  -4.12300 32.84400 20.75100
H  -3.55300 31.25700 21.49800
H  -2.69400 32.03100 20.22600
H  -5.27000 28.88800 26.44200
H  -5.67400 30.03300 25.21200
H  -6.69700 29.81800 26.71700
H  -3.26100 30.73000 31.25000
H  -4.92500 32.28200 34.75500
H  -5.84000 30.80400 34.50700
H  -6.40200 32.40200 33.77100

