158

Mg -2.13800 18.25900 27.22400
C  -2.54600 15.91800 29.69500
C  -2.54300 20.74100 29.47100
C  -1.71600 20.44500 24.64100
C  -2.01400 15.50600 24.86700
N  -2.40000 18.27700 29.33900
C  -2.58900 17.25800 30.16700
C  -2.65900 17.76100 31.62100
C  -3.12000 19.18200 31.38300
C  -2.68300 19.42200 29.94600
C  -4.62100 19.51800 31.70300
C  -1.41100 17.68700 32.48000
C  -1.62300 17.20000 33.92500
H  -0.40700 16.88300 34.82000
N  -2.13400 20.30300 27.08900
C  -2.23300 21.16600 28.15500
C  -1.98800 22.52500 27.73700
C  -1.72800 22.43000 26.31200
C  -1.80200 21.02500 25.92000
C  -2.09000 23.74100 28.62000
C  -1.51100 23.57700 25.29900
O  -1.49900 23.54000 24.10800
C  -1.19900 24.87200 25.83400
N  -1.86200 17.95800 25.15100
C  -1.72600 19.05500 24.30900
C  -1.61100 18.53700 22.84200
C  -1.70400 17.08000 22.95600
C  -1.86500 16.80900 24.40900
C  -2.70400 19.16000 21.93200
C  -0.50000 16.37200 22.32500
C  0.73700 16.29200 23.14800
N  -2.44100 16.10000 27.24100
C  -2.23400 15.16400 26.22300
C  -2.35700 13.84200 26.80100
C  -2.60000 14.10000 28.22200
C  -2.49100 15.47200 28.36300
C  -2.20100 12.63600 25.99000
C  -2.85500 13.44000 29.54000
O  -2.95000 12.24600 29.84800
C  -2.87100 14.62300 30.50200
C  -1.68100 14.48200 31.40100
O  -0.48200 14.62000 31.12800
O  -2.09500 13.91700 32.62000
C  -1.07100 13.51900 33.55100
H  -2.72100 21.44000 30.29100
H  -1.62700 21.09500 23.76800
H  -2.09000 14.66400 24.17600
H  -3.51200 17.29700 32.11500
H  -2.54100 19.85600 32.01400
H  -5.13200 18.63100 32.07600
H  -5.13000 19.89400 30.81600
H  -4.61500 20.31000 32.45200
H  -0.94400 18.66800 32.56600
H  -0.63900 17.03200 32.07600
H  -2.33600 16.40300 33.71500
H  -2.17000 17.97500 34.46100
H  -1.23600 24.35500 28.90400
H  -2.56000 23.38300 29.53600
H  -2.85200 24.32900 28.10800
H  -1.97600 25.47900 26.29800
H  -0.64600 25.42300 25.07300
H  -0.36500 24.65600 26.50200
H  -0.70400 18.96500 22.41500
H  -2.61000 16.68700 22.49400
H  -3.34900 18.36400 21.56000
H  -2.30900 19.73900 21.09700
H  -3.25600 19.93400 22.46700
H  -0.30700 16.90900 21.39600
H  -0.84500 15.36200 22.10700
H  0.71900 16.75700 24.13300
H  1.59200 16.66400 22.58400
H  1.04900 15.25400 23.25300
H  -1.57200 11.89300 26.48100
H  -1.57000 12.81400 25.11900
H  -3.17100 12.26300 25.66200
H  -3.79100 14.71700 31.07900
H  -1.50800 12.83200 34.27600
H  -0.65900 14.34800 34.12800
H  -0.26300 12.97500 33.06300
Mg 49.56400 46.52200 42.55500
C  46.19600 47.02800 41.63000
C  49.29200 43.37400 41.36800
C  52.91000 46.14000 42.98200
C  49.75300 49.82400 43.60900
N  47.89100 45.38300 41.50300
C  46.61600 45.73400 41.29600
C  45.78600 44.62000 40.69000
C  46.70700 43.40500 40.97500
C  48.06900 44.05600 41.31000
C  46.07900 42.38600 41.96300
C  45.51300 44.99100 39.21700
C  44.31000 44.29700 38.59600
H  44.47200 43.68300 37.22100
N  50.94300 44.93800 42.15100
C  50.64800 43.72800 41.63900
C  51.83900 42.89400 41.58000
C  52.89700 43.69000 42.08500
C  52.28000 45.00400 42.44100
C  51.93600 41.53100 40.96300
C  54.28000 43.17200 42.25000
O  54.55900 41.99300 42.09500
C  55.38500 44.07100 42.81900
N  51.12700 47.80300 43.28900
C  52.43200 47.43900 43.36100
C  53.33700 48.55900 43.81300
C  52.30800 49.71300 44.04100
C  50.97000 49.06300 43.65700
C  54.16800 48.26400 45.14600
C  52.70900 51.05600 43.43000
C  52.85200 52.10100 44.50100
N  48.28000 48.05900 42.70500
C  48.50200 49.32400 43.19600
C  47.28800 50.14200 43.09800
C  46.34600 49.18700 42.53700
C  46.98400 48.00500 42.21500
C  47.17400 51.56500 43.43400
C  44.97100 49.03800 42.18000
O  44.04900 49.86700 42.39400
C  44.82800 47.66200 41.49800
C  43.72100 46.93000 42.17800
O  43.64700 46.65200 43.37200
O  42.82700 46.62100 41.21200
C  41.57100 45.95200 41.69400
H  49.24800 42.32700 41.05800
H  53.99600 46.17300 43.09200
H  49.76400 50.89000 43.84600
H  44.84500 44.44700 41.21200
H  46.78900 42.82400 40.05600
H  44.99700 42.28700 41.87900
H  46.28900 42.77500 42.96000
H  46.53000 41.42500 41.71400
H  46.28100 44.84000 38.45800
H  45.36100 46.06900 39.15200
H  43.40300 44.89300 38.70100
H  44.12300 43.41600 39.21100
H  52.78700 41.41700 40.29100
H  51.02200 41.22700 40.45300
H  52.05600 40.73000 41.69200
H  56.21200 43.40700 43.07000
H  54.87200 44.34000 43.74200
H  55.44300 44.80600 42.01600
H  54.03800 48.65800 42.98400
H  52.22700 49.78700 45.12500
H  55.11600 48.78700 45.02300
H  54.45300 47.22400 45.31000
H  53.77300 48.64800 46.08700
H  52.11500 51.46300 42.61200
H  53.72600 50.97900 43.04800
H  53.89800 52.40600 44.53700
H  52.69100 51.82600 45.54300
H  52.19300 52.91300 44.19100
H  47.59100 52.08800 42.57300
H  47.73500 51.72700 44.35400
H  46.16200 51.84600 43.72600
H  44.58300 47.91700 40.46700
H  41.76100 44.98700 42.16600
H  40.96200 45.73400 40.81700
H  40.86300 46.58300 42.23000

