158

Mg 44.15400 4.39600 46.87000
C  42.11200 7.26300 46.68900
C  41.49900 2.38700 46.39200
C  46.29300 1.95300 46.08900
C  47.07900 6.67700 47.00500
N  42.05600 4.84400 46.65600
C  41.37500 6.02800 46.52600
C  39.91400 5.83500 46.16700
C  39.79300 4.26400 46.55600
C  41.20500 3.75600 46.50100
C  39.07300 3.84900 47.83800
C  39.51400 6.05000 44.67800
C  37.92600 5.93800 44.43100
H  37.37100 5.71600 43.02200
N  43.85200 2.42400 46.35400
C  42.71700 1.77400 46.34500
C  43.01100 0.34500 46.10800
C  44.37600 0.17300 46.00300
C  44.93700 1.53500 46.19800
C  41.94100 -0.77700 45.96100
C  45.11400 -1.14000 45.70300
O  44.49200 -2.18700 45.70400
C  46.49300 -1.20100 45.21600
N  46.36000 4.33700 46.46200
C  46.91800 3.13800 46.19200
C  48.50000 3.24500 46.25300
C  48.79700 4.71800 46.52800
C  47.35000 5.31100 46.67500
C  49.27400 2.29200 47.13200
C  49.69300 5.34200 45.47100
C  50.45500 6.55000 46.01900
N  44.57300 6.55500 47.00800
C  45.78400 7.28100 47.03700
C  45.37300 8.68200 47.20900
C  44.00000 8.70700 47.00200
C  43.53900 7.40500 46.90200
C  46.27100 9.84300 47.45700
C  42.83500 9.57400 46.82700
O  42.74400 10.76400 46.96900
C  41.51100 8.62000 46.66400
C  40.58100 8.76600 47.84900
O  40.38300 8.00000 48.78100
O  39.83100 9.93300 47.63200
C  38.76600 9.97900 48.67300
H  40.59600 1.77200 46.41100
H  47.03100 1.15300 46.00400
H  47.95400 7.30700 47.17900
H  39.32800 6.44900 46.85100
H  39.38500 3.78500 45.66500
H  38.69600 4.75300 48.31700
H  39.78700 3.40100 48.53000
H  38.25600 3.17700 47.57700
H  40.07200 5.36500 44.04000
H  39.74500 7.10300 44.51400
H  37.45700 6.85500 44.78800
H  37.60700 5.15800 45.12300
H  41.89400 -1.42100 45.08300
H  41.01500 -0.20300 45.91400
H  41.75600 -1.35200 46.86800
H  46.57200 -0.49100 44.39300
H  46.72200 -2.18600 44.81100
H  47.17900 -1.00200 46.03900
H  48.86300 3.11100 45.23400
H  49.33900 4.73800 47.47400
H  49.53400 1.43200 46.51600
H  48.60000 2.02100 47.94500
H  50.17000 2.73700 47.56300
H  48.91800 5.69800 44.79200
H  50.29100 4.71300 44.81200
H  49.99100 7.46900 45.66000
H  51.47200 6.36200 45.67600
H  50.54400 6.55400 47.10600
H  46.50400 9.82900 48.52200
H  45.87700 10.79200 47.09500
H  47.19900 9.65600 46.91600
H  40.87700 8.77900 45.79200
H  38.22100 9.04600 48.53100
H  38.10800 10.79400 48.37000
H  39.08500 10.10000 49.70800
Mg -1.62100 34.64200 26.06000
C  -3.23000 32.76800 28.54500
C  -0.50400 36.82300 28.52700
C  -0.18700 36.44600 23.65100
C  -3.00500 32.56800 23.70600
N  -1.85700 34.70800 28.27000
C  -2.64700 33.89600 29.08500
C  -2.46100 34.33400 30.54600
C  -1.71700 35.64400 30.48700
C  -1.34200 35.73800 28.95400
C  -2.55000 36.87700 30.98500
C  -1.74000 33.17200 31.27800
C  -2.30000 32.72200 32.66900
H  -1.29400 32.63700 33.91600
N  -0.48700 36.37000 26.13400
C  -0.07900 37.13700 27.22400
C  0.74200 38.26700 26.83500
C  0.80000 38.16900 25.39700
C  -0.01900 36.93800 24.99800
C  1.32000 39.26800 27.81400
C  1.52200 39.10000 24.42400
O  1.46200 38.97200 23.21600
C  2.09100 40.37900 24.96900
N  -1.74300 34.67100 23.96100
C  -0.93000 35.41400 23.19500
C  -1.10100 35.18000 21.74700
C  -1.95600 33.86500 21.73000
C  -2.28800 33.67400 23.23200
C  -1.83200 36.31000 20.93700
C  -1.25400 32.59100 21.17500
C  0.02300 32.23900 21.92700
N  -2.91300 33.03700 26.08000
C  -3.35900 32.29000 25.04000
C  -4.16100 31.21300 25.44600
C  -4.22500 31.35400 26.88000
C  -3.36300 32.43700 27.20800
C  -5.03600 30.36000 24.57700
C  -4.87900 30.95000 28.13600
O  -5.69900 30.03100 28.27300
C  -4.13600 31.79100 29.27500
C  -5.19800 32.50900 30.09500
O  -5.93400 33.42200 29.70300
O  -5.29100 32.05900 31.35000
C  -6.26800 32.56200 32.30400
H  -0.04600 37.37300 29.35100
H  0.45500 36.94600 22.92200
H  -3.41700 31.86400 22.98000
H  -3.49800 34.39200 30.87500
H  -0.80000 35.55700 31.06900
H  -2.67300 37.71600 30.30000
H  -2.03500 37.31800 31.83900
H  -3.54000 36.64600 31.37900
H  -0.72100 33.49600 31.48800
H  -1.50100 32.29100 30.68300
H  -2.78400 31.74600 32.61500
H  -3.05600 33.48000 32.87600
H  2.24300 39.72000 27.45100
H  1.38800 38.91700 28.84400
H  0.58800 40.07400 27.78000
H  2.29200 41.03200 24.11900
H  3.02100 40.15000 25.49000
H  1.36600 40.88900 25.60300
H  -0.15200 35.08200 21.21900
H  -2.83500 33.77800 21.09100
H  -2.35800 36.90800 21.68100
H  -2.51700 35.96400 20.16300
H  -1.07400 36.85400 20.37300
H  -0.88400 32.79700 20.17100
H  -2.04500 31.84100 21.20300
H  0.08300 31.17000 22.12800
H  0.11700 32.77800 22.87000
H  0.85300 32.47800 21.26200
H  -6.05600 30.28600 24.95400
H  -4.62500 29.39000 24.29700
H  -5.08700 30.91600 23.64100
H  -3.45800 31.17700 29.86800
H  -5.73100 33.22400 32.98300
H  -6.59200 31.72500 32.92100
H  -7.09200 33.11700 31.85400

