158

Mg 24.85700 1.68000 29.23900
C  27.07500 1.22500 31.88300
C  22.31400 1.97700 31.67500
C  22.48900 1.89400 26.74300
C  27.21000 1.15000 26.93200
N  24.73500 1.53400 31.56000
C  25.82200 1.40800 32.33400
C  25.50400 1.70500 33.81100
C  23.86900 1.89200 33.72100
C  23.59000 1.83400 32.18600
C  23.00700 0.87700 34.48200
C  26.30200 2.99000 34.39400
C  27.03200 2.77600 35.76700
H  26.52200 3.64200 36.97700
N  22.70800 1.83500 29.21500
C  21.82500 1.90600 30.37500
C  20.49900 1.96600 29.87600
C  20.57700 1.85500 28.48700
C  21.94500 1.82000 28.06100
C  19.25600 2.08000 30.79100
C  19.44800 1.84300 27.48600
O  19.67300 1.91800 26.27600
C  18.04500 1.82500 27.97200
N  24.84000 1.47000 27.04300
C  23.85100 1.72800 26.29100
C  24.21800 2.09700 24.79700
C  25.80200 1.81400 24.82300
C  25.99900 1.50800 26.37400
C  23.44800 1.23600 23.69300
C  26.67900 3.04000 24.30100
C  26.68000 4.26000 25.19500
N  26.69300 1.21200 29.39200
C  27.58100 0.92900 28.28000
C  28.90300 0.72200 28.84900
C  28.80800 0.88400 30.27700
C  27.43800 1.11600 30.52900
C  30.10500 0.35700 28.07100
C  29.49800 0.84300 31.53700
O  30.68700 0.95200 31.80300
C  28.36900 1.09400 32.59100
C  28.51300 0.08900 33.61500
O  27.97300 -1.01700 33.54700
O  29.40200 0.55100 34.60400
C  29.28600 -0.14400 35.88700
H  21.55100 2.03600 32.45300
H  21.77200 2.08000 25.94000
H  27.98500 1.07700 26.16600
H  25.75100 0.84900 34.43800
H  23.57600 2.87600 34.08900
H  22.60600 0.15400 33.77200
H  22.24300 1.47400 34.97900
H  23.65400 0.42100 35.23200
H  25.50400 3.70200 34.60500
H  26.99300 3.43400 33.67800
H  28.07600 3.06600 35.64500
H  27.07500 1.74100 36.10500
H  18.74900 3.04500 30.79600
H  19.50300 1.92500 31.84100
H  18.53800 1.27200 30.64800
H  17.81300 2.81300 28.37100
H  18.02000 0.98100 28.66200
H  17.31800 1.62300 27.18600
H  24.10800 3.18000 24.74400
H  26.00100 0.90100 24.26300
H  23.24900 0.20300 23.97900
H  23.98300 1.25500 22.74300
H  22.51900 1.77200 23.49900
H  26.19000 3.43400 23.41100
H  27.71100 2.79400 24.05000
H  27.57600 4.87500 25.29000
H  26.38800 4.01300 26.21600
H  25.95700 4.91800 24.71300
H  29.92100 -0.60300 27.58900
H  31.03300 0.47500 28.63000
H  30.12900 1.02900 27.21300
H  28.65600 2.08800 32.93600
H  28.27200 0.01000 36.25800
H  29.96100 0.15400 36.68900
H  29.39400 -1.20200 35.64500
Mg 53.94500 25.17300 44.27200
C  51.31200 27.57200 43.61200
C  51.86100 22.76700 43.06900
C  56.67900 23.24300 44.16200
C  55.97300 27.98000 45.20300
N  51.89100 25.25600 43.26400
C  51.00500 26.32400 43.09000
C  49.69800 25.85400 42.43600
C  49.85200 24.29300 42.61100
C  51.30500 24.04100 42.95100
C  48.87400 23.78900 43.74400
C  49.48500 26.22400 40.92100
C  50.75000 26.56000 40.09300
H  50.95200 25.64000 38.84400
N  54.25300 23.19200 43.65300
C  53.21800 22.33600 43.36000
C  53.79800 21.01700 43.17700
C  55.21700 21.12100 43.51100
C  55.47000 22.53400 43.84000
C  53.03900 19.77100 42.79500
C  56.19300 20.00300 43.54800
O  55.69100 18.84400 43.35500
C  57.60800 20.15300 43.89400
N  56.01100 25.59300 44.56600
C  56.94900 24.58300 44.43700
C  58.37400 25.10900 44.59900
C  58.10400 26.66600 44.68400
C  56.61100 26.78600 44.83400
C  59.27700 24.53600 45.75700
C  58.58300 27.52300 43.50100
C  59.28600 28.86600 43.83200
N  53.65100 27.33900 44.55700
C  54.56200 28.27400 45.07400
C  53.81300 29.52200 45.30900
C  52.60700 29.23000 44.74100
C  52.52000 27.92800 44.22500
C  54.44200 30.74200 45.80400
C  51.35100 29.79500 44.45600
O  51.04600 30.93100 44.70900
C  50.47600 28.77800 43.72000
C  50.10600 29.30000 42.35400
O  50.86600 29.28500 41.38600
O  48.75300 29.67500 42.35500
C  48.19000 30.11700 40.99600
H  51.31100 21.86400 42.79700
H  57.68500 22.82400 44.23400
H  56.54000 28.89300 45.39700
H  48.91500 26.25300 43.08100
H  49.80700 23.76300 41.66000
H  48.71900 24.51500 44.54200
H  49.34900 22.85600 44.04600
H  47.92200 23.62300 43.24000
H  48.87600 27.12700 40.87400
H  48.89300 25.50200 40.36000
H  51.72500 26.56300 40.58000
H  50.56600 27.59200 39.79300
H  52.17500 20.08300 42.20900
H  52.62400 19.33900 43.70600
H  53.62300 19.03000 42.24900
H  58.11000 19.28700 44.32600
H  57.80400 20.83100 44.72400
H  58.13000 20.57100 43.03300
H  58.94500 24.87200 43.70100
H  58.42300 27.08900 45.63600
H  58.64500 23.95400 46.42700
H  59.75400 25.27900 46.39600
H  60.07600 23.89400 45.38700
H  57.86600 27.60900 42.68400
H  59.36800 26.91400 43.05300
H  59.33500 29.42500 42.89700
H  60.27400 28.67200 44.25100
H  58.78200 29.43000 44.61700
H  55.09400 30.36900 46.59300
H  53.86200 31.63400 46.04200
H  54.99800 31.00800 44.90400
H  49.53200 28.62600 44.24500
H  48.44700 29.37700 40.23800
H  48.58400 31.10500 40.75700
H  47.10400 30.20400 41.04500

