158

Mg 17.52600 -1.25100 28.22500
C  16.19000 0.94400 30.70300
C  19.42300 -2.74500 30.55900
C  19.04500 -2.88600 25.65200
C  15.90100 0.79800 25.83500
N  17.74500 -0.87600 30.35400
C  17.02800 -0.08900 31.20500
C  17.34800 -0.28000 32.73100
C  18.46000 -1.43000 32.57800
C  18.52300 -1.74300 31.07600
C  19.88200 -1.10900 33.14300
C  16.12500 -0.74800 33.53000
C  16.00900 -0.42700 34.98500
H  17.07000 0.48200 35.72500
N  18.99500 -2.64800 28.14000
C  19.63200 -3.20600 29.23200
C  20.25900 -4.40700 28.83600
C  20.31000 -4.38600 27.38100
C  19.44600 -3.28700 26.96700
C  20.68000 -5.46500 29.83800
C  20.97000 -5.33700 26.39500
O  20.94500 -5.25600 25.14200
C  21.89800 -6.48500 26.99900
N  17.39700 -1.14100 26.00600
C  18.19300 -1.87200 25.18000
C  18.07100 -1.42300 23.68700
C  17.01300 -0.25200 23.81900
C  16.72700 -0.20600 25.36300
C  19.40000 -1.10000 22.86700
C  15.73100 -0.40700 22.98700
C  14.54600 -1.28200 23.50400
N  16.17100 0.38300 28.19000
C  15.64200 1.12300 27.16300
C  14.91500 2.26600 27.66800
C  15.14600 2.21800 29.08100
C  15.91600 1.11100 29.32500
C  14.09800 3.28900 26.74200
C  14.82900 2.87000 30.33800
O  14.03800 3.81300 30.54100
C  15.57300 2.11700 31.48800
C  16.53200 2.98600 32.20500
O  17.79400 2.97500 32.10300
O  15.83900 3.73500 33.11500
C  16.59800 4.66500 33.92500
H  19.95600 -3.14300 31.42500
H  19.55600 -3.40600 24.83800
H  15.43500 1.45000 25.09200
H  17.78100 0.59600 33.21300
H  18.22700 -2.30300 33.18600
H  19.88900 -0.07200 33.47700
H  20.74200 -1.35700 32.52000
H  20.07700 -1.63500 34.07800
H  16.09900 -1.83600 33.58900
H  15.22700 -0.28600 33.11900
H  15.87500 -1.31500 35.60300
H  15.08400 0.13200 35.13000
H  21.76400 -5.57400 29.78600
H  20.19600 -6.38900 29.52300
H  20.38600 -5.37200 30.88300
H  22.25300 -7.06000 26.14400
H  21.24200 -7.16000 27.54800
H  22.66000 -6.02800 27.63100
H  17.51300 -2.22500 23.20500
H  17.50000 0.66200 23.47800
H  19.26500 -0.13500 22.37900
H  19.55700 -1.82000 22.06300
H  20.15700 -0.99400 23.64500
H  15.97600 -0.89700 22.04500
H  15.47200 0.59100 22.63600
H  13.83900 -0.62700 24.01300
H  14.92600 -1.99700 24.23400
H  14.18700 -1.85900 22.65200
H  14.75300 3.77500 26.01800
H  13.81700 4.00500 27.51400
H  13.24500 2.78600 26.28700
H  14.80100 1.73100 32.15400
H  16.84300 4.20700 34.88300
H  15.85900 5.43000 34.16100
H  17.52200 5.02100 33.46900
Mg 47.61800 34.10900 27.42000
C  45.80300 32.66800 29.84600
C  47.98700 37.03400 29.24800
C  48.69700 35.66700 24.66800
C  47.04900 31.20200 25.49700
N  46.84300 34.85700 29.29000
C  46.36700 33.94300 30.24200
C  46.37700 34.55000 31.63800
C  46.88300 36.06400 31.32300
C  47.32700 35.99900 29.88300
C  45.86200 37.20500 31.68100
C  47.17000 33.77000 32.75700
C  47.98300 34.61400 33.70700
H  47.13800 35.61000 34.51300
N  48.33600 36.06300 26.99700
C  48.48400 37.03900 27.93100
C  49.32100 38.12300 27.33700
C  49.38300 37.88700 25.92100
C  48.77800 36.49000 25.74300
C  49.91100 39.21700 28.11200
C  50.07900 38.61900 24.83300
O  50.24500 38.14800 23.70700
C  50.66200 39.97900 25.07500
N  47.83900 33.57500 25.33000
C  48.30700 34.39800 24.44300
C  48.72900 33.56700 23.17000
C  48.17800 32.16400 23.53900
C  47.68900 32.29100 24.87900
C  48.09800 34.02800 21.83900
C  49.29800 31.09200 23.37900
C  50.15400 30.78600 24.61600
N  46.76400 32.25700 27.63600
C  46.61000 31.15600 26.82100
C  45.76600 30.17500 27.45800
C  45.35000 30.76400 28.56600
C  46.03400 31.95900 28.70300
C  45.32000 28.93800 26.85900
C  44.41700 30.64300 29.69600
O  43.64600 29.76200 29.97200
C  44.66800 31.89900 30.54700
C  44.87300 31.49300 31.96700
O  45.77600 30.69300 32.36500
O  43.82900 32.00100 32.72900
C  43.92300 31.83200 34.18000
H  48.15000 37.89300 29.90200
H  49.04600 36.17000 23.76400
H  46.91900 30.22400 25.03000
H  45.32900 34.59600 31.93200
H  47.83400 36.30400 31.80000
H  44.92900 36.79400 32.06600
H  45.68500 37.71800 30.73500
H  46.20300 37.92200 32.42800
H  47.94600 33.17200 32.27900
H  46.49400 33.16500 33.36200
H  48.79800 35.12700 33.19700
H  48.38600 33.93800 34.46200
H  49.55700 40.13400 27.64000
H  51.00100 39.20100 28.12100
H  49.56000 39.25100 29.14400
H  51.54000 39.88400 25.71300
H  49.96400 40.68700 25.52400
H  51.10800 40.29800 24.13300
H  49.81600 33.50700 23.11300
H  47.19800 31.89300 23.14600
H  47.47400 34.89700 22.05100
H  47.50800 33.33800 21.23600
H  48.97300 34.19100 21.21200
H  49.98800 31.35500 22.57800
H  48.70600 30.25100 23.01600
H  49.90400 31.38600 25.49100
H  51.19200 31.03500 24.39300
H  50.03600 29.72500 24.83700
H  45.83500 28.68400 25.93200
H  44.24400 28.86800 26.70100
H  45.55700 28.26300 27.68200
H  43.81800 32.58100 30.55300
H  44.55600 32.65100 34.52300
H  44.49700 30.95900 34.49200
H  42.95500 31.82100 34.68100

