158

Mg 47.02800 16.55500 28.92100
C  44.94100 15.84300 31.75300
C  49.19700 18.21700 31.03100
C  48.60700 17.61500 26.23900
C  44.57200 15.12900 26.90500
N  47.00700 16.92300 31.16000
C  46.10700 16.48500 32.10100
C  46.58700 16.88600 33.52900
C  47.80700 17.79300 33.21400
C  48.05700 17.63600 31.71400
C  47.67400 19.25900 33.48700
C  46.92200 15.63700 34.28700
C  47.60800 15.87500 35.63000
H  47.34600 17.06100 36.47300
N  48.66200 17.69500 28.62500
C  49.49100 18.17900 29.62200
C  50.63900 18.81000 29.04100
C  50.42300 18.78600 27.64600
C  49.22200 17.99900 27.43100
C  51.84400 19.31000 29.81200
C  51.31300 19.32000 26.56600
O  50.99600 19.25200 25.36500
C  52.61900 19.99300 26.87400
N  46.78100 16.26800 26.86100
C  47.56000 16.82900 25.90900
C  47.16200 16.38500 24.48000
C  45.82100 15.60500 24.75400
C  45.70100 15.58700 26.28400
C  47.04600 17.63800 23.53000
C  45.64700 14.18400 24.05000
C  45.88200 12.88600 24.84200
N  45.17400 15.61500 29.24000
C  44.30400 15.08000 28.27600
C  43.18200 14.55100 28.95200
C  43.35100 14.83800 30.35400
C  44.61200 15.47400 30.45700
C  41.92400 14.08200 28.29700
C  42.72500 14.86300 31.61200
O  41.64500 14.56400 32.02700
C  43.79700 15.38800 32.56600
C  43.22800 16.61400 33.31300
O  42.89600 17.64400 32.76700
O  43.01600 16.43000 34.64700
C  42.58600 17.60400 35.35700
H  49.87000 18.72700 31.72300
H  49.20300 17.82200 25.34700
H  43.93100 14.57100 26.22000
H  45.82800 17.49300 34.02300
H  48.65200 17.45500 33.81400
H  48.20500 19.47300 34.41500
H  46.64200 19.55700 33.67600
H  48.16000 19.82500 32.69300
H  47.58800 14.97700 33.73000
H  45.96500 15.15200 34.47900
H  48.68900 15.75200 35.56000
H  47.20900 15.15200 36.34100
H  52.05300 20.32000 29.46200
H  52.69100 18.69900 29.50100
H  51.69900 19.36800 30.89100
H  53.09900 20.25800 25.93200
H  53.29200 19.29400 27.37100
H  52.43100 20.94800 27.36400
H  47.92700 15.76300 24.01600
H  44.95800 16.21300 24.48400
H  47.71700 17.56400 22.67500
H  47.38300 18.52100 24.07300
H  46.02900 17.75900 23.15700
H  46.30600 14.02300 23.19600
H  44.61800 14.30000 23.71000
H  46.10000 13.13200 25.88100
H  46.74200 12.29800 24.51900
H  45.04900 12.18700 24.76400
H  41.69800 14.54100 27.33500
H  41.15000 14.34900 29.01700
H  41.92800 12.99400 28.21900
H  44.04000 14.60100 33.28000
H  41.67600 17.94100 34.86100
H  43.32400 18.40500 35.38400
H  42.44700 17.29300 36.39200
Mg -5.84000 24.80800 25.98400
C  -4.49900 26.33300 28.64300
C  -8.00000 23.07500 28.26700
C  -7.10400 23.07100 23.47900
C  -3.56600 26.44900 23.86300
N  -5.99300 24.41900 28.18100
C  -5.48000 25.38700 29.02200
C  -5.97700 25.17400 30.47100
C  -6.96800 23.99100 30.33400
C  -7.03600 23.84000 28.82600
C  -6.60800 22.64700 30.91700
C  -6.65500 26.43900 31.10500
C  -6.65300 26.52700 32.59500
H  -5.98700 25.47800 33.49400
N  -7.36500 23.25400 25.88600
C  -8.12300 22.75000 26.91000
C  -9.20300 21.97400 26.33000
C  -8.98600 21.91500 24.93500
C  -7.80800 22.77400 24.71300
C  -10.37200 21.48400 27.09500
C  -9.72700 21.16100 23.93000
O  -9.45600 21.16000 22.74800
C  -10.74100 20.08700 24.43300
N  -5.28200 24.66200 23.97900
C  -5.93900 23.83900 23.14500
C  -5.38900 23.88600 21.63200
C  -4.51600 25.20300 21.73900
C  -4.45700 25.51700 23.27200
C  -4.63200 22.56900 21.21100
C  -5.07700 26.46600 21.05900
C  -4.50100 26.96900 19.67000
N  -4.21700 26.05200 26.12600
C  -3.43400 26.72500 25.25000
C  -2.54600 27.72500 25.95500
C  -2.93800 27.47400 27.31900
C  -3.91700 26.50800 27.33700
C  -1.61700 28.72800 25.31600
C  -2.76600 28.04200 28.56800
O  -2.05400 28.93100 28.89000
C  -3.71200 27.28100 29.48900
C  -2.83300 26.55000 30.39100
O  -2.60700 25.38300 30.47000
O  -2.47100 27.42100 31.39200
C  -1.75200 26.97900 32.59900
H  -8.59800 22.53100 29.00100
H  -7.45200 22.43900 22.65900
H  -2.89600 27.00900 23.20800
H  -5.19100 24.84400 31.15000
H  -7.94600 24.19900 30.76600
H  -7.20200 22.53900 31.82400
H  -5.55500 22.56700 31.18700
H  -6.69800 21.71800 30.35400
H  -7.71200 26.53900 30.85900
H  -6.31300 27.35500 30.62400
H  -7.71500 26.60500 32.82900
H  -6.20000 27.49900 32.79300
H  -10.31200 21.88200 28.10800
H  -10.28800 20.39800 27.05800
H  -11.28200 21.94800 26.71600
H  -11.53100 20.66400 24.91400
H  -10.18000 19.37000 25.03300
H  -11.17200 19.51000 23.61500
H  -6.19900 24.00300 20.91200
H  -3.53400 25.01000 21.30700
H  -3.57900 22.78200 21.02500
H  -5.11400 22.07600 20.36700
H  -4.59200 21.84400 22.02400
H  -5.00000 27.30100 21.75600
H  -6.14800 26.28800 20.96400
H  -4.08000 27.95800 19.84800
H  -5.27000 26.93700 18.89800
H  -3.67300 26.35900 19.30800
H  -1.91700 29.75300 25.53700
H  -1.64600 28.80800 24.22900
H  -0.56400 28.50000 25.48100
H  -4.37600 27.98700 29.98700
H  -1.11300 26.11700 32.40400
H  -2.34000 26.74000 33.48500
H  -1.05600 27.78600 32.82500

