158

Mg 54.49400 24.18600 45.43600
C  51.71200 26.26500 44.92100
C  52.70900 21.46600 44.25700
C  57.25700 22.43700 45.56500
C  56.28100 27.12900 46.31500
N  52.44200 23.99900 44.59800
C  51.53100 24.96000 44.37800
C  50.25400 24.36200 43.73800
C  50.49700 22.81500 44.01700
C  51.98600 22.75800 44.21700
C  49.94700 22.23600 45.30000
C  50.25700 24.76000 42.19200
C  48.94400 25.13800 41.44000
H  48.44900 24.18000 40.27400
N  54.85000 22.16900 45.02700
C  54.03000 21.22200 44.52000
C  54.78000 19.96100 44.41600
C  56.09000 20.19600 44.93000
C  56.07500 21.64000 45.24000
C  54.04300 18.64100 44.01000
C  57.18400 19.12300 45.13900
O  56.89800 18.00200 44.74400
C  58.51900 19.48900 45.61600
N  56.55200 24.73900 45.79900
C  57.47300 23.73300 45.87500
C  58.82800 24.35300 46.31700
C  58.52900 25.89400 46.31900
C  57.01300 25.87600 46.24400
C  59.33000 23.62700 47.61600
C  59.06200 26.86000 45.08100
C  60.54100 26.63700 44.70800
N  54.17100 26.28300 45.60400
C  54.97400 27.34900 46.03000
C  54.20600 28.50300 46.10900
C  52.94800 28.16000 45.67000
C  52.91700 26.77100 45.40700
C  54.67400 29.79500 46.50100
C  51.62100 28.75400 45.40300
O  51.15800 29.84100 45.61800
C  50.79700 27.51900 44.82300
C  50.35900 27.89700 43.44200
O  51.20500 28.26000 42.60800
O  48.98700 27.81400 43.27400
C  48.49800 28.30200 41.99600
H  52.00500 20.67600 43.98900
H  58.22300 21.94300 45.68400
H  56.80300 28.03200 46.64000
H  49.38200 24.68400 44.30600
H  50.25100 22.18100 43.16600
H  49.08100 22.78400 45.67200
H  50.65300 22.11100 46.12100
H  49.61100 21.22300 45.07600
H  50.66800 23.88700 41.68500
H  50.90800 25.61800 42.02100
H  49.09000 26.05000 40.86100
H  48.18700 25.29400 42.20800
H  53.56700 18.82700 43.04700
H  53.28600 18.15300 44.62500
H  54.74100 17.83100 43.79700
H  59.13000 20.07300 44.92800
H  59.05700 18.58900 45.91700
H  58.34000 20.00000 46.56200
H  59.55100 24.21000 45.51300
H  58.63500 26.34800 47.30500
H  59.74900 24.37400 48.29000
H  60.08200 22.85300 47.46500
H  58.51700 23.21800 48.21600
H  58.77100 27.87300 45.36100
H  58.54900 26.74000 44.12700
H  60.54900 26.14600 43.73500
H  61.00300 26.04700 45.50000
H  61.15000 27.51700 44.49800
H  54.19400 30.01300 47.45500
H  54.36600 30.35500 45.61800
H  55.73600 30.03000 46.55700
H  49.95300 27.27100 45.46600
H  49.09800 28.01900 41.13100
H  48.63400 29.38400 41.99900
H  47.46000 28.14900 41.69900
Mg 30.79500 57.97300 38.42900
C  28.07100 55.97100 37.40100
C  32.68500 55.19700 38.17000
C  33.28400 59.94200 39.38300
C  28.72800 60.73700 38.25000
N  30.41300 55.84900 37.65200
C  29.23000 55.29000 37.35500
C  29.41700 53.78700 37.00000
C  30.92400 53.59500 37.24300
C  31.36600 54.93700 37.78800
C  31.39800 52.43000 38.19500
C  29.00600 53.39000 35.55400
C  29.48500 54.43700 34.46500
H  28.36600 54.79600 33.46000
N  32.75700 57.59500 38.79400
C  33.39300 56.39300 38.62100
C  34.73600 56.52800 38.98600
C  34.99900 57.88200 39.27500
C  33.68100 58.57900 39.16800
C  35.75100 55.39500 38.88600
C  36.33900 58.42800 39.51600
O  37.35400 57.76700 39.25100
C  36.61600 59.81500 40.20000
N  30.95700 60.05900 38.87800
C  32.08900 60.66800 39.31100
C  31.98900 62.24800 39.33700
C  30.55100 62.44900 39.02300
C  30.03600 61.03200 38.60100
C  32.67000 63.00800 40.50300
C  30.15300 63.69300 38.19500
C  29.06300 64.66800 38.71900
N  28.79800 58.32700 38.00500
C  28.08000 59.54100 37.98200
C  26.67700 59.25600 37.64400
C  26.58500 57.86500 37.51800
C  27.90900 57.34700 37.71300
C  25.54400 60.30000 37.55300
C  25.70500 56.80000 37.28100
O  24.47800 56.90700 37.26000
C  26.53200 55.58800 37.18600
C  25.99800 54.48200 38.12400
O  26.51000 54.15100 39.14000
O  24.91400 53.91700 37.46000
C  24.36800 52.73500 38.05700
H  33.24900 54.26200 38.19000
H  34.08000 60.62300 39.69200
H  28.00700 61.55100 38.34000
H  28.68900 53.22000 37.57800
H  31.33600 53.44200 36.24600
H  32.15200 51.78100 37.75000
H  30.57200 51.76200 38.44000
H  31.72900 52.79600 39.16700
H  27.93400 53.20000 35.60100
H  29.41600 52.39400 35.38900
H  30.26800 53.85200 33.98100
H  29.99100 55.31200 34.87400
H  36.38200 55.36200 39.77500
H  36.45700 55.73200 38.12700
H  35.35200 54.41600 38.62200
H  37.53100 59.80000 40.79300
H  35.84100 60.09200 40.91400
H  36.71500 60.49400 39.35300
H  32.53700 62.59300 38.46100
H  30.02800 62.61000 39.96600
H  33.21100 62.27700 41.10400
H  31.84300 63.37800 41.10900
H  33.38400 63.79400 40.26100
H  29.84400 63.33900 37.21100
H  31.05500 64.29700 38.09800
H  29.56800 65.29000 39.45700
H  28.17000 64.13300 39.04300
H  28.59600 65.22700 37.90800
H  24.65900 59.81100 37.14600
H  25.81500 61.02300 36.78400
H  25.40000 60.83800 38.49100
H  26.48100 55.14600 36.19100
H  25.17200 52.16700 38.52500
H  23.88800 52.19600 37.24000
H  23.62100 52.93600 38.82500

