158

Mg 46.75500 24.65100 27.99700
C  48.11000 27.04100 30.42200
C  45.99900 22.63800 30.80100
C  45.81700 22.44200 25.88300
C  47.84600 26.88100 25.55400
N  46.88300 24.97200 30.37000
C  47.49000 25.99000 31.07400
C  47.29000 25.73700 32.61000
C  46.69200 24.32300 32.67400
C  46.44600 23.92800 31.18700
C  47.50900 23.19100 33.44900
C  46.46500 26.88700 33.23800
C  45.78900 26.65200 34.68200
H  46.25700 27.58200 35.86500
N  46.12300 22.70300 28.27700
C  45.82900 22.08200 29.44500
C  45.29000 20.73700 29.12600
C  45.24500 20.66700 27.75100
C  45.65100 21.97100 27.22800
C  45.08900 19.75600 30.19700
C  44.85500 19.51100 26.92500
O  44.80100 19.56200 25.70000
C  44.38900 18.28000 27.52100
N  47.05800 24.57900 25.99500
C  46.40900 23.59200 25.29800
C  46.61500 23.71400 23.80300
C  47.02300 25.29600 23.76500
C  47.31600 25.64100 25.21700
C  47.63600 22.70400 23.22800
C  45.87000 26.07400 23.07500
C  46.06100 27.56800 22.74000
N  47.71700 26.58600 27.89000
C  48.18300 27.28400 26.82400
C  48.89000 28.46800 27.28000
C  48.96800 28.39000 28.66900
C  48.23900 27.22900 29.04600
C  49.62400 29.45200 26.37200
C  49.37000 29.09600 29.87000
O  50.09200 30.11100 30.03900
C  48.71100 28.24600 31.06900
C  49.88000 27.95100 31.92100
O  50.79600 27.16900 31.73400
O  49.70800 28.71900 33.02900
C  50.47000 28.48300 34.30800
H  45.85100 22.06600 31.72000
H  45.56000 21.69400 25.13000
H  48.25000 27.53300 24.77700
H  48.24600 25.86300 33.11800
H  45.79100 24.21200 33.27700
H  46.91200 22.87300 34.30400
H  48.51700 23.56300 33.63700
H  47.75400 22.34800 32.80400
H  45.68500 27.21500 32.55000
H  47.05600 27.75400 33.53600
H  45.92600 25.60400 34.94800
H  44.77800 26.89400 34.35700
H  44.07200 19.39700 30.35600
H  45.36100 20.11100 31.19100
H  45.77800 18.91800 30.09400
H  44.96600 17.88900 28.36000
H  44.21200 17.49300 26.78800
H  43.48300 18.68700 27.97000
H  45.64400 23.64600 23.31300
H  47.91300 25.35100 23.13800
H  48.27300 22.22500 23.97200
H  48.10900 23.25000 22.41100
H  46.93600 21.93800 22.89500
H  45.03700 26.09900 23.77800
H  45.58000 25.57000 22.15300
H  47.14500 27.64900 22.65700
H  45.73200 28.20500 23.56100
H  45.54200 27.83900 21.82000
H  49.82400 29.06600 25.37200
H  50.58700 29.68700 26.82500
H  49.17100 30.44200 26.43400
H  48.01000 28.85200 31.64200
H  50.08400 27.59500 34.80900
H  50.22600 29.30000 34.98700
H  51.52700 28.56500 34.05600
Mg 30.48100 58.37800 40.28800
C  27.49200 56.71300 39.13300
C  32.38300 55.83100 39.09100
C  33.06800 60.32700 41.05100
C  28.42300 61.27500 40.41200
N  30.00300 56.52900 39.29600
C  28.72300 55.97400 39.05500
C  28.82000 54.57700 38.47500
C  30.40500 54.25100 38.55700
C  31.02000 55.65300 38.96100
C  30.80900 53.10800 39.59800
C  28.33100 54.52000 36.93600
C  28.84600 55.73600 35.99200
H  27.87100 56.02400 34.86500
N  32.44000 58.03900 40.17600
C  33.12600 56.92800 39.64100
C  34.51800 57.08200 39.71800
C  34.73700 58.39500 40.31400
C  33.41400 59.01400 40.56500
C  35.50100 56.06400 39.06900
C  36.09400 58.88500 40.59500
O  37.07200 58.24300 40.21900
C  36.22800 60.15000 41.44300
N  30.73800 60.57500 40.67500
C  31.90800 61.08300 41.09000
C  31.79500 62.60600 41.23500
C  30.27300 62.91700 41.02800
C  29.72100 61.47800 40.79600
C  32.47500 63.27900 42.49000
C  29.90400 63.93800 39.92000
C  29.18400 65.18500 40.28100
N  28.34600 58.92100 40.06700
C  27.69300 60.12800 40.09100
C  26.31500 60.02500 39.70600
C  26.18700 58.68600 39.39800
C  27.44400 58.07400 39.54000
C  25.32500 61.18300 39.65400
C  25.25400 57.72500 39.02000
O  24.05200 57.75200 38.84100
C  26.08300 56.41200 38.85800
C  25.46300 55.35200 39.65900
O  25.47400 55.25500 40.87100
O  25.03100 54.34100 38.85900
C  24.10000 53.31100 39.54600
H  32.90200 54.90900 38.82200
H  33.89800 61.00200 41.26700
H  27.74900 62.13300 40.45600
H  28.18300 54.00300 39.14900
H  30.79000 53.98300 37.57200
H  31.22000 52.25000 39.06600
H  29.90400 52.86300 40.15500
H  31.58000 53.38800 40.31500
H  27.26000 54.31800 36.90800
H  28.79400 53.61200 36.54800
H  29.77700 55.39700 35.53800
H  29.08700 56.61200 36.59300
H  36.24300 55.79600 39.82200
H  35.94100 56.44800 38.14900
H  34.98100 55.11900 38.91000
H  35.61500 60.01600 42.33500
H  35.86000 61.05600 40.96100
H  37.21900 60.56600 41.62600
H  32.31800 63.00300 40.36500
H  29.89000 63.23700 41.99700
H  32.90700 62.58000 43.20600
H  31.74400 63.87600 43.03600
H  33.22500 64.02600 42.22800
H  29.40400 63.41300 39.10600
H  30.82200 64.30800 39.46400
H  28.72000 65.48200 39.34100
H  29.92500 65.90200 40.63700
H  28.47800 64.98200 41.08600
H  24.41700 60.85400 39.14800
H  25.80600 61.96700 39.06800
H  25.15300 61.47300 40.69100
H  25.97800 56.08800 37.82300
H  23.64400 52.85200 38.66900
H  23.35900 53.78800 40.18600
H  24.58700 52.53200 40.13300

