158

Mg 0.39700 42.51800 24.96700
C  1.31500 42.61200 28.37700
C  -2.68000 41.22300 26.02800
C  -0.26100 42.07200 21.81600
C  3.76200 43.21300 24.15700
N  -0.49200 41.87400 27.02100
C  -0.00100 42.27400 28.20800
C  -0.98600 41.99900 29.36100
C  -2.19900 41.17500 28.68300
C  -1.79500 41.44500 27.14700
C  -2.45000 39.65600 28.87700
C  -1.41300 43.47900 29.83100
C  -1.56600 43.55400 31.34700
H  -2.04400 42.39600 32.16800
N  -1.21100 41.85700 24.06700
C  -2.41100 41.40100 24.60100
C  -3.36500 41.19000 23.55800
C  -2.70000 41.42300 22.36100
C  -1.37100 41.86200 22.71100
C  -4.77500 40.51300 23.84600
C  -3.32900 41.31900 20.99500
O  -2.63800 41.53300 19.96800
C  -4.76200 40.83900 20.75700
N  1.58800 42.60200 23.19000
C  1.10900 42.33100 21.99400
C  2.14600 42.48900 20.86600
C  3.31100 43.28400 21.61600
C  2.87400 43.10100 23.12200
C  2.52600 41.13000 20.20800
C  3.46300 44.77600 21.17000
C  4.07300 45.17900 19.87700
N  2.18300 42.88200 25.99400
C  3.48000 43.09700 25.54000
C  4.38500 43.22600 26.66800
C  3.56500 43.12600 27.83300
C  2.23400 42.88900 27.33500
C  5.90600 43.50600 26.63500
C  3.55600 43.12000 29.26400
O  4.46800 43.14200 30.04400
C  2.09500 42.90500 29.67900
C  1.93600 41.73800 30.66000
O  2.49100 40.67300 30.49500
O  1.23400 42.05000 31.83900
C  1.18600 40.90300 32.77700
H  -3.72100 41.00300 26.27700
H  -0.41800 41.87200 20.75400
H  4.78400 43.42400 23.83800
H  -0.60600 41.42400 30.20600
H  -3.19700 41.60200 28.78000
H  -1.73600 39.35400 29.64400
H  -2.28000 39.14900 27.92800
H  -3.45000 39.45100 29.25800
H  -2.34100 43.81800 29.37100
H  -0.68300 44.21400 29.49300
H  -2.25300 44.39600 31.42500
H  -0.66300 44.00700 31.75600
H  -4.95800 39.99600 24.78700
H  -4.77700 39.69400 23.12700
H  -5.56300 41.23900 23.64400
H  -4.87400 39.78400 21.00700
H  -5.00000 40.90600 19.69500
H  -5.49100 41.42700 21.31400
H  1.59600 43.10100 20.15100
H  4.17800 42.73400 21.25100
H  2.03400 41.04300 19.23900
H  2.10300 40.31900 20.80100
H  3.59800 40.94600 20.14600
H  3.96400 45.22700 22.02600
H  2.49300 45.25700 21.29700
H  4.80900 45.97200 20.01000
H  3.23300 45.51100 19.26700
H  4.52800 44.35700 19.32600
H  6.27600 42.87700 27.44500
H  6.13800 44.52900 26.93300
H  6.39800 43.19400 25.71400
H  1.79200 43.78000 30.25500
H  0.48800 40.14600 32.42000
H  0.97500 41.26300 33.78400
H  2.12700 40.42600 33.05000
Mg -6.03800 25.69800 25.95400
C  -4.67600 26.84700 28.90600
C  -7.65100 23.14900 27.86700
C  -7.07300 24.20100 23.11900
C  -3.57000 27.49300 24.16800
N  -5.92700 24.96600 28.05200
C  -5.53400 25.78000 29.08900
C  -6.10000 25.24100 30.39600
C  -6.82800 23.89500 30.06700
C  -6.78000 23.98400 28.56300
C  -6.07100 22.60200 30.55000
C  -6.99400 26.22700 31.09100
C  -6.79400 26.41300 32.62500
H  -6.18000 25.18800 33.40700
N  -7.35300 24.01100 25.57600
C  -8.00200 23.21000 26.45600
C  -8.94600 22.40500 25.74600
C  -8.81700 22.63300 24.36200
C  -7.69500 23.64000 24.28300
C  -10.13200 21.64500 26.46200
C  -9.57300 22.05300 23.24700
O  -9.20700 22.23300 22.07000
C  -10.71700 21.09200 23.37800
N  -5.54700 26.05500 23.92300
C  -6.10700 25.22800 22.95600
C  -5.37900 25.49800 21.59500
C  -4.34800 26.64300 21.90300
C  -4.46600 26.76600 23.42700
C  -4.67700 24.27100 20.95700
C  -4.74200 28.02800 21.22000
C  -3.69200 28.62000 20.33600
N  -4.55400 27.06700 26.36800
C  -3.63400 27.73600 25.56900
C  -2.95600 28.65100 26.35500
C  -3.28400 28.38600 27.69400
C  -4.27600 27.40700 27.66300
C  -1.90200 29.65200 25.86500
C  -2.96100 28.67800 29.09500
O  -2.17800 29.45100 29.60200
C  -3.97100 27.69600 29.92000
C  -3.20700 26.92500 30.94700
O  -2.74600 25.84800 30.85600
O  -3.14300 27.63900 32.08600
C  -2.36900 26.98200 33.18700
H  -8.16800 22.41400 28.48800
H  -7.24500 23.80400 22.11600
H  -2.76500 27.88100 23.54000
H  -5.32200 24.94000 31.09800
H  -7.84300 23.75800 30.43900
H  -5.73100 22.09800 29.64500
H  -6.87300 22.03500 31.02400
H  -5.15100 22.64900 31.13300
H  -8.01100 25.84600 31.00300
H  -6.96600 27.18500 30.57100
H  -7.73900 26.54800 33.15100
H  -6.16300 27.25200 32.91700
H  -11.03700 22.24000 26.33800
H  -10.00800 21.45200 27.52700
H  -10.24700 20.63500 26.07000
H  -11.34300 20.90300 22.50600
H  -11.39200 21.23300 24.22200
H  -10.16500 20.17900 23.60000
H  -6.09800 25.95100 20.91300
H  -3.33900 26.31200 21.65800
H  -5.34300 23.93800 20.16100
H  -4.52900 23.37300 21.55600
H  -3.70800 24.55200 20.54500
H  -4.90000 28.77900 21.99400
H  -5.67400 27.99300 20.65500
H  -3.24700 29.54300 20.70700
H  -4.23600 28.94100 19.44800
H  -2.98000 27.83200 20.08800
H  -1.09400 29.94900 26.53400
H  -2.53300 30.50100 25.59900
H  -1.46400 29.19300 24.97900
H  -4.67100 28.36100 30.42600
H  -1.35000 26.77700 32.86100
H  -2.67800 25.95100 33.36200
H  -2.42000 27.49900 34.14600

