158

Mg 25.70600 1.22100 29.11500
C  27.69500 0.74900 31.94100
C  22.94000 1.56900 31.31000
C  23.76100 1.40600 26.43300
C  28.57300 0.32000 27.08900
N  25.37200 1.17000 31.30800
C  26.40900 1.13300 32.24400
C  25.93400 1.33500 33.68100
C  24.35300 1.24200 33.49000
C  24.18200 1.39100 31.93400
C  23.73300 -0.08900 34.02900
C  26.50600 2.69600 34.34000
C  27.16100 2.66100 35.69700
H  26.53600 3.53600 36.83500
N  23.59400 1.44200 28.92600
C  22.67000 1.54600 29.92900
C  21.35500 1.70600 29.34000
C  21.62900 1.61900 27.91500
C  23.02500 1.51800 27.69000
C  20.10200 1.86000 30.14400
C  20.67300 1.80800 26.71200
O  21.09000 1.78000 25.59000
C  19.20900 2.12800 26.94800
N  26.05800 0.99100 27.08700
C  25.10600 1.08900 26.15100
C  25.65900 0.73100 24.70200
C  27.14500 0.33300 24.98000
C  27.25800 0.56800 26.46700
C  24.83300 -0.38000 24.03700
C  28.19700 0.98900 23.99700
C  28.63400 0.12100 22.81300
N  27.76600 0.71600 29.36400
C  28.75600 0.38600 28.49600
C  29.97800 0.09800 29.26900
C  29.58400 0.18500 30.57200
C  28.29100 0.59900 30.63000
C  31.40400 -0.05700 28.79500
C  30.10400 0.11900 31.88400
O  31.30500 -0.00200 32.33800
C  28.84600 0.42300 32.87300
C  28.61900 -0.62700 33.85700
O  27.95500 -1.68700 33.66600
O  29.24300 -0.33200 35.06000
C  28.96400 -1.29400 36.10400
H  22.18600 1.67000 32.09300
H  23.32000 1.57200 25.44800
H  29.31500 -0.15000 26.44000
H  26.23500 0.51000 34.32700
H  23.82800 2.04000 34.01400
H  23.32400 -0.09600 35.04000
H  24.51400 -0.84800 33.97100
H  22.98000 -0.52300 33.37200
H  25.77600 3.49200 34.48200
H  27.28100 3.11100 33.69500
H  28.21000 2.95700 35.67200
H  27.17600 1.64300 36.08600
H  19.64700 0.87900 30.00500
H  19.48500 2.62700 29.67600
H  20.27400 2.00400 31.21100
H  18.57400 1.97900 26.07500
H  19.06900 3.18500 27.17400
H  18.69700 1.43800 27.61800
H  25.58200 1.63500 24.09800
H  27.19200 -0.75000 24.86600
H  24.19200 -0.83800 24.79000
H  25.49700 -1.08600 23.53800
H  24.24300 0.04600 23.22600
H  29.02500 1.35700 24.60200
H  27.62700 1.85900 23.67100
H  28.52400 0.50000 21.79800
H  28.02100 -0.77500 22.90800
H  29.66100 -0.20100 22.98700
H  31.56900 0.11100 27.73100
H  31.48000 -1.12900 28.97600
H  32.06800 0.59400 29.36400
H  29.13600 1.32300 33.41500
H  29.27100 -2.28400 35.76800
H  27.91400 -1.33700 36.39400
H  29.47100 -1.06300 37.04100
Mg 54.41100 23.93100 45.23400
C  52.26700 26.63800 44.13300
C  52.23100 21.68800 43.81300
C  56.88800 21.68500 45.33100
C  56.66000 26.42700 46.23800
N  52.49700 24.21200 44.05600
C  51.77400 25.36600 43.77300
C  50.45400 24.96800 43.09700
C  50.33000 23.42500 43.44100
C  51.78900 23.07900 43.80200
C  49.39100 23.15900 44.70600
C  50.28200 25.28400 41.60600
C  48.87500 25.38300 41.07900
H  48.46800 24.40300 39.98500
N  54.49800 21.86700 44.84100
C  53.44700 21.12800 44.23500
C  53.95500 19.81900 44.16400
C  55.24600 19.76700 44.76600
C  55.60600 21.12500 44.96600
C  53.10200 18.64300 43.70400
C  56.12200 18.57700 44.98700
O  55.80800 17.45400 44.58200
C  57.45500 18.53800 45.80500
N  56.59000 24.04300 45.63400
C  57.34500 22.96100 45.62900
C  58.77700 23.28600 46.00700
C  58.71200 24.85600 46.37700
C  57.23000 25.13800 46.08400
C  59.40400 22.29800 47.02800
C  59.81700 25.63100 45.51800
C  61.17900 25.47700 46.23000
N  54.40800 26.04900 45.42000
C  55.42600 26.91200 45.82900
C  55.04900 28.28800 45.78900
C  53.79000 28.20900 45.08800
C  53.46500 26.82300 44.89800
C  55.91000 29.45100 46.31100
C  52.70900 28.97200 44.53300
O  52.56500 30.20200 44.45500
C  51.68900 27.98900 43.90100
C  51.64300 28.16500 42.43100
O  52.55300 27.87700 41.61200
O  50.46100 28.80000 42.12200
C  50.08800 28.86700 40.68800
H  51.51500 21.07300 43.26400
H  57.77300 21.04500 45.34600
H  57.31700 27.25300 46.52200
H  49.73100 25.51900 43.69800
H  49.98300 22.84700 42.58400
H  49.81700 22.46500 45.43100
H  48.46500 22.62400 44.49700
H  49.09000 24.10900 45.14800
H  50.67200 24.44200 41.03500
H  50.84500 26.14900 41.25600
H  48.70300 26.37300 40.65600
H  48.17100 25.30000 41.90700
H  52.56300 18.97000 42.81500
H  52.54300 18.31600 44.58100
H  53.82200 17.87800 43.41600
H  58.25800 19.00600 45.23600
H  57.67000 17.54500 46.20000
H  57.28200 19.13600 46.70000
H  59.34300 23.08200 45.09800
H  58.95400 25.03900 47.42300
H  59.64300 22.90300 47.90300
H  60.20700 21.74500 46.54100
H  58.71500 21.47900 47.23700
H  59.58800 26.69700 45.52000
H  59.74600 25.21300 44.51400
H  61.57900 26.45700 46.49200
H  61.98000 25.00000 45.66600
H  61.06700 24.91100 47.15500
H  56.45700 29.13000 47.19700
H  55.17700 30.17300 46.67100
H  56.55900 29.81900 45.51600
H  50.70400 28.13500 44.34400
H  49.96800 29.93700 40.51700
H  49.18400 28.33600 40.38900
H  50.88400 28.49100 40.04600

