158

Mg 25.87200 2.06100 29.51500
C  27.83900 1.69100 32.45000
C  23.18900 2.72100 31.58300
C  23.87600 1.81200 26.80400
C  28.51500 0.64800 27.77800
N  25.63500 2.27100 31.77700
C  26.55400 2.18000 32.72800
C  26.03000 2.62100 34.06600
C  24.47700 2.81400 33.76700
C  24.41100 2.60100 32.25000
C  23.47800 1.86600 34.46500
C  26.76100 3.87700 34.71500
C  27.53100 3.59400 35.99100
H  27.22600 4.52100 37.20700
N  23.87100 2.24900 29.25900
C  22.92400 2.58900 30.22100
C  21.63800 2.79600 29.58600
C  21.82800 2.59100 28.23100
C  23.23700 2.16600 28.05200
C  20.37600 3.15700 30.31800
C  20.81500 2.87600 27.15000
O  21.01900 2.68300 25.94600
C  19.50200 3.34300 27.50900
N  26.20000 1.51800 27.61500
C  25.18100 1.42500 26.64000
C  25.80900 1.16200 25.18700
C  27.29700 0.88900 25.59600
C  27.41500 1.12800 27.07700
C  25.09700 0.06500 24.38800
C  28.30300 1.73300 24.70500
C  29.61300 1.05000 24.12600
N  27.79100 1.36100 29.98400
C  28.69600 0.73200 29.16400
C  29.81500 0.31300 29.87500
C  29.57500 0.75900 31.19100
C  28.27600 1.28700 31.16500
C  30.92700 -0.40100 29.24900
C  30.04400 0.82400 32.56200
O  31.11300 0.51100 33.04600
C  28.93700 1.38900 33.43000
C  28.65600 0.37600 34.48700
O  27.99100 -0.65500 34.34200
O  29.30800 0.72000 35.63600
C  29.21600 -0.25500 36.75300
H  22.33000 3.02300 32.18600
H  23.21700 1.77000 25.93400
H  29.32200 0.15600 27.23100
H  26.06600 1.72600 34.68700
H  24.22300 3.82400 34.08900
H  23.18200 0.93200 33.98900
H  22.55700 2.43300 34.60200
H  23.97100 1.52200 35.37500
H  26.06600 4.65400 35.03200
H  27.50200 4.28000 34.02500
H  28.60900 3.74500 35.93400
H  27.34000 2.60300 36.40300
H  20.07000 4.20300 30.29100
H  20.57900 3.02400 31.38100
H  19.49200 2.56300 30.08600
H  18.96800 2.63300 28.13900
H  18.91300 3.45600 26.59900
H  19.73900 4.22000 28.11200
H  25.77000 2.14100 24.71000
H  27.49100 -0.18200 25.54300
H  24.37600 -0.48900 24.98800
H  25.74000 -0.55400 23.76300
H  24.45500 0.67400 23.75200
H  28.64300 2.63500 25.21500
H  27.71700 2.15400 23.88800
H  29.88000 0.28800 24.85700
H  30.41800 1.78400 24.15300
H  29.42300 0.74800 23.09600
H  31.34800 0.25300 28.48500
H  30.49200 -1.36900 29.00000
H  31.75200 -0.64200 29.91900
H  29.41700 2.22600 33.93600
H  29.94500 -0.14100 37.55500
H  29.36700 -1.24300 36.31800
H  28.19400 -0.19600 37.12700
Mg 6.89900 53.97800 41.13500
C  6.12100 50.60500 41.08100
C  10.09200 53.21100 39.96900
C  7.42100 57.31400 40.13600
C  3.65800 54.66400 42.00700
N  7.85200 52.14300 40.30200
C  7.36800 50.88300 40.47300
C  8.36100 49.86600 39.90500
C  9.68100 50.59200 40.03800
C  9.20500 52.08500 40.10800
C  10.60800 50.31500 41.30600
C  8.01500 49.27500 38.49000
C  8.21200 50.29200 37.33700
H  6.94000 50.59400 36.57000
N  8.55700 55.10000 40.22400
C  9.76700 54.60500 39.89600
C  10.60400 55.69300 39.48000
C  9.85100 56.85200 39.39600
C  8.50200 56.43900 39.97000
C  12.02200 55.40700 39.17400
C  10.26300 58.25900 38.88300
O  11.43400 58.37700 38.43600
C  9.37000 59.47700 39.03200
N  5.74100 55.75000 41.16700
C  6.17400 57.00200 40.87400
C  4.98500 58.02300 41.03900
C  3.89200 57.15500 41.68100
C  4.41700 55.75100 41.63900
C  5.26700 59.43200 41.64000
C  2.55200 57.30400 40.90400
C  1.38900 57.93700 41.66600
N  5.24700 52.86700 41.63100
C  3.94300 53.26300 41.98900
C  3.13400 52.14400 42.25200
C  4.01200 51.06800 41.97400
C  5.25500 51.56500 41.57800
C  1.68300 52.14800 42.51900
C  4.07500 49.59300 41.93600
O  3.23500 48.79100 42.32100
C  5.51900 49.24700 41.37300
C  5.17100 48.42700 40.15800
O  4.63700 48.87600 39.15900
O  5.53900 47.12100 40.33400
C  5.36000 46.11900 39.24300
H  11.08700 52.92800 39.62000
H  7.38700 58.35200 39.79900
H  2.58800 54.79600 42.18100
H  8.24400 48.95900 40.49700
H  10.32600 50.51900 39.16200
H  11.62700 50.29100 40.91900
H  10.29600 49.38000 41.77100
H  10.45500 51.14900 41.99200
H  7.05700 48.75600 38.52300
H  8.64700 48.43200 38.21200
H  9.05700 49.91300 36.76300
H  8.52500 51.25000 37.75300
H  12.16400 54.81400 38.27100
H  12.38200 54.93200 40.08700
H  12.70400 56.24200 39.01600
H  9.95900 60.28900 38.60500
H  9.13700 59.54100 40.09500
H  8.46600 59.32000 38.44400
H  4.68600 58.21000 40.00700
H  3.74500 57.43100 42.72500
H  4.62600 59.63700 42.49700
H  5.17900 60.13200 40.80900
H  6.28300 59.59900 41.99800
H  2.22100 56.34400 40.50600
H  2.73200 57.92000 40.02300
H  0.76400 57.13100 42.05100
H  0.80000 58.52100 40.95900
H  1.76200 58.50200 42.52000
H  1.24600 52.98600 41.97600
H  1.36500 52.18100 43.56100
H  1.13300 51.26600 42.18900
H  6.02200 48.80000 42.23000
H  6.32900 45.81500 38.84800
H  4.83100 46.52100 38.37900
H  4.86500 45.17300 39.46500

