158

Mg 2.11100 -1.98500 44.39300
C  5.46200 -1.27000 43.72600
C  1.29400 0.75800 42.33300
C  -1.08000 -3.02200 44.42000
C  3.20000 -4.90000 46.06600
N  3.22100 -0.43900 43.16400
C  4.58400 -0.40700 43.00400
C  5.00700 0.73300 42.08200
C  3.62900 1.46200 41.75700
C  2.63500 0.54300 42.50400
C  3.55900 2.91200 42.07400
C  5.75800 0.32500 40.80500
C  7.11000 1.07600 40.59800
H  7.08600 1.99100 39.36400
N  0.32900 -1.23500 43.41400
C  0.18300 -0.07100 42.70800
C  -1.20500 0.08700 42.42900
C  -1.95600 -0.94600 43.09800
C  -0.87600 -1.78400 43.64600
C  -1.77300 1.19600 41.55800
C  -3.44600 -1.15300 43.10300
O  -4.14200 -0.45500 42.39600
C  -4.11800 -2.27700 43.82700
N  1.17000 -3.69300 45.19100
C  -0.11500 -3.91900 45.02700
C  -0.42600 -5.26100 45.62900
C  0.96800 -5.89600 45.97900
C  1.85100 -4.74700 45.73100
C  -1.33700 -5.14400 46.84000
C  1.35200 -7.10100 45.01600
C  1.07600 -8.54900 45.42600
N  3.98500 -2.91100 44.92300
C  4.31900 -4.07200 45.61900
C  5.72900 -4.16100 45.88600
C  6.23800 -3.04400 45.17100
C  5.09500 -2.36100 44.50400
C  6.46900 -5.34200 46.58200
C  7.43600 -2.33500 44.81600
O  8.55000 -2.63500 45.12400
C  6.99400 -1.21100 43.81500
C  7.58100 0.15200 44.28500
O  7.35300 0.68400 45.37400
O  8.42200 0.67000 43.32700
C  9.09000 1.91400 43.82100
H  0.88100 1.65900 41.87400
H  -2.05800 -3.43800 44.67100
H  3.51600 -5.78100 46.62700
H  5.60200 1.45500 42.64300
H  3.36700 1.36600 40.70400
H  2.57300 3.00600 42.52900
H  3.65500 3.53100 41.18200
H  4.36300 3.19600 42.75200
H  5.15800 0.43300 39.90200
H  5.82800 -0.75000 40.97400
H  7.89900 0.32700 40.53400
H  7.41300 1.81600 41.33900
H  -0.92500 1.63500 41.03300
H  -2.38300 1.94600 42.06200
H  -2.33900 0.75000 40.74000
H  -3.82800 -2.31500 44.87700
H  -3.77700 -3.20100 43.35900
H  -5.20500 -2.34500 43.77900
H  -0.90000 -5.86800 44.85700
H  1.13500 -6.22300 47.00500
H  -1.65300 -4.10100 46.87400
H  -0.80500 -5.46900 47.73400
H  -2.21000 -5.78000 46.68900
H  2.40600 -7.18600 44.75300
H  0.78200 -6.86100 44.11900
H  2.04100 -9.03200 45.58400
H  0.66000 -9.18600 44.64500
H  0.53000 -8.48400 46.36700
H  5.93800 -5.46500 47.52500
H  7.47200 -5.00700 46.84900
H  6.37100 -6.19800 45.91400
H  7.37100 -1.47100 42.82600
H  10.02100 2.11400 43.29000
H  9.17400 2.01400 44.90300
H  8.39600 2.70100 43.52600
Mg 47.71500 34.93200 27.74400
C  46.01000 33.02400 30.19600
C  47.81200 37.62100 29.91200
C  48.70900 36.84100 25.11700
C  46.99600 32.34900 25.32600
N  47.08400 35.20800 29.80000
C  46.55600 34.25500 30.64700
C  46.66100 34.84400 32.11500
C  46.80700 36.33200 31.91500
C  47.28200 36.41100 30.45100
C  45.48300 37.12300 32.11100
C  47.96400 34.15200 32.69200
C  47.88600 34.03300 34.26100
H  46.91800 34.93400 35.10300
N  48.33600 36.91000 27.58200
C  48.28200 37.78600 28.57300
C  48.84200 39.02900 28.12500
C  49.08700 38.87000 26.72900
C  48.79000 37.47300 26.40200
C  49.17200 40.13600 29.03300
C  49.83500 39.84000 25.73400
O  50.17700 39.53000 24.59200
C  50.36600 41.15500 26.28500
N  47.79600 34.59600 25.46600
C  48.29400 35.57800 24.65300
C  48.24900 35.13500 23.17900
C  47.82200 33.66200 23.26300
C  47.47200 33.54100 24.75500
C  47.33000 36.14200 22.39800
C  48.85000 32.62300 22.73300
C  50.13400 32.43000 23.59800
N  46.79900 33.06100 27.73000
C  46.54000 32.12500 26.69400
C  45.98900 30.89400 27.28500
C  45.74000 31.26700 28.62700
C  46.16500 32.59100 28.81300
C  45.80900 29.61900 26.56900
C  45.07800 30.79900 29.88800
O  44.56000 29.71700 30.11800
C  45.10200 32.07500 30.87400
C  45.56400 31.65600 32.18700
O  46.44700 30.89500 32.39700
O  44.73000 32.24500 33.12100
C  44.68500 31.77500 34.52900
H  47.88500 38.48400 30.57800
H  49.16600 37.35500 24.26900
H  46.82100 31.61500 24.53700
H  45.80300 34.76400 32.78200
H  47.55000 36.84200 32.52700
H  44.97400 37.26400 31.15700
H  45.63400 38.08800 32.59500
H  44.72400 36.60100 32.69300
H  48.75800 34.82800 32.37500
H  48.19500 33.22000 32.17500
H  48.89200 34.16300 34.66000
H  47.57400 33.01800 34.50700
H  50.22700 40.37400 28.90300
H  49.00800 40.00400 30.10200
H  48.50100 40.93300 28.71300
H  49.65300 41.76800 26.83700
H  50.57000 41.72900 25.38100
H  51.26800 40.89600 26.83900
H  49.23900 35.20400 22.72800
H  46.92800 33.68500 22.63900
H  46.75200 36.72900 23.11200
H  46.54600 35.70700 21.77800
H  47.93100 36.85700 21.83700
H  49.28000 32.87300 21.76300
H  48.23600 31.73200 22.59700
H  50.39800 31.39600 23.81700
H  49.90900 33.03000 24.48000
H  51.00700 32.94400 23.19400
H  46.16400 28.80900 27.20600
H  46.33400 29.46500 25.62600
H  44.77500 29.36900 26.33100
H  44.07200 32.34400 31.10600
H  44.92700 30.71200 34.53800
H  43.65000 31.90200 34.84500
H  45.40100 32.22600 35.21500

