158

Mg 41.73200 41.08600 26.98500
C  41.00400 43.43000 29.53400
C  42.86900 38.92200 29.52400
C  42.98400 38.94800 24.72000
C  41.52500 43.65600 24.73700
N  42.00700 41.21400 29.20300
C  41.48700 42.20700 30.03500
C  41.53900 41.83000 31.52500
C  42.39500 40.47300 31.50100
C  42.47300 40.18100 29.98000
C  43.73600 40.29800 32.37300
C  40.05700 41.62100 32.16000
C  39.73400 42.30900 33.50600
H  39.09800 41.44600 34.57900
N  42.62400 39.07200 27.09500
C  42.93900 38.34100 28.22700
C  43.32100 36.99800 27.80800
C  43.37100 36.98500 26.38500
C  42.92000 38.36000 25.97900
C  43.48900 35.88200 28.90600
C  43.67700 35.85500 25.45000
O  43.54900 35.85000 24.20500
C  44.22400 34.60000 26.03200
N  42.15300 41.30000 25.05300
C  42.64000 40.28600 24.23300
C  42.71100 40.72600 22.75900
C  42.10900 42.18100 22.75300
C  41.92300 42.43200 24.25600
C  44.20100 40.64100 22.23200
C  40.67300 42.31400 22.04200
C  40.60600 43.41000 21.00500
N  41.29300 43.16000 27.04800
C  41.26200 44.06900 26.06600
C  40.75800 45.35600 26.46600
C  40.55700 45.14800 27.82800
C  40.97100 43.79900 28.18300
C  40.63200 46.61500 25.64600
C  40.12100 45.72800 29.11700
O  39.72700 46.89700 29.32100
C  40.46500 44.66800 30.17800
C  41.39100 45.37200 31.05200
O  42.45200 45.82900 30.73100
O  40.93000 45.33400 32.33100
C  41.95400 45.56100 33.31300
H  43.15600 38.20700 30.29800
H  43.38900 38.31200 23.93100
H  41.36700 44.21300 23.81200
H  42.04000 42.58000 32.13800
H  41.77000 39.64800 31.84100
H  43.83300 41.15600 33.03900
H  44.50800 40.39400 31.61000
H  43.91200 39.35800 32.89600
H  39.79400 40.57300 32.30000
H  39.30100 42.04900 31.50100
H  39.01300 43.08200 33.23900
H  40.59400 42.84400 33.90700
H  43.34400 36.21400 29.93400
H  44.48100 35.43200 28.88700
H  42.79800 35.05700 28.73500
H  43.41900 34.14100 26.60600
H  44.97200 34.86800 26.77900
H  44.68100 33.94400 25.29200
H  41.98600 40.16100 22.17300
H  42.75800 42.92800 22.29700
H  44.77800 40.72000 23.15400
H  44.43300 41.57400 21.71900
H  44.38300 39.80100 21.56200
H  39.89900 42.38900 22.80700
H  40.40900 41.37000 21.56500
H  40.64600 42.97900 20.00400
H  41.38200 44.17100 21.08100
H  39.65300 43.92300 21.13300
H  39.92900 46.58300 24.81300
H  41.62800 46.85700 25.27500
H  40.30800 47.36400 26.36800
H  39.50200 44.49700 30.65900
H  42.41000 46.54200 33.18400
H  42.72900 44.80000 33.21600
H  41.56200 45.54000 34.33000
Mg 35.64900 48.82800 26.21800
C  35.85600 46.78300 28.89000
C  34.14300 51.18900 28.20800
C  35.31500 50.76800 23.42800
C  37.06200 46.35800 24.11900
N  35.20000 49.06100 28.32700
C  35.39500 48.07100 29.24400
C  35.24900 48.59800 30.70800
C  34.31100 49.75900 30.46300
C  34.53700 50.09500 28.94600
C  32.84000 49.60900 30.88100
C  36.61700 48.87200 31.47500
C  36.49700 48.79900 33.03300
H  35.10900 48.96200 33.67000
N  34.86400 50.72400 25.85200
C  34.36900 51.53700 26.86200
C  34.00200 52.81800 26.21400
C  34.28900 52.66000 24.78400
C  34.84200 51.34600 24.63000
C  33.44900 54.03000 26.95700
C  34.17600 53.70900 23.71400
O  34.51600 53.51000 22.59100
C  33.72000 55.09600 23.99400
N  36.08000 48.56400 24.10400
C  35.79900 49.51100 23.18600
C  35.99100 48.98600 21.77000
C  36.72000 47.60200 21.97900
C  36.60700 47.47500 23.48200
C  34.65300 48.94600 20.88400
C  38.19800 47.51100 21.55400
C  39.24800 48.48000 22.13300
N  36.35400 46.96900 26.45700
C  36.84400 46.02300 25.46600
C  37.21200 44.85200 26.20000
C  36.84400 45.10100 27.53000
C  36.27700 46.35000 27.59600
C  37.77700 43.60200 25.69100
C  36.92300 44.51000 28.83900
O  37.28000 43.39900 29.20300
C  36.26500 45.58200 29.77000
C  35.17600 44.99800 30.56300
O  34.33500 44.19700 30.13900
O  35.33000 45.38100 31.91600
C  34.29000 44.76900 32.72500
H  33.62700 51.89700 28.86100
H  35.32500 51.40700 22.54200
H  37.46900 45.52700 23.53800
H  34.74400 47.78900 31.23500
H  34.77100 50.59200 30.99300
H  32.22700 49.55600 29.98100
H  32.48600 50.42500 31.51100
H  32.78700 48.68200 31.45300
H  37.02200 49.86400 31.27700
H  37.41900 48.22400 31.12000
H  37.12600 49.60200 33.41600
H  36.94200 47.86200 33.36900
H  32.81300 54.61300 26.29100
H  34.19300 54.58100 27.53200
H  32.74400 53.67300 27.70800
H  32.68800 55.21000 24.32500
H  33.73700 55.56000 23.00800
H  34.48100 55.54000 24.63600
H  36.75200 49.60500 21.29500
H  36.19000 46.71800 21.62500
H  33.78100 49.20100 21.48600
H  34.49200 48.06000 20.26800
H  34.68300 49.81900 20.23200
H  38.15500 47.47100 20.46600
H  38.54700 46.49300 21.73200
H  39.49700 49.19700 21.35100
H  40.09000 47.86500 22.45200
H  38.84000 48.88300 23.06000
H  38.21700 43.67000 24.69600
H  37.10800 42.74100 25.67700
H  38.60700 43.46600 26.38500
H  36.97900 45.96900 30.49800
H  34.51600 43.72400 32.93700
H  33.30500 44.78400 32.25900
H  34.14900 45.28100 33.67700

