158

Mg 24.40400 -5.25600 45.61300
C  26.63500 -2.84700 44.18500
C  22.04900 -4.16200 43.50100
C  22.69100 -8.06600 46.29200
C  27.24300 -6.48200 47.36900
N  24.42600 -3.73300 44.01000
C  25.45600 -2.91100 43.49000
C  25.01700 -2.08400 42.34000
C  23.50700 -2.47700 42.18300
C  23.31200 -3.61000 43.20200
C  22.51500 -1.27000 42.42500
C  25.86800 -2.32800 41.01100
C  26.18300 -1.07800 40.23400
H  25.90700 -1.19000 38.69800
N  22.57500 -5.88100 45.11800
C  21.74000 -5.27200 44.27700
C  20.41700 -5.86900 44.39200
C  20.56400 -7.04300 45.14600
C  21.98400 -7.05400 45.56900
C  19.25200 -5.42200 43.53900
C  19.46800 -8.02700 45.40200
O  18.29900 -7.75700 45.08200
C  19.70600 -9.38000 45.98000
N  24.95300 -7.05400 46.65800
C  23.98900 -8.09900 46.79500
C  24.65900 -9.30500 47.53600
C  26.00500 -8.67400 48.07100
C  26.13500 -7.35800 47.26800
C  23.68100 -10.00600 48.58800
C  27.24800 -9.64900 48.18200
C  27.79600 -10.10500 49.51400
N  26.53000 -4.75700 45.83600
C  27.46000 -5.28000 46.71500
C  28.63100 -4.46100 46.67200
C  28.31800 -3.50300 45.74800
C  27.02700 -3.73500 45.23400
C  29.89500 -4.64100 47.35600
C  28.99100 -2.35100 45.00400
O  30.05700 -1.73900 45.08800
C  27.85200 -1.93100 44.01700
C  27.56500 -0.52100 44.41500
O  27.24600 -0.15100 45.49000
O  27.86000 0.31700 43.33800
C  27.95300 1.76700 43.69700
H  21.33000 -3.76400 42.78200
H  22.12200 -8.93400 46.63200
H  28.13200 -6.82400 47.90300
H  25.18100 -1.05300 42.65200
H  23.19700 -2.95700 41.25500
H  22.88100 -0.40000 41.88000
H  22.30800 -0.94700 43.44500
H  21.53100 -1.42900 41.98300
H  25.24700 -2.88700 40.31100
H  26.79900 -2.85200 41.22900
H  27.23300 -0.81200 40.35700
H  25.57900 -0.27900 40.66400
H  18.32800 -5.17100 44.06000
H  18.99700 -6.26200 42.89400
H  19.45000 -4.69000 42.75600
H  18.81000 -10.00000 45.96000
H  19.90100 -9.08900 47.01200
H  20.43800 -9.77700 45.27600
H  24.88700 -10.07300 46.79700
H  25.74800 -8.41300 49.09800
H  23.06100 -9.21600 49.01100
H  24.21100 -10.41700 49.44700
H  23.13700 -10.84400 48.15300
H  28.09500 -9.16900 47.69100
H  27.00400 -10.50600 47.55400
H  28.79500 -9.67500 49.59200
H  27.91900 -11.15800 49.77000
H  27.15500 -9.73900 50.31600
H  29.75400 -5.47500 48.04400
H  30.11600 -3.72100 47.89800
H  30.65800 -4.74600 46.58500
H  28.11800 -1.93300 42.96000
H  27.87300 2.26400 42.73000
H  28.96100 1.82200 44.10900
H  27.25200 2.14100 44.44300
Mg -10.52600 16.90300 41.18400
C  -7.07200 16.71300 41.09700
C  -10.29700 20.31400 40.64200
C  -13.92900 16.96900 40.78500
C  -10.55400 13.31600 41.21100
N  -8.85100 18.27800 40.87100
C  -7.50900 17.97800 40.94800
C  -6.69700 19.33000 40.70400
C  -7.77600 20.46600 41.02400
C  -9.06700 19.67500 40.77700
C  -7.56900 21.21900 42.38800
C  -6.15500 19.38300 39.22700
C  -4.66200 19.20000 39.05900
H  -4.14600 18.49700 37.78500
N  -11.96300 18.51400 40.74600
C  -11.68900 19.82600 40.61000
C  -12.90300 20.56000 40.40000
C  -13.97000 19.64500 40.41500
C  -13.31900 18.27100 40.59300
C  -12.93700 22.05900 40.16900
C  -15.40400 19.98600 40.29300
O  -15.89000 21.11900 40.11100
C  -16.45100 18.88900 40.33200
N  -12.07400 15.34100 40.79900
C  -13.41900 15.68200 40.89400
C  -14.26200 14.40900 41.13900
C  -13.15500 13.27000 41.24600
C  -11.83500 14.00300 41.17700
C  -15.31200 14.34600 42.27800
C  -13.29100 12.04500 40.36700
C  -12.57200 12.04700 39.02500
N  -9.09400 15.20900 41.07600
C  -9.24700 13.81800 41.22300
C  -7.90100 13.22800 41.51000
C  -7.03700 14.30200 41.35100
C  -7.80100 15.49800 41.13300
C  -7.48100 11.86600 41.87100
C  -5.64600 14.68700 41.49400
O  -4.67100 14.00100 41.81100
C  -5.64300 16.27400 41.23500
C  -4.99600 17.09300 42.39500
O  -3.87500 17.56600 42.22800
O  -5.71800 17.01700 43.63600
C  -5.17200 17.83500 44.67800
H  -10.13000 21.38800 40.53800
H  -15.02000 16.98200 40.81700
H  -10.50000 12.25500 41.46300
H  -5.90400 19.43400 41.44500
H  -7.68200 21.26300 40.28700
H  -7.07400 22.18700 42.30800
H  -7.09300 20.52400 43.07900
H  -8.55200 21.39400 42.82600
H  -6.39500 20.38500 38.87200
H  -6.59100 18.58800 38.62200
H  -4.30100 18.58900 39.88700
H  -4.12800 20.13000 39.25700
H  -13.10400 22.28200 39.11500
H  -11.96500 22.44000 40.48200
H  -13.70000 22.49900 40.81100
H  -16.27000 18.28200 39.44500
H  -17.41700 19.37500 40.19700
H  -16.54400 18.37200 41.28700
H  -14.86500 14.39800 40.23200
H  -13.16100 12.85300 42.25300
H  -16.23100 13.85600 41.95800
H  -15.65600 15.33400 42.58200
H  -14.92500 13.87100 43.18000
H  -14.37000 12.05000 40.20800
H  -13.00700 11.13700 40.89900
H  -13.17500 11.42300 38.36400
H  -11.59000 11.57700 39.06500
H  -12.46500 13.02100 38.54800
H  -6.40100 11.83500 41.72600
H  -7.94800 11.26000 41.09500
H  -7.88100 11.72100 42.87400
H  -5.20200 16.44400 40.25300
H  -5.82400 18.70500 44.74800
H  -4.14100 18.16400 44.54100
H  -5.35800 17.29100 45.60300

