158

Mg 0.79200 7.25400 26.90600
C  1.45400 9.14200 29.68600
C  1.19100 4.38300 28.69500
C  0.99100 5.57600 24.01300
C  1.23700 10.33500 25.06800
N  1.34500 6.87700 28.90400
C  1.29300 7.75900 29.93100
C  1.21700 7.07500 31.25400
C  1.46200 5.58800 30.93700
C  1.34500 5.60000 29.41400
C  2.80200 4.89800 31.43500
C  -0.09200 7.38400 32.03800
C  0.05300 7.70800 33.50400
H  1.26600 7.10300 34.24400
N  0.88400 5.21000 26.41800
C  1.01800 4.13500 27.30000
C  0.96800 2.87300 26.54700
C  1.00700 3.23000 25.10400
C  0.96200 4.71100 25.12600
C  0.91000 1.57900 27.35400
C  1.04900 2.36600 23.98600
O  0.91700 2.78500 22.81400
C  1.18100 0.88300 24.15100
N  0.98800 7.88500 24.79800
C  0.98100 6.97200 23.79300
C  0.89300 7.60800 22.38300
C  0.93800 9.14100 22.78800
C  0.99900 9.12200 24.33600
C  1.97300 7.22900 21.38300
C  -0.30000 10.01800 22.33500
C  -0.04900 11.12000 21.32200
N  1.09700 9.30700 27.24100
C  1.31900 10.39500 26.39200
C  1.55600 11.62000 27.22400
C  1.66500 11.15300 28.50700
C  1.40300 9.74200 28.44000
C  1.59900 13.00500 26.75200
C  1.93100 11.49900 29.90600
O  2.28300 12.59300 30.36200
C  1.62400 10.27700 30.74500
C  2.66900 10.19300 31.73000
O  3.71400 9.68100 31.63000
O  2.29200 11.06300 32.69000
C  3.33700 11.35100 33.75300
H  1.33400 3.53700 29.37000
H  1.11600 5.09100 23.04200
H  1.45200 11.21600 24.46000
H  2.10100 7.42300 31.78800
H  0.69000 4.92400 31.32600
H  3.38300 5.58100 32.05500
H  3.45800 4.66400 30.59600
H  2.54000 4.02000 32.02500
H  -0.82300 6.58500 31.91700
H  -0.63700 8.15600 31.49600
H  -0.79700 7.31800 34.06200
H  0.06500 8.78600 33.66600
H  1.10700 1.76400 28.41000
H  1.84000 1.06900 27.10600
H  0.00100 0.99500 27.20900
H  0.32300 0.48700 24.69300
H  2.16900 0.63000 24.53500
H  1.14100 0.47600 23.14000
H  -0.08000 7.33200 21.97700
H  1.87100 9.59600 22.45600
H  2.80000 6.98500 22.05000
H  2.05800 8.14200 20.79400
H  1.58100 6.39300 20.80400
H  -0.85300 10.28200 23.23600
H  -1.01800 9.31700 21.91000
H  -0.51400 10.84900 20.37400
H  1.03000 11.14400 21.16600
H  -0.49800 12.06100 21.63900
H  1.70100 12.97600 25.66700
H  2.41500 13.55100 27.22700
H  0.63800 13.47100 26.97200
H  0.68500 10.56600 31.21700
H  2.90500 11.80700 34.64400
H  3.96100 12.10200 33.27000
H  3.80500 10.41500 34.06000
Mg 8.96800 3.02500 28.38500
C  10.58300 1.48700 31.11400
C  7.21900 4.94500 30.46000
C  7.55800 4.31900 25.60400
C  10.71500 0.75700 26.27900
N  8.79000 3.10900 30.57700
C  9.67400 2.51700 31.44400
C  9.36200 2.99500 32.90400
C  8.22800 4.03100 32.64700
C  8.03000 4.03500 31.12100
C  6.88700 3.89700 33.49800
C  10.65400 3.74000 33.48400
C  10.39600 4.57300 34.78800
H  11.33000 4.32900 36.02000
N  7.53600 4.42400 28.10400
C  6.93100 5.11800 29.08300
C  6.07500 6.13200 28.54700
C  6.08300 5.97600 27.10200
C  7.07900 4.84900 26.86200
C  5.22400 7.15400 29.37100
C  5.38600 6.75500 26.00800
O  5.42500 6.46800 24.83200
C  4.35500 7.77400 26.27900
N  9.02800 2.53000 26.31500
C  8.42300 3.26300 25.33000
C  8.89300 2.94000 23.85700
C  10.06900 2.09700 24.21700
C  9.95300 1.74000 25.68500
C  7.79200 2.31700 23.01200
C  11.50400 2.65800 23.95700
C  11.70600 4.17700 24.10800
N  10.34900 1.44300 28.53700
C  10.95100 0.58100 27.63400
C  11.89200 -0.39300 28.33900
C  11.71600 -0.01100 29.69400
C  10.89300 1.06800 29.73900
C  12.77400 -1.41500 27.72500
C  12.25700 -0.23800 31.02800
O  13.01700 -1.15500 31.40600
C  11.50600 0.67000 32.00400
C  10.73700 -0.12000 32.99200
O  9.78500 -0.91300 32.75200
O  11.23000 0.04100 34.30000
C  10.58400 -0.59200 35.44500
H  6.67900 5.63000 31.11600
H  7.14600 4.81500 24.72300
H  11.23100 0.12800 25.55100
H  9.02100 2.20400 33.57200
H  8.55300 5.07200 32.65400
H  6.18400 3.29400 32.92400
H  6.63300 4.90900 33.81400
H  7.05200 3.30600 34.39900
H  11.19300 4.32100 32.73700
H  11.31600 2.92800 33.78400
H  9.38600 4.32400 35.11400
H  10.51700 5.63600 34.58100
H  4.21900 6.73400 29.38500
H  5.08200 8.05600 28.77600
H  5.58500 7.23200 30.39700
H  3.82100 8.18800 25.42400
H  4.91900 8.63800 26.63100
H  3.58600 7.37000 26.93700
H  9.17800 3.85800 23.34200
H  9.98900 1.20500 23.59600
H  6.85100 2.40600 23.55400
H  7.95300 1.28900 22.68700
H  7.70700 3.04600 22.20500
H  11.74300 2.42300 22.92000
H  12.19900 2.25200 24.69100
H  12.63600 4.47400 24.59300
H  10.93400 4.64100 24.72200
H  11.57600 4.56400 23.09700
H  12.23100 -2.00800 26.98900
H  13.04400 -2.19600 28.43500
H  13.53600 -0.86900 27.16800
H  12.14600 1.26900 32.65200
H  9.99400 0.17600 35.94600
H  11.29600 -1.01300 36.15500
H  9.78600 -1.23700 35.07700

