158

Mg 26.02200 1.23200 29.24100
C  28.10400 1.30700 32.10600
C  23.41900 1.62400 31.42900
C  24.04500 1.13700 26.53800
C  28.74800 0.62300 27.22600
N  25.84900 1.40300 31.53100
C  26.75700 1.35400 32.54800
C  26.20800 1.60200 33.96900
C  24.71400 1.49000 33.59500
C  24.62400 1.52900 32.07400
C  23.98400 0.29700 34.27600
C  26.74200 2.86500 34.68200
C  27.12500 2.48100 36.13100
H  26.36300 3.25900 37.21700
N  23.92400 1.25800 28.99600
C  23.04500 1.56200 30.01800
C  21.71900 1.70800 29.40000
C  21.80500 1.36900 27.99500
C  23.30000 1.27700 27.76900
C  20.45000 1.91800 30.32700
C  20.76600 1.25500 26.86400
O  21.06100 0.82100 25.78300
C  19.29500 1.63900 27.17600
N  26.36200 1.07000 27.12700
C  25.39000 0.95900 26.19800
C  25.93800 0.78100 24.73200
C  27.49500 0.60600 25.07500
C  27.58000 0.78200 26.54800
C  25.38000 -0.22400 23.73000
C  28.32000 1.63600 24.40300
C  28.68800 1.35300 22.93900
N  28.03100 1.17900 29.49800
C  29.01200 0.75400 28.56000
C  30.21000 0.74300 29.25900
C  29.86500 0.94000 30.59600
C  28.55200 1.19700 30.74900
C  31.63800 0.60000 28.73000
C  30.48400 0.97500 31.94700
O  31.68400 0.84100 32.26800
C  29.35500 1.23400 32.97200
C  29.39900 0.12500 34.03500
O  28.96300 -1.00300 33.93700
O  29.82800 0.68500 35.22500
C  29.66000 -0.17500 36.45000
H  22.57200 1.83100 32.08500
H  23.36800 1.32800 25.70300
H  29.63100 0.41700 26.61700
H  26.51500 0.70400 34.50500
H  24.25900 2.37200 34.04600
H  23.86900 -0.61200 33.68500
H  22.97800 0.62600 34.53600
H  24.41200 0.05400 35.24900
H  26.03800 3.69600 34.63900
H  27.65500 3.25700 34.23300
H  28.19300 2.59700 36.31500
H  26.74400 1.47500 36.30900
H  19.65600 1.23200 30.03100
H  20.11400 2.95200 30.25300
H  20.69500 1.77300 31.37900
H  19.39200 2.67900 27.48800
H  19.02900 0.86500 27.89500
H  18.64800 1.60000 26.29900
H  25.77000 1.76100 24.28500
H  27.76800 -0.39900 24.75300
H  24.71700 -0.80900 24.36800
H  26.15200 -0.88100 23.32900
H  24.85000 0.20200 22.87900
H  29.17500 1.92000 25.01500
H  27.76100 2.54600 24.18600
H  28.27300 0.35700 22.78500
H  29.77100 1.28600 22.84000
H  28.30000 2.03000 22.17800
H  32.22900 0.02200 29.44100
H  31.96100 1.64100 28.76700
H  31.55300 0.32100 27.68000
H  29.49100 2.22300 33.40900
H  29.54000 -1.24400 36.27200
H  28.78600 0.17500 37.00000
H  30.48700 -0.09900 37.15600
Mg 34.73300 48.63300 26.06400
C  35.52000 46.72400 28.80500
C  33.52700 51.13500 28.26500
C  33.84500 50.43300 23.47400
C  35.84100 46.07800 24.00500
N  34.52500 48.89500 28.26300
C  35.08000 48.01500 29.18000
C  34.92100 48.53100 30.62800
C  34.08100 49.85300 30.44200
C  34.09600 49.96600 28.87500
C  32.62200 49.83700 31.05400
C  36.35100 48.75200 31.33500
C  36.58400 48.45300 32.81500
H  36.18200 49.62700 33.74100
N  33.86000 50.46600 25.90500
C  33.43300 51.34400 26.89300
C  32.96400 52.54100 26.28300
C  33.03400 52.33600 24.86900
C  33.72400 51.07500 24.73500
C  32.44200 53.73100 27.11100
C  32.51200 53.30800 23.74200
O  32.56500 53.01000 22.55600
C  31.88000 54.60300 24.18800
N  34.78300 48.28400 23.99600
C  34.34200 49.20200 23.06600
C  34.47800 48.72900 21.63500
C  35.29400 47.36100 21.88500
C  35.40000 47.24400 23.39000
C  33.08100 48.44000 20.98900
C  36.67300 47.22800 21.14700
C  36.90700 45.84200 20.56400
N  35.42000 46.73900 26.25000
C  35.81400 45.83800 25.37500
C  36.26300 44.62100 26.07100
C  36.26000 45.01600 27.42300
C  35.74100 46.29300 27.52200
C  36.82200 43.35400 25.54200
C  36.59100 44.54800 28.77900
O  37.01000 43.45500 29.15300
C  36.11500 45.61500 29.70900
C  35.18600 45.13900 30.74500
O  33.95900 45.10100 30.66900
O  35.86200 44.86300 31.86200
C  35.09800 44.81800 33.06600
H  33.28700 51.74700 29.13600
H  33.62300 50.98300 22.55700
H  36.29100 45.27300 23.42200
H  34.28700 47.86200 31.20900
H  34.58700 50.70600 30.89300
H  31.84300 50.41900 30.56200
H  32.80200 50.24100 32.05000
H  32.28000 48.80400 31.12000
H  36.60000 49.78900 31.11000
H  37.15900 48.15200 30.91500
H  37.64700 48.42900 33.05500
H  35.99800 47.58700 33.12100
H  32.89200 54.65100 26.74000
H  32.80200 53.80800 28.13700
H  31.35400 53.78700 27.13100
H  32.71200 55.19600 24.56800
H  31.20000 54.42300 25.02000
H  31.34200 55.13200 23.40100
H  35.08300 49.54400 21.23600
H  34.71500 46.44200 21.80600
H  32.83200 47.38900 20.84000
H  33.10500 48.87200 19.98900
H  32.30000 48.91800 21.58100
H  37.43400 47.39000 21.91000
H  36.68600 47.94200 20.32400
H  37.94200 45.66100 20.27500
H  36.19100 45.79100 19.74400
H  36.69600 45.04600 21.27800
H  36.22200 42.52300 25.91200
H  37.89700 43.29400 25.71400
H  36.76800 43.36200 24.45300
H  36.97800 46.01900 30.23800
H  34.53100 45.74900 33.05300
H  35.75000 44.66500 33.92600
H  34.46900 43.92800 33.08200

