158

Mg 8.76300 3.40500 27.42700
C  10.49000 2.14000 30.32400
C  7.64300 5.99100 29.14000
C  7.34200 4.39700 24.58600
C  10.16800 0.58900 25.65200
N  8.92800 3.99700 29.47600
C  9.71900 3.33400 30.50400
C  9.55000 4.09500 31.83900
C  8.47100 5.16500 31.54300
C  8.24700 5.01600 29.96900
C  7.07500 5.11200 32.20000
C  10.82600 4.47700 32.58300
C  10.65700 5.47300 33.71900
H  11.13700 4.92700 35.07100
N  7.70400 5.03200 26.84400
C  7.31400 5.99400 27.74300
C  6.58700 7.03700 26.95700
C  6.42300 6.53400 25.62600
C  7.18400 5.23700 25.67600
C  5.92000 8.17000 27.59800
C  5.80300 7.27600 24.42500
O  5.83500 6.74700 23.29800
C  5.07600 8.59600 24.64600
N  8.82600 2.65000 25.39500
C  7.99900 3.22200 24.45400
C  8.19100 2.57100 23.09900
C  8.93900 1.29100 23.42800
C  9.35100 1.49000 24.90600
C  6.91100 2.35200 22.18600
C  10.16600 1.05600 22.51900
C  9.94600 -0.03000 21.46400
N  10.03200 1.65700 27.88400
C  10.52900 0.65800 27.06000
C  11.36600 -0.27600 27.82900
C  11.37600 0.30800 29.11800
C  10.57400 1.46300 29.08400
C  12.17500 -1.35500 27.20700
C  11.95100 0.20300 30.49700
O  12.78000 -0.58800 30.98600
C  11.34500 1.39600 31.31000
C  10.61600 0.80000 32.50500
O  9.56000 0.19300 32.49700
O  11.46800 0.98200 33.56800
C  10.97200 0.47200 34.83600
H  7.22600 6.76300 29.79100
H  6.95400 4.67900 23.60500
H  10.61000 -0.20800 25.05000
H  9.06000 3.36300 32.48100
H  8.84700 6.13600 31.86600
H  6.34600 5.66300 31.60600
H  7.25900 5.45000 33.22000
H  6.86000 4.04700 32.12600
H  11.58900 4.78900 31.87000
H  11.21500 3.53300 32.96300
H  9.64900 5.83600 33.92300
H  11.36900 6.27500 33.52500
H  5.96500 8.15600 28.68700
H  4.83700 8.22400 27.47900
H  6.32400 9.12400 27.25900
H  4.27700 8.56400 25.38600
H  4.70000 8.98100 23.69800
H  5.84900 9.33100 24.87000
H  8.78600 3.24400 22.48100
H  8.31500 0.39700 23.43600
H  6.05100 2.69900 22.76000
H  6.85700 1.27700 22.01400
H  6.94400 2.96400 21.28500
H  10.98600 0.67800 23.13000
H  10.53400 1.97700 22.06700
H  8.90500 -0.30400 21.29500
H  10.40800 -0.98400 21.71900
H  10.41300 0.19300 20.50400
H  12.42300 -1.15800 26.16400
H  11.78300 -2.36000 27.35900
H  13.09600 -1.30500 27.78700
H  12.20400 1.97900 31.64300
H  11.60500 0.85100 35.63800
H  10.92700 -0.61100 34.94800
H  10.01200 0.98000 34.92700
Mg 43.91700 3.37500 46.72900
C  41.84200 6.40300 46.32500
C  41.05300 1.63000 46.33500
C  45.90200 0.70800 46.38300
C  46.69000 5.48200 46.62400
N  41.76400 4.00500 46.29100
C  41.11400 5.22700 46.20700
C  39.62700 5.08100 46.33500
C  39.43200 3.55800 46.58200
C  40.84700 3.01900 46.51600
C  38.74200 3.32500 47.94400
C  38.98400 5.64300 45.01400
C  39.28500 4.89200 43.71500
H  39.62200 5.63000 42.40600
N  43.45400 1.44000 46.37400
C  42.26600 0.83600 46.20500
C  42.40700 -0.53200 46.00600
C  43.80900 -0.77000 45.94500
C  44.49800 0.44300 46.25200
C  41.33900 -1.47500 45.97100
C  44.38400 -2.21200 45.68000
O  43.62600 -3.17300 45.56000
C  45.80100 -2.55800 45.69300
N  46.05000 3.11000 46.41900
C  46.51800 1.91900 46.64400
C  47.98900 1.92900 46.89100
C  48.26400 3.50700 46.92000
C  46.93900 4.07600 46.66600
C  48.56100 1.08900 48.09800
C  49.45600 4.05900 45.97500
C  50.87600 3.47800 46.25600
N  44.31500 5.52700 46.54300
C  45.48200 6.19100 46.59000
C  45.25500 7.62800 46.61700
C  43.83100 7.70500 46.58700
C  43.28000 6.43600 46.48900
C  46.24300 8.67500 46.48700
C  42.70100 8.69600 46.59800
O  42.60800 9.91000 46.72800
C  41.40600 7.80500 46.50300
C  40.60400 8.00800 47.74300
O  40.75700 7.55700 48.84000
O  39.41800 8.60400 47.41400
C  38.42800 8.68500 48.50500
H  40.25400 0.92400 46.09900
H  46.54000 -0.17500 46.44900
H  47.54300 6.13900 46.80800
H  39.23700 5.65800 47.17400
H  38.74400 3.20100 45.81600
H  38.36100 4.27700 48.31400
H  39.46300 2.98500 48.68700
H  37.96600 2.59000 47.72700
H  39.37300 6.62000 44.73000
H  37.94400 5.86000 45.25700
H  38.48000 4.24500 43.36600
H  40.11500 4.22300 43.94000
H  41.18800 -2.00800 45.03200
H  40.33700 -1.08200 46.14400
H  41.49600 -2.31100 46.65200
H  46.13300 -1.99400 44.82200
H  46.06000 -3.60100 45.51200
H  46.34200 -2.45600 46.63400
H  48.50700 1.52900 46.01900
H  48.38300 3.74900 47.97600
H  49.31600 0.41300 47.69600
H  47.76500 0.51100 48.56800
H  48.98900 1.80700 48.79800
H  49.58200 5.12900 46.14400
H  49.22900 3.88500 44.92300
H  50.84900 2.60100 46.90200
H  51.40600 4.32800 46.68600
H  51.27400 3.08300 45.32100
H  45.87500 9.59000 46.02300
H  47.00400 8.35700 45.77400
H  46.70000 8.73800 47.47400
H  40.83400 8.04700 45.60700
H  37.91100 7.75800 48.75300
H  37.69400 9.37700 48.09400
H  38.66700 9.20000 49.43500

