158

Mg 2.40600 -1.98800 44.83800
C  5.62200 -1.30100 44.46100
C  1.55100 0.74600 42.89700
C  -0.90800 -3.08100 44.73600
C  3.23700 -4.92100 46.55400
N  3.46400 -0.61200 43.69100
C  4.82300 -0.53400 43.63200
C  5.29400 0.62500 42.76100
C  4.00500 1.51100 42.70300
C  2.89600 0.51200 43.15000
C  4.02200 2.86300 43.51700
C  5.99500 0.14300 41.47500
C  7.37300 0.88100 41.18700
H  7.49000 1.94300 40.08400
N  0.61000 -1.34200 43.75900
C  0.47400 -0.11400 43.10800
C  -0.88700 0.05400 42.72300
C  -1.63300 -1.02100 43.24800
C  -0.65800 -1.91100 43.96700
C  -1.28500 1.26200 41.86900
C  -3.14000 -1.15700 43.17400
O  -3.82500 -0.36100 42.55900
C  -3.95300 -2.23400 43.89700
N  1.32500 -3.77000 45.53800
C  0.00300 -3.97800 45.37900
C  -0.47700 -5.28400 46.09000
C  0.80800 -5.77300 46.79700
C  1.84800 -4.78700 46.22400
C  -1.65900 -5.15000 47.01500
C  1.15200 -7.30500 46.59300
C  1.74400 -8.16800 47.77200
N  4.14800 -2.96700 45.45800
C  4.35100 -4.11300 46.17000
C  5.77900 -4.20600 46.50000
C  6.35300 -3.06400 45.91100
C  5.27900 -2.40400 45.19600
C  6.51500 -5.35900 47.13700
C  7.54900 -2.26400 45.77000
O  8.64200 -2.43700 46.26000
C  7.13400 -1.07300 44.76800
C  7.38800 0.24600 45.42800
O  6.77700 0.74600 46.42700
O  8.40400 0.95700 44.76600
C  8.49100 2.44400 45.07200
H  1.39600 1.71600 42.42000
H  -1.92400 -3.47800 44.70000
H  3.56700 -5.81400 47.08900
H  5.99100 1.15800 43.40800
H  3.89000 1.77300 41.65100
H  4.33100 3.56200 42.74100
H  4.69800 2.66000 44.34800
H  3.04900 3.13900 43.92400
H  5.24500 0.35300 40.71300
H  6.26200 -0.91400 41.50300
H  7.98200 0.13600 40.67400
H  7.87600 1.24200 42.08500
H  -0.51500 2.03000 41.80900
H  -2.27000 1.59200 42.19800
H  -1.43700 0.77700 40.90500
H  -4.96300 -1.94000 43.61100
H  -3.86100 -2.20000 44.98200
H  -3.76100 -3.23500 43.50900
H  -0.69000 -6.09900 45.39900
H  0.62200 -5.54100 47.84600
H  -2.13700 -4.18900 46.82300
H  -1.51600 -5.30800 48.08400
H  -2.40900 -5.88500 46.72300
H  1.96500 -7.19300 45.87600
H  0.22800 -7.81300 46.31300
H  0.92500 -8.69700 48.25900
H  2.34800 -7.59700 48.47700
H  2.35900 -8.93800 47.30500
H  6.32300 -6.26500 46.56300
H  6.11300 -5.52900 48.13600
H  7.58900 -5.17500 47.11500
H  7.55100 -1.02200 43.76200
H  7.68900 2.85200 45.68700
H  8.52700 2.88600 44.07600
H  9.44300 2.71000 45.53100
Mg 44.83900 4.24500 46.83600
C  43.34400 7.51100 46.55900
C  41.86700 3.01500 45.49000
C  46.42700 1.43000 46.36500
C  47.84300 5.92000 47.54300
N  42.90100 5.19700 45.97800
C  42.46400 6.46300 46.09000
C  40.99300 6.60100 45.85600
C  40.56300 5.19900 45.40200
C  41.85300 4.39900 45.65800
C  39.30800 4.55500 46.11000
C  40.53500 7.69500 44.84400
C  41.44400 7.96800 43.63900
H  40.96600 7.63400 42.20200
N  44.21600 2.44900 46.18500
C  42.93400 2.12000 45.63000
C  42.91300 0.75700 45.23800
C  44.25900 0.30400 45.28100
C  45.01900 1.37500 45.98700
C  41.65000 0.15700 44.66900
C  44.80300 -0.97800 44.74700
O  44.06700 -1.77600 44.19300
C  46.24500 -1.42000 44.79500
N  46.77600 3.72500 47.18600
C  47.20500 2.44000 46.96100
C  48.68300 2.22500 47.33900
C  49.19300 3.67300 47.42200
C  47.90000 4.52000 47.39600
C  48.87400 1.28400 48.64900
C  50.08600 4.09600 46.22000
C  51.62500 4.49000 46.39700
N  45.56400 6.29100 46.98100
C  46.78000 6.82900 47.40000
C  46.72300 8.27800 47.43700
C  45.38100 8.58100 47.20800
C  44.71200 7.38200 46.89800
C  47.82200 9.18900 47.76000
C  44.43000 9.66900 47.12100
O  44.58600 10.87900 47.29600
C  43.05800 9.03500 46.72800
C  42.12700 9.15000 47.87500
O  41.95600 8.43100 48.85100
O  41.25200 10.21300 47.54400
C  40.06900 10.35400 48.32700
H  40.91000 2.63400 45.12800
H  47.00700 0.52600 46.16900
H  48.80900 6.41300 47.67000
H  40.64900 6.91700 46.84100
H  40.37300 5.13900 44.33000
H  38.78800 5.26400 46.75400
H  39.69100 3.89100 46.88500
H  38.62700 4.12500 45.37600
H  40.50100 8.67500 45.32000
H  39.54100 7.45700 44.46500
H  42.31300 7.31500 43.71600
H  41.75600 9.01100 43.69600
H  41.15900 -0.33300 45.51000
H  41.74800 -0.54500 43.84100
H  40.99300 0.92900 44.26800
H  46.52500 -1.79400 45.78000
H  46.86600 -0.57400 44.50000
H  46.43400 -2.02100 43.90600
H  49.23800 1.72500 46.54600
H  49.74800 3.73000 48.35800
H  48.10000 0.51800 48.60700
H  48.74300 1.87700 49.55400
H  49.87900 0.86500 48.58900
H  49.61900 4.97600 45.77900
H  50.03500 3.33800 45.43900
H  52.30100 3.84100 45.83900
H  51.89800 4.58400 47.44800
H  51.74100 5.43300 45.86300
H  48.45400 9.45600 46.91200
H  48.55200 8.76900 48.45300
H  47.40500 10.07200 48.24400
H  42.67100 9.45700 45.80000
H  39.40200 11.10000 47.89500
H  40.38600 10.62500 49.33400
H  39.63600 9.36400 48.47100

