158

Mg 53.58400 25.51300 44.03800
C  50.74800 27.46500 43.93800
C  51.72200 22.87000 42.80200
C  56.42700 23.76100 43.84000
C  55.44800 28.42000 45.08300
N  51.56300 25.25700 43.43600
C  50.59800 26.21800 43.35100
C  49.23200 25.72100 42.78500
C  49.43600 24.19800 42.94600
C  51.02000 24.05000 43.14200
C  48.51500 23.44700 43.99700
C  48.97200 26.22700 41.26200
C  50.15600 26.29600 40.30000
H  50.10100 25.51500 38.93600
N  53.99500 23.58400 43.40500
C  53.13700 22.67400 42.86900
C  53.84400 21.49600 42.47900
C  55.21700 21.74900 42.86600
C  55.29900 23.07700 43.37000
C  53.16400 20.31300 41.96700
C  56.16000 20.62600 42.81700
O  55.81400 19.47500 42.52500
C  57.52600 20.74900 43.48800
N  55.70600 26.09900 44.13700
C  56.65600 25.12500 44.24300
C  57.97100 25.67000 44.87000
C  57.68000 27.20300 45.08200
C  56.20100 27.25200 44.73500
C  58.35800 25.00200 46.25000
C  58.45100 28.15300 44.15700
C  58.33100 27.89800 42.61200
N  53.18800 27.48400 44.50500
C  54.00800 28.56400 45.00000
C  53.20400 29.62300 45.42800
C  51.95900 29.28400 44.92200
C  51.95000 27.98300 44.42000
C  53.59700 30.90100 46.17900
C  50.58800 29.78400 44.82300
O  50.07300 30.81800 45.18900
C  49.77300 28.66200 44.08500
C  49.50700 29.12800 42.69200
O  50.33400 29.32500 41.79800
O  48.21700 29.39900 42.56400
C  47.67800 29.95300 41.36000
H  51.14700 22.02000 42.42800
H  57.34100 23.18200 43.98800
H  55.98800 29.26200 45.52200
H  48.35400 26.06800 43.33000
H  49.17800 23.70300 42.01000
H  49.03300 22.76000 44.66600
H  47.79100 22.89600 43.39700
H  48.01600 24.26000 44.52400
H  48.51900 27.21900 41.27900
H  48.19700 25.64100 40.76900
H  51.04100 25.84700 40.75100
H  50.46700 27.30800 40.03900
H  53.61700 19.89900 41.06700
H  52.10400 20.47400 41.77600
H  53.25700 19.49500 42.68100
H  57.91100 19.73500 43.38400
H  57.55800 21.02800 44.54100
H  58.10300 21.42900 42.86100
H  58.82500 25.62300 44.19400
H  57.68300 27.56300 46.11000
H  59.01900 24.16600 46.02300
H  57.44500 24.56300 46.65400
H  58.81200 25.65000 46.99900
H  59.49800 28.04800 44.44300
H  58.00300 29.14100 44.26900
H  59.28400 27.58700 42.18300
H  58.05500 28.84800 42.15400
H  57.59700 27.17200 42.26100
H  54.46500 30.86100 46.83600
H  52.79300 31.34400 46.76800
H  53.90500 31.66800 45.46800
H  48.80800 28.40700 44.52500
H  46.59800 30.05900 41.46900
H  47.85200 29.44500 40.41100
H  47.99900 30.99100 41.27900
Mg 48.22500 24.92000 28.60300
C  49.10900 27.21900 31.23300
C  47.19000 22.80400 31.05700
C  47.87200 22.72800 26.18400
C  49.59800 27.21700 26.36100
N  48.18300 25.10100 30.82400
C  48.47900 26.10300 31.67100
C  48.15300 25.71300 33.10700
C  47.65400 24.21400 33.03600
C  47.71400 24.02000 31.55500
C  48.40600 23.15500 33.88900
C  47.08400 26.67500 33.73000
C  47.30300 27.05700 35.22200
H  46.12900 26.98400 36.15000
N  47.67500 23.04400 28.58700
C  47.15400 22.39400 29.69200
C  46.62000 21.15400 29.25100
C  46.87700 21.01600 27.84900
C  47.50100 22.28400 27.45400
C  45.95700 20.17900 30.18000
C  46.44700 19.97700 26.79600
O  46.65100 20.03000 25.60600
C  45.63600 18.77100 27.37900
N  48.78500 24.96800 26.60400
C  48.35800 23.96100 25.79000
C  48.53500 24.26300 24.26300
C  48.95200 25.79500 24.32700
C  49.18900 25.99400 25.84100
C  49.58800 23.24500 23.62600
C  47.84300 26.76600 23.68000
C  46.49300 26.97300 24.42000
N  49.14400 26.88800 28.70700
C  49.70600 27.63500 27.70200
C  50.29900 28.83300 28.27900
C  50.05800 28.72300 29.63000
C  49.39500 27.51100 29.86600
C  50.94500 30.01600 27.54600
C  50.19700 29.41100 30.82300
O  50.77600 30.44500 31.05200
C  49.57900 28.49500 31.98200
C  50.73900 28.26300 32.97400
O  51.71000 27.54100 32.74600
O  50.65800 29.11900 34.01200
C  51.60100 28.95500 35.16200
H  46.66000 22.22900 31.82000
H  47.61400 22.11300 25.31900
H  49.93600 27.99000 25.66700
H  49.11600 25.80800 33.60700
H  46.59200 24.09500 33.25000
H  49.01800 23.66100 34.63500
H  49.03400 22.62900 33.17000
H  47.61600 22.51900 34.28900
H  46.12400 26.16300 33.65600
H  46.95000 27.61500 33.19500
H  47.58000 28.11000 35.16200
H  48.13900 26.48700 35.62700
H  45.01800 20.18900 29.62600
H  45.85400 20.54000 31.20400
H  46.60700 19.30500 30.22700
H  46.10100 18.29400 28.24200
H  45.57000 17.99600 26.61500
H  44.65600 19.18400 27.61900
H  47.59600 24.05300 23.75000
H  49.94800 25.91100 23.90000
H  49.23600 22.81300 22.69000
H  49.83100 22.46600 24.34900
H  50.47200 23.83500 23.38500
H  47.69900 26.35800 22.68000
H  48.31100 27.74500 23.58500
H  46.02300 27.93700 24.22500
H  46.75900 26.95100 25.47700
H  45.80600 26.17600 24.13800
H  51.12300 30.85600 28.21700
H  50.28700 30.28600 26.72000
H  51.87000 29.76100 27.03000
H  48.75500 28.98700 32.50000
H  52.40500 28.23800 34.99700
H  50.92300 28.65200 35.96000
H  51.89000 29.93100 35.55300

