158

Mg 16.63200 -1.51300 28.01800
C  15.21800 0.41200 30.61600
C  18.56300 -3.10800 30.47500
C  18.31000 -3.12800 25.50400
C  14.78100 0.24400 25.72600
N  16.77200 -1.46000 30.32900
C  16.15200 -0.54300 31.09100
C  16.65400 -0.64000 32.54500
C  17.89600 -1.58100 32.38600
C  17.73300 -2.13100 30.98100
C  19.28800 -0.94400 32.65500
C  15.63700 -1.11100 33.58700
C  15.96600 -0.90900 35.09800
H  17.24400 -0.26200 35.55500
N  18.14800 -2.99800 27.98600
C  18.79600 -3.56800 29.10300
C  19.59200 -4.73400 28.70800
C  19.64400 -4.68200 27.22300
C  18.67200 -3.54600 26.83400
C  20.17700 -5.65600 29.70100
C  20.36600 -5.60800 26.18300
O  20.22100 -5.61100 24.97900
C  21.35400 -6.61700 26.66000
N  16.68000 -1.30000 25.88800
C  17.39300 -2.18300 25.12500
C  17.10000 -1.92800 23.63800
C  15.97600 -0.86700 23.66600
C  15.76600 -0.59300 25.20200
C  18.38700 -1.37300 22.88700
C  14.64300 -1.29800 23.03000
C  13.94500 -0.37000 22.08100
N  15.22300 0.02700 28.11200
C  14.47800 0.50700 27.07700
C  13.52800 1.45800 27.66100
C  13.81700 1.48600 29.02500
C  14.84600 0.57700 29.23700
C  12.47300 2.16300 26.81000
C  13.47200 2.11900 30.29100
O  12.69400 3.02900 30.59200
C  14.44200 1.44900 31.34300
C  15.29400 2.66200 31.81200
O  15.66700 3.56500 31.08300
O  15.43500 2.56500 33.16900
C  15.91700 3.81000 33.81100
H  19.28300 -3.59200 31.13800
H  18.84500 -3.62000 24.68800
H  14.23400 0.91500 25.06000
H  17.10900 0.32000 32.78800
H  17.81600 -2.44300 33.04900
H  19.05200 0.00300 33.14000
H  19.81700 -0.91000 31.70200
H  19.87700 -1.53800 33.35300
H  15.47900 -2.18600 33.50100
H  14.66600 -0.62000 33.51500
H  16.01500 -1.91500 35.51500
H  15.12800 -0.43500 35.60900
H  20.48700 -6.60300 29.26100
H  19.41000 -5.84700 30.45200
H  20.99400 -5.20300 30.26300
H  20.87500 -7.58100 26.83100
H  21.95500 -6.14900 27.44000
H  22.08400 -6.66900 25.85300
H  16.90000 -2.89300 23.17200
H  16.35800 0.08600 23.30000
H  19.08200 -2.20300 22.76300
H  18.78000 -0.48000 23.37400
H  18.08100 -0.89800 21.95400
H  13.88500 -1.59700 23.75300
H  14.87600 -2.28900 22.64000
H  12.97700 -0.14200 22.52800
H  13.76300 -0.92400 21.16000
H  14.53200 0.52800 21.88800
H  12.90400 3.00500 26.26800
H  11.60000 2.49900 27.36900
H  12.09600 1.50500 26.02800
H  14.04400 1.03300 32.26900
H  16.86400 4.12700 33.37400
H  16.17700 3.48700 34.81900
H  15.15100 4.58400 33.84600
Mg 28.19400 56.02300 41.24500
C  25.88400 53.53100 40.02600
C  30.66100 54.09800 39.95800
C  30.11000 58.67100 41.75300
C  25.40600 57.90000 41.98200
N  28.22900 53.99800 40.20400
C  27.19000 53.21700 39.68900
C  27.69400 52.16800 38.81300
C  29.22800 52.11600 39.10400
C  29.41600 53.39100 39.88000
C  29.86800 50.79400 39.74400
C  27.25900 52.25000 37.28900
C  27.06400 53.53700 36.59800
H  27.16000 53.68500 35.08600
N  30.19300 56.29000 41.03000
C  31.04700 55.36000 40.47600
C  32.33500 56.05800 40.40900
C  32.22300 57.36000 40.98000
C  30.83200 57.47200 41.38600
C  33.42900 55.29700 39.93500
C  33.33700 58.40500 41.00200
O  34.42200 58.22600 40.48200
C  33.17200 59.71100 41.66000
N  27.77800 58.00400 41.77200
C  28.80300 58.87600 42.06200
C  28.28400 60.32400 42.28700
C  26.78900 60.07300 42.52400
C  26.61900 58.58300 42.04200
C  29.05600 61.09400 43.38500
C  25.94800 61.15500 41.73700
C  24.73200 61.60800 42.56900
N  26.05500 55.73200 41.20100
C  25.09800 56.54800 41.65300
C  23.78000 55.88000 41.62100
C  24.02900 54.64700 40.99400
C  25.44000 54.61100 40.80100
C  22.42200 56.39500 42.04200
C  23.50200 53.36900 40.43700
O  22.35600 52.96900 40.43000
C  24.69200 52.69300 39.72300
C  24.70500 51.32500 40.34200
O  25.37500 51.03200 41.31100
O  23.97100 50.38000 39.67200
C  23.98000 49.02500 40.27900
H  31.49200 53.45400 39.66600
H  30.74400 59.55200 41.87800
H  24.53500 58.50000 42.25400
H  27.27500 51.29700 39.31700
H  29.70400 52.23900 38.13100
H  30.56200 51.22200 40.46700
H  30.40900 50.19300 39.01200
H  29.04600 50.22900 40.18400
H  26.26200 51.81900 37.19100
H  27.79600 51.54600 36.65300
H  27.92600 54.16000 36.83800
H  26.10300 53.99700 36.83100
H  33.11200 54.86800 38.98400
H  33.73600 54.46600 40.57000
H  34.35900 55.83800 39.76200
H  32.55300 60.21500 40.91800
H  34.11300 60.26000 41.62900
H  32.72400 59.74100 42.65300
H  28.50200 60.66600 41.27600
H  26.63400 60.05800 43.60300
H  29.70100 60.37200 43.88700
H  28.35700 61.46100 44.13600
H  29.66400 61.86400 42.91100
H  25.55000 60.78500 40.79200
H  26.62300 61.98000 41.51200
H  23.92600 61.65800 41.83700
H  24.92000 62.55300 43.08000
H  24.57500 60.85500 43.34100
H  21.85200 56.42100 41.11300
H  22.50600 57.36900 42.52400
H  22.01900 55.59000 42.65700
H  24.57000 52.47300 38.66200
H  23.36600 48.29500 39.75100
H  23.62800 49.15600 41.30200
H  25.01800 48.71000 40.17600

