158

Mg 49.05500 44.83300 43.23800
C  45.55500 44.96700 42.55800
C  48.81600 41.36900 42.57300
C  52.27100 44.71600 43.36000
C  49.03200 48.39100 43.00100
N  47.36700 43.33200 42.59700
C  46.05600 43.61500 42.39900
C  45.19600 42.53800 41.77600
C  46.19000 41.36700 42.12100
C  47.62300 42.02200 42.41300
C  45.70400 40.43800 43.29900
C  44.96200 42.66600 40.24000
C  44.25100 41.44100 39.61200
H  43.67300 41.69800 38.20400
N  50.39900 43.23900 43.19700
C  50.12700 41.92200 42.89500
C  51.36900 41.17300 42.78900
C  52.47600 42.13800 43.05600
C  51.74000 43.44700 43.22800
C  51.43500 39.63200 42.45000
C  53.97400 41.79200 43.12400
O  54.38000 40.61800 42.92200
C  54.98200 42.98100 43.17200
N  50.45400 46.37100 42.91100
C  51.75900 46.04000 43.25200
C  52.60000 47.32000 43.52600
C  51.68000 48.50500 43.08800
C  50.32600 47.77600 42.90300
C  53.04000 47.38200 45.12400
C  52.13500 49.13700 41.70000
C  51.71600 50.62200 41.53800
N  47.66700 46.39600 43.02500
C  47.82200 47.77200 43.01900
C  46.53400 48.43900 42.95700
C  45.60600 47.38100 42.79100
C  46.31900 46.12400 42.80400
C  46.39400 49.95400 42.96200
C  44.17800 47.07700 42.60400
O  43.21700 47.86200 42.53000
C  44.11600 45.51600 42.39200
C  43.10900 44.85600 43.26300
O  43.32300 44.08800 44.21000
O  41.88600 45.30800 42.87900
C  40.75500 44.89500 43.73500
H  48.89800 40.28900 42.43400
H  53.35000 44.74400 43.52400
H  48.95700 49.48000 42.99300
H  44.21800 42.30600 42.19800
H  46.47200 40.74400 41.27200
H  44.86100 40.95300 43.75800
H  46.55300 40.32000 43.97200
H  45.32000 39.48100 42.94500
H  45.94400 42.80800 39.78900
H  44.35000 43.55600 40.09300
H  43.48300 41.12600 40.31900
H  44.83000 40.51800 39.59500
H  51.62900 39.51500 41.38400
H  50.49800 39.16000 42.74300
H  52.27900 39.20000 42.98700
H  54.66000 43.69900 42.41900
H  55.99800 42.65600 42.94900
H  55.08600 43.39200 44.17600
H  53.49100 47.33600 42.89900
H  51.53600 49.17300 43.93700
H  53.24900 46.33800 45.35600
H  52.32800 47.92600 45.74500
H  53.99000 47.91500 45.10100
H  51.83500 48.57100 40.81800
H  53.22400 49.16900 41.73500
H  51.69000 50.85000 40.47300
H  52.37300 51.27500 42.11200
H  50.70100 50.61400 41.93700
H  46.69700 50.50300 42.07000
H  46.87200 50.36800 43.85000
H  45.31500 50.01300 43.10800
H  43.62100 45.37300 41.43100
H  41.08800 45.05600 44.76000
H  40.55800 43.84900 43.49900
H  39.84600 45.46700 43.54600
Mg 17.06900 52.79300 26.43400
C  18.67300 51.10000 29.10700
C  14.48100 53.67500 28.56700
C  15.50900 54.29800 23.83800
C  19.41300 51.44400 24.36200
N  16.54200 52.25500 28.55200
C  17.36300 51.63900 29.48300
C  16.93200 51.90800 30.92600
C  15.45900 52.45900 30.63500
C  15.47500 52.91000 29.18700
C  14.32700 51.44100 30.96500
C  17.83700 52.96500 31.66600
C  18.31500 52.60200 33.06500
H  17.43800 53.13500 34.27400
N  15.24300 53.93400 26.23500
C  14.35300 54.18500 27.25300
C  13.30100 54.92700 26.69600
C  13.53000 55.11000 25.29600
C  14.80200 54.40200 25.03400
C  12.09200 55.50100 27.50200
C  12.81300 56.02600 24.33200
O  13.19400 56.03000 23.20300
C  11.68000 56.88500 24.71400
N  17.36000 52.82100 24.32300
C  16.64500 53.55500 23.42500
C  17.22200 53.45400 21.98000
C  18.42100 52.52900 22.23700
C  18.41400 52.28000 23.74600
C  16.16000 53.01800 21.01200
C  19.85700 53.15900 21.76000
C  20.10400 53.20400 20.21600
N  18.76900 51.56200 26.61200
C  19.59100 51.08700 25.68100
C  20.65800 50.33400 26.24100
C  20.45500 50.42700 27.64400
C  19.22700 51.12600 27.79300
C  21.81300 49.76400 25.46800
C  20.92700 50.12100 28.96900
O  21.95900 49.59400 29.42300
C  19.75300 50.44400 29.95000
C  19.11200 49.22800 30.58800
O  18.17500 48.51800 30.20600
O  19.66800 49.19900 31.81100
C  19.22600 48.16800 32.71600
H  13.68400 53.92200 29.27100
H  15.03400 54.76800 22.97400
H  20.00200 51.07900 23.51900
H  16.79000 51.04800 31.58000
H  15.22900 53.33100 31.24800
H  14.38100 50.58400 30.29400
H  13.30800 51.82600 30.93500
H  14.54800 51.16200 31.99500
H  17.43300 53.96200 31.84000
H  18.71900 52.98500 31.02500
H  19.38000 52.82000 33.14100
H  18.37900 51.51900 33.17400
H  12.11000 56.58100 27.35700
H  12.19400 55.28600 28.56500
H  11.18800 55.04500 27.10000
H  12.07300 57.55100 25.48200
H  10.85500 56.22500 24.98300
H  11.38700 57.52500 23.88100
H  17.65000 54.42900 21.74300
H  18.28200 51.60600 21.67400
H  16.06400 51.93600 21.10400
H  16.38100 53.35700 20.00000
H  15.14600 53.37200 21.19600
H  20.61100 52.55900 22.27000
H  19.87200 54.20100 22.07900
H  20.40700 54.21900 19.96000
H  19.19300 52.83800 19.74100
H  20.94300 52.54900 19.98400
H  22.21500 50.67800 25.03000
H  21.41300 49.06200 24.73600
H  22.65300 49.40500 26.06200
H  20.07700 51.13300 30.73100
H  18.16000 48.08300 32.50100
H  19.35500 48.69900 33.65900
H  19.86700 47.28700 32.70600

