158

Mg 36.82000 48.12900 24.58300
C  37.02000 46.14800 27.47600
C  35.69300 50.80500 26.48000
C  36.45400 49.86300 21.82600
C  37.80900 45.30600 22.67400
N  36.40400 48.39300 26.66800
C  36.65400 47.52600 27.69600
C  36.34000 48.13300 29.09600
C  35.85600 49.57500 28.70500
C  36.02000 49.63100 27.18800
C  34.41700 49.76900 29.16200
C  37.48700 48.13700 30.11600
C  37.09500 47.65900 31.53900
H  35.63700 47.73500 32.04400
N  36.23200 50.09600 24.19800
C  35.70500 51.04300 25.11400
C  35.36100 52.27200 24.43400
C  35.50600 52.01700 23.00200
C  36.11200 50.61000 22.92800
C  34.88900 53.51400 25.08800
C  35.28600 53.01300 21.92500
O  35.54600 52.75500 20.77900
C  34.92800 54.42100 22.14400
N  36.84100 47.56400 22.46900
C  36.83600 48.54100 21.50400
C  37.09200 47.95600 20.07100
C  37.68200 46.51900 20.48300
C  37.46800 46.44500 21.98100
C  35.90800 48.01300 19.10800
C  39.07000 46.22500 19.97400
C  40.14400 46.94700 20.75500
N  37.36300 46.19200 24.99100
C  37.75800 45.14200 24.07900
C  38.07000 43.96100 24.90300
C  37.75400 44.28400 26.25000
C  37.33500 45.67500 26.20000
C  38.48600 42.59800 24.33300
C  37.60900 43.83100 27.62500
O  37.71600 42.67200 28.05400
C  37.14800 45.05300 28.51200
C  35.77900 44.63800 29.10500
O  34.70800 44.62300 28.51600
O  35.96000 44.17200 30.40900
C  34.92200 43.33100 30.91500
H  35.23600 51.56400 27.11800
H  36.38200 50.55000 20.98000
H  38.10700 44.41500 22.11600
H  35.54900 47.50000 29.49800
H  36.57500 50.34500 28.98400
H  34.05300 49.34500 30.09800
H  33.88900 49.41700 28.27600
H  34.26300 50.84700 29.11800
H  37.96700 49.11300 30.18600
H  38.28500 47.47000 29.79100
H  37.72000 48.14700 32.28700
H  37.45000 46.63200 31.61600
H  35.63700 54.30600 25.14500
H  34.60800 53.26500 26.11200
H  33.96600 53.95700 24.71500
H  33.90500 54.53200 22.50400
H  35.04200 54.94400 21.19500
H  35.60700 54.80200 22.90700
H  37.96800 48.50300 19.72100
H  36.98400 45.77400 20.10000
H  34.99400 48.19000 19.67600
H  35.93400 47.07000 18.56300
H  36.04200 48.83900 18.41000
H  39.13200 46.48600 18.91800
H  39.22200 45.14900 20.06700
H  40.96300 47.26100 20.10700
H  40.64900 46.30000 21.47300
H  39.82700 47.82400 21.31800
H  38.57400 42.58700 23.24700
H  37.73500 41.87000 24.63800
H  39.36700 42.30800 24.90700
H  37.89100 45.27500 29.27800
H  34.58000 42.65300 30.13400
H  34.22500 43.96500 31.46300
H  35.44300 42.76500 31.68700
Mg 17.08700 51.84200 26.34500
C  18.62900 50.14600 29.04300
C  14.73200 53.14900 28.52300
C  15.63200 53.28500 23.84100
C  19.22900 49.98400 24.14400
N  16.75100 51.55700 28.49200
C  17.50700 50.94000 29.42600
C  16.95600 51.26400 30.93700
C  15.60700 51.97700 30.62700
C  15.69000 52.28300 29.08500
C  14.28500 51.23600 31.13700
C  17.95600 52.27100 31.70500
C  18.08500 51.93500 33.26700
H  17.10000 51.09000 34.13700
N  15.33800 53.08700 26.19900
C  14.57700 53.57100 27.20700
C  13.70200 54.61300 26.66700
C  13.98300 54.71600 25.23300
C  14.96300 53.64300 25.00500
C  12.74600 55.34700 27.50400
C  13.45000 55.63200 24.16900
O  13.89600 55.55600 22.99000
C  12.45100 56.68900 24.56500
N  17.32900 51.54400 24.27800
C  16.61500 52.33800 23.44100
C  17.04500 52.15200 21.94000
C  18.18200 51.13200 22.09800
C  18.23300 50.81700 23.56000
C  15.89900 51.63100 21.00500
C  19.52200 51.54000 21.52200
C  20.32200 52.61100 22.19600
N  18.67800 50.43400 26.46500
C  19.43000 49.75500 25.52000
C  20.44700 49.06500 26.23900
C  20.13200 49.15900 27.63700
C  19.01200 49.93600 27.67700
C  21.62300 48.33400 25.66000
C  20.60100 48.77200 28.98000
O  21.63500 48.26100 29.40800
C  19.57700 49.42700 29.99000
C  18.96700 48.41700 30.83600
O  18.10900 47.59800 30.56600
O  19.59600 48.33400 32.12000
C  19.11800 47.33200 33.07700
H  14.12500 53.62000 29.30000
H  15.29200 53.75700 22.91700
H  19.85100 49.43900 23.43100
H  16.74200 50.32000 31.43700
H  15.61100 52.92500 31.16500
H  13.64600 51.29400 30.25600
H  13.72100 51.95000 31.73700
H  14.28400 50.26600 31.63600
H  17.65300 53.31000 31.57700
H  18.91200 51.90000 31.33400
H  18.14900 52.92000 33.72700
H  19.04400 51.44400 33.43400
H  13.05600 56.33700 27.83700
H  12.57200 54.94600 28.50200
H  11.76700 55.48300 27.04400
H  11.50700 56.20600 24.81600
H  12.36700 57.40500 23.74800
H  12.84800 57.18700 25.45000
H  17.45600 53.12500 21.66700
H  17.99300 50.18700 21.58700
H  16.03400 52.34600 20.19300
H  14.94300 51.62100 21.52900
H  16.17500 50.63800 20.65000
H  19.15700 51.99100 20.59900
H  20.02700 50.62200 21.22200
H  21.32700 52.21700 22.34600
H  19.99300 53.00200 23.15900
H  20.24500 53.39900 21.44700
H  21.25900 47.70400 24.84900
H  22.21400 47.73100 26.35000
H  22.28200 49.09100 25.23400
H  20.14700 50.13300 30.59500
H  19.37600 47.67500 34.07900
H  19.59600 46.35300 33.02700
H  18.03800 47.20700 33.00300

