158

Mg 24.84200 -7.32600 47.65700
C  27.50900 -5.10600 46.68700
C  23.03400 -5.94500 44.98200
C  22.74100 -9.77500 48.01100
C  27.20900 -9.00300 49.74200
N  25.25500 -5.69500 46.12500
C  26.35300 -4.94200 45.88000
C  26.04300 -3.92700 44.74800
C  24.49900 -3.89900 44.74700
C  24.22600 -5.34100 45.26400
C  23.94100 -2.84200 45.72600
C  26.68000 -4.42400 43.36300
C  27.41300 -3.31700 42.53400
H  26.86300 -3.12800 41.10000
N  23.13800 -7.74700 46.75900
C  22.57000 -7.11300 45.60500
C  21.34900 -7.82100 45.15100
C  21.15600 -8.84900 46.12900
C  22.35100 -8.83900 47.05400
C  20.49500 -7.47800 43.88900
C  19.94600 -9.81200 46.08900
O  18.98600 -9.73800 45.26000
C  19.86200 -11.01500 47.06300
N  24.93400 -9.14500 48.76600
C  23.82400 -9.93400 48.85100
C  24.10800 -11.11700 49.77600
C  25.42500 -10.70400 50.47700
C  26.01300 -9.67900 49.53000
C  22.99100 -11.70100 50.59600
C  26.41700 -11.78100 50.80500
C  27.03300 -11.74100 52.23100
N  26.90500 -7.09100 48.25800
C  27.73000 -7.83200 49.06100
C  29.00500 -7.12500 49.21000
C  28.94700 -6.03100 48.31500
C  27.66500 -6.08700 47.72500
C  30.22900 -7.52800 49.99800
C  29.65600 -4.90200 47.74500
O  30.71800 -4.37600 47.97300
C  28.76800 -4.27000 46.61600
C  28.54000 -2.82000 46.80800
O  28.15900 -2.33500 47.84500
O  28.77300 -2.27200 45.58300
C  28.38400 -0.89800 45.51800
H  22.34900 -5.50900 44.25200
H  21.97600 -10.54200 48.14300
H  27.87600 -9.28700 50.55900
H  26.39600 -2.92000 44.96900
H  24.05100 -3.73600 43.76700
H  23.32700 -2.18900 45.10600
H  24.62800 -2.18500 46.26000
H  23.21300 -3.36200 46.34800
H  25.97700 -4.96100 42.72600
H  27.39800 -5.18000 43.68300
H  28.48400 -3.48200 42.41300
H  27.18800 -2.36500 43.01300
H  19.85400 -8.25800 43.47800
H  21.26300 -7.10800 43.21000
H  19.95400 -6.55700 44.10600
H  19.96200 -10.67600 48.09400
H  20.66300 -11.69300 46.77100
H  18.85300 -11.42400 47.01200
H  24.45700 -11.91300 49.11600
H  25.14600 -10.17200 51.38600
H  22.56100 -12.46200 49.94600
H  22.23100 -10.92700 50.70800
H  23.37300 -12.06200 51.55100
H  27.13700 -11.81400 49.98700
H  25.94500 -12.76400 50.81100
H  27.87100 -11.04300 52.25000
H  27.26300 -12.73800 52.60600
H  26.32600 -11.31100 52.94000
H  30.03000 -7.34900 51.05500
H  31.12300 -7.01500 49.64100
H  30.30000 -8.60100 49.82100
H  29.29100 -4.51100 45.69000
H  27.66200 -0.74500 44.71700
H  29.24700 -0.28500 45.25800
H  27.93600 -0.50200 46.42900
Mg -1.67600 34.68600 26.62500
C  -3.24700 32.73200 29.11300
C  -0.60900 36.79800 29.07800
C  -0.57600 36.53400 24.27200
C  -3.29100 32.50300 24.19300
N  -1.94200 34.86200 28.84100
C  -2.54900 33.86000 29.67200
C  -2.34100 34.12500 31.15300
C  -1.58200 35.50800 31.13100
C  -1.33400 35.74100 29.59200
C  -2.14100 36.71300 31.90400
C  -1.64300 32.91900 31.92000
C  -2.30300 32.44700 33.20900
H  -1.35000 32.31100 34.32800
N  -0.67000 36.40500 26.69900
C  -0.31800 37.15100 27.76500
C  0.37200 38.35800 27.30200
C  0.41900 38.27100 25.90500
C  -0.30800 37.05900 25.55100
C  0.94200 39.37200 28.31200
C  0.98800 39.26400 24.94400
O  1.07900 39.16000 23.69900
C  1.38600 40.65800 25.53200
N  -1.93900 34.54800 24.51200
C  -1.32200 35.47800 23.78200
C  -1.55200 35.15400 22.22900
C  -2.23500 33.75600 22.28800
C  -2.52000 33.58800 23.78300
C  -2.44700 36.08300 21.41400
C  -1.53800 32.48600 21.75300
C  -0.31100 31.98900 22.60200
N  -2.96100 32.90300 26.55100
C  -3.56600 32.17700 25.53700
C  -4.41600 31.21300 26.17000
C  -4.29000 31.41400 27.56500
C  -3.37400 32.41300 27.70000
C  -5.15800 30.13100 25.44500
C  -4.76000 30.83500 28.79400
O  -5.56400 29.94000 28.98000
C  -4.16000 31.71100 29.88100
C  -5.29300 32.33700 30.69700
O  -6.00000 33.27200 30.32600
O  -5.43000 31.64300 31.86600
C  -6.63100 32.03800 32.59600
H  -0.23400 37.43100 29.88600
H  -0.24300 37.21600 23.48700
H  -3.77900 31.85700 23.46100
H  -3.34800 34.29000 31.53800
H  -0.56000 35.33100 31.46500
H  -1.49000 37.10300 32.68600
H  -3.09600 36.49200 32.38200
H  -2.22900 37.56200 31.22600
H  -0.68600 33.27500 32.30400
H  -1.54900 32.17500 31.12900
H  -2.65500 31.42600 33.05900
H  -3.14700 33.09000 33.45800
H  0.12600 40.08000 28.45300
H  1.87600 39.89100 28.09300
H  1.25900 38.80400 29.18600
H  2.25200 40.50400 26.17700
H  0.48800 41.04300 26.01400
H  1.70300 41.38200 24.78100
H  -0.61700 35.04300 21.68100
H  -3.28600 33.72200 22.00300
H  -3.20500 35.60200 20.79700
H  -1.89100 36.55200 20.60200
H  -2.94900 36.88100 21.96100
H  -1.19500 32.81500 20.77300
H  -2.24200 31.65700 21.67100
H  -0.78400 31.54700 23.47900
H  0.23600 32.87000 22.93700
H  0.40100 31.30500 22.14000
H  -6.07000 30.55900 25.02900
H  -5.48000 29.36200 26.14800
H  -4.63300 29.71300 24.58500
H  -3.61000 31.09600 30.59300
H  -7.47300 32.39900 32.00600
H  -6.41900 32.87800 33.25700
H  -6.88500 31.16600 33.19900

