158

Mg 2.49200 -1.04800 43.28200
C  5.89000 -0.30100 42.80100
C  1.68500 1.77600 41.52000
C  -0.63700 -2.31900 42.73000
C  3.54000 -4.23400 44.45300
N  3.65500 0.49300 42.22900
C  5.00400 0.59400 42.18700
C  5.37100 1.87200 41.38200
C  4.06400 2.76200 41.45100
C  3.00600 1.62300 41.86100
C  4.05500 4.04300 42.29900
C  5.95700 1.48200 39.96600
C  5.10200 1.02900 38.87200
H  4.97300 1.87200 37.53900
N  0.76300 -0.32000 42.46700
C  0.65900 0.89200 41.75400
C  -0.74600 1.14600 41.38400
C  -1.46400 -0.00700 41.80100
C  -0.48300 -0.95300 42.40700
C  -1.05900 2.44900 40.57300
C  -2.88100 -0.14900 41.52700
O  -3.43500 0.82600 40.96900
C  -3.68900 -1.26200 41.92400
N  1.57800 -2.97300 43.63800
C  0.32600 -3.27400 43.23900
C  0.03300 -4.79600 43.25900
C  1.31200 -5.31300 44.01500
C  2.22200 -4.11900 44.09900
C  -1.28600 -5.08700 44.05800
C  1.87500 -6.62000 43.47200
C  2.07000 -7.69500 44.58500
N  4.32500 -2.06100 43.70600
C  4.55300 -3.34500 44.20100
C  5.96500 -3.53100 44.22900
C  6.56800 -2.36800 43.70200
C  5.53600 -1.49100 43.38400
C  6.58500 -4.72700 44.89900
C  7.82300 -1.67900 43.38800
O  8.99700 -2.02500 43.43600
C  7.38100 -0.33700 42.74200
C  7.99500 0.85900 43.33700
O  8.78100 1.59300 42.73800
O  7.76900 0.95900 44.65400
C  8.61800 2.02400 45.32800
H  1.43600 2.63300 40.89100
H  -1.56400 -2.75100 42.34600
H  3.82000 -5.23000 44.80200
H  6.16500 2.36100 41.94600
H  3.96600 3.08900 40.41600
H  3.22400 3.92700 42.99500
H  3.85700 4.86500 41.61100
H  5.04200 4.21600 42.72800
H  6.74000 0.73600 40.10200
H  6.44700 2.37500 39.57700
H  4.06600 0.98700 39.20800
H  5.40000 0.01900 38.59100
H  -0.26100 2.66800 39.86300
H  -1.20900 3.35300 41.16400
H  -2.01800 2.46400 40.05600
H  -3.59600 -1.28400 43.01000
H  -3.36600 -2.20500 41.48300
H  -4.67500 -1.29300 41.46000
H  -0.10600 -5.21000 42.26100
H  0.96700 -5.50300 45.03100
H  -1.24600 -5.65200 44.98900
H  -1.78400 -5.76100 43.36100
H  -1.96600 -4.24700 44.20300
H  2.83300 -6.34900 43.02800
H  1.38200 -7.07000 42.61000
H  2.79200 -8.41900 44.20700
H  1.12300 -8.10100 44.94000
H  2.42200 -7.05000 45.39100
H  6.76200 -5.54400 44.20100
H  6.09200 -4.99700 45.83300
H  7.56000 -4.43700 45.29000
H  7.82300 -0.30000 41.74600
H  8.27400 3.04500 45.16200
H  9.63700 2.00400 44.94300
H  8.60700 1.84600 46.40300
Mg -0.58000 42.74800 24.81100
C  1.94800 42.16900 27.26500
C  -2.88400 42.19400 27.30000
C  -2.89800 42.75100 22.45800
C  1.95800 42.98500 22.45200
N  -0.48900 42.26900 27.00100
C  0.60400 42.13400 27.80400
C  0.24400 41.99000 29.35400
C  -1.33900 41.62200 29.16600
C  -1.63000 42.03300 27.75000
C  -1.62600 40.06800 29.38200
C  0.66400 43.20800 30.25600
C  0.03200 43.38800 31.68200
H  -0.45400 42.11100 32.38300
N  -2.66900 42.54900 24.83400
C  -3.41700 42.32900 25.95300
C  -4.87700 42.26400 25.60200
C  -4.82900 42.31100 24.22400
C  -3.45100 42.54000 23.79000
C  -6.07100 42.02600 26.57500
C  -5.93200 42.17400 23.12600
O  -5.77000 42.14900 21.93100
C  -7.31400 42.12700 23.61600
N  -0.47000 42.82700 22.69200
C  -1.58300 42.79900 21.87900
C  -1.14000 42.98200 20.38600
C  0.41000 43.29200 20.53300
C  0.68000 43.09900 21.98900
C  -1.57500 41.77700 19.58500
C  0.89700 44.66800 19.91700
C  0.74400 45.94700 20.81200
N  1.54400 42.70000 24.85100
C  2.39000 42.91700 23.82600
C  3.79000 42.72500 24.32200
C  3.61100 42.62300 25.71100
C  2.28200 42.46000 25.93400
C  5.02200 42.83300 23.46900
C  4.31600 42.42800 26.94800
O  5.49300 42.35200 27.15200
C  3.21800 42.32000 28.03500
C  3.50400 41.22400 28.92400
O  3.43500 40.02200 28.70500
O  3.98600 41.75500 30.05600
C  4.31200 40.75100 31.08400
H  -3.64700 42.18500 28.08200
H  -3.61100 42.51300 21.66600
H  2.67200 43.30300 21.68800
H  0.83700 41.20200 29.81800
H  -1.97200 42.25000 29.79300
H  -2.40200 39.91800 30.13300
H  -0.70200 39.59300 29.71000
H  -1.78800 39.60500 28.40900
H  0.69400 44.16900 29.74300
H  1.71800 43.05100 30.48300
H  -0.87500 43.94400 31.44700
H  0.66200 43.94100 32.38000
H  -5.78900 41.90500 27.62100
H  -6.64900 41.12500 26.36800
H  -6.77100 42.85700 26.49000
H  -7.36000 42.96500 24.31000
H  -7.45900 41.20000 24.17100
H  -8.04300 42.23300 22.81200
H  -1.71800 43.86200 20.10400
H  0.95800 42.51900 19.99300
H  -0.68400 41.27400 19.21000
H  -2.43400 41.91100 18.92700
H  -1.92500 41.03000 20.29700
H  0.41800 44.93500 18.97600
H  1.94800 44.63300 19.63000
H  1.74700 46.36200 20.91500
H  0.25700 45.68900 21.75200
H  0.20100 46.79200 20.38800
H  4.88500 42.00600 22.77200
H  5.99400 42.63900 23.92200
H  5.09200 43.82900 23.03200
H  3.26100 43.28400 28.54100
H  3.52200 40.02100 31.26000
H  4.49000 41.26300 32.02900
H  5.28200 40.38900 30.74300

