158

Mg 8.67500 3.46400 27.79800
C  9.86000 1.85100 30.71700
C  6.74700 5.49200 29.89600
C  7.33300 4.88900 25.09000
C  10.02500 0.90700 25.86300
N  8.14800 3.46000 30.08400
C  8.99900 2.92400 31.00300
C  8.59700 3.41900 32.43700
C  7.34800 4.31800 32.14600
C  7.46800 4.47000 30.63800
C  5.91500 3.73700 32.51200
C  9.83200 4.00500 33.16700
C  10.15300 3.46700 34.53700
H  10.71400 4.23700 35.64500
N  7.31700 5.07500 27.53500
C  6.70000 5.81500 28.52800
C  5.89400 6.86300 27.90900
C  6.11100 6.65500 26.49300
C  6.98000 5.54300 26.32600
C  4.97500 7.94300 28.62600
C  5.30000 7.24100 25.32300
O  5.37000 6.82100 24.18800
C  4.29100 8.39300 25.56100
N  8.52800 2.90800 25.80700
C  7.95600 3.70800 24.82400
C  8.30400 3.27800 23.41300
C  9.32800 2.12700 23.67200
C  9.30400 1.97300 25.22800
C  7.07600 2.81800 22.65300
C  10.72500 2.31000 23.12000
C  11.85100 2.85200 24.10800
N  9.71100 1.62500 28.14200
C  10.24000 0.69000 27.26900
C  11.13500 -0.18000 28.04400
C  11.06600 0.27700 29.35800
C  10.12600 1.29200 29.37000
C  11.83500 -1.32100 27.36900
C  11.56700 0.07200 30.70100
O  12.41000 -0.72100 31.13700
C  10.76700 1.05300 31.65300
C  10.02500 0.22500 32.66500
O  8.91500 -0.23100 32.49100
O  10.70700 0.11200 33.80200
C  9.98300 -0.42300 34.97600
H  6.21900 6.14000 30.59900
H  7.12200 5.39000 24.14300
H  10.62900 0.32000 25.16800
H  8.20700 2.62000 33.06700
H  7.34600 5.20900 32.77400
H  5.92200 2.66900 32.73100
H  5.13200 3.83800 31.76100
H  5.59500 4.28600 33.39800
H  9.70400 5.08300 33.25900
H  10.73100 4.09800 32.55600
H  10.92100 2.72600 34.31500
H  9.27100 3.00400 34.98100
H  5.08600 8.89000 28.09700
H  5.28000 8.00400 29.67100
H  3.95200 7.61800 28.43900
H  3.51200 8.07600 26.25400
H  3.77400 8.52400 24.61000
H  4.82700 9.30900 25.81100
H  8.88900 4.00800 22.85300
H  9.02700 1.18500 23.21300
H  6.25700 2.65000 23.35200
H  7.17100 1.87800 22.11000
H  6.88100 3.56700 21.88500
H  10.79600 3.03700 22.31100
H  11.11900 1.40500 22.65600
H  11.68300 2.75000 25.18000
H  11.89600 3.91100 23.85300
H  12.79300 2.38300 23.82400
H  11.32300 -1.53400 26.43100
H  11.76500 -2.21200 27.99400
H  12.87300 -1.04800 27.18200
H  11.44000 1.75900 32.13900
H  10.73600 -0.86400 35.62900
H  9.25300 -1.21000 34.78100
H  9.46400 0.37700 35.50500
Mg 46.50600 24.94600 29.16100
C  47.11000 27.31200 31.63600
C  45.51500 22.74200 31.56700
C  46.46400 22.64400 26.87800
C  48.17300 27.21100 26.87500
N  46.23500 25.10400 31.34200
C  46.55100 26.14400 32.12300
C  46.08700 25.85400 33.52100
C  45.80900 24.30500 33.53600
C  45.96900 23.96100 32.07200
C  46.63900 23.44400 34.45800
C  44.95100 26.78300 34.12600
C  45.17900 27.62500 35.46000
H  45.73400 26.87000 36.66000
N  45.90000 22.98700 29.17900
C  45.47400 22.27200 30.24300
C  45.04000 20.92200 29.83700
C  45.28800 20.85700 28.38500
C  45.96300 22.17400 28.08700
C  44.44500 19.88700 30.66200
C  44.88800 19.77700 27.35500
O  45.16100 19.89000 26.18400
C  44.10600 18.57200 27.75400
N  47.17300 25.01200 27.15800
C  47.10100 23.84900 26.42800
C  47.67900 24.03800 24.96300
C  48.27600 25.46400 25.11000
C  47.81000 25.93000 26.44300
C  48.83100 23.03900 24.69600
C  47.78300 26.34400 23.92300
C  48.73200 26.55400 22.75700
N  47.38500 26.95100 29.18000
C  47.98400 27.68000 28.18900
C  48.34200 28.93300 28.64900
C  48.01500 28.90700 30.05700
C  47.47100 27.61600 30.31300
C  49.16300 29.98800 27.94200
C  48.12300 29.62800 31.31500
O  48.52400 30.80900 31.51300
C  47.57600 28.50700 32.42200
C  48.57800 28.04800 33.45700
O  49.22900 27.00800 33.40700
O  48.70800 29.07600 34.35700
C  49.51400 28.74800 35.52500
H  45.17800 22.04500 32.33700
H  46.37700 21.87500 26.10800
H  48.67300 27.86000 26.15300
H  46.96700 25.97600 34.15200
H  44.76900 24.06300 33.75600
H  47.34100 22.76200 33.97800
H  46.02600 22.83400 35.12200
H  47.20300 24.04500 35.17200
H  44.02800 26.25400 34.36200
H  44.62700 27.46800 33.34300
H  44.17000 27.93600 35.73100
H  45.91100 28.35500 35.11500
H  43.55500 19.45000 30.20900
H  44.11600 20.19200 31.65600
H  45.03900 18.99200 30.84600
H  43.06400 18.86500 27.87900
H  44.52900 18.08200 28.63000
H  44.17100 17.84700 26.94200
H  46.80000 23.81700 24.35700
H  49.36500 25.42800 25.08600
H  49.41300 23.48100 23.88800
H  48.35100 22.10300 24.41100
H  49.46100 22.76000 25.54000
H  47.52500 27.34700 24.26200
H  46.88700 25.87800 23.51400
H  49.26300 27.50500 22.70200
H  48.02600 26.53300 21.92600
H  49.45200 25.74600 22.63500
H  49.48800 29.59700 26.97800
H  49.96100 30.39600 28.56300
H  48.59200 30.89400 27.73600
H  46.81800 28.91900 33.08700
H  48.85200 28.54500 36.36600
H  50.09600 29.57300 35.93600
H  50.22100 27.92600 35.41300

