158

Mg 4.85200 53.16900 42.09800
C  5.01400 49.78000 41.25600
C  7.83200 53.69900 40.47300
C  4.39700 56.49300 42.58800
C  1.55500 52.56600 43.30300
N  6.17400 51.92700 40.87900
C  6.06100 50.59300 40.73900
C  7.29800 50.09800 39.93700
C  8.30800 51.18400 40.18800
C  7.38500 52.39100 40.53600
C  9.28400 51.03900 41.42800
C  6.99200 49.92200 38.41300
C  7.62100 48.79400 37.62000
H  6.92000 48.05100 36.38800
N  5.93700 54.85300 41.57800
C  7.18200 54.83500 40.96200
C  7.70500 56.20700 40.93400
C  6.66700 57.04800 41.44200
C  5.61300 56.18000 41.93800
C  9.11100 56.55100 40.49800
C  6.68500 58.53200 41.50200
O  7.71800 59.17700 41.21100
C  5.63700 59.34000 42.10300
N  3.21200 54.33500 42.80100
C  3.31400 55.69700 42.94000
C  2.09100 56.38700 43.39600
C  1.10800 55.14700 43.56800
C  1.97500 53.89900 43.22200
C  2.25100 57.15500 44.73100
C  -0.12600 55.21900 42.57900
C  -1.43700 54.54300 43.21300
N  3.47400 51.55100 42.22300
C  2.28900 51.46700 42.86000
C  1.87200 50.07700 42.95000
C  2.91200 49.36700 42.31000
C  3.83900 50.29700 41.86100
C  0.63200 49.51300 43.44600
C  3.34700 48.06300 41.90600
O  2.80200 47.02300 41.97900
C  4.80500 48.25400 41.30800
C  4.86700 47.54900 40.06700
O  4.21600 47.81100 39.07800
O  5.77600 46.49800 40.15700
C  5.83100 45.53300 39.04200
H  8.82200 53.81100 40.02500
H  4.24100 57.54900 42.81900
H  0.55900 52.42600 43.72900
H  7.58400 49.12900 40.34600
H  9.02200 51.44300 39.40600
H  10.20500 51.49000 41.06100
H  9.37500 49.99100 41.71300
H  8.97800 51.64100 42.28400
H  7.28800 50.86300 37.95200
H  5.92500 49.92400 38.19000
H  7.83100 48.07000 38.40700
H  8.61500 49.02700 37.23900
H  9.66700 55.66200 40.20100
H  9.60300 56.97300 41.37500
H  9.05300 57.29800 39.70600
H  5.80600 60.41000 42.22100
H  5.41300 58.96200 43.10100
H  4.81700 59.12800 41.41700
H  1.81500 57.05800 42.58300
H  0.86300 54.87500 44.59500
H  2.40900 58.18400 44.40800
H  3.11700 56.80700 45.29400
H  1.33300 57.03700 45.30600
H  0.24100 54.59800 41.76200
H  -0.39000 56.23500 42.28300
H  -1.69400 53.63200 42.67200
H  -2.27000 55.22400 43.38600
H  -1.21200 54.14400 44.20200
H  0.66800 49.35300 44.52300
H  0.38900 48.61000 42.88500
H  -0.14800 50.22600 43.17900
H  5.59200 47.79100 41.90300
H  6.85800 45.55600 38.67600
H  5.16800 45.72000 38.19800
H  5.36300 44.58200 39.29800
Mg -2.11300 34.51100 27.41100
C  -3.78600 32.50600 29.66000
C  -0.56600 36.07600 30.00900
C  -0.75300 36.46200 25.05800
C  -4.11300 32.98100 24.82100
N  -2.43400 34.53200 29.64700
C  -2.92200 33.39800 30.27000
C  -2.48500 33.40800 31.83600
C  -1.59400 34.69700 31.91000
C  -1.50200 35.08900 30.43900
C  -2.13600 35.89000 32.77300
C  -1.81500 32.04300 32.28500
C  -2.49800 31.44400 33.55300
H  -1.72100 31.43000 34.85200
N  -0.89900 36.14600 27.48900
C  -0.31900 36.53500 28.66600
C  0.72400 37.53700 28.24700
C  0.64500 37.77900 26.81400
C  -0.39500 36.77500 26.39600
C  1.54400 38.27600 29.27800
C  1.43500 38.68000 25.90500
O  1.16100 38.78300 24.70700
C  2.63100 39.42300 26.50700
N  -2.31100 34.58400 25.19800
C  -1.60600 35.51300 24.46800
C  -1.95100 35.51500 23.02600
C  -3.08500 34.33000 22.92200
C  -3.26500 33.98100 24.41200
C  -2.57400 36.85300 22.48300
C  -2.68400 33.06100 22.03300
C  -2.59700 33.25300 20.49400
N  -3.65600 33.09200 27.18700
C  -4.27500 32.56600 26.13100
C  -5.15300 31.53100 26.53300
C  -4.95100 31.34200 27.89300
C  -3.99500 32.35500 28.29800
C  -6.02600 30.79900 25.56700
C  -5.29500 30.62300 29.05600
O  -6.01800 29.63400 29.26900
C  -4.56400 31.32800 30.20600
C  -5.60900 31.76600 31.17400
O  -6.41800 32.68200 30.97500
O  -5.67600 30.97300 32.26400
C  -6.63900 31.26800 33.30300
H  0.17000 36.41500 30.74100
H  -0.26100 36.93200 24.20300
H  -4.68200 32.53900 24.00100
H  -3.37000 33.66500 32.41900
H  -0.58700 34.37800 32.17900
H  -1.26000 36.29300 33.28200
H  -2.67300 35.50200 33.63800
H  -2.71400 36.67700 32.28900
H  -0.77700 32.25200 32.54700
H  -1.67600 31.32900 31.47300
H  -2.46100 30.42000 33.18300
H  -3.49700 31.87300 33.63100
H  2.58900 38.21700 28.97500
H  1.52100 37.99300 30.33000
H  1.19900 39.31000 29.28000
H  3.47200 38.76500 26.72600
H  2.47900 40.11000 27.34000
H  2.95800 40.10600 25.72300
H  -1.09700 35.19800 22.42900
H  -4.06900 34.65500 22.58400
H  -3.49500 36.66000 21.93200
H  -1.80300 37.26100 21.82900
H  -2.83500 37.55200 23.27800
H  -3.45000 32.29000 22.11500
H  -1.76200 32.71800 22.50200
H  -3.02200 32.42800 19.92300
H  -1.54700 33.32500 20.21000
H  -2.95700 34.24800 20.23000
H  -6.74300 30.16700 26.09100
H  -5.44400 30.21700 24.85200
H  -6.58600 31.46600 24.91100
H  -3.95800 30.70300 30.86200
H  -7.25600 32.14700 33.11500
H  -6.00600 31.50500 34.15800
H  -7.33000 30.42500 33.32600

