158

Mg 45.85900 17.21000 27.98900
C  44.22200 16.97900 31.05800
C  48.18700 19.14500 29.54200
C  47.26600 17.50100 25.13600
C  43.21900 15.25500 26.62500
N  46.09300 18.04800 30.08100
C  45.35700 17.73900 31.12500
C  46.06000 18.18300 32.46800
C  47.20000 19.11000 31.94100
C  47.19200 18.73600 30.44600
C  47.01200 20.65600 32.26600
C  46.63100 16.99300 33.33900
C  46.94400 17.33300 34.88100
H  46.52100 18.67400 35.49400
N  47.51800 18.20800 27.40700
C  48.29900 18.99200 28.20900
C  49.31800 19.63500 27.35700
C  49.07500 19.14700 26.06000
C  47.96500 18.22400 26.15900
C  50.34900 20.52800 27.93100
C  49.75400 19.46400 24.72100
O  49.51900 18.99700 23.66900
C  50.85500 20.51700 24.74500
N  45.36100 16.30200 26.19800
C  46.15400 16.64400 25.10000
C  45.54800 16.16100 23.80200
C  44.44900 15.10100 24.27500
C  44.35000 15.50700 25.79700
C  44.83200 17.22800 22.93200
C  44.84200 13.57100 24.13500
C  44.35200 12.89600 22.83000
N  44.01200 16.35000 28.62300
C  43.05500 15.60600 27.95100
C  41.97000 15.14900 28.78000
C  42.37100 15.65900 30.08000
C  43.62400 16.32600 29.89100
C  40.80200 14.33000 28.43700
C  42.02500 15.83600 31.49600
O  41.01000 15.50400 32.15000
C  43.23500 16.63900 32.16500
C  42.79700 17.79600 33.01000
O  42.26200 18.83700 32.63400
O  42.98400 17.48300 34.34300
C  42.26000 18.33400 35.34400
H  48.94100 19.70600 30.09800
H  47.59300 17.75600 24.12600
H  42.43800 14.58900 26.25000
H  45.30600 18.74100 33.02300
H  48.10200 18.76000 32.44300
H  46.74100 21.21100 31.36800
H  47.93800 21.09700 32.63400
H  46.18800 20.70000 32.97800
H  47.52800 16.61700 32.84700
H  45.89300 16.20800 33.18000
H  48.01800 17.18500 35.00000
H  46.43800 16.65600 35.56900
H  51.18500 20.81200 27.29100
H  50.86000 20.22000 28.84300
H  49.91500 21.50600 28.13900
H  50.43300 21.32200 25.34600
H  51.08700 21.05000 23.82400
H  51.83100 20.23900 25.14300
H  46.30900 15.72700 23.15300
H  43.46000 15.25400 23.84400
H  45.13800 18.25000 23.15800
H  43.75000 17.10100 22.98400
H  45.14200 17.01100 21.91000
H  44.30300 13.03400 24.91600
H  45.91600 13.49800 24.30300
H  43.55300 13.52000 22.43000
H  43.92200 11.91600 23.03700
H  45.09800 12.88300 22.03500
H  40.47900 14.63100 27.44100
H  39.94800 14.40100 29.11000
H  41.13400 13.30200 28.29500
H  43.64500 15.81800 32.75300
H  41.20900 18.49800 35.10600
H  42.74700 19.30900 35.32100
H  42.33100 18.02300 36.38600
Mg -10.97100 37.85200 41.42700
C  -8.65400 35.19600 41.27900
C  -8.50500 39.85500 39.96300
C  -13.19600 40.16500 41.12600
C  -13.39900 35.40500 42.40400
N  -8.80100 37.57000 40.60100
C  -8.13200 36.37500 40.71200
C  -7.00100 36.47900 39.70400
C  -6.73800 38.01200 39.67600
C  -8.07500 38.54400 40.15700
C  -5.43000 38.39000 40.47100
C  -7.13000 35.76900 38.40600
C  -6.05700 34.80100 37.86800
H  -5.33800 35.32500 36.56900
N  -10.84100 39.79900 40.80800
C  -9.76200 40.48300 40.22100
C  -10.15600 41.88900 40.04800
C  -11.56200 41.94800 40.28300
C  -11.92900 40.57700 40.77600
C  -9.20400 43.02200 39.65000
C  -12.51500 43.16000 40.12100
O  -11.97200 44.12800 39.69100
C  -14.04100 43.20000 40.18000
N  -13.07800 37.77300 41.81300
C  -13.74900 38.92200 41.60000
C  -15.28000 38.60600 41.62900
C  -15.29000 37.09600 41.97000
C  -13.85900 36.71600 42.08100
C  -16.10200 39.58400 42.54500
C  -16.02100 36.06700 41.13200
C  -17.08100 35.29200 41.90100
N  -11.07700 35.73600 41.82300
C  -12.06800 34.94200 42.35000
C  -11.61400 33.64800 42.56800
C  -10.25900 33.66700 42.10600
C  -9.96500 35.01700 41.73600
C  -12.42200 32.48700 43.12700
C  -9.11400 32.89100 41.93700
O  -8.86000 31.75100 42.21800
C  -8.09500 33.79000 41.20600
C  -6.75700 33.65600 41.83900
O  -5.88000 32.95200 41.36000
O  -6.82100 34.13500 43.15000
C  -5.62200 34.00000 44.00100
H  -7.69000 40.45300 39.54900
H  -13.99700 40.88900 40.95800
H  -14.16000 34.69000 42.72300
H  -6.19900 35.97600 40.24400
H  -6.63100 38.39600 38.66100
H  -4.65600 37.62300 40.47000
H  -5.69900 38.58300 41.51000
H  -5.07800 39.28200 39.95400
H  -7.30900 36.53300 37.65000
H  -8.05600 35.19500 38.41800
H  -6.55100 33.85700 37.63600
H  -5.30100 34.67400 38.64200
H  -8.19600 42.65900 39.45100
H  -9.32900 43.90800 40.27300
H  -9.43700 43.47500 38.68700
H  -14.21700 44.17600 39.72600
H  -14.47100 43.14200 41.18000
H  -14.47700 42.43800 39.53400
H  -15.62000 38.75600 40.60400
H  -15.70000 36.97500 42.97300
H  -16.44200 40.39100 41.89600
H  -15.44800 39.89300 43.36000
H  -16.95900 38.96700 42.81800
H  -15.51500 35.28300 40.56900
H  -16.60100 36.58600 40.36900
H  -18.02200 35.39600 41.36100
H  -17.18400 35.60400 42.94000
H  -16.84600 34.22800 41.89200
H  -13.43400 32.55200 42.72700
H  -12.27800 32.43800 44.20600
H  -11.99300 31.55600 42.75600
H  -8.03600 33.45800 40.16900
H  -5.26800 35.03000 44.03800
H  -4.78800 33.38700 43.65800
H  -5.93100 33.71100 45.00600

