158

Mg 29.43400 57.71800 40.93700
C  26.83300 55.76100 39.53800
C  31.65100 55.80400 39.24700
C  31.86500 60.20500 41.38600
C  27.03000 60.05900 42.03600
N  29.22300 56.07500 39.57100
C  28.14700 55.37700 39.18200
C  28.49800 54.16700 38.26100
C  30.02400 54.06200 38.55600
C  30.33800 55.34600 39.12500
C  30.46700 52.89300 39.46200
C  28.10400 54.51200 36.78000
C  27.22400 53.48900 35.97000
H  26.33200 54.22200 34.86200
N  31.51000 57.87000 40.49700
C  32.22100 56.95500 39.80400
C  33.64600 57.34600 39.78300
C  33.70700 58.68300 40.44100
C  32.33000 58.94400 40.81200
C  34.68800 56.51300 38.94700
C  34.99600 59.51300 40.61800
O  36.06600 58.96200 40.35200
C  35.16800 60.90300 41.29200
N  29.50500 59.81800 41.70200
C  30.60200 60.60700 41.73000
C  30.29800 62.04400 42.19400
C  28.76200 61.86800 42.67400
C  28.37100 60.54000 42.05300
C  31.33500 62.61300 43.23600
C  27.88000 63.11900 42.26600
C  27.68500 63.94800 43.51400
N  27.36400 57.79300 41.02400
C  26.53200 58.83000 41.42700
C  25.18500 58.36800 41.27300
C  25.21900 57.19900 40.50600
C  26.59600 56.87800 40.32000
C  23.91000 59.06700 41.65400
C  24.44800 56.12300 39.86900
O  23.23800 55.90600 39.91300
C  25.43600 55.22600 39.19500
C  25.12800 53.82200 39.62800
O  25.11800 53.43000 40.80200
O  24.87300 52.98900 38.56800
C  24.57800 51.55300 38.74400
H  32.42600 55.17600 38.80200
H  32.72000 60.87100 41.52000
H  26.27600 60.74300 42.43100
H  28.00000 53.26000 38.60300
H  30.46600 53.94400 37.56700
H  31.09000 53.24800 40.28300
H  31.16400 52.26700 38.90500
H  29.70600 52.25900 39.91700
H  28.98500 54.56600 36.14100
H  27.53900 55.44300 36.73900
H  26.57600 52.94200 36.65400
H  27.90700 52.79000 35.48800
H  34.93900 56.94000 37.97600
H  34.26200 55.53800 38.71200
H  35.51800 56.33200 39.63000
H  34.56000 61.62800 40.75100
H  36.22200 61.15700 41.17500
H  34.91900 60.91800 42.35300
H  30.48900 62.71500 41.35700
H  28.77000 61.70800 43.75200
H  30.72300 63.13100 43.97400
H  31.97800 63.34900 42.75400
H  31.86100 61.82000 43.76900
H  26.86000 62.88100 41.96200
H  28.31100 63.73600 41.47700
H  28.57500 63.99400 44.14200
H  26.80200 63.74400 44.12000
H  27.46200 64.98100 43.24700
H  23.72500 58.98100 42.72500
H  22.98900 58.66700 41.22900
H  23.91500 60.10300 41.31700
H  25.24800 55.08500 38.13100
H  23.78900 51.35800 39.47000
H  25.44900 50.92900 38.94300
H  24.27600 51.11800 37.79100
Mg 35.50900 48.36200 25.36200
C  35.84000 46.32600 28.18200
C  34.44700 51.05000 27.47700
C  34.53900 49.97900 22.78500
C  36.02000 45.44400 23.51100
N  35.25700 48.64300 27.59100
C  35.37300 47.66700 28.48700
C  35.02100 48.14000 29.93200
C  34.52400 49.60000 29.68200
C  34.80200 49.78100 28.16300
C  33.01800 49.81600 29.92700
C  36.16400 48.12400 30.98200
C  35.78400 47.78300 32.39300
H  35.52100 48.84700 33.44700
N  34.61500 50.31100 25.17800
C  34.28900 51.29100 26.07000
C  33.92500 52.51600 25.41600
C  33.94100 52.26400 24.03900
C  34.39900 50.85200 23.89100
C  33.47400 53.76500 26.15200
C  33.69800 53.21500 22.77700
O  33.94500 52.85500 21.61600
C  33.21200 54.60200 22.97700
N  35.26600 47.73700 23.43500
C  34.98100 48.63100 22.54500
C  34.80600 47.95000 21.10600
C  35.49200 46.62700 21.33400
C  35.63500 46.59000 22.85900
C  33.28900 47.91200 20.76700
C  36.86100 46.48500 20.51800
C  38.16700 47.21300 21.01600
N  36.09000 46.33100 25.70600
C  36.28100 45.25300 24.86100
C  36.63000 44.11100 25.55700
C  36.42300 44.44900 26.85600
C  36.13300 45.85000 26.88700
C  36.82800 42.73500 24.89000
C  36.48800 43.95500 28.26600
O  36.77600 42.86700 28.73700
C  36.13300 45.16100 29.13000
C  34.96700 44.80000 29.95200
O  33.84000 44.70800 29.57400
O  35.36900 44.57900 31.26400
C  34.27400 44.27900 32.13400
H  34.20900 51.85600 28.17400
H  34.34600 50.49500 21.84200
H  36.10200 44.59800 22.82700
H  34.29300 47.38200 30.22100
H  35.11400 50.34400 30.21700
H  32.77100 50.70600 30.50500
H  32.65700 48.89200 30.37900
H  32.55800 49.95300 28.94900
H  36.55500 49.14200 30.97800
H  36.99500 47.48500 30.68400
H  36.56800 47.15200 32.81100
H  34.82400 47.26700 32.41500
H  34.08900 54.61900 25.86900
H  33.59900 53.55400 27.21400
H  32.41300 54.00600 26.21500
H  33.04900 54.96400 21.96200
H  33.98500 55.15200 23.51400
H  32.27600 54.47300 23.52100
H  35.33700 48.57800 20.39000
H  34.92000 45.75700 21.01100
H  32.96900 46.96100 20.34100
H  33.02500 48.67600 20.03600
H  32.71800 48.07000 21.68100
H  36.56400 46.77100 19.50900
H  37.12000 45.42600 20.54000
H  38.86000 46.40900 21.26500
H  37.89900 47.89100 21.82600
H  38.57200 47.82300 20.20800
H  35.97800 42.08100 25.08300
H  37.65400 42.19900 25.35700
H  36.92100 42.89700 23.81600
H  37.00200 45.29500 29.77500
H  33.78900 43.31600 31.97600
H  33.58700 45.12500 32.09400
H  34.83100 44.37400 33.06600

