158

Mg 9.06300 3.41900 27.02200
C  10.35100 2.14200 30.07700
C  7.40900 5.86100 28.96400
C  7.78300 4.87600 24.21800
C  10.58600 0.92600 25.29400
N  8.80000 3.72800 29.23100
C  9.46200 3.16200 30.28400
C  9.20600 3.95400 31.62900
C  8.07900 4.92000 31.21600
C  8.07900 4.82500 29.65800
C  6.76300 4.74300 31.92900
C  10.37900 4.56600 32.40800
C  10.75200 4.04400 33.74700
H  11.19100 5.03900 34.82500
N  7.80500 5.04900 26.62700
C  7.29600 5.95000 27.61300
C  6.51800 6.92100 26.95000
C  6.74600 6.78600 25.58100
C  7.41100 5.49900 25.39600
C  5.67200 7.93900 27.64900
C  6.37400 7.69100 24.42400
O  6.66400 7.39400 23.28000
C  5.68700 9.03400 24.72500
N  8.98200 2.80200 24.98500
C  8.51100 3.65000 23.99800
C  8.89800 3.01400 22.60200
C  9.64200 1.66700 22.99300
C  9.79800 1.80700 24.50500
C  7.63900 2.82800 21.67200
C  10.91900 1.33100 22.23400
C  10.89900 0.00400 21.40500
N  10.17200 1.79800 27.51900
C  10.76400 0.89500 26.74100
C  11.57800 -0.01700 27.53900
C  11.39500 0.43100 28.83700
C  10.60300 1.54400 28.80400
C  12.39200 -1.22300 27.04500
C  11.85900 0.19400 30.22200
O  12.61100 -0.61400 30.71900
C  11.21500 1.34100 31.10200
C  10.39800 0.64400 32.16800
O  9.25900 0.28800 32.07300
O  11.32800 0.44600 33.18300
C  10.65500 -0.03300 34.43800
H  6.93900 6.62500 29.58700
H  7.46700 5.32800 23.27600
H  10.98200 0.13700 24.65200
H  8.91100 3.08100 32.21100
H  8.32600 5.97600 31.32500
H  6.27200 3.80900 31.65700
H  6.14400 5.61900 31.73400
H  7.03500 4.82700 32.98200
H  10.14300 5.62000 32.55400
H  11.30900 4.60700 31.84100
H  11.60700 3.38300 33.60800
H  9.86800 3.51000 34.09600
H  6.13100 8.89600 27.89600
H  5.42800 7.55100 28.63800
H  4.77100 8.00200 27.04000
H  6.28200 9.67800 25.37300
H  4.74500 8.79300 25.21900
H  5.33800 9.54800 23.82900
H  9.66400 3.63500 22.13600
H  8.97700 0.80500 22.92900
H  7.45700 1.78100 21.42800
H  7.80700 3.30500 20.70700
H  6.72700 3.25500 22.08800
H  11.88200 1.34900 22.74400
H  11.05200 2.09300 21.46600
H  10.84700 0.25000 20.34500
H  9.94500 -0.50300 21.55200
H  11.67600 -0.70000 21.70500
H  12.45500 -1.27900 25.95900
H  12.03600 -2.13500 27.52400
H  13.42000 -1.04000 27.35900
H  11.94300 2.08700 31.42200
H  9.93600 -0.83800 34.28400
H  10.17800 0.77100 34.99900
H  11.50600 -0.37000 35.02900
Mg 9.75400 48.22900 25.80200
C  7.74400 48.38300 28.73300
C  12.35200 49.43200 27.62700
C  11.51200 47.94800 23.08800
C  6.76600 47.75100 23.99300
N  9.96000 48.79600 27.97400
C  9.05700 48.77600 28.95400
C  9.67100 49.16400 30.31100
C  11.03200 49.80200 29.92300
C  11.17500 49.38200 28.34800
C  11.14200 51.36100 30.03100
C  9.85100 47.96500 31.23200
C  9.27800 48.10100 32.66400
H  8.97800 46.85000 33.43500
N  11.69900 48.43500 25.51700
C  12.62000 48.92400 26.40900
C  13.88900 48.81100 25.80100
C  13.67600 48.38700 24.42000
C  12.25800 48.19200 24.30300
C  15.14200 49.20400 26.57300
C  14.73700 48.23900 23.29500
O  14.42100 48.04000 22.09600
C  16.15700 48.32600 23.63700
N  9.11700 48.10100 23.74600
C  10.15300 47.79000 22.87100
C  9.58200 47.54800 21.46300
C  8.00400 47.44500 21.74600
C  7.89000 47.84700 23.21800
C  9.90900 48.57800 20.40200
C  7.43000 45.99600 21.51300
C  6.14800 45.91500 20.62000
N  7.62100 48.26100 26.19600
C  6.58500 47.91300 25.36500
C  5.41400 47.70700 26.18400
C  5.80800 48.04200 27.46600
C  7.16900 48.22500 27.47000
C  4.03400 47.37000 25.72100
C  5.26800 48.11900 28.77900
O  4.12900 48.01700 29.17000
C  6.51700 48.30400 29.72900
C  6.57500 47.11000 30.65600
O  7.02000 46.00700 30.31300
O  5.99800 47.39600 31.90300
C  5.69900 46.21800 32.69800
H  13.14300 49.81300 28.27600
H  12.13400 47.83500 22.19800
H  5.87000 47.60500 23.38500
H  8.94500 49.75900 30.86600
H  11.87100 49.40700 30.49500
H  10.10600 51.64700 30.21000
H  11.56700 51.92700 29.20200
H  11.72900 51.68400 30.89200
H  10.91100 47.77500 31.40200
H  9.37400 47.04200 30.90500
H  8.29500 48.55700 32.54200
H  9.98400 48.70300 33.23600
H  15.84900 48.38000 26.47500
H  15.05100 49.42200 27.63700
H  15.64400 50.06900 26.14100
H  16.49100 47.32700 23.91700
H  16.25900 49.03300 24.46000
H  16.61500 48.77500 22.75500
H  9.99000 46.57400 21.19400
H  7.43600 48.19100 21.18900
H  9.10300 49.30300 20.29400
H  9.94900 48.11200 19.41700
H  10.84900 49.10900 20.55100
H  7.28000 45.40700 22.41800
H  8.11900 45.52300 20.81300
H  5.50800 46.73400 20.94900
H  5.59100 44.98700 20.75300
H  6.36500 46.01200 19.55700
H  3.58900 46.63700 26.39400
H  4.19800 46.77500 24.82200
H  3.54200 48.31600 25.49600
H  6.48900 49.30400 30.16300
H  4.62400 46.07900 32.81100
H  6.19100 46.45900 33.64000
H  6.06100 45.24500 32.36700

