158

Mg -1.96900 17.24100 26.68900
C  -2.27000 15.08400 29.30400
C  -3.13000 19.78700 28.82500
C  -1.84000 19.35600 24.10200
C  -1.28600 14.64000 24.51300
N  -2.81200 17.40400 28.90400
C  -2.66900 16.35800 29.76300
C  -2.93400 16.92800 31.15900
C  -3.63000 18.34300 30.88700
C  -3.23600 18.53200 29.43900
C  -5.19800 18.32000 31.00100
C  -1.62200 16.99900 32.09300
C  -1.76900 16.80300 33.63900
H  -0.41100 16.69500 34.41500
N  -2.14500 19.30400 26.54000
C  -2.67100 20.13700 27.53500
C  -2.60200 21.52400 26.99000
C  -2.18900 21.49100 25.65500
C  -2.03900 20.01300 25.34600
C  -2.97300 22.69300 27.83400
C  -1.94300 22.49600 24.64000
O  -1.60700 22.26000 23.50900
C  -1.95100 23.86300 24.93900
N  -1.54400 17.08900 24.62400
C  -1.65100 18.08400 23.74900
C  -1.64500 17.61300 22.27600
C  -1.14700 16.12200 22.43900
C  -1.35700 15.87200 23.97100
C  -2.94800 17.84000 21.45600
C  0.31600 15.90900 21.98500
C  1.34300 16.55200 22.86200
N  -1.85100 15.23800 26.84300
C  -1.56100 14.28100 25.90800
C  -1.55800 13.01100 26.53600
C  -1.76100 13.22500 27.87100
C  -2.00500 14.60800 28.00000
C  -1.34900 11.73700 25.82200
C  -1.78600 12.73600 29.15900
O  -1.52500 11.61100 29.52000
C  -2.28000 13.81200 30.18000
C  -1.27800 13.73200 31.27500
O  -0.08900 13.88200 31.19300
O  -1.93800 13.40700 32.46600
C  -1.14100 13.09100 33.66300
H  -3.51500 20.64400 29.38100
H  -1.85900 20.07300 23.27900
H  -1.01300 13.78700 23.88800
H  -3.55800 16.16200 31.62000
H  -3.14400 19.19400 31.36500
H  -5.65700 19.21600 30.58100
H  -5.36800 18.25900 32.07600
H  -5.50000 17.44100 30.43200
H  -1.19600 17.98400 31.89900
H  -0.89800 16.31400 31.65100
H  -2.35900 15.90700 33.82900
H  -2.27700 17.61900 34.15200
H  -2.36900 23.56100 27.57200
H  -2.89100 22.46500 28.89600
H  -4.02300 22.90500 27.63300
H  -2.95200 24.29300 24.90200
H  -1.38800 24.40000 24.17600
H  -1.48600 24.11500 25.89200
H  -0.89700 18.17800 21.72000
H  -1.84200 15.45700 21.92500
H  -2.88700 18.07400 20.39400
H  -3.51400 18.67000 21.88100
H  -3.55200 16.95300 21.64700
H  0.48300 16.17200 20.94000
H  0.49500 14.83800 22.07500
H  1.37600 16.20600 23.89500
H  1.57400 17.59300 22.63500
H  2.29600 16.13500 22.53600
H  -0.56600 11.78300 25.06600
H  -2.30200 11.34900 25.46300
H  -0.99200 11.01500 26.55600
H  -3.20800 13.49400 30.65500
H  -1.47100 12.23800 34.25700
H  -1.22400 13.90600 34.38100
H  -0.07900 12.92800 33.48300
Mg 6.60600 57.27100 41.57500
C  5.14100 54.05000 41.46600
C  9.51200 55.79600 40.49300
C  7.64700 60.39200 40.66700
C  3.46400 58.65500 42.26300
N  7.22100 55.15000 40.95100
C  6.46300 54.06300 41.04200
C  7.25700 52.84500 40.53300
C  8.71000 53.37200 40.69700
C  8.52100 54.86000 40.73800
C  9.48100 52.83400 41.93400
C  6.97400 52.61500 39.01200
C  7.02000 51.09200 38.55100
H  6.08500 50.61500 37.50000
N  8.35200 57.97800 40.71700
C  9.50400 57.21200 40.42600
C  10.49500 58.06500 39.93400
C  9.94600 59.41200 39.86100
C  8.54900 59.28000 40.35000
C  11.89800 57.62800 39.64400
C  10.69000 60.61300 39.45800
O  11.86000 60.50400 39.16100
C  10.06900 61.96500 39.23300
N  5.79900 59.31100 41.57500
C  6.39400 60.40800 41.17500
C  5.58300 61.65300 41.29800
C  4.20900 61.06700 41.77600
C  4.45300 59.56700 41.82700
C  6.27800 62.66000 42.25900
C  2.91400 61.50000 41.05600
C  1.71100 61.72600 41.86400
N  4.63900 56.49500 41.95700
C  3.51700 57.21500 42.20600
C  2.46400 56.21100 42.39600
C  3.08600 54.94300 42.10700
C  4.43100 55.21400 41.79900
C  0.95600 56.41300 42.66100
C  2.89800 53.54000 42.17900
O  1.93200 52.91000 42.53900
C  4.21800 52.86100 41.70100
C  3.95800 52.07800 40.55100
O  3.62100 52.42000 39.43600
O  4.04600 50.78200 40.92300
C  3.29300 49.79600 40.14200
H  10.47700 55.30600 40.35000
H  7.97200 61.36100 40.28300
H  2.48300 59.07600 42.49200
H  7.05900 51.94700 41.11700
H  9.40300 53.20700 39.87200
H  10.42200 52.50200 41.49600
H  8.92300 52.04300 42.43500
H  9.59400 53.69900 42.58700
H  7.82900 53.07100 38.51400
H  6.06200 53.11600 38.68600
H  6.97000 50.42500 39.41100
H  8.03800 50.89200 38.21700
H  12.69300 58.20400 40.11800
H  12.06800 57.74900 38.57400
H  12.13400 56.60100 39.92000
H  9.76500 62.43600 40.16800
H  9.16900 61.87800 38.62500
H  10.71700 62.66400 38.70400
H  5.49700 62.06900 40.29400
H  4.09100 61.31200 42.83200
H  5.48600 63.13600 42.83700
H  6.71300 63.42800 41.61800
H  6.87300 62.13400 43.00500
H  2.68100 60.70000 40.35400
H  3.05600 62.38900 40.44200
H  1.85200 61.42800 42.90300
H  0.92200 61.09100 41.46000
H  1.32900 62.74100 41.75300
H  0.60200 57.18300 41.97600
H  0.88100 56.78600 43.68200
H  0.45000 55.45500 42.53300
H  4.69900 52.27900 42.48700
H  3.82100 48.86600 40.35300
H  3.12100 50.12400 39.11700
H  2.31500 49.65900 40.60400

