158

Mg 0.46900 7.54900 26.71400
C  1.21500 9.91500 29.37700
C  0.67400 5.03100 28.95700
C  0.08500 5.65000 24.21300
C  1.22200 10.41900 24.52300
N  1.10900 7.53900 28.84200
C  1.07600 8.53000 29.79000
C  0.92000 8.00800 31.19500
C  1.07100 6.45000 30.99600
C  0.91600 6.31700 29.46800
C  2.47300 5.93500 31.43500
C  -0.31500 8.51500 31.88700
C  -0.46600 8.37800 33.44300
H  0.59500 7.56800 34.08600
N  0.42600 5.61400 26.61500
C  0.54200 4.70100 27.61200
C  0.38200 3.35500 27.05300
C  0.24400 3.45400 25.68000
C  0.24800 4.94600 25.43600
C  0.45600 2.06200 27.89500
C  0.02200 2.35500 24.61600
O  -0.06000 2.69100 23.37900
C  -0.15400 0.92600 24.99700
N  0.78800 7.95100 24.68900
C  0.42600 6.95100 23.82100
C  0.43800 7.39000 22.29100
C  0.46600 8.97900 22.48600
C  0.90600 9.13900 23.93800
C  1.70000 6.83000 21.47200
C  -0.84100 9.72900 22.21600
C  -0.86400 11.05800 21.50300
N  1.08100 9.84600 26.88100
C  1.33900 10.78300 25.92400
C  1.56000 12.11400 26.57100
C  1.48000 11.80600 27.93500
C  1.27500 10.38400 28.04100
C  1.88800 13.46100 26.00800
C  1.70100 12.38100 29.26900
O  1.93400 13.53800 29.67700
C  1.38400 11.19000 30.27000
C  2.45000 11.07000 31.27500
O  3.63600 10.75800 31.08800
O  1.97600 11.42500 32.49400
C  2.78900 10.98100 33.67300
H  0.75700 4.23100 29.69600
H  -0.24100 5.05500 23.35700
H  1.11900 11.35600 23.97200
H  1.71400 8.42100 31.81800
H  0.31100 5.95700 31.60300
H  2.42400 4.84600 31.40200
H  2.80700 6.13300 32.45300
H  3.20100 6.20100 30.66900
H  -1.22800 8.12500 31.43500
H  -0.48100 9.58700 31.78200
H  -1.41100 7.90000 33.69700
H  -0.56300 9.32900 33.96600
H  1.20900 1.39700 27.47200
H  -0.53900 1.63900 27.75900
H  0.62000 2.20100 28.96400
H  0.70900 0.68200 25.61600
H  -0.02400 0.35100 24.08000
H  -1.14100 0.84500 25.45200
H  -0.45300 7.03300 21.77400
H  1.16500 9.41000 21.76900
H  2.19200 7.65300 20.95300
H  1.38800 6.15400 20.67600
H  2.42900 6.32300 22.10500
H  -1.17500 9.98800 23.22100
H  -1.52800 9.01900 21.75400
H  0.06900 11.32600 21.00700
H  -1.14600 11.78100 22.26900
H  -1.64800 10.94500 20.75500
H  1.10500 13.74200 25.30500
H  2.86500 13.52100 25.52800
H  1.83400 14.19500 26.81200
H  0.40200 11.30100 30.72900
H  3.41800 10.11700 33.46000
H  2.10800 10.64200 34.45300
H  3.37400 11.79000 34.11000
Mg 47.50200 35.53300 27.63200
C  45.79000 33.79800 30.11900
C  47.52900 38.38900 29.57100
C  48.72500 37.38100 24.88400
C  46.87700 32.96500 25.40600
N  46.67500 36.00600 29.49700
C  46.23500 35.06500 30.45000
C  46.57500 35.54700 31.84400
C  46.47600 37.12600 31.57100
C  46.99800 37.23100 30.12800
C  45.06300 37.73600 31.72800
C  47.95700 34.99700 32.36300
C  48.15900 34.91900 33.87600
H  47.06800 35.54800 34.70500
N  48.11900 37.53400 27.33100
C  48.07200 38.55000 28.33800
C  48.84200 39.70500 27.76900
C  49.09200 39.49000 26.40200
C  48.61000 38.09300 26.14000
C  49.19100 40.91600 28.65100
C  49.81400 40.33100 25.37900
O  50.10700 39.89300 24.30100
C  50.31500 41.72200 25.71100
N  47.75200 35.22800 25.44100
C  48.30600 36.07300 24.54900
C  48.45200 35.47000 23.19200
C  48.05800 33.94700 23.53200
C  47.58400 33.99300 24.90600
C  47.59500 36.15800 22.09900
C  49.25300 32.89800 23.31200
C  49.10200 31.82500 22.20900
N  46.59000 33.78200 27.69200
C  46.39600 32.81000 26.73700
C  45.60600 31.69700 27.25000
C  45.33100 32.01300 28.62600
C  45.97600 33.28000 28.82600
C  45.10300 30.51900 26.47000
C  44.73400 31.60100 29.80500
O  44.03800 30.65200 30.02900
C  44.92600 32.79200 30.83200
C  45.40200 32.27800 32.14900
O  46.55400 32.14600 32.52200
O  44.32500 32.12300 32.97600
C  44.59500 31.74200 34.36300
H  47.59000 39.17000 30.33100
H  49.11200 37.94400 24.03200
H  46.75400 32.07000 24.79300
H  45.79800 35.14500 32.49400
H  47.22000 37.65000 32.17300
H  45.03900 38.49300 32.51300
H  44.42900 36.96900 32.17200
H  44.71200 38.10800 30.76600
H  48.71100 35.68800 31.98700
H  48.10100 33.97400 32.01300
H  49.10100 35.37500 34.18000
H  48.31400 33.87000 34.13100
H  49.39700 40.59300 29.67200
H  48.43300 41.70000 28.64800
H  50.06100 41.49200 28.33600
H  50.31900 42.31000 24.79300
H  51.28900 41.57400 26.17900
H  49.72400 42.26800 26.44600
H  49.48600 35.56100 22.85800
H  47.14800 33.65400 23.00900
H  47.13900 35.38500 21.48100
H  48.13500 36.74700 21.35700
H  46.76700 36.69600 22.56100
H  49.49400 32.31700 24.20200
H  50.09700 33.48500 22.95100
H  48.05900 31.64300 21.95200
H  49.46500 30.91000 22.67600
H  49.69100 32.01500 21.31100
H  44.37500 30.70200 25.67900
H  44.72400 29.71700 27.10300
H  45.99600 30.10400 26.00300
H  43.90600 33.14500 30.98300
H  43.67700 31.22800 34.64600
H  44.74700 32.63600 34.96800
H  45.48700 31.11600 34.40200

