158

Mg 27.34200 50.52200 26.86700
C  25.05700 51.64800 29.45500
C  29.52000 49.67100 29.20900
C  29.31300 49.78500 24.34600
C  24.89700 51.75200 24.57800
N  27.24900 50.65200 29.05300
C  26.18500 50.94600 29.90500
C  26.59100 50.64400 31.31500
C  28.07300 50.19100 31.20200
C  28.28900 50.11500 29.74000
C  29.04700 51.25200 31.93300
C  25.74300 49.65300 32.15600
C  25.07500 50.08600 33.48600
H  25.91100 50.23800 34.68700
N  29.21600 49.84600 26.77100
C  29.94000 49.42200 27.84000
C  31.18000 48.78300 27.38600
C  31.20600 48.82900 25.96300
C  29.91300 49.52900 25.64000
C  32.10000 48.17500 28.32500
C  32.10300 48.23600 24.93700
O  31.90900 48.39100 23.75100
C  33.22100 47.42200 25.35000
N  27.19600 50.81300 24.77100
C  28.13200 50.31600 23.94100
C  27.68300 50.57800 22.48600
C  26.20700 50.88000 22.59000
C  26.01800 51.14800 24.09100
C  28.42700 51.67000 21.66400
C  25.18500 49.80400 22.07700
C  25.41200 48.34500 22.36600
N  25.50100 51.62900 26.98500
C  24.62500 52.09100 25.98100
C  23.59700 52.89300 26.55500
C  23.76600 52.70100 27.93300
C  24.87700 51.96100 28.12100
C  22.59100 53.71600 25.82100
C  23.11300 52.94900 29.19900
O  22.17000 53.59700 29.53200
C  24.00500 52.29800 30.24700
C  24.52900 53.40800 31.08500
O  25.58800 54.02400 30.90500
O  23.73700 53.46000 32.23800
C  24.03000 54.40000 33.28600
H  30.19000 49.27300 29.97400
H  29.91900 49.44800 23.50300
H  24.07700 52.04600 23.92000
H  26.50500 51.61200 31.80900
H  28.28000 49.17200 31.52800
H  28.54900 52.15100 32.29700
H  29.84800 51.54800 31.25600
H  29.59900 50.75400 32.72900
H  26.26300 48.70400 32.28400
H  24.95800 49.36700 31.45600
H  24.30700 49.40400 33.85200
H  24.70600 51.09100 33.28300
H  32.13500 47.08900 28.23900
H  31.82200 48.15400 29.37800
H  33.04900 48.70900 28.26300
H  33.61800 47.12100 24.38000
H  32.81800 46.49500 25.76000
H  33.93800 48.03700 25.89400
H  27.90200 49.61300 22.02900
H  25.87300 51.76200 22.04300
H  28.89800 51.22100 20.78900
H  29.26700 52.00900 22.27000
H  27.84600 52.57900 21.51300
H  25.17400 49.90500 20.99200
H  24.16900 50.06100 22.37500
H  25.76800 47.78600 21.50000
H  24.45400 47.91200 22.65500
H  26.08700 48.17300 23.20500
H  22.38800 53.17400 24.89700
H  23.00900 54.69700 25.59400
H  21.68800 53.89600 26.40400
H  23.46500 51.51300 30.77600
H  23.09900 54.91500 33.52500
H  24.76000 55.13800 32.95300
H  24.47600 53.87600 34.13200
Mg 1.69400 42.35600 25.22000
C  3.23400 42.49500 28.25700
C  -1.16900 41.34900 26.87900
C  0.06600 42.43900 22.24700
C  4.65200 43.25100 23.59500
N  1.14900 41.85000 27.32800
C  1.89500 42.07500 28.41400
C  1.17100 41.84000 29.71600
C  -0.24400 41.45900 29.21900
C  -0.14200 41.57500 27.70500
C  -0.83900 40.14000 29.80000
C  1.20300 43.03000 30.60300
C  2.03700 43.08700 31.99400
H  1.08200 43.16900 33.24100
N  -0.29500 41.91400 24.66900
C  -1.28400 41.48600 25.48600
C  -2.48500 41.39700 24.64700
C  -2.12700 41.71300 23.27700
C  -0.72700 42.02100 23.33300
C  -3.81100 40.85100 25.16500
C  -3.02500 41.82600 22.04800
O  -2.55700 41.93400 20.93100
C  -4.46300 41.80700 22.34500
N  2.29300 42.59900 23.17700
C  1.39700 42.74500 22.16400
C  2.14400 43.21100 20.87500
C  3.59400 43.53600 21.36700
C  3.49300 43.15900 22.82500
C  2.08000 42.14500 19.73900
C  3.85600 45.03500 21.27900
C  4.04300 45.56400 19.86000
N  3.60000 42.66300 25.76500
C  4.71600 42.99100 25.02300
C  5.87400 43.12000 25.88400
C  5.30800 42.96000 27.17900
C  3.96500 42.71000 27.04000
C  7.36000 43.33800 25.54200
C  5.69000 42.99700 28.56200
O  6.76200 43.29800 28.98900
C  4.36300 42.64500 29.37100
C  4.72600 41.31900 30.05300
O  4.94400 40.26500 29.51200
O  4.94200 41.54100 31.41700
C  5.19000 40.32900 32.23100
H  -2.05600 41.12100 27.47400
H  -0.43400 42.48700 21.27800
H  5.58900 43.64000 23.19400
H  1.62100 41.02700 30.28700
H  -0.93200 42.23300 29.55900
H  -0.29200 39.79600 30.67800
H  -0.86100 39.30200 29.10200
H  -1.83600 40.37100 30.17300
H  0.18300 43.13200 30.97200
H  1.51400 43.84800 29.95200
H  2.74400 43.90700 31.87000
H  2.57700 42.14800 32.10700
H  -4.54200 41.63200 24.95700
H  -3.83100 40.84400 26.25500
H  -4.01700 39.88300 24.70900
H  -4.94500 42.12000 21.41900
H  -4.77000 42.47800 23.14600
H  -4.77500 40.76400 22.40100
H  1.71700 44.12600 20.46500
H  4.34500 43.02400 20.76500
H  1.38300 41.33500 19.95300
H  3.11000 41.79600 19.67300
H  1.87700 42.48100 18.72200
H  4.81900 45.09200 21.78500
H  3.11500 45.65400 21.78600
H  3.36900 46.41300 19.74500
H  3.81600 44.80500 19.11100
H  5.06500 45.82600 19.58600
H  7.86500 43.96500 26.27700
H  7.49400 43.70300 24.52400
H  7.95700 42.44100 25.70500
H  4.19100 43.43800 30.09900
H  6.26500 40.14700 32.20100
H  4.50900 39.54700 31.89900
H  4.88900 40.41700 33.27500

