158

Mg 35.66500 49.88200 25.47700
C  35.40100 48.12700 28.51900
C  34.77300 52.75100 27.15100
C  35.73400 51.48800 22.53700
C  36.45600 46.95800 23.79800
N  35.07900 50.26800 27.60800
C  35.13900 49.46600 28.64800
C  34.94400 50.23900 29.99600
C  34.56800 51.65700 29.55400
C  34.82200 51.58300 28.01500
C  33.09700 51.95600 29.89300
C  36.08000 50.09000 30.92500
C  35.91100 49.84900 32.41800
H  34.42700 49.86000 32.95600
N  35.26900 51.81100 24.96400
C  34.99300 52.85000 25.75900
C  34.77200 54.08500 24.97800
C  35.03300 53.78700 23.63400
C  35.29900 52.25100 23.64100
C  34.39600 55.43000 25.51900
C  34.95600 54.67000 22.34200
O  35.08000 54.19500 21.23500
C  34.77000 56.14100 22.53300
N  35.97300 49.29400 23.40100
C  36.02700 50.16600 22.43100
C  36.40600 49.49100 21.05900
C  36.94700 48.08700 21.59900
C  36.43000 48.06800 22.98300
C  35.15300 49.43900 20.13000
C  38.52600 48.01000 21.54300
C  39.09000 46.68400 21.05000
N  35.97200 47.91300 26.02700
C  36.20300 46.81600 25.22200
C  36.14900 45.62600 26.09100
C  35.87300 46.08400 27.37500
C  35.74400 47.50300 27.29400
C  36.49800 44.19200 25.67000
C  35.74400 45.70000 28.77700
O  35.91200 44.65700 29.36200
C  35.45500 47.00700 29.55600
C  34.15400 46.74100 30.27200
O  33.03000 46.95200 29.87200
O  34.46300 46.08700 31.44600
C  33.25700 45.59400 32.14600
H  34.45400 53.54900 27.82500
H  35.90800 52.00500 21.59100
H  36.75600 46.05000 23.27000
H  34.08600 49.77400 30.48100
H  35.13200 52.42600 30.08300
H  32.57100 51.00200 29.90600
H  32.61100 52.60600 29.16600
H  33.04300 52.32800 30.91700
H  36.73800 50.95500 30.84200
H  36.73500 49.28300 30.59800
H  36.46000 50.65700 32.90200
H  36.33800 48.86700 32.62100
H  34.09600 55.41800 26.56700
H  33.51200 55.78500 24.99000
H  35.22600 56.13600 25.54300
H  35.64900 56.49800 23.06900
H  33.81200 56.22300 23.04500
H  34.69900 56.57500 21.53600
H  37.24500 49.91900 20.51000
H  36.46600 47.22100 21.14400
H  35.26200 50.05800 19.23900
H  34.32100 49.92900 20.63500
H  34.79200 48.43900 19.89200
H  38.87000 48.12000 22.57200
H  39.00600 48.91500 21.17100
H  40.16900 46.82600 20.98300
H  38.56900 46.40000 20.13600
H  38.88300 46.01600 21.88600
H  35.64000 43.54200 25.84200
H  37.27300 43.73900 26.28700
H  36.84200 44.30100 24.64100
H  36.34600 47.08800 30.17900
H  32.40000 45.19400 31.60500
H  32.83500 46.51100 32.55600
H  33.53600 44.86900 32.91100
Mg -4.88100 24.99300 25.92800
C  -3.16100 26.66300 28.52800
C  -5.64000 22.57000 28.24300
C  -6.28100 23.31300 23.42000
C  -3.15600 27.06500 23.66000
N  -4.14100 24.48500 28.19100
C  -3.74800 25.50300 29.04100
C  -4.16900 25.18000 30.52800
C  -4.77400 23.76600 30.34100
C  -4.87000 23.58800 28.88300
C  -3.85400 22.63800 30.99400
C  -4.95600 26.27900 31.18100
C  -4.57600 26.75300 32.63600
H  -4.17700 25.66500 33.61100
N  -5.77200 23.20000 25.82200
C  -6.00400 22.37600 26.89900
C  -6.83300 21.24000 26.49100
C  -7.02400 21.39700 25.04100
C  -6.34800 22.72300 24.67800
C  -7.19700 20.07800 27.41600
C  -7.78400 20.54700 24.08400
O  -7.76500 20.74200 22.90400
C  -8.51600 19.42300 24.62700
N  -4.76300 25.20200 23.89400
C  -5.55300 24.43200 23.03600
C  -5.28700 24.84600 21.59500
C  -4.35100 26.08200 21.74200
C  -4.12200 26.18800 23.23100
C  -4.60500 23.70900 20.74600
C  -4.96900 27.40800 21.18400
C  -4.01200 28.09500 20.13200
N  -3.45900 26.53400 26.04900
C  -2.84100 27.23700 25.03600
C  -2.02300 28.32800 25.60700
C  -2.10100 28.13800 26.95600
C  -2.98400 27.00400 27.18900
C  -1.32700 29.35900 24.78500
C  -1.69700 28.62300 28.29900
O  -0.97200 29.54800 28.60300
C  -2.51100 27.70200 29.34900
C  -1.57900 27.13300 30.27600
O  -0.81700 26.25700 30.03300
O  -1.58200 27.91300 31.35600
C  -0.60100 27.63100 32.32600
H  -6.10500 21.89400 28.96300
H  -6.79500 22.80500 22.60100
H  -2.73100 27.72700 22.90200
H  -3.24600 25.01300 31.08200
H  -5.76600 23.54600 30.73600
H  -4.36500 22.07000 31.77200
H  -2.87700 22.91400 31.39100
H  -3.60200 22.01100 30.13900
H  -6.00700 26.03200 31.03600
H  -4.88300 27.23000 30.65200
H  -5.33000 27.42200 33.05200
H  -3.74900 27.46000 32.57900
H  -7.59600 19.13300 27.04700
H  -7.94700 20.39300 28.14200
H  -6.27200 19.74300 27.88400
H  -8.89400 19.74600 25.59700
H  -7.78900 18.61300 24.56500
H  -9.35600 19.12400 24.00000
H  -6.22500 25.11300 21.11000
H  -3.35600 25.97000 21.31300
H  -4.14900 23.06300 21.49600
H  -3.90600 23.92300 19.93800
H  -5.49300 23.14000 20.46900
H  -5.15800 28.08000 22.02100
H  -5.97800 27.16600 20.85200
H  -4.62100 28.41100 19.28500
H  -3.23700 27.37600 19.86800
H  -3.67500 28.98900 20.65800
H  -1.95500 29.77800 23.99900
H  -0.47600 28.87800 24.30300
H  -1.01600 30.24500 25.33900
H  -3.17900 28.34200 29.92400
H  -0.71000 26.61000 32.69200
H  -0.71800 28.35300 33.13300
H  0.38100 27.76800 31.87400

