158

Mg -1.76000 17.50400 27.61000
C  -2.37700 15.23600 30.13700
C  -2.22600 20.15400 29.62700
C  -1.36300 19.50800 24.77800
C  -1.82100 14.69800 25.33600
N  -2.31100 17.64100 29.64000
C  -2.32800 16.58000 30.51800
C  -2.53300 17.14900 31.95600
C  -2.64500 18.74900 31.71500
C  -2.32000 18.88800 30.23000
C  -4.01400 19.46500 32.15400
C  -1.47000 16.80700 33.05400
C  -1.65000 17.46600 34.46700
H  -1.26000 16.69500 35.68500
N  -1.69500 19.54700 27.25000
C  -1.90200 20.52000 28.25200
C  -1.79200 21.76600 27.66300
C  -1.55300 21.66100 26.30200
C  -1.60100 20.22300 26.01800
C  -1.98700 23.08200 28.48900
C  -1.50100 22.74100 25.28300
O  -1.44600 22.48600 24.06400
C  -1.44300 24.16900 25.68400
N  -1.78100 17.12600 25.37000
C  -1.53800 18.16400 24.49900
C  -1.20800 17.61500 23.15500
C  -0.99500 16.10100 23.38300
C  -1.59200 15.90700 24.79900
C  -2.43200 17.87500 22.17300
C  0.48300 15.65600 23.22000
C  1.53200 15.82600 24.31000
N  -2.02400 15.40800 27.71700
C  -1.97800 14.41800 26.70600
C  -2.24800 13.09900 27.31000
C  -2.55600 13.39700 28.63100
C  -2.34200 14.76900 28.85000
C  -2.29700 11.80900 26.64700
C  -2.97600 12.82300 29.88000
O  -3.19300 11.68900 30.18700
C  -2.77700 14.03300 30.92700
C  -1.77200 13.53800 31.87500
O  -0.63200 13.45500 31.65800
O  -2.47500 13.31500 33.05200
C  -1.62600 12.94400 34.18600
H  -2.33300 20.90300 30.41500
H  -1.10400 20.14000 23.92600
H  -1.70700 13.80200 24.72200
H  -3.47700 16.85300 32.41500
H  -1.82300 19.18500 32.28200
H  -4.51000 18.91500 32.95400
H  -4.60800 19.47600 31.24000
H  -3.72900 20.46200 32.49300
H  -0.48100 17.17800 32.78500
H  -1.46300 15.71700 33.05300
H  -2.65800 17.87800 34.50800
H  -0.94000 18.29300 34.47000
H  -2.83200 23.67000 28.12900
H  -1.10400 23.72200 28.46600
H  -2.19500 22.97800 29.55300
H  -1.47800 24.76500 24.77100
H  -0.56500 24.32500 26.31000
H  -2.31200 24.39000 26.30400
H  -0.37000 18.16600 22.72800
H  -1.65700 15.51500 22.74400
H  -3.05100 16.97800 22.12900
H  -2.10400 18.18400 21.18100
H  -2.96000 18.74700 22.55900
H  0.85900 16.13000 22.31400
H  0.45400 14.59600 22.96900
H  0.97100 15.88400 25.24300
H  1.81600 16.86500 24.14000
H  2.43000 15.22000 24.42700
H  -2.92800 11.16900 27.26400
H  -1.26900 11.44700 26.65600
H  -2.70500 11.66700 25.64700
H  -3.76600 14.23100 31.34000
H  -2.28000 12.71100 35.02600
H  -0.93300 13.74500 34.44300
H  -0.99000 12.12800 33.84300
Mg 49.56800 35.47800 27.44000
C  47.54100 34.15800 29.97400
C  50.26600 38.15200 29.40000
C  51.42900 36.64500 24.79100
C  48.45600 32.83300 25.32100
N  48.97900 36.03600 29.44200
C  48.22000 35.31200 30.31800
C  48.22500 35.96900 31.62700
C  48.61600 37.46000 31.30100
C  49.35800 37.24000 30.00400
C  47.40300 38.36100 31.11700
C  49.15000 35.33300 32.70200
C  48.80000 35.30500 34.24700
H  47.94100 36.47900 34.69100
N  50.78000 37.19200 27.21300
C  50.89800 38.12500 28.14100
C  51.80300 39.13200 27.55600
C  52.24700 38.63900 26.28300
C  51.47600 37.45800 26.01600
C  52.17400 40.35600 28.38200
C  53.27500 39.27500 25.33200
O  53.58700 38.77200 24.24200
C  54.12000 40.47600 25.83800
N  49.72100 34.90800 25.34100
C  50.71600 35.48400 24.52100
C  50.77000 34.75500 23.16500
C  49.88200 33.51000 23.35900
C  49.36600 33.73500 24.78600
C  50.36600 35.63600 21.92800
C  50.68500 32.10200 23.24400
C  50.10100 31.05700 22.24500
N  48.21700 33.84300 27.56300
C  47.95900 32.85700 26.62700
C  47.06600 31.91900 27.18300
C  46.80400 32.39100 28.47800
C  47.65600 33.47300 28.70600
C  46.43100 30.70400 26.51800
C  45.96700 32.19600 29.66600
O  45.07200 31.35300 29.78500
C  46.39200 33.33800 30.63200
C  46.75900 32.66500 31.94000
O  47.84400 32.15800 32.06300
O  45.76800 32.79900 32.85000
C  46.10100 32.21000 34.18100
H  50.50200 38.92800 30.13100
H  51.98700 36.95300 23.90500
H  48.07700 32.12500 24.58200
H  47.19200 35.78400 31.92300
H  49.30300 37.93700 31.99900
H  47.11900 38.25300 30.07000
H  47.64200 39.41500 31.26200
H  46.55100 38.06500 31.72900
H  50.12400 35.81600 32.62300
H  49.18700 34.28300 32.41300
H  49.78200 35.43700 34.70200
H  48.44400 34.32300 34.55800
H  53.22500 40.19800 28.62200
H  51.64500 40.57300 29.31000
H  51.95800 41.27200 27.83300
H  53.56000 41.38700 26.05000
H  54.98300 40.71300 25.21700
H  54.61700 40.16300 26.75600
H  51.84100 34.60000 23.03200
H  49.01700 33.67000 22.71600
H  50.45100 36.72000 21.99900
H  49.34500 35.39300 21.63500
H  51.09900 35.35600 21.17200
H  50.72500 31.59100 24.20600
H  51.70000 32.43900 23.03500
H  49.34500 31.54400 21.62900
H  49.67200 30.18600 22.73800
H  50.93700 30.76400 21.61000
H  46.53900 29.79100 27.10400
H  46.72900 30.45100 25.50100
H  45.38900 30.95800 26.32300
H  45.55400 34.01600 30.79700
H  47.17100 32.11500 34.36900
H  45.74500 31.20000 34.38300
H  45.60900 32.91300 34.85200

