158

Mg 47.60200 15.20500 28.10000
C  45.53200 15.07800 30.94900
C  49.52300 17.45100 29.94900
C  49.54200 15.51400 25.45300
C  45.12100 13.60700 26.40700
N  47.48900 16.19000 30.20500
C  46.57900 15.94500 31.18000
C  46.89700 16.61900 32.51400
C  48.13500 17.51700 32.07900
C  48.44100 17.05300 30.66400
C  47.89600 19.02600 32.10000
C  47.06900 15.72700 33.86100
C  47.34300 16.56700 35.10000
H  48.61300 16.19900 36.01700
N  49.42400 16.16700 27.80700
C  50.03600 17.07700 28.63300
C  51.30000 17.52800 28.03500
C  51.35800 16.90900 26.79200
C  50.08900 16.14000 26.62700
C  52.25300 18.61800 28.60500
C  52.45400 17.06700 25.76000
O  52.41700 16.51700 24.64800
C  53.59800 18.00800 26.13000
N  47.26000 14.79800 26.15300
C  48.29800 14.82800 25.23000
C  47.81800 14.23100 23.91100
C  46.35000 13.68400 24.22100
C  46.24900 14.07500 25.72600
C  47.84200 15.21800 22.69400
C  46.18400 12.15000 23.85600
C  46.81300 11.13700 24.81200
N  45.59700 14.43500 28.55700
C  44.71400 13.79100 27.71400
C  43.55700 13.39200 28.49700
C  43.83100 14.02500 29.71600
C  45.14800 14.45500 29.75000
C  42.25300 12.70500 28.07800
C  43.28400 14.18300 31.04700
O  42.14200 13.85600 31.41900
C  44.40100 14.81700 31.93600
C  43.83700 16.05500 32.42300
O  43.66200 17.07400 31.78500
O  43.47200 15.90300 33.74800
C  42.98000 17.07000 34.45100
H  50.20800 18.10600 30.49200
H  50.03400 15.54500 24.47800
H  44.43100 13.03300 25.78500
H  46.14500 17.37000 32.75200
H  49.07100 17.34100 32.60900
H  48.38500 19.44400 32.98100
H  46.82600 19.23000 32.14000
H  48.27700 19.54400 31.22000
H  47.92300 15.11000 33.58300
H  46.18500 15.10300 33.99500
H  46.52700 16.60500 35.82200
H  47.53400 17.59200 34.78400
H  52.30900 19.58300 28.10100
H  53.23000 18.17300 28.79100
H  51.89900 18.88800 29.60000
H  53.20200 19.02200 26.20000
H  54.20900 17.95900 25.22900
H  54.32700 17.67300 26.86600
H  48.50500 13.41000 23.70800
H  45.64000 14.22800 23.59900
H  48.15600 16.18300 23.09100
H  46.86600 15.32200 22.22100
H  48.67400 14.99500 22.02600
H  46.51500 12.04100 22.82300
H  45.12900 11.87700 23.89000
H  47.11200 10.27200 24.22000
H  46.03200 10.77800 25.48200
H  47.69800 11.51800 25.32100
H  42.00100 12.92000 27.03900
H  41.37800 13.06100 28.62000
H  42.31600 11.63000 28.24100
H  44.63100 14.01100 32.63300
H  41.93800 16.84300 34.67500
H  43.02900 17.95400 33.81500
H  43.50500 17.19900 35.39700
Mg 29.74900 58.17300 38.51200
C  26.75500 56.46200 37.95900
C  31.50300 55.40000 37.40000
C  32.48100 60.15800 38.25800
C  27.77300 61.08900 39.09800
N  29.17400 56.19400 37.56800
C  27.87500 55.65800 37.62900
C  27.98600 54.15700 37.11000
C  29.48200 53.82000 37.35600
C  30.10000 55.21100 37.42000
C  29.93300 52.90000 38.48600
C  27.60200 54.24700 35.59300
C  26.12300 53.74600 35.28400
H  25.47000 54.37200 34.08300
N  31.73900 57.78100 38.00600
C  32.27800 56.59900 37.63800
C  33.76100 56.75400 37.47100
C  34.10500 58.09400 37.59800
C  32.75700 58.77500 37.96800
C  34.54400 55.52700 37.22400
C  35.51800 58.66700 37.46400
O  36.55000 58.04800 37.09500
C  35.81000 60.04200 37.91800
N  30.06900 60.40300 38.47400
C  31.30100 60.86800 38.65700
C  31.33100 62.40500 38.89700
C  29.86000 62.65900 39.31800
C  29.16900 61.30200 38.95100
C  32.48700 62.91000 39.80800
C  29.16100 63.96600 38.72100
C  28.40900 64.81700 39.77400
N  27.70400 58.73300 38.47300
C  27.04000 59.91800 38.74900
C  25.61600 59.74400 38.64000
C  25.44000 58.38300 38.39100
C  26.75700 57.79400 38.26900
C  24.54200 60.86400 38.68400
C  24.45800 57.36100 38.19500
O  23.22600 57.38900 38.21500
C  25.27500 56.05200 37.95200
C  24.93800 54.96800 38.91200
O  25.63900 54.55700 39.87500
O  23.76800 54.33000 38.45000
C  23.50500 53.09400 39.21900
H  32.06900 54.52100 37.08500
H  33.33000 60.84200 38.19600
H  27.10200 61.86700 39.46800
H  27.33100 53.37900 37.50200
H  29.98800 53.36100 36.50700
H  29.31700 53.11300 39.36000
H  31.01300 52.90600 38.63100
H  29.62800 51.86500 38.33300
H  28.35000 53.65900 35.06000
H  27.64000 55.28700 35.26700
H  25.51400 53.95900 36.16200
H  26.25900 52.67600 35.12000
H  34.38000 55.17900 36.20500
H  34.13500 54.69800 37.80300
H  35.61200 55.56900 37.44100
H  36.89200 60.14600 37.99600
H  35.35100 60.24500 38.88500
H  35.50400 60.82100 37.21900
H  31.46900 62.94000 37.95700
H  29.81300 62.75600 40.40300
H  32.15400 63.23100 40.79500
H  32.91200 63.80100 39.34500
H  33.25200 62.15600 39.99700
H  28.43400 63.55600 38.02000
H  29.82500 64.68100 38.23600
H  28.81100 64.60300 40.76500
H  27.33000 64.67000 39.81100
H  28.63900 65.84100 39.48000
H  24.34300 61.21500 39.69600
H  23.59800 60.45300 38.32600
H  24.85200 61.67900 38.03000
H  24.87600 55.72400 36.99200
H  22.73000 52.49500 38.74200
H  23.22400 53.41400 40.22300
H  24.43400 52.52800 39.28800

