158

Mg 24.90600 1.40400 29.98500
C  27.10200 1.37200 32.62300
C  22.29100 1.81800 32.20000
C  22.76700 1.14500 27.36400
C  27.61500 0.71300 27.81900
N  24.76900 1.53500 32.16200
C  25.81800 1.56900 33.04900
C  25.33700 1.92100 34.44200
C  23.79100 1.76300 34.34900
C  23.55900 1.73600 32.86000
C  23.12200 0.55900 35.15800
C  25.84900 3.23200 35.09100
C  26.50600 3.11600 36.49200
H  26.19100 4.09000 37.62600
N  22.88200 1.45300 29.81800
C  21.96000 1.57400 30.85600
C  20.60000 1.38800 30.37400
C  20.70500 1.16000 28.98100
C  22.17500 1.20300 28.62600
C  19.47500 1.09800 31.36300
C  19.60400 0.71100 27.99500
O  19.85800 0.37400 26.87200
C  18.22700 0.66700 28.51100
N  25.11300 1.13100 27.90000
C  24.12200 1.16600 26.98100
C  24.63900 1.03500 25.55500
C  26.19800 1.20300 25.73500
C  26.34800 0.95500 27.24500
C  24.19300 -0.19800 24.76600
C  26.69700 2.58300 25.26400
C  28.18500 2.60200 24.90100
N  26.96400 1.07000 30.13900
C  27.94600 0.79600 29.22100
C  29.19400 0.60000 29.85900
C  28.94100 0.82800 31.23900
C  27.57800 1.06000 31.32100
C  30.50400 0.28900 29.20300
C  29.60800 0.88500 32.51800
O  30.78200 0.67300 32.91000
C  28.37900 1.35200 33.50100
C  28.42900 0.37600 34.65500
O  28.21800 -0.82400 34.55000
O  28.84500 1.02900 35.78300
C  28.92900 0.17700 36.93300
H  21.50400 2.26700 32.81000
H  22.08500 0.89700 26.54900
H  28.48000 0.65400 27.15500
H  25.74800 1.12800 35.06600
H  23.31300 2.69900 34.64000
H  23.94000 0.02400 35.64200
H  22.51200 -0.14300 34.59100
H  22.49800 1.02600 35.92000
H  25.05800 3.96700 35.24000
H  26.57000 3.67800 34.40600
H  27.57900 3.24200 36.34900
H  26.44300 2.14300 36.97800
H  18.98200 2.05000 31.56100
H  19.88500 0.77500 32.31900
H  18.75800 0.33700 31.05500
H  17.85900 1.58900 28.96100
H  18.27200 -0.25100 29.09600
H  17.58200 0.48100 27.65200
H  24.09100 1.78400 24.98200
H  26.52900 0.39800 25.07900
H  23.58800 0.06700 23.89900
H  23.59600 -0.83300 25.42200
H  25.10400 -0.75200 24.54200
H  26.52600 3.36000 26.00900
H  26.11500 2.88400 24.39300
H  28.81200 3.19500 25.56700
H  28.25000 2.94800 23.87000
H  28.64900 1.62800 24.73800
H  30.16500 -0.33600 28.37600
H  31.14300 -0.32700 29.83600
H  30.99500 1.17500 28.80200
H  28.61700 2.35100 33.86500
H  28.10000 0.22100 37.64000
H  29.77300 0.38500 37.59100
H  29.01600 -0.90300 36.82000
Mg 46.51100 25.57500 28.06300
C  47.71300 27.70200 30.69700
C  45.64900 23.22400 30.37800
C  45.75600 23.54400 25.49700
C  48.28100 27.78300 25.87500
N  46.66400 25.52100 30.26000
C  47.06400 26.49800 31.13200
C  46.78600 26.10200 32.55300
C  46.21200 24.70300 32.49000
C  46.19200 24.40700 30.91500
C  47.09500 23.66300 33.23800
C  45.89800 27.12600 33.38200
C  46.32900 27.25500 34.88600
H  45.25600 27.46700 35.90400
N  45.83700 23.63600 28.01900
C  45.50400 22.80600 29.07300
C  44.79700 21.60300 28.64100
C  44.85200 21.70800 27.22300
C  45.52300 23.01000 26.84200
C  44.12300 20.57200 29.53400
C  44.25800 20.75600 26.15200
O  44.32400 20.95900 24.91600
C  43.40800 19.67600 26.59400
N  46.93300 25.71300 26.00200
C  46.30600 24.80200 25.10400
C  46.59700 25.20300 23.63700
C  47.42800 26.56000 23.82500
C  47.58700 26.70800 25.33500
C  47.34800 24.08700 22.82500
C  46.70700 27.82600 23.21000
C  47.63000 28.80100 22.46000
N  47.68900 27.49100 28.22600
C  48.29100 28.18400 27.20400
C  48.85000 29.44000 27.80000
C  48.66000 29.30200 29.18700
C  47.93800 28.10800 29.39100
C  49.58800 30.49400 27.14800
C  48.88500 29.88800 30.45100
O  49.53100 30.93200 30.77500
C  48.27100 28.92200 31.56100
C  49.32200 28.47500 32.54900
O  50.13400 27.64200 32.30200
O  49.10500 28.99400 33.83600
C  50.01200 28.51200 34.88800
H  45.26700 22.51000 31.11000
H  45.56500 22.92700 24.61600
H  48.76000 28.50300 25.20800
H  47.69300 26.14500 33.15600
H  45.17900 24.61100 32.82600
H  46.47700 22.90500 33.71900
H  47.63500 24.21700 34.00600
H  47.79500 23.12500 32.59900
H  44.88900 26.72700 33.47700
H  45.74000 28.09600 32.90900
H  47.03400 28.08000 34.99100
H  46.73800 26.28800 35.17800
H  44.11400 20.73600 30.61200
H  44.54900 19.58500 29.35800
H  43.10200 20.61200 29.15300
H  43.83100 19.05500 27.38400
H  43.10200 18.95800 25.83400
H  42.53900 20.18000 27.01600
H  45.61200 25.41100 23.21700
H  48.41500 26.39200 23.39400
H  48.37300 24.32800 22.54100
H  46.86400 23.87300 21.87200
H  47.47400 23.17500 23.40800
H  46.23900 28.30300 24.07200
H  45.89600 27.51300 22.55200
H  47.59300 29.80100 22.89200
H  47.23400 28.85500 21.44600
H  48.67200 28.48400 22.43000
H  49.00700 30.83200 26.29000
H  50.62800 30.25800 26.92400
H  49.71400 31.25100 27.92300
H  47.56400 29.62800 31.99700
H  49.68000 27.48800 35.06000
H  49.68900 29.03500 35.78800
H  51.06800 28.64800 34.65800

