158

Mg 0.75000 7.54100 27.24000
C  1.38500 9.67900 29.91500
C  0.38200 4.97500 29.54700
C  0.01500 5.74200 24.69600
C  1.34500 10.30600 25.07900
N  0.89800 7.34200 29.42200
C  1.19700 8.38700 30.33300
C  1.32000 7.80900 31.74500
C  1.34800 6.28600 31.57600
C  0.83300 6.19500 30.09700
C  2.87100 5.83500 31.68500
C  0.11600 8.35600 32.60700
C  0.15700 7.97200 34.05700
H  1.32600 7.27100 34.83300
N  0.17300 5.63200 27.14400
C  0.00800 4.68000 28.17500
C  -0.56900 3.49200 27.58000
C  -0.67700 3.71800 26.15300
C  -0.23000 5.08400 25.92900
C  -0.99500 2.25500 28.33200
C  -1.02600 2.68300 24.98100
O  -0.79800 2.91200 23.82100
C  -1.56300 1.29700 25.29400
N  0.75800 7.98300 25.15800
C  0.41000 6.99300 24.32800
C  0.50500 7.47000 22.82400
C  0.68600 9.06000 23.00100
C  1.00800 9.13000 24.49300
C  1.60700 6.72900 22.03200
C  -0.61700 9.86400 22.67700
C  -0.39200 11.31200 22.21900
N  1.27700 9.56200 27.37800
C  1.43500 10.59500 26.45600
C  1.76400 11.79200 27.06600
C  1.87300 11.52000 28.42900
C  1.43200 10.15700 28.56500
C  2.11200 13.09300 26.47600
C  2.21000 12.05700 29.71000
O  2.47600 13.18000 29.96500
C  1.74900 10.93900 30.74000
C  2.67000 10.79300 31.82400
O  3.82200 10.39300 31.68300
O  2.18000 11.24000 33.04000
C  2.97000 11.15100 34.26900
H  0.30500 4.19200 30.30500
H  -0.38500 5.12800 23.88700
H  1.40800 11.22100 24.48600
H  2.22900 8.30200 32.08800
H  0.68000 5.72000 32.22500
H  3.02400 5.15300 32.52200
H  3.56100 6.63600 31.95000
H  3.17800 5.37700 30.74500
H  -0.81400 7.88700 32.28400
H  0.10000 9.44100 32.50600
H  -0.80400 7.50000 34.26000
H  0.04500 8.82300 34.73000
H  -2.05700 2.01400 28.29400
H  -0.74900 2.37600 29.38700
H  -0.42000 1.40700 27.96100
H  -0.69800 0.80300 25.73700
H  -1.88200 0.78300 24.38700
H  -2.42100 1.31200 25.96700
H  -0.48300 7.30500 22.39500
H  1.65000 9.36000 22.59100
H  1.27400 6.22000 21.12800
H  2.01400 5.99400 22.72600
H  2.47500 7.24000 21.61400
H  -1.27400 9.83500 23.54600
H  -1.01700 9.22500 21.89000
H  -0.53800 12.01400 23.04000
H  -1.05000 11.56800 21.39000
H  0.63000 11.55700 21.92900
H  1.23300 13.73600 26.45400
H  2.57700 12.97200 25.49800
H  2.77200 13.56500 27.20400
H  0.84500 11.41400 31.12200
H  2.63100 10.43600 35.01800
H  2.90400 12.10100 34.79900
H  4.00300 10.88100 34.05300
Mg 36.10000 50.30500 25.64400
C  35.96700 48.33200 28.55400
C  34.42300 52.72900 27.59800
C  36.00200 52.07900 22.93800
C  37.19400 47.40900 23.85600
N  35.19600 50.45100 27.83000
C  35.46200 49.59100 28.82500
C  35.00800 50.15800 30.13700
C  34.15300 51.37200 29.74400
C  34.52500 51.47200 28.23700
C  32.59800 51.24800 30.13800
C  36.19900 50.63500 30.99600
C  36.46700 49.75300 32.25800
H  35.16800 49.38300 33.05500
N  35.31800 52.19000 25.28100
C  34.75900 53.05200 26.21500
C  34.65000 54.34500 25.62200
C  35.08400 54.24100 24.21300
C  35.48600 52.80600 24.07000
C  34.20300 55.52800 26.42500
C  35.08100 55.28100 23.09900
O  35.54300 54.97200 21.97900
C  34.60300 56.69500 23.38800
N  36.30600 49.76600 23.61600
C  36.32800 50.74200 22.73200
C  36.91100 50.25600 21.40400
C  37.46200 48.85600 21.73200
C  36.91900 48.58300 23.16400
C  35.99900 50.34400 20.16100
C  38.95000 48.62200 21.58900
C  39.39000 47.92800 20.31700
N  36.53500 48.29400 26.02900
C  36.97000 47.22900 25.24300
C  37.26900 46.07300 26.06200
C  36.81300 46.45500 27.33800
C  36.46100 47.82800 27.31900
C  37.77400 44.67000 25.64200
C  36.63500 46.02200 28.70700
O  36.74200 44.86500 29.07100
C  36.15300 47.21200 29.56800
C  34.96500 46.75700 30.30800
O  33.81000 46.79600 29.88100
O  35.33900 46.24100 31.51300
C  34.36200 45.33400 32.14500
H  34.02700 53.54400 28.20800
H  36.23300 52.65400 22.03800
H  37.73300 46.65500 23.27900
H  34.31000 49.49400 30.64600
H  34.63000 52.28400 30.10200
H  32.25100 50.22200 30.25900
H  32.01600 51.65500 29.31100
H  32.37400 51.91100 30.97400
H  36.15600 51.65600 31.37700
H  37.07300 50.53500 30.35200
H  37.19800 50.23800 32.90600
H  36.98900 48.92900 31.77200
H  33.60500 55.15600 27.25700
H  33.46000 56.09600 25.86500
H  35.04300 56.12100 26.78600
H  35.31300 57.24800 24.00300
H  33.60800 56.69600 23.83400
H  34.47000 57.23100 22.44800
H  37.74000 50.94700 21.25200
H  36.95100 48.10400 21.13100
H  36.48100 51.08300 19.52100
H  35.06900 50.71700 20.59000
H  35.96900 49.40400 19.61200
H  39.27800 47.98400 22.40900
H  39.48800 49.52900 21.86300
H  39.28200 48.69700 19.55200
H  38.84100 46.99500 20.19200
H  40.43000 47.61200 20.40300
H  38.50100 44.35600 26.39100
H  38.25700 44.71200 24.66600
H  37.03700 43.86800 25.65200
H  36.91900 47.38500 30.32400
H  34.92700 44.76100 32.88000
H  33.98100 44.60600 31.42800
H  33.51200 45.85100 32.58900

