158

Mg 9.35700 3.23900 27.23000
C  10.52800 1.69000 30.16000
C  7.33800 5.17300 29.28500
C  7.57000 4.04400 24.51300
C  10.82000 0.57300 25.46700
N  9.06000 3.43500 29.49700
C  9.62900 2.64500 30.48100
C  9.27700 3.14900 31.85600
C  8.07000 4.09600 31.57300
C  8.21400 4.31000 30.04500
C  6.69400 3.57100 31.92200
C  10.56000 3.81800 32.46900
C  10.37300 4.80100 33.66500
H  10.86500 4.15600 34.97700
N  7.84900 4.55000 26.96200
C  7.20000 5.33500 27.91000
C  6.24700 6.22600 27.28500
C  6.35200 5.96400 25.89800
C  7.29400 4.81000 25.69500
C  5.32400 7.13700 28.02100
C  5.66200 6.67000 24.74400
O  5.96600 6.36300 23.57900
C  4.51500 7.54400 24.97300
N  9.11200 2.42300 25.26900
C  8.32800 2.96100 24.28500
C  8.44700 2.20200 23.02600
C  9.73500 1.31400 23.28700
C  9.98300 1.46900 24.73300
C  7.28800 1.35200 22.50000
C  11.01100 1.67600 22.53200
C  11.67700 0.49500 21.89500
N  10.56700 1.59600 27.69300
C  11.07600 0.57700 26.86000
C  11.98100 -0.28700 27.60500
C  11.79800 0.14000 28.92500
C  10.92600 1.23000 28.88800
C  12.89100 -1.20800 27.06300
C  12.22000 -0.12600 30.25500
O  12.93100 -0.99900 30.71500
C  11.33400 0.82900 31.13900
C  10.44600 -0.03400 32.01300
O  9.37400 -0.55600 31.66500
O  11.06700 -0.14700 33.22700
C  10.28900 -0.72800 34.28700
H  6.66400 5.67200 29.98400
H  6.98300 4.24200 23.61400
H  11.25700 -0.29500 24.96900
H  9.12200 2.29400 32.51300
H  8.06700 5.01000 32.16700
H  6.80700 2.56400 32.32600
H  6.09100 3.44800 31.02200
H  6.19600 4.21800 32.64400
H  11.06400 4.31900 31.64300
H  11.09500 2.92400 32.79000
H  9.34200 5.14200 33.76100
H  10.98100 5.69100 33.50500
H  5.73500 8.14100 27.91300
H  5.33500 6.85500 29.07300
H  4.27800 7.05800 27.72700
H  3.70600 7.14000 25.58100
H  4.07700 7.55400 23.97500
H  4.85600 8.56500 25.14100
H  8.58900 2.90900 22.20800
H  9.44800 0.26400 23.24200
H  6.78900 0.95500 23.38400
H  7.83600 0.57300 21.97000
H  6.68900 1.98800 21.84800
H  11.75100 2.09300 23.21500
H  10.83400 2.32700 21.67600
H  11.93800 0.72700 20.86300
H  10.95700 -0.32100 21.84700
H  12.50600 0.11900 22.49500
H  12.28100 -1.96200 26.56600
H  13.61700 -1.59200 27.77900
H  13.34500 -0.54400 26.32700
H  12.09400 1.36000 31.71200
H  9.29400 -0.31100 34.44300
H  10.76800 -0.37600 35.20100
H  10.21600 -1.81500 34.31500
Mg 26.43200 -0.10800 28.60700
C  27.88300 -0.61200 31.78900
C  23.44100 0.01200 30.30400
C  25.04500 0.26300 25.71500
C  29.50700 -1.11000 27.09700
N  25.69000 -0.47800 30.85700
C  26.53100 -0.42900 31.93700
C  25.78800 -0.21300 33.28200
C  24.32400 -0.19000 32.77800
C  24.42700 -0.29100 31.22600
C  23.41600 -1.33400 33.28300
C  26.33600 1.01600 34.11700
C  26.77300 0.75300 35.58000
H  26.57600 1.87500 36.62400
N  24.55400 0.13100 28.05900
C  23.43200 0.21900 28.90500
C  22.26100 0.59700 28.11000
C  22.70600 0.68100 26.78200
C  24.14200 0.41900 26.79800
C  20.84800 0.72700 28.65700
C  21.85900 0.93300 25.47200
O  22.44200 0.99900 24.39500
C  20.36100 1.03300 25.52100
N  27.16200 -0.23000 26.63900
C  26.36700 -0.05800 25.61400
C  27.17900 -0.04200 24.32000
C  28.45300 -0.80700 24.75400
C  28.41700 -0.72300 26.26300
C  26.40300 -0.76500 23.15900
C  29.71300 -0.09600 24.17000
C  30.93300 -1.00500 23.84800
N  28.31300 -0.66400 29.24600
C  29.41500 -1.05700 28.53200
C  30.48900 -1.21600 29.42600
C  29.99900 -1.00200 30.69400
C  28.60700 -0.78800 30.57400
C  31.99000 -1.55900 29.14200
C  30.35200 -1.01400 32.12800
O  31.40400 -1.29600 32.67800
C  29.00900 -0.72800 32.84600
C  28.81900 -1.84700 33.83100
O  28.14200 -2.88800 33.63900
O  29.45500 -1.48700 35.01500
C  29.11500 -2.25200 36.21000
H  22.53400 0.08800 30.90800
H  24.51100 0.32400 24.76400
H  30.41700 -1.45200 26.60100
H  26.16400 -1.10400 33.78400
H  23.90400 0.80100 32.95000
H  22.55100 -0.95800 33.82900
H  23.92000 -1.99600 33.98800
H  23.00200 -1.90900 32.45400
H  25.54600 1.76700 34.13300
H  27.20700 1.59500 33.80900
H  27.83600 0.52900 35.67100
H  26.26800 -0.09100 36.04900
H  20.10500 0.09700 28.16800
H  20.47500 1.73100 28.45500
H  20.69800 0.51200 29.71500
H  20.02300 1.87400 26.12600
H  20.10400 0.06300 25.94800
H  20.06400 1.22900 24.49100
H  27.40500 0.98600 24.03900
H  28.45100 -1.85700 24.45800
H  26.95900 -1.67400 22.93200
H  26.34900 -0.07700 22.31500
H  25.39500 -1.07600 23.43500
H  30.11800 0.61800 24.88700
H  29.51800 0.40500 23.22200
H  31.04600 -1.71900 24.66400
H  31.87900 -0.48900 23.68500
H  30.78700 -1.56500 22.92500
H  32.06300 -1.77900 28.07700
H  32.26000 -2.41700 29.75800
H  32.58700 -0.73500 29.53300
H  29.06700 0.19100 33.42900
H  28.91700 -3.29400 35.95700
H  28.24600 -1.74900 36.63500
H  29.94200 -2.14900 36.91200

