158

Mg 16.27100 -2.59900 28.44200
C  15.36500 -0.15800 30.88400
C  17.99500 -4.16200 31.07500
C  17.69100 -4.66700 26.23800
C  15.27400 -0.37700 25.96100
N  16.72800 -2.05700 30.65800
C  16.06700 -1.16800 31.47900
C  16.39300 -1.41900 32.99700
C  17.46500 -2.57300 32.86200
C  17.40600 -2.97300 31.44000
C  18.83800 -2.11600 33.43200
C  15.11300 -1.88800 33.73700
C  14.94500 -1.22800 35.06200
H  16.17200 -0.69300 35.86200
N  17.48800 -4.27600 28.65600
C  18.01100 -4.78700 29.81500
C  18.72700 -6.00000 29.49800
C  18.67100 -6.22200 28.08800
C  17.92600 -5.03400 27.57000
C  19.27300 -6.90200 30.64400
C  19.16700 -7.43900 27.31500
O  18.85100 -7.61600 26.15800
C  20.07500 -8.43900 27.94400
N  16.24200 -2.62400 26.35400
C  17.02900 -3.54000 25.62900
C  16.91500 -3.18000 24.15100
C  16.03800 -1.89300 24.06600
C  15.81200 -1.61200 25.57200
C  18.21500 -3.22000 23.28800
C  14.73200 -2.00600 23.32500
C  14.33800 -0.84000 22.40100
N  15.34300 -0.78200 28.35300
C  15.02600 0.01500 27.34000
C  14.31700 1.19700 27.76700
C  14.44100 1.17800 29.17000
C  15.09500 -0.03200 29.47800
C  13.67000 2.28800 26.98600
C  14.09000 1.89000 30.36200
O  13.42900 2.88100 30.54600
C  14.62700 1.04900 31.60200
C  15.60300 1.85300 32.32100
O  16.58300 2.32700 31.83300
O  15.10300 2.28900 33.56800
C  15.88700 3.32000 34.26400
H  18.45000 -4.74000 31.88200
H  18.18700 -5.34600 25.54100
H  14.79400 0.21000 25.17500
H  16.77000 -0.49700 33.44000
H  17.17800 -3.46900 33.41200
H  18.79000 -2.47800 34.45900
H  18.86800 -1.02700 33.46800
H  19.67900 -2.49600 32.85200
H  15.04300 -2.96000 33.92300
H  14.28300 -1.54700 33.11800
H  14.36000 -1.88400 35.70700
H  14.25800 -0.38600 34.97600
H  19.16600 -7.96900 30.44400
H  18.81600 -6.72400 31.61800
H  20.30800 -6.57300 30.73200
H  19.59800 -9.17600 28.59000
H  20.73300 -7.95200 28.66400
H  20.77100 -8.78400 27.17900
H  16.24700 -3.93100 23.72900
H  16.66700 -1.04200 23.80500
H  18.94500 -3.58200 24.01200
H  18.56700 -2.27000 22.88700
H  18.06100 -3.80400 22.38000
H  13.90300 -2.15700 24.01600
H  14.66500 -2.92200 22.73700
H  13.72600 -1.07400 21.53100
H  15.18000 -0.34800 21.91400
H  13.82600 -0.05700 22.96100
H  13.39100 1.89600 26.00800
H  14.33200 3.14000 26.83100
H  12.74800 2.60900 27.47000
H  13.76300 0.79900 32.21700
H  16.71600 2.73600 34.66400
H  15.29800 3.81300 35.03700
H  16.17200 4.05400 33.51100
Mg -2.27500 34.75400 26.70300
C  -3.36700 32.91900 29.41800
C  -0.63400 36.88200 28.85600
C  -1.48100 36.58700 24.03200
C  -3.58700 32.34200 24.57000
N  -2.08100 34.85500 28.88500
C  -2.53500 33.95800 29.81700
C  -2.06600 34.34100 31.16900
C  -1.29800 35.58800 31.01700
C  -1.33100 35.80900 29.45600
C  -1.82700 36.81800 31.91100
C  -1.18600 33.18400 31.83700
C  -1.63700 32.57500 33.18900
H  -0.68900 32.41000 34.46100
N  -1.23500 36.52000 26.44300
C  -0.66100 37.23400 27.44900
C  -0.03400 38.36800 26.84600
C  -0.30500 38.34900 25.49200
C  -1.01000 37.10500 25.21400
C  0.81300 39.37600 27.66400
C  0.15200 39.39100 24.45800
O  0.01000 39.20200 23.29400
C  0.84200 40.64900 24.84500
N  -2.37200 34.48500 24.60300
C  -2.05300 35.39500 23.68800
C  -2.58000 35.12800 22.32500
C  -2.94400 33.58300 22.47000
C  -2.89800 33.41000 23.98400
C  -3.77400 35.95200 21.87100
C  -2.08200 32.58000 21.71900
C  -0.71300 32.11700 22.41200
N  -3.41700 32.91800 26.90100
C  -3.86100 32.02000 25.92600
C  -4.60400 30.98000 26.58700
C  -4.52300 31.33200 27.98500
C  -3.74800 32.56300 28.08700
C  -5.07400 29.74600 25.85600
C  -4.84600 30.92100 29.29200
O  -5.46100 29.94300 29.68100
C  -4.11100 31.91500 30.27600
C  -5.13800 32.53100 31.14100
O  -5.92600 33.37400 30.76400
O  -5.13300 31.93300 32.43600
C  -6.27600 32.39700 33.22000
H  -0.12400 37.55700 29.54600
H  -1.37700 37.18000 23.12100
H  -4.03600 31.66700 23.83800
H  -2.96000 34.60900 31.73200
H  -0.26000 35.41100 31.29800
H  -0.94100 37.15600 32.44600
H  -2.57500 36.41100 32.59200
H  -2.25400 37.61900 31.30800
H  -0.14000 33.45400 31.97900
H  -1.07900 32.37900 31.11000
H  -1.69800 31.52100 32.92000
H  -2.63700 32.91400 33.45800
H  1.85600 39.50900 27.38000
H  0.98700 39.05900 28.69200
H  0.27800 40.31300 27.82300
H  0.16000 41.27100 25.42600
H  1.24300 41.11400 23.94400
H  1.74300 40.40400 25.40700
H  -1.68300 35.18200 21.70800
H  -3.96500 33.34900 22.16800
H  -3.96100 36.59100 22.73400
H  -4.67500 35.37200 21.67300
H  -3.42700 36.57300 21.04500
H  -1.81300 33.06000 20.77700
H  -2.56900 31.63000 21.50300
H  0.08900 32.80400 22.14200
H  -0.35600 31.12900 22.12000
H  -0.70200 32.04700 23.50000
H  -4.38900 29.52700 25.03700
H  -6.02000 29.89200 25.33500
H  -5.10200 28.89800 26.54000
H  -3.41500 31.39300 30.93200
H  -7.19500 32.60500 32.67200
H  -6.06700 33.32800 33.74800
H  -6.48100 31.60100 33.93500

