158

Mg 50.54500 44.94200 42.59700
C  47.43300 46.44600 41.79300
C  49.54500 41.99400 41.04900
C  53.66900 43.89800 42.89900
C  51.58100 48.21900 43.78600
N  48.73400 44.35500 41.56400
C  47.54300 45.07400 41.36400
C  46.50700 44.17500 40.76000
C  47.19000 42.76600 40.80000
C  48.62300 43.05900 41.07100
C  46.52400 41.87400 41.96400
C  46.14200 44.66300 39.30900
C  44.57100 44.59000 39.01300
H  44.03000 43.53100 37.99800
N  51.47800 43.13600 42.12800
C  50.88100 42.01800 41.55600
C  51.87800 41.00900 41.53100
C  53.05000 41.52500 42.15000
C  52.80500 42.91800 42.40000
C  51.62400 39.61200 40.85300
C  54.32600 40.72300 42.50200
O  54.27300 39.53900 42.22000
C  55.65600 41.27200 42.89200
N  52.36500 45.97000 43.23300
C  53.53200 45.23100 43.30000
C  54.65600 46.18100 43.76700
C  53.96300 47.55200 44.02700
C  52.56000 47.24000 43.71800
C  55.54400 45.59200 44.91900
C  54.53100 48.71800 43.12500
C  56.01600 49.09700 43.33300
N  49.66400 46.90500 42.93500
C  50.24200 48.06400 43.35500
C  49.19700 49.06900 43.31000
C  48.11600 48.47700 42.71500
C  48.43500 47.15300 42.43500
C  49.28400 50.46900 43.77600
C  46.82500 48.73300 42.10600
O  46.15500 49.73900 42.19200
C  46.33900 47.39700 41.48200
C  45.08700 47.01300 42.14100
O  45.03400 46.70100 43.32500
O  44.03500 47.17100 41.25000
C  42.66800 47.14300 41.86300
H  49.13900 41.07000 40.63400
H  54.66800 43.56800 43.19200
H  51.86700 49.23800 44.05300
H  45.61500 44.14700 41.38700
H  47.14500 42.21100 39.86300
H  45.47300 41.79800 41.68400
H  46.67800 42.36800 42.92300
H  47.03400 40.91100 41.96800
H  46.67600 44.06500 38.57100
H  46.51000 45.68900 39.29000
H  44.30000 45.53600 38.54400
H  43.97900 44.68300 39.92400
H  52.48100 38.99800 40.57700
H  51.15300 39.71200 39.87600
H  51.05000 38.92600 41.47600
H  55.68900 41.73100 43.88000
H  55.86600 42.03300 42.14000
H  56.27600 40.39000 42.73200
H  55.22400 46.33300 42.84900
H  54.11600 47.69900 45.09600
H  55.86300 46.30600 45.67700
H  56.49400 45.31900 44.46100
H  55.22600 44.69200 45.44500
H  54.06100 49.67000 43.36900
H  54.39300 48.48000 42.07000
H  56.36600 49.73200 42.52000
H  56.67900 48.26000 43.55000
H  56.00100 49.70400 44.23900
H  50.27500 50.72200 44.15300
H  48.42200 50.62500 44.42500
H  49.11800 51.01800 42.84900
H  46.17600 47.50000 40.41000
H  42.38400 46.12900 42.14400
H  41.94900 47.52100 41.13600
H  42.51300 47.82400 42.70100
Mg 16.35800 51.80500 26.03400
C  17.98400 50.86400 28.93700
C  13.82500 53.12500 28.09300
C  14.80900 52.86700 23.30800
C  18.62800 50.15500 24.17300
N  15.88900 51.89800 28.19300
C  16.82900 51.53100 29.20200
C  16.32300 51.87600 30.59500
C  14.87300 52.48100 30.31400
C  14.85100 52.49400 28.82900
C  13.66200 51.79600 31.01200
C  17.26100 52.86000 31.42500
C  17.68800 52.36900 32.81000
H  16.91500 53.02300 34.04400
N  14.62100 52.94000 25.76300
C  13.70900 53.39200 26.71900
C  12.66400 54.12100 26.02700
C  12.94400 54.05600 24.62100
C  14.23100 53.25000 24.47700
C  11.49700 54.77000 26.70300
C  12.23900 54.76300 23.39800
O  12.59100 54.65400 22.21800
C  10.99400 55.67900 23.63800
N  16.72800 51.69700 23.97300
C  15.97200 52.18300 23.02500
C  16.57300 51.71700 21.59800
C  17.88400 51.07800 22.05800
C  17.65900 50.86500 23.47900
C  15.54100 50.77800 20.85800
C  19.07700 52.10800 21.79400
C  20.41700 51.54500 21.52200
N  17.93000 50.63700 26.41500
C  18.86500 50.07800 25.57100
C  19.92100 49.48500 26.29600
C  19.66300 49.69200 27.67300
C  18.43100 50.43100 27.65300
C  21.18800 48.86900 25.75600
C  20.14700 49.55300 29.09000
O  21.12400 48.96300 29.52800
C  19.04300 50.30400 29.88700
C  18.50600 49.20300 30.70000
O  17.83600 48.23700 30.37900
O  19.12000 49.27200 31.98600
C  18.58800 48.31000 32.98200
H  13.00300 53.45200 28.73300
H  14.32200 53.24200 22.40600
H  19.43000 49.83000 23.50800
H  16.24600 50.94900 31.16200
H  14.84800 53.55900 30.47300
H  12.71500 52.26500 30.74700
H  13.65200 51.96400 32.08900
H  13.60000 50.71400 30.89300
H  16.76900 53.82500 31.54700
H  18.16300 53.00500 30.83000
H  18.71100 52.73800 32.74500
H  17.67200 51.28000 32.77600
H  11.64000 54.82000 27.78200
H  10.61300 54.18100 26.46000
H  11.47700 55.80300 26.35700
H  11.25800 56.59100 24.17200
H  10.27400 54.97400 24.05600
H  10.66600 55.86300 22.61500
H  16.57100 52.67900 21.08600
H  18.04300 50.13900 21.52700
H  16.08200 49.85100 20.66700
H  15.11800 51.21600 19.95400
H  14.64500 50.53400 21.42900
H  18.97700 52.76200 22.66000
H  18.76400 52.69900 20.93300
H  21.00500 51.23600 22.38600
H  20.98000 52.22800 20.88500
H  20.20700 50.66700 20.91000
H  21.32700 49.16000 24.71500
H  21.03800 47.80000 25.60900
H  22.04200 49.06800 26.40400
H  19.41800 51.03800 30.60000
H  17.50200 48.32600 33.07500
H  18.96400 48.66000 33.94300
H  19.03300 47.31800 32.91000

