158

Mg -1.31700 17.35000 26.76900
C  -1.99800 15.15000 29.41400
C  -2.03900 19.94400 29.02000
C  -1.23100 19.55000 24.18200
C  -1.33400 14.63700 24.65000
N  -2.00100 17.50300 28.98400
C  -2.18700 16.49800 29.79700
C  -2.51000 16.92000 31.27100
C  -2.66500 18.46400 31.06500
C  -2.20700 18.66600 29.56600
C  -4.01200 19.13700 31.47000
C  -1.53200 16.53500 32.44200
C  -1.50900 17.26200 33.77200
H  -0.27800 17.04500 34.60700
N  -1.52000 19.42900 26.60600
C  -1.79600 20.34900 27.64300
C  -1.77500 21.66500 27.14000
C  -1.64900 21.57300 25.74200
C  -1.43200 20.15300 25.44800
C  -2.05600 22.82800 28.03900
C  -1.75600 22.65300 24.67200
O  -1.74900 22.48400 23.47200
C  -1.91000 24.07200 25.09500
N  -1.39900 17.17700 24.79100
C  -1.22600 18.16800 23.87500
C  -0.88800 17.65400 22.42900
C  -0.73700 16.16900 22.75800
C  -1.17900 15.97400 24.18600
C  -1.98700 18.05600 21.44100
C  0.60200 15.55600 22.46100
C  1.76500 16.19700 23.26400
N  -1.54900 15.30900 26.97700
C  -1.54400 14.33700 26.03700
C  -1.81700 13.06500 26.53300
C  -1.88000 13.29200 27.93900
C  -1.73200 14.70900 28.11200
C  -1.96200 11.75700 25.71300
C  -2.14200 12.65100 29.18000
O  -2.26900 11.47100 29.51700
C  -2.24000 13.83600 30.20200
C  -1.19000 13.53400 31.16400
O  -0.08900 13.93300 31.10100
O  -1.85100 12.95600 32.21200
C  -0.99300 12.66500 33.37200
H  -2.23500 20.72100 29.76200
H  -1.14400 20.16200 23.28100
H  -1.35900 13.87400 23.87000
H  -3.42400 16.36000 31.46900
H  -1.84700 19.01100 31.53400
H  -4.70000 18.30300 31.60900
H  -4.34300 19.73700 30.62200
H  -3.92100 19.86300 32.27800
H  -0.55900 16.42800 31.96300
H  -1.76500 15.51100 32.73600
H  -2.36300 16.94100 34.36900
H  -1.58200 18.34800 33.72000
H  -3.11900 22.99900 27.87300
H  -1.48000 23.71500 27.77400
H  -1.93500 22.67800 29.11200
H  -1.09100 24.36300 25.75200
H  -2.89900 24.17100 25.54300
H  -1.72600 24.73500 24.25000
H  0.04000 18.10900 22.08300
H  -1.45200 15.65700 22.11400
H  -2.72100 18.79300 21.76500
H  -2.49000 17.12100 21.19200
H  -1.45300 18.59000 20.65500
H  0.71300 15.67700 21.38300
H  0.60000 14.48400 22.65900
H  1.43500 16.79700 24.11200
H  2.22200 16.77400 22.46100
H  2.47500 15.41900 23.54500
H  -0.94900 11.53100 25.37700
H  -2.60300 11.79000 24.83200
H  -2.36200 11.03200 26.42100
H  -3.20900 13.91400 30.69500
H  -0.55800 11.66700 33.33100
H  -1.64100 12.75100 34.24400
H  -0.18900 13.39000 33.49600
Mg 40.86100 41.25300 26.75900
C  40.68600 43.78100 29.12000
C  42.25300 39.17300 29.14000
C  41.50600 38.95900 24.31000
C  40.01400 43.69400 24.34600
N  41.41300 41.49300 28.83900
C  41.02500 42.54100 29.64900
C  41.24100 42.19400 31.13500
C  41.99700 40.87300 31.06900
C  41.88500 40.45400 29.59200
C  43.50400 40.91100 31.67000
C  39.86200 42.14600 31.87900
C  39.97300 41.63900 33.28600
H  39.11800 42.28000 34.40600
N  41.84000 39.29400 26.67500
C  42.28100 38.64300 27.78200
C  42.65000 37.32400 27.35100
C  42.45100 37.17500 25.95100
C  41.88900 38.52600 25.56800
C  43.14800 36.28900 28.38700
C  42.66800 36.01200 25.01800
O  42.46000 36.05200 23.77600
C  43.22600 34.67900 25.50700
N  40.78500 41.30100 24.61200
C  40.94000 40.16800 23.84300
C  40.51500 40.43700 22.33800
C  39.91800 41.88600 22.48300
C  40.25800 42.34700 23.91700
C  41.74300 40.29200 21.26900
C  38.45100 41.88200 22.16500
C  37.53700 40.80400 22.77500
N  40.57300 43.36400 26.67500
C  40.12900 44.18500 25.65000
C  39.92600 45.49100 26.11800
C  40.12100 45.36300 27.53500
C  40.55300 44.10000 27.76900
C  39.49500 46.77500 25.23500
C  39.96900 46.05700 28.75600
O  39.51500 47.16800 29.02700
C  40.45500 45.09000 29.87700
C  41.74400 45.64600 30.43100
O  42.83600 45.57600 29.87400
O  41.53000 46.18700 31.64800
C  42.73300 46.36100 32.44300
H  42.66700 38.57500 29.95500
H  41.65800 38.17200 23.56800
H  39.68300 44.36200 23.54800
H  41.83700 43.02800 31.50500
H  41.39000 40.07700 31.50100
H  44.30700 40.98600 30.93600
H  43.63800 39.92900 32.12500
H  43.53100 41.64300 32.47700
H  39.15400 41.48800 31.37500
H  39.38300 43.12500 31.88300
H  40.99800 41.81000 33.61600
H  39.81200 40.56400 33.20700
H  44.21400 36.06200 28.43700
H  42.66900 35.33800 28.15200
H  42.72300 36.58400 29.34600
H  42.50900 33.88000 25.69600
H  43.94800 34.75200 26.32000
H  43.86000 34.47500 24.64400
H  39.84000 39.64600 22.01000
H  40.45300 42.62600 21.88900
H  42.67800 40.20100 21.82200
H  41.78000 41.16300 20.61500
H  41.62700 39.47100 20.56100
H  38.45600 41.82600 21.07700
H  37.95600 42.80800 22.46000
H  36.62600 41.34500 23.03200
H  37.95300 40.10100 23.49800
H  37.05600 40.22200 21.99000
H  40.21500 46.75700 24.41600
H  39.58800 47.69400 25.81400
H  38.49000 46.71800 24.81700
H  39.71900 44.87600 30.65200
H  43.56700 46.90100 31.99700
H  42.97600 45.44700 32.98600
H  42.34300 46.98000 33.25100

