158

Mg 9.22200 48.36300 26.07400
C  7.17900 48.61100 28.94800
C  11.89400 49.51100 28.11200
C  11.23400 48.17000 23.39400
C  6.55600 47.81900 24.18700
N  9.52700 48.87000 28.30600
C  8.54600 48.79500 29.26600
C  9.15600 49.11700 30.66500
C  10.41200 49.88000 30.25200
C  10.65500 49.39900 28.78600
C  10.48700 51.44100 30.42000
C  9.41300 47.88400 31.67800
C  8.92300 48.12400 33.09700
H  8.98000 46.90100 34.09700
N  11.28100 48.83100 25.79200
C  12.16600 49.27500 26.81200
C  13.42000 49.39900 26.14000
C  13.26200 49.03200 24.78500
C  11.86700 48.60400 24.59600
C  14.72800 49.84700 26.91600
C  14.30900 49.05700 23.65100
O  13.95500 48.67400 22.53200
C  15.72100 49.42100 23.95400
N  8.95500 48.08100 24.12300
C  9.91100 47.99200 23.16400
C  9.36700 47.65900 21.76300
C  7.83200 47.62400 22.02500
C  7.79500 47.85100 23.57400
C  9.77800 48.60500 20.58000
C  7.17900 46.22500 21.57500
C  5.74200 46.27500 21.10200
N  7.22100 48.21100 26.44400
C  6.18100 48.03400 25.51700
C  4.93700 48.06400 26.13300
C  5.28500 48.21900 27.52600
C  6.68700 48.33000 27.64200
C  3.57300 47.79800 25.45100
C  4.75900 48.30600 28.82600
O  3.57700 48.26500 29.17300
C  5.92900 48.56500 29.81500
C  5.84600 47.53000 30.80900
O  6.39200 46.42100 30.81400
O  4.97900 47.94200 31.81500
C  4.77900 46.94700 32.86200
H  12.71600 49.83600 28.75400
H  11.82400 48.13900 22.47500
H  5.72700 47.84700 23.47700
H  8.55200 49.84000 31.21300
H  11.26800 49.61900 30.87300
H  10.44800 51.87800 29.42200
H  11.38500 51.75500 30.95100
H  9.70800 51.86000 31.05600
H  10.46600 47.60300 31.67900
H  8.71700 47.10600 31.36500
H  7.88100 48.44200 33.05700
H  9.46700 48.98200 33.49200
H  14.70700 49.76800 28.00300
H  15.04400 50.86600 26.69400
H  15.50000 49.14700 26.59600
H  15.60700 50.28500 24.60800
H  16.30500 49.79800 23.11500
H  16.08900 48.51800 24.44200
H  9.60600 46.63600 21.47400
H  7.28500 48.50200 21.68200
H  9.07800 48.65500 19.74700
H  10.65300 48.04800 20.24600
H  9.95800 49.63800 20.87900
H  7.24800 45.54500 22.42500
H  7.87100 45.89200 20.80200
H  5.16800 45.80700 21.90200
H  5.57800 45.74300 20.16500
H  5.28900 47.26600 21.06400
H  3.42600 48.66600 24.80800
H  2.75500 47.64700 26.15600
H  3.60500 46.90900 24.82100
H  5.67400 49.54100 30.22800
H  3.94400 47.17500 33.52600
H  5.67900 47.08200 33.46300
H  4.59300 45.94000 32.49000
Mg -10.65300 16.92400 40.29100
C  -7.26800 16.67900 40.30300
C  -10.40100 20.40800 40.16100
C  -13.97300 17.14200 39.45200
C  -10.96200 13.43800 39.81500
N  -9.01500 18.35700 40.23400
C  -7.66800 18.03500 40.20600
C  -6.81900 19.27100 39.88500
C  -7.83800 20.40200 40.28100
C  -9.15400 19.71600 40.24800
C  -7.57100 21.15900 41.56800
C  -6.34700 19.35500 38.37600
C  -4.87400 19.19600 38.11900
H  -4.26500 18.11100 37.21300
N  -12.05500 18.62800 39.87800
C  -11.68400 19.93600 39.94500
C  -12.95800 20.71100 39.78900
C  -14.06900 19.77200 39.68100
C  -13.41100 18.46100 39.68700
C  -13.15400 22.17100 39.83700
C  -15.57800 20.12900 39.54500
O  -16.00700 21.25900 39.58500
C  -16.61500 19.04600 39.30500
N  -12.20500 15.48800 39.81000
C  -13.47100 15.86600 39.61500
C  -14.46900 14.68700 39.32400
C  -13.37600 13.53900 39.13200
C  -12.10600 14.15800 39.77000
C  -15.50400 14.43800 40.36500
C  -13.22200 13.16700 37.63800
C  -13.40800 11.74200 37.20000
N  -9.45500 15.36400 40.12400
C  -9.69500 13.99600 40.00400
C  -8.39200 13.29200 39.96300
C  -7.41900 14.32400 40.08300
C  -8.09700 15.56000 40.25200
C  -8.20700 11.86500 39.80200
C  -6.01400 14.61700 40.10900
O  -5.08000 13.79100 39.87900
C  -5.81000 16.15100 40.31600
C  -5.03300 16.35100 41.58200
O  -5.05600 15.65700 42.61900
O  -4.28500 17.51500 41.52700
C  -3.33800 17.79800 42.65800
H  -10.34900 21.49800 40.10600
H  -15.03200 17.14800 39.18500
H  -10.91000 12.34900 39.75300
H  -5.89000 19.40600 40.43900
H  -7.94700 21.15900 39.50500
H  -6.78100 20.72600 42.18200
H  -8.46000 21.05100 42.19000
H  -7.30500 22.16900 41.25800
H  -6.79300 20.17500 37.81400
H  -6.82600 18.50800 37.88500
H  -4.40200 19.14400 39.09900
H  -4.50600 20.16800 37.79100
H  -13.85800 22.60600 39.12700
H  -12.19500 22.67500 39.95800
H  -13.57600 22.31300 40.83200
H  -17.62900 19.43300 39.41300
H  -16.57900 18.30100 40.10000
H  -16.34300 18.51400 38.39400
H  -14.91300 15.00800 38.38200
H  -13.67100 12.68300 39.73900
H  -15.18500 14.58700 41.39700
H  -16.00300 13.48500 40.19100
H  -16.23300 15.23200 40.20300
H  -12.30800 13.59600 37.22800
H  -13.99300 13.68600 37.06900
H  -14.48100 11.60300 37.06400
H  -13.13100 11.08300 38.02300
H  -12.79300 11.48800 36.33700
H  -7.14200 11.64000 39.86400
H  -8.69400 11.67300 38.84600
H  -8.63400 11.30100 40.63100
H  -5.23200 16.53000 39.47400
H  -3.85200 17.82500 43.61900
H  -2.73400 18.69200 42.50400
H  -2.63500 16.96700 42.71200

