158

Mg -2.00100 17.36300 26.57700
C  -2.63100 15.25900 29.28000
C  -2.85700 20.03800 28.62600
C  -1.52500 19.34700 23.99900
C  -1.53000 14.55000 24.69700
N  -2.67300 17.51600 28.67000
C  -2.82200 16.59200 29.58100
C  -3.03300 17.14300 30.98600
C  -3.29200 18.69300 30.69000
C  -2.95800 18.79100 29.21700
C  -4.57900 19.32100 31.28000
C  -1.83300 16.96500 32.03800
C  -2.32900 16.59200 33.50000
H  -1.30300 16.61900 34.59400
N  -2.26600 19.43400 26.28200
C  -2.53100 20.37600 27.28100
C  -2.41700 21.67200 26.69400
C  -2.01500 21.55500 25.37600
C  -1.95700 20.03500 25.17300
C  -2.95100 22.92100 27.38700
C  -1.87200 22.60000 24.30100
O  -1.66600 22.33300 23.12000
C  -1.64800 23.99700 24.69500
N  -1.74000 17.01900 24.53000
C  -1.57500 17.98300 23.62900
C  -1.22100 17.38800 22.22700
C  -0.90100 15.90300 22.58100
C  -1.40600 15.78600 24.05300
C  -2.21800 17.68600 21.05300
C  0.53000 15.54600 22.18000
C  1.69100 15.92500 23.14200
N  -2.17600 15.30900 26.81100
C  -1.99800 14.29300 25.94400
C  -2.25500 12.98700 26.57200
C  -2.54700 13.32900 27.92600
C  -2.42900 14.74100 27.98400
C  -2.11100 11.66200 25.88800
C  -2.84800 12.79100 29.23000
O  -2.99800 11.65700 29.62300
C  -2.92300 14.04800 30.14300
C  -1.78700 13.83400 31.05700
O  -0.60600 14.02600 30.79500
O  -2.18000 13.41800 32.30900
C  -1.16600 13.25500 33.29500
H  -3.17500 20.77400 29.36700
H  -1.22300 19.97400 23.15800
H  -1.14500 13.66700 24.18400
H  -3.88500 16.60900 31.40700
H  -2.51200 19.25800 31.20000
H  -5.13400 18.57000 31.84200
H  -5.27600 19.76800 30.57100
H  -4.19300 20.08400 31.95600
H  -1.29700 17.89500 32.22600
H  -1.11600 16.20800 31.72000
H  -2.63000 15.55500 33.34600
H  -3.15100 17.24400 33.79300
H  -3.31900 22.73900 28.39700
H  -3.76000 23.40100 26.83700
H  -2.08000 23.54900 27.57500
H  -2.56600 24.35700 25.15900
H  -1.43500 24.49500 23.74900
H  -0.82700 24.13100 25.39800
H  -0.24600 17.76900 21.92400
H  -1.60500 15.31700 21.99100
H  -3.22400 17.34900 21.30500
H  -1.81100 17.19300 20.17000
H  -2.37300 18.76300 20.99500
H  0.71700 15.60800 21.10800
H  0.39500 14.46500 22.21900
H  2.36300 16.40700 22.43200
H  2.11400 15.02000 23.58000
H  1.33100 16.56900 23.94400
H  -1.42200 11.79900 25.05400
H  -3.05400 11.21000 25.58100
H  -1.61200 11.02200 26.61600
H  -3.84500 14.08500 30.72300
H  -1.63300 13.16400 34.27600
H  -0.47300 14.09600 33.28400
H  -0.64100 12.39100 32.88800
Mg -5.48000 25.42500 26.26300
C  -4.04500 26.81600 29.10000
C  -7.46900 23.32700 28.31000
C  -6.49300 23.88200 23.50800
C  -3.10700 27.22900 24.35900
N  -5.67600 25.01000 28.44400
C  -5.00300 25.76800 29.38900
C  -5.54700 25.50400 30.83200
C  -6.48000 24.21000 30.51900
C  -6.58000 24.18000 29.01500
C  -5.88200 22.89800 31.18100
C  -6.36300 26.58900 31.52500
C  -6.01400 26.75100 32.98700
H  -5.94100 25.58000 33.93900
N  -6.86000 23.82700 25.92100
C  -7.60900 23.18000 26.87000
C  -8.44800 22.21800 26.16500
C  -8.08600 22.26000 24.77000
C  -7.08000 23.31600 24.69000
C  -9.36300 21.27300 26.88100
C  -8.53600 21.43500 23.59000
O  -7.86900 21.44200 22.54700
C  -9.67900 20.62800 23.67800
N  -4.76200 25.45900 24.17800
C  -5.40100 24.78300 23.31200
C  -4.87200 25.11600 21.92200
C  -3.86900 26.22100 22.11400
C  -3.96300 26.40000 23.63000
C  -4.14900 23.89200 21.23500
C  -4.25500 27.54100 21.40700
C  -3.39100 27.81700 20.21200
N  -3.86200 26.67600 26.58500
C  -3.03100 27.39500 25.75300
C  -2.21400 28.32000 26.45200
C  -2.59800 28.08400 27.83900
C  -3.50800 27.04700 27.81400
C  -1.26600 29.32100 25.92200
C  -2.26800 28.49900 29.20400
O  -1.58400 29.42400 29.64700
C  -3.24800 27.60700 30.10800
C  -2.38700 26.73400 30.99300
O  -1.88500 25.74900 30.61200
O  -2.50800 27.14800 32.25900
C  -1.88900 26.32300 33.34400
H  -8.25800 22.79100 28.84100
H  -6.71800 23.36000 22.57600
H  -2.52600 27.92200 23.74800
H  -4.71400 25.16800 31.44900
H  -7.44200 24.33900 31.01500
H  -6.60700 22.28100 31.71300
H  -5.01600 23.10800 31.80800
H  -5.57200 22.29200 30.33000
H  -7.44700 26.48800 31.46500
H  -6.18700 27.56800 31.07900
H  -6.80400 27.35100 33.43700
H  -5.09000 27.30600 33.15100
H  -10.38900 21.63400 26.96100
H  -8.94000 20.87500 27.80300
H  -9.59700 20.35400 26.34500
H  -10.08500 20.55700 22.66900
H  -10.39400 21.20300 24.26700
H  -9.58900 19.58600 23.98600
H  -5.68100 25.40300 21.25000
H  -2.81900 25.99900 21.92200
H  -3.06200 23.95000 21.16900
H  -4.67600 23.72800 20.29500
H  -4.34900 23.02700 21.86800
H  -4.08200 28.38600 22.07300
H  -5.29600 27.58700 21.08600
H  -3.96500 27.88800 19.28700
H  -2.51800 27.17900 20.07300
H  -2.92700 28.79500 20.34200
H  -1.81100 30.26400 25.88100
H  -0.98200 29.03000 24.91100
H  -0.36500 29.50100 26.50900
H  -3.84400 28.28100 30.72300
H  -1.75300 26.85700 34.28400
H  -0.95200 25.86700 33.02500
H  -2.65200 25.60100 33.63500

