158

Mg -0.28000 6.86700 25.42900
C  0.58300 9.10600 28.03200
C  0.21900 4.19000 27.70000
C  -0.76400 4.66500 22.93800
C  0.42500 9.39600 23.20700
N  0.38100 6.64400 27.59400
C  0.47300 7.74100 28.47000
C  0.38100 7.25000 29.89800
C  0.71800 5.71500 29.79400
C  0.40200 5.47700 28.31000
C  2.19200 5.32300 30.18600
C  -1.01000 7.59400 30.65500
C  -1.01100 7.41400 32.20300
H  0.24400 7.13300 33.06400
N  -0.41600 4.75000 25.32400
C  -0.22200 3.87200 26.34100
C  -0.42200 2.47600 25.88800
C  -0.76000 2.61800 24.51300
C  -0.66200 4.04400 24.24300
C  -0.43700 1.32000 26.87000
C  -0.92300 1.58800 23.47500
O  -1.00800 1.88300 22.29000
C  -0.84500 0.15600 23.88300
N  -0.01100 7.04500 23.38000
C  -0.46100 6.05100 22.52200
C  -0.78800 6.53200 21.08100
C  -0.21800 7.96100 21.20900
C  0.11500 8.16200 22.70000
C  -0.12800 5.60700 19.99300
C  -1.05600 9.06400 20.48900
C  -2.10300 9.74900 21.35700
N  0.16300 8.94600 25.54500
C  0.43100 9.84700 24.53100
C  0.91200 11.09200 25.13900
C  0.79800 10.87400 26.55300
C  0.40800 9.56100 26.70200
C  1.30000 12.38400 24.42800
C  0.97800 11.50300 27.81400
O  1.35500 12.67300 28.11400
C  0.80100 10.40500 28.87800
C  2.06900 10.23300 29.64200
O  3.02300 9.53000 29.33700
O  1.95300 11.04100 30.71600
C  2.99200 10.92000 31.77500
H  0.41500 3.25900 28.23600
H  -1.18000 4.11300 22.09200
H  0.57300 10.18400 22.46600
H  1.22000 7.66100 30.46000
H  0.05200 5.25600 30.52400
H  2.18000 4.93800 31.20600
H  2.84900 6.14600 29.90300
H  2.49300 4.57800 29.45000
H  -1.85400 7.02300 30.26700
H  -1.31900 8.57100 30.28200
H  -1.64900 6.54600 32.36500
H  -1.51900 8.26200 32.66400
H  0.32300 0.57900 26.62300
H  -1.38200 0.82900 26.63600
H  -0.53800 1.57100 27.92600
H  -1.61900 -0.15400 24.58500
H  0.14400 -0.27900 24.02600
H  -1.10700 -0.30700 22.93100
H  -1.87600 6.47200 21.05000
H  0.72900 7.91700 20.67000
H  0.55400 4.87100 20.41900
H  0.38500 6.27100 19.29700
H  -0.85200 5.01000 19.43800
H  -1.54900 8.60900 19.63000
H  -0.29900 9.82200 20.28500
H  -1.90000 10.78400 21.63200
H  -2.14000 9.21400 22.30600
H  -3.15300 9.72200 21.06800
H  1.45800 12.17800 23.37000
H  2.23200 12.82200 24.78500
H  0.52300 13.11000 24.67100
H  0.07700 10.55400 29.67900
H  3.74000 11.68400 31.56000
H  3.48900 9.95200 31.71400
H  2.54700 11.26600 32.70800
Mg 24.08400 -3.83600 45.91400
C  26.03700 -1.54400 44.20200
C  21.49100 -3.03400 43.72900
C  22.46100 -6.63400 46.87500
C  26.99800 -4.89200 47.64300
N  23.89300 -2.44000 44.05200
C  24.81600 -1.55600 43.60500
C  24.32400 -0.68700 42.50600
C  22.79100 -1.02500 42.60700
C  22.65300 -2.22700 43.55200
C  21.93100 0.24300 43.11800
C  24.91800 -0.98400 41.05600
C  24.39000 0.01700 39.95900
H  24.05100 -0.58500 38.57900
N  22.16100 -4.74100 45.36100
C  21.23200 -4.23500 44.52800
C  20.13000 -5.11800 44.59400
C  20.36600 -6.15700 45.56900
C  21.71200 -5.88600 45.99100
C  18.90400 -4.73900 43.81600
C  19.39600 -7.26400 45.87300
O  18.28200 -7.35400 45.34900
C  19.71200 -8.33900 46.86600
N  24.65300 -5.44100 47.12800
C  23.80000 -6.50000 47.30900
C  24.54000 -7.70000 47.90900
C  25.92900 -7.13300 48.32900
C  25.85400 -5.75200 47.67400
C  23.83200 -8.53800 49.06400
C  27.13300 -8.09100 47.97500
C  27.95900 -8.62700 49.11000
N  26.03400 -3.25500 46.12800
C  27.12000 -3.71000 46.88100
C  28.28900 -2.79900 46.69300
C  27.82900 -1.94100 45.70100
C  26.48800 -2.34900 45.30400
C  29.54400 -2.83300 47.41800
C  28.34000 -0.89300 44.85200
O  29.40100 -0.26100 44.84600
C  27.27200 -0.66300 43.84000
C  26.86500 0.81400 43.91500
O  26.14800 1.33800 44.71900
O  27.30400 1.49600 42.77100
C  27.30300 2.98000 43.00200
H  20.58000 -2.73500 43.20600
H  21.94600 -7.56400 47.12200
H  27.86600 -5.27200 48.18600
H  24.59000 0.35200 42.70100
H  22.48400 -1.43600 41.64500
H  21.53800 0.22100 44.13500
H  21.01800 0.22600 42.52300
H  22.37400 1.23400 43.01900
H  24.97100 -2.03400 40.76600
H  25.93100 -0.60000 41.17900
H  25.17900 0.75800 39.82500
H  23.57800 0.57900 40.41900
H  19.12000 -4.18200 42.90500
H  18.11900 -4.27500 44.41300
H  18.47200 -5.65000 43.40100
H  18.89500 -9.04600 47.01400
H  20.06100 -7.79400 47.74300
H  20.43300 -9.02900 46.42700
H  24.56800 -8.45100 47.11900
H  25.89900 -7.01600 49.41200
H  24.48800 -8.81200 49.89000
H  23.38100 -9.49300 48.79300
H  22.95600 -8.08100 49.52500
H  27.78300 -7.52800 47.30500
H  26.70900 -8.87900 47.35200
H  27.65200 -8.05500 49.98600
H  29.00300 -8.44300 48.85900
H  27.76700 -9.69800 49.16200
H  29.93200 -3.84900 47.48800
H  29.54600 -2.25300 48.34100
H  30.18800 -2.27800 46.73600
H  27.79900 -0.84700 42.90300
H  27.65500 3.50500 42.11400
H  27.89600 3.20500 43.88800
H  26.31400 3.29000 43.33900

