158

Mg 54.49900 24.46500 44.20000
C  52.39200 27.15100 43.39000
C  52.43600 22.36400 42.57400
C  56.86000 22.05800 44.43300
C  56.86300 26.94200 44.99300
N  52.55500 24.76100 43.19800
C  51.86800 25.90700 42.90500
C  50.67100 25.59500 42.02200
C  50.62100 24.02600 42.03800
C  51.97100 23.67000 42.68100
C  49.45200 23.48200 42.92300
C  50.72500 26.02200 40.51600
C  49.47300 26.19700 39.67200
H  49.43400 25.54900 38.21600
N  54.55200 22.41900 43.73500
C  53.58300 21.76200 43.03000
C  53.96300 20.40400 42.90300
C  55.21100 20.21900 43.58700
C  55.58700 21.59100 43.96200
C  53.15200 19.31700 42.14400
C  55.87800 18.87300 43.85500
O  55.36300 17.83100 43.50200
C  57.12500 18.69800 44.81600
N  56.61200 24.54400 44.42800
C  57.35400 23.39800 44.57600
C  58.84500 23.69200 45.01600
C  58.78400 25.22300 45.18900
C  57.33300 25.64500 44.76000
C  59.31600 23.01600 46.34600
C  59.82400 26.01300 44.31700
C  60.41100 27.29900 44.80100
N  54.66600 26.66500 44.30100
C  55.61100 27.48400 44.81700
C  55.06900 28.80800 45.05300
C  53.78200 28.75300 44.52800
C  53.60500 27.44900 44.01400
C  55.74100 29.99500 45.76900
C  52.50200 29.48600 44.30100
O  52.14600 30.62800 44.52700
C  51.60000 28.47400 43.51200
C  51.34800 29.15300 42.19400
O  52.19200 29.66400 41.45800
O  49.99400 29.10600 42.01800
C  49.51600 29.47000 40.67300
H  51.75200 21.78000 41.95500
H  57.60000 21.25600 44.47500
H  57.59000 27.71500 45.25200
H  49.79700 26.11900 42.40900
H  50.58500 23.59100 41.04000
H  48.64800 23.01400 42.35500
H  49.00500 24.33400 43.43500
H  49.84300 22.82700 43.70100
H  51.36200 25.26000 40.06700
H  51.25900 26.96600 40.40900
H  49.33000 27.27700 39.63500
H  48.59300 25.74300 40.12700
H  52.44100 19.78500 41.46300
H  52.61100 18.75200 42.90200
H  53.80100 18.58800 41.65800
H  57.04000 17.67100 45.17200
H  56.95300 19.32100 45.69400
H  58.14900 18.84700 44.47500
H  59.39500 23.29700 44.16200
H  58.91600 25.58400 46.20900
H  59.11800 21.94500 46.34400
H  59.00800 23.53300 47.25500
H  60.39900 23.13500 46.31000
H  59.37200 26.15400 43.33500
H  60.72800 25.40900 44.23000
H  60.46800 28.06100 44.02400
H  61.45200 27.15300 45.08900
H  59.85100 27.75600 45.61700
H  55.08800 30.60400 46.39500
H  56.23300 30.75600 45.16300
H  56.50900 29.60800 46.43900
H  50.69700 28.39900 44.11800
H  50.21600 29.24100 39.87000
H  49.33000 30.53900 40.57000
H  48.53200 29.03900 40.48400
Mg 0.95600 42.10700 26.11400
C  2.25700 42.11600 29.32800
C  -2.09400 41.01900 27.36000
C  -0.12300 41.72700 22.93600
C  4.08200 43.06100 24.92300
N  0.15500 41.52200 28.14400
C  0.85100 41.76900 29.31300
C  -0.09700 41.50800 30.52700
C  -1.46000 41.04500 29.80100
C  -1.14000 41.27600 28.36800
C  -2.05500 39.59700 30.13400
C  -0.41900 42.78900 31.38900
C  -0.29100 42.61000 32.90700
H  -0.42400 41.10700 33.40600
N  -0.82700 41.37800 25.29600
C  -2.00700 41.09300 25.95600
C  -3.04700 40.74200 24.94900
C  -2.50900 41.02500 23.70000
C  -1.06100 41.34500 23.93600
C  -4.36100 40.27900 25.54200
C  -3.20200 40.90200 22.34000
O  -2.68200 41.35600 21.34300
C  -4.69200 40.47800 22.16400
N  1.92000 42.24900 24.19900
C  1.13700 42.23600 23.04800
C  1.97800 42.67100 21.81200
C  3.29000 43.18600 22.51200
C  3.11100 42.76800 23.93500
C  2.16100 41.53600 20.74300
C  3.35800 44.73500 22.35300
C  3.21500 45.35000 20.93400
N  2.72400 42.56400 26.91400
C  3.92700 42.87700 26.27000
C  4.95200 43.12400 27.27200
C  4.32500 42.72400 28.52800
C  2.98700 42.48000 28.19900
C  6.41700 43.36600 26.98500
C  4.49400 42.59500 29.94000
O  5.51600 42.68000 30.56800
C  3.17600 42.26700 30.56500
C  3.39800 41.00400 31.31700
O  3.36400 39.87800 30.88500
O  3.55300 41.38400 32.61100
C  3.76900 40.27600 33.61600
H  -3.03400 40.75400 27.85000
H  -0.53600 41.68000 21.92600
H  5.01700 43.42200 24.48900
H  0.23700 40.66700 31.13300
H  -2.36400 41.55900 30.12700
H  -2.98400 39.64800 30.70200
H  -1.31900 38.99800 30.67000
H  -2.32300 39.09000 29.20700
H  -1.31300 43.21800 30.93600
H  0.33200 43.49900 31.04300
H  -1.15100 43.14900 33.30300
H  0.69400 42.99800 33.16800
H  -4.54300 40.72700 26.51800
H  -4.40600 39.19200 25.61800
H  -5.12400 40.63800 24.85100
H  -4.84100 39.54500 22.70800
H  -5.09000 40.38500 21.15300
H  -5.35100 41.13800 22.72800
H  1.41700 43.52500 21.43300
H  4.09200 42.80600 21.88000
H  1.42300 40.77200 20.98700
H  3.13400 41.11900 21.00300
H  1.99100 41.99700 19.76900
H  4.29000 45.12000 22.76800
H  2.50300 45.10800 22.91700
H  2.33500 45.98600 20.83600
H  3.17700 44.49600 20.25800
H  3.99200 46.07100 20.67900
H  7.15100 43.01300 27.70900
H  6.49400 44.44500 26.85100
H  6.62400 42.83800 26.05400
H  2.98400 43.07800 31.26700
H  4.32100 40.72300 34.44200
H  4.40900 39.53900 33.13200
H  2.80300 39.90500 33.95800

