158

Mg 5.83200 54.51500 41.88800
C  5.31900 51.02700 41.57400
C  8.75200 54.13900 40.37500
C  5.79600 57.84300 41.49500
C  2.44500 54.60500 42.90600
N  6.82600 52.80500 40.93900
C  6.47900 51.46200 40.95400
C  7.52600 50.56800 40.17100
C  8.67900 51.59000 40.15800
C  8.07500 52.92500 40.49700
C  9.66200 51.28600 41.31800
C  7.15400 49.99600 38.71400
C  6.13400 50.68200 37.87000
H  6.68900 51.47600 36.68800
N  7.19100 55.88800 41.12000
C  8.40800 55.46600 40.65700
C  9.21000 56.69600 40.43100
C  8.31400 57.80700 40.64800
C  7.02800 57.24500 41.09600
C  10.70200 56.71100 39.99100
C  8.62300 59.25000 40.52200
O  9.79500 59.53700 40.17800
C  7.69100 60.30500 40.93000
N  4.28300 55.92700 42.05400
C  4.54700 57.29800 41.85100
C  3.35900 58.18300 42.22900
C  2.28800 57.07700 42.59200
C  3.05600 55.77100 42.46100
C  3.66800 59.13800 43.41200
C  0.98700 57.11500 41.73500
C  -0.32400 57.29100 42.56900
N  4.22200 53.08600 42.25300
C  2.99900 53.32200 42.78800
C  2.31200 52.08400 43.03300
C  3.26000 51.18600 42.61000
C  4.37400 51.85600 42.17100
C  1.00900 51.83800 43.56700
C  3.47400 49.75400 42.43700
O  2.79600 48.78000 42.74200
C  4.92500 49.61400 41.89300
C  4.80500 48.77900 40.74900
O  4.37600 49.19800 39.68000
O  5.11500 47.50700 41.08600
C  4.99700 46.55000 39.92900
H  9.76700 54.07600 39.97800
H  5.85200 58.93300 41.48900
H  1.39800 54.67000 43.21100
H  7.66000 49.67600 40.78200
H  9.13000 51.68600 39.17100
H  9.30400 50.54900 42.03700
H  9.95300 52.19100 41.85100
H  10.58900 50.87700 40.91600
H  6.79500 48.97700 38.86200
H  8.12600 49.86900 38.23900
H  5.66900 51.43000 38.51300
H  5.38100 50.01100 37.45800
H  10.83100 57.10200 38.98100
H  10.97900 55.65800 39.94100
H  11.29300 57.22900 40.74600
H  6.86900 60.18600 40.22300
H  8.18700 61.23000 40.63600
H  7.37900 60.24400 41.97200
H  3.17100 58.74700 41.31500
H  1.96300 57.08600 43.63200
H  3.07000 59.07600 44.32100
H  3.53700 60.12400 42.96600
H  4.69100 59.12500 43.78700
H  0.88800 56.25000 41.07800
H  1.13900 57.97700 41.08500
H  -0.68200 56.26800 42.68300
H  -1.03400 57.87500 41.98300
H  -0.01700 57.74800 43.50900
H  0.20200 52.38600 43.08000
H  0.95300 52.25600 44.57300
H  0.76900 50.78000 43.66500
H  5.67600 49.11500 42.50600
H  5.56500 45.63100 40.07100
H  5.35500 47.05800 39.03300
H  3.96800 46.34500 39.63400
Mg -2.08000 35.20200 27.05900
C  -4.10700 33.44000 29.20800
C  -1.15700 37.10800 29.76800
C  0.00400 36.82600 25.05200
C  -3.36400 33.43500 24.27500
N  -2.60500 35.28900 29.29200
C  -3.24900 34.30600 29.94000
C  -3.20300 34.52800 31.52600
C  -2.47700 35.94400 31.61100
C  -2.06700 36.14400 30.12300
C  -3.41100 37.00500 32.28400
C  -2.39400 33.36600 32.26500
C  -3.25800 32.68600 33.33100
H  -3.67700 33.49400 34.50300
N  -0.72800 36.73200 27.36700
C  -0.52700 37.47100 28.53600
C  0.37600 38.55900 28.29100
C  0.58200 38.51300 26.82600
C  -0.00600 37.26400 26.37200
C  0.80500 39.47900 29.28600
C  1.16300 39.63500 25.86700
O  1.16000 39.60000 24.70000
C  1.71200 40.86500 26.47800
N  -1.68100 35.09300 24.94700
C  -0.74700 35.87900 24.40000
C  -0.77400 35.71700 22.91200
C  -1.90800 34.70400 22.60700
C  -2.32200 34.37700 24.02800
C  -0.74800 37.06300 22.09200
C  -1.57800 33.45900 21.75900
C  -2.54500 32.93700 20.71800
N  -3.43400 33.76500 26.74300
C  -3.87600 33.12100 25.62000
C  -4.85500 32.10600 25.92100
C  -4.84600 32.16300 27.33400
C  -4.07400 33.25200 27.74000
C  -5.56400 31.12100 25.05500
C  -5.39600 31.51300 28.49300
O  -6.02700 30.44400 28.60400
C  -4.95100 32.38900 29.69700
C  -6.11600 32.90000 30.27400
O  -6.81500 33.81000 29.79700
O  -6.27300 32.38000 31.55700
C  -7.22000 33.04600 32.42700
H  -0.80100 37.58100 30.68600
H  0.70700 37.32700 24.38400
H  -3.93200 32.97200 23.46500
H  -4.24100 34.58600 31.85400
H  -1.57100 35.96600 32.21600
H  -2.91800 37.49700 33.12200
H  -4.35600 36.54900 32.57800
H  -3.72700 37.84500 31.66600
H  -1.50800 33.77300 32.75300
H  -2.12000 32.61500 31.52500
H  -2.61300 31.86400 33.64300
H  -4.13500 32.28900 32.82000
H  0.23100 40.37700 29.05600
H  1.87900 39.65800 29.33000
H  0.46900 39.12600 30.26100
H  0.86800 41.35600 26.96100
H  2.23300 41.43200 25.70600
H  2.43800 40.50100 27.20500
H  0.16000 35.19700 22.70200
H  -2.74100 35.07500 22.01000
H  -0.91200 37.88900 22.78400
H  -1.50800 36.96000 21.31700
H  0.23300 37.28200 21.67200
H  -1.36400 32.65400 22.46200
H  -0.65000 33.57900 21.20000
H  -2.20400 33.01200 19.68600
H  -3.45900 33.52900 20.68000
H  -2.81200 31.90200 20.93200
H  -4.95800 30.21600 25.08300
H  -5.59300 31.43900 24.01300
H  -6.57700 31.02500 25.44500
H  -4.49900 31.78100 30.48100
H  -7.98300 32.27900 32.56000
H  -7.67400 33.99800 32.15300
H  -6.74300 33.16300 33.40100

