158

Mg -2.76200 16.88200 27.01200
C  -2.78200 14.88700 29.80500
C  -3.07400 19.63300 29.22500
C  -2.65300 19.03800 24.36200
C  -2.94700 14.18500 24.95000
N  -3.03500 17.23900 29.23700
C  -2.98200 16.21100 30.17300
C  -3.11800 16.76100 31.59500
C  -3.22000 18.33000 31.32600
C  -3.16100 18.41300 29.86200
C  -4.44100 19.02900 31.96500
C  -1.94200 16.23600 32.54800
C  -1.58600 17.17400 33.65400
H  -0.85700 16.47400 34.79000
N  -2.69600 19.02300 26.85000
C  -2.90500 19.93700 27.85500
C  -2.73900 21.27800 27.28800
C  -2.38500 21.12900 25.88500
C  -2.66200 19.71200 25.59500
C  -2.91200 22.58300 28.12800
C  -1.87900 22.16300 24.87500
O  -1.79500 21.94200 23.65400
C  -1.55500 23.56200 25.42800
N  -2.93100 16.69700 24.98000
C  -2.82900 17.68200 24.06400
C  -2.94000 17.09900 22.58900
C  -2.67300 15.52700 22.88000
C  -2.88400 15.42500 24.42800
C  -4.29900 17.41300 21.89000
C  -1.26100 15.13900 22.44900
C  -0.10500 16.09300 22.99500
N  -2.88500 14.92700 27.18900
C  -2.99700 13.94500 26.33200
C  -3.11100 12.63400 26.97400
C  -2.95700 12.97500 28.35900
C  -2.76500 14.37700 28.39500
C  -3.17400 11.21700 26.37400
C  -2.86400 12.39400 29.65300
O  -2.93600 11.24100 30.04200
C  -2.73400 13.62800 30.65800
C  -1.46800 13.42100 31.51700
O  -0.33400 13.56900 31.13400
O  -1.87900 12.82300 32.71900
C  -0.79900 12.70700 33.69300
H  -3.05900 20.44400 29.95600
H  -2.33900 19.58100 23.46900
H  -2.91100 13.27300 24.35100
H  -4.12300 16.47700 31.90600
H  -2.30400 18.88200 31.53600
H  -3.92400 19.86400 32.43800
H  -4.88500 18.39600 32.73400
H  -5.11000 19.36400 31.17300
H  -0.99200 16.00600 32.06600
H  -2.27700 15.35800 33.10000
H  -2.40800 17.71300 34.12500
H  -0.91500 17.98200 33.36500
H  -3.41000 22.29400 29.05400
H  -3.48000 23.38400 27.65500
H  -1.91900 22.87600 28.46800
H  -1.39200 24.24800 24.59700
H  -0.65600 23.35700 26.00900
H  -2.36800 23.97000 26.02800
H  -2.04300 17.44500 22.07700
H  -3.36000 15.02000 22.20200
H  -4.86600 18.18300 22.41300
H  -4.91600 16.51500 21.90100
H  -4.15500 17.67600 20.84200
H  -1.26800 15.11100 21.36000
H  -0.96900 14.14200 22.78200
H  0.44400 16.45400 22.12500
H  0.51500 15.47200 23.64000
H  -0.41500 17.00700 23.50100
H  -2.19600 11.13500 25.90100
H  -4.00700 11.08800 25.68400
H  -3.41100 10.53000 27.18700
H  -3.57600 13.46600 31.33000
H  -1.19000 13.21900 34.57200
H  0.14500 13.24900 33.63600
H  -0.53200 11.65600 33.80700
Mg 44.25600 5.49500 47.89700
C  41.90100 8.11000 47.44800
C  41.79100 3.21300 47.67300
C  46.62500 3.12000 47.93500
C  46.80700 7.85000 47.29300
N  42.05600 5.68700 47.57300
C  41.29000 6.81800 47.53800
C  39.79100 6.43400 47.44300
C  39.75200 4.84100 47.57400
C  41.34400 4.51000 47.62400
C  39.00900 4.35000 48.83600
C  38.90600 7.03400 46.30200
C  39.18900 6.66000 44.86100
H  39.39600 7.82700 43.95700
N  44.27300 3.40000 47.82400
C  43.12100 2.63900 47.69500
C  43.50800 1.24900 47.67400
C  44.93200 1.17000 47.74200
C  45.35000 2.58700 47.82400
C  42.46200 0.09400 47.59300
C  45.75100 -0.14600 47.85700
O  45.12700 -1.19300 48.00800
C  47.26100 -0.12900 47.78000
N  46.36100 5.51100 47.61900
C  47.15800 4.41800 47.86200
C  48.63900 4.57700 47.55800
C  48.60900 6.12500 47.10100
C  47.18900 6.53200 47.32800
C  49.57500 4.23400 48.76500
C  49.17000 6.46300 45.62900
C  48.77200 5.52900 44.51900
N  44.38500 7.55700 47.63900
C  45.48600 8.42300 47.40600
C  45.06800 9.79000 47.35500
C  43.64300 9.61700 47.36100
C  43.28900 8.27600 47.47600
C  45.87500 11.10900 47.13600
C  42.40500 10.40300 47.26800
O  42.30600 11.61100 47.11500
C  41.18800 9.41700 47.39100
C  40.39900 9.71500 48.59100
O  40.46200 9.13200 49.66600
O  39.44000 10.65100 48.27100
C  38.57900 11.18100 49.28600
H  40.98200 2.48300 47.61100
H  47.33000 2.30300 48.10300
H  47.67700 8.50100 47.18400
H  39.46600 6.97800 48.33000
H  39.36800 4.30200 46.70800
H  38.70600 5.27400 49.33000
H  39.79100 3.99100 49.50600
H  38.15100 3.73600 48.56300
H  38.94300 8.10100 46.52300
H  37.92300 6.77000 46.69300
H  38.31700 6.13200 44.47500
H  40.06600 6.02200 44.75900
H  42.81400 -0.69800 46.93300
H  41.51600 0.38000 47.13300
H  42.27500 -0.25200 48.61000
H  47.58900 0.54800 46.99100
H  47.50900 -1.17500 47.59600
H  47.73700 0.10900 48.73100
H  48.97300 3.83800 46.83000
H  49.19300 6.68900 47.82900
H  50.37800 4.96000 48.89100
H  50.07600 3.27900 48.61100
H  49.08800 4.10600 49.73200
H  50.22500 6.69600 45.76700
H  48.84800 7.44800 45.29000
H  48.57800 6.12500 43.62800
H  47.87000 4.96400 44.75600
H  49.59900 4.89100 44.20900
H  45.22100 11.98100 47.15700
H  46.62300 11.16600 46.34500
H  46.35600 11.10700 48.11400
H  40.55700 9.38300 46.50300
H  38.23800 12.20000 49.10500
H  39.12500 11.16100 50.22900
H  37.69500 10.57000 49.46600

