158

Mg 52.48300 24.32200 45.35500
C  49.62300 26.06100 44.59900
C  50.92600 21.60200 43.82400
C  55.46200 22.78600 45.29600
C  54.02300 27.33300 46.35700
N  50.48000 23.93300 44.40100
C  49.51400 24.81800 44.08800
C  48.58100 24.29500 43.05100
C  48.71600 22.76900 43.29400
C  50.11100 22.69700 43.92900
C  47.62100 22.18100 44.25500
C  49.00300 24.70800 41.56200
C  47.83000 24.98400 40.59100
H  47.78700 24.04400 39.32800
N  53.12500 22.44300 44.70800
C  52.32000 21.43100 44.13500
C  53.10600 20.20600 43.94500
C  54.40300 20.52400 44.31800
C  54.41600 21.99300 44.77700
C  52.60400 18.98600 43.23600
C  55.59300 19.56200 44.18800
O  55.41800 18.39300 43.73500
C  56.93400 19.95400 44.53200
N  54.55900 25.07900 45.52400
C  55.53500 24.18300 45.68900
C  56.81100 24.90000 46.32700
C  56.37400 26.39500 46.29000
C  54.91200 26.29300 46.06500
C  57.28000 24.38800 47.71500
C  56.93600 27.29400 45.18800
C  57.90200 28.50100 45.55900
N  51.96800 26.21800 45.55300
C  52.65300 27.31900 46.04300
C  51.66500 28.36100 46.22600
C  50.47800 27.87700 45.66200
C  50.72300 26.58700 45.29700
C  51.76000 29.68200 46.85500
C  49.10900 28.24700 45.30900
O  48.53500 29.27600 45.55200
C  48.52500 27.11100 44.53400
C  48.21900 27.66100 43.20000
O  48.97500 28.12300 42.39000
O  46.81900 27.73700 43.01800
C  46.24900 28.36800 41.86000
H  50.45500 20.81100 43.23700
H  56.39600 22.22200 45.34700
H  54.37900 28.26600 46.79900
H  47.56800 24.57600 43.33900
H  48.58600 22.31000 42.31400
H  46.86000 21.67900 43.65700
H  47.10400 22.92100 44.86600
H  48.08800 21.47000 44.93700
H  49.48400 23.84600 41.10000
H  49.60600 25.61100 41.46300
H  47.67000 26.01200 40.26800
H  46.89200 24.77800 41.10600
H  51.66600 19.20000 42.72300
H  52.41600 18.19700 43.96400
H  53.31100 18.55500 42.52700
H  57.20500 20.80400 43.90600
H  57.74200 19.22700 44.45100
H  56.90700 20.30100 45.56500
H  57.66600 24.82900 45.65400
H  56.63000 26.83200 47.25600
H  56.87900 23.38700 47.87800
H  56.92500 25.10100 48.46000
H  58.35800 24.25200 47.79700
H  56.11500 27.68800 44.58900
H  57.39100 26.64500 44.44100
H  58.87200 28.23900 45.13800
H  58.04200 28.64800 46.63000
H  57.68000 29.50800 45.20400
H  52.39400 29.55300 47.73200
H  50.76300 29.96200 47.19600
H  52.13100 30.35100 46.07900
H  47.62600 26.70400 44.99700
H  45.25300 28.66200 42.19000
H  46.12400 27.61000 41.08600
H  46.89400 29.18600 41.54000
Mg -1.40400 34.67000 26.76900
C  -2.91100 32.59300 29.23000
C  -0.36600 36.67900 29.32300
C  -0.58200 36.94500 24.52200
C  -2.97300 32.70300 24.36400
N  -1.66000 34.65900 29.00600
C  -2.27400 33.71200 29.82100
C  -1.98100 34.00800 31.32700
C  -1.24600 35.40200 31.29800
C  -1.16600 35.67400 29.77300
C  -1.98900 36.46600 32.16400
C  -1.25800 32.85000 32.04900
C  -2.01200 32.21200 33.22000
H  -1.16900 31.71800 34.36200
N  -0.55700 36.54600 26.91600
C  -0.09400 37.12800 28.02000
C  0.60800 38.35500 27.68000
C  0.59300 38.44400 26.28500
C  -0.21700 37.29500 25.82500
C  1.40700 39.16700 28.69600
C  1.23100 39.51500 25.37300
O  1.03000 39.53000 24.15500
C  2.14600 40.55400 25.99100
N  -2.02800 34.90300 24.79800
C  -1.47300 35.89300 24.07800
C  -1.75900 35.74000 22.57300
C  -2.25200 34.21400 22.51900
C  -2.39900 33.86600 24.00400
C  -2.77700 36.81100 21.94500
C  -1.40600 33.27900 21.70200
C  0.07100 33.15000 22.14300
N  -2.75500 33.00000 26.73800
C  -3.14900 32.29200 25.69400
C  -3.92300 31.17300 26.16800
C  -3.81100 31.17100 27.57300
C  -3.11200 32.35300 27.88600
C  -4.60900 30.18000 25.25500
C  -4.11500 30.50900 28.79500
O  -4.66800 29.45200 28.99300
C  -3.56400 31.38300 29.92200
C  -4.74100 31.63300 30.82700
O  -5.47600 32.63600 30.78300
O  -4.79600 30.64400 31.71700
C  -5.69500 30.80700 32.79900
H  0.01700 37.19400 30.20700
H  -0.24100 37.64300 23.75500
H  -3.24600 32.11200 23.48800
H  -2.98400 34.21300 31.70200
H  -0.22300 35.34000 31.66800
H  -2.79800 36.99000 31.65600
H  -1.24000 37.13900 32.58200
H  -2.42500 36.01200 33.05400
H  -0.28500 33.24300 32.34600
H  -1.00000 32.00100 31.41700
H  -2.38000 31.31400 32.72300
H  -2.86200 32.78200 33.59400
H  0.91000 40.13600 28.74800
H  2.44200 39.33400 28.39800
H  1.33700 38.68100 29.66900
H  2.38600 41.38500 25.32700
H  3.05400 40.03100 26.29200
H  1.58300 41.06500 26.77200
H  -0.84100 35.91700 22.01200
H  -3.25600 34.16400 22.09800
H  -3.52400 36.57500 21.18700
H  -2.17700 37.50500 21.35700
H  -3.20700 37.34400 22.79200
H  -1.43500 33.60500 20.66200
H  -1.73100 32.26500 21.93800
H  0.65700 33.18100 21.22400
H  0.21200 32.24100 22.72800
H  0.40000 33.86500 22.89700
H  -4.46900 30.40100 24.19700
H  -5.67900 30.32200 25.40700
H  -4.19000 29.20400 25.49900
H  -2.80900 30.77700 30.42300
H  -6.71100 31.04500 32.48200
H  -5.39300 31.51700 33.56900
H  -5.71500 29.82800 33.27700

