158

Mg 7.54200 3.04500 26.96600
C  8.68300 1.53800 29.83400
C  5.44000 4.86800 28.92900
C  6.58900 4.67100 24.21300
C  9.03900 0.53500 25.09300
N  7.12800 3.23200 29.19000
C  7.81100 2.59100 30.12700
C  7.45100 3.01900 31.48600
C  6.19000 3.95200 31.18400
C  6.22900 4.04700 29.65100
C  4.86400 3.36600 31.81100
C  8.53400 3.69800 32.24500
C  8.40400 3.78300 33.74400
H  9.65500 3.93500 34.68500
N  6.19100 4.52700 26.62200
C  5.45200 5.25600 27.55900
C  4.73400 6.26000 26.92100
C  5.05700 6.24600 25.52500
C  6.05500 5.16600 25.39600
C  3.95400 7.28900 27.65100
C  4.57600 7.15300 24.34300
O  4.92200 7.05500 23.17300
C  3.68600 8.28200 24.64700
N  7.73400 2.56300 24.92900
C  7.39700 3.48700 24.00900
C  7.60200 2.89600 22.58300
C  8.27600 1.46000 22.83500
C  8.38000 1.44800 24.35900
C  6.25000 3.05200 21.74100
C  9.51000 1.16400 21.92300
C  9.27100 -0.17100 21.17300
N  8.56100 1.38300 27.33900
C  9.15500 0.48900 26.49600
C  10.03600 -0.38800 27.26800
C  9.75800 -0.07100 28.61500
C  8.92000 0.97500 28.57600
C  10.92500 -1.41800 26.75500
C  10.17800 -0.35700 29.95400
O  10.89500 -1.24000 30.38600
C  9.59200 0.71900 30.79100
C  8.84700 0.10900 31.98500
O  7.78000 -0.47000 31.92500
O  9.66100 0.12300 33.09100
C  9.10700 -0.49500 34.37200
H  4.72100 5.41500 29.54300
H  6.28300 5.09900 23.25600
H  9.54700 -0.22400 24.49300
H  7.07600 2.24700 32.15800
H  6.27800 4.95900 31.59300
H  4.01900 3.48400 31.13200
H  4.79700 3.95200 32.72800
H  4.81100 2.28600 31.94400
H  8.56100 4.75000 31.96000
H  9.56000 3.50200 31.93600
H  7.99600 2.81000 34.01700
H  7.68600 4.56600 33.98700
H  3.51400 7.04400 28.61800
H  3.08800 7.44300 27.00700
H  4.34800 8.30500 27.66100
H  3.44700 8.76700 23.70000
H  4.17900 8.95500 25.34800
H  2.69500 7.93600 24.94100
H  8.27000 3.50200 21.97100
H  7.48200 0.78100 22.52500
H  5.34500 3.26100 22.31200
H  6.13400 2.02800 21.38700
H  6.43700 3.79400 20.96500
H  10.47500 1.05500 22.41800
H  9.52100 1.86900 21.09100
H  9.22000 -0.04000 20.09200
H  8.40800 -0.74000 21.52000
H  10.12900 -0.83300 21.29600
H  11.34500 -1.14400 25.78800
H  10.48900 -2.40800 26.61500
H  11.80700 -1.30400 27.38500
H  10.37800 1.28200 31.29400
H  8.43400 0.13400 34.95500
H  9.90700 -0.76500 35.06100
H  8.65800 -1.43400 34.04800
Mg 24.80500 1.32300 29.72900
C  27.16500 1.32000 32.33400
C  22.33700 1.44200 32.10200
C  22.60200 1.55600 27.27500
C  27.35100 0.72900 27.50900
N  24.79300 1.45800 31.97800
C  25.85100 1.39800 32.83600
C  25.38200 1.74200 34.27900
C  23.84000 1.51600 34.16000
C  23.63500 1.48200 32.65800
C  23.31300 0.23400 34.79500
C  25.72200 3.16800 34.74300
C  26.29000 3.36800 36.19600
H  25.49100 2.68500 37.31200
N  22.69400 1.33300 29.69400
C  21.86100 1.47800 30.75100
C  20.50600 1.66500 30.28000
C  20.60300 1.68200 28.84000
C  22.00100 1.56700 28.54400
C  19.37800 1.88700 31.25500
C  19.45200 1.72100 27.89100
O  19.57600 1.49800 26.71200
C  18.05800 1.76800 28.42700
N  24.87000 0.68900 27.66600
C  23.85400 1.10700 26.87300
C  24.34000 1.31400 25.37300
C  25.93100 1.03000 25.43500
C  26.08000 0.77800 26.95100
C  23.50700 0.57500 24.23000
C  26.88900 2.06700 24.78800
C  27.20400 3.39900 25.60700
N  26.85100 0.99600 29.88700
C  27.73600 0.71800 28.88300
C  29.04500 0.60200 29.41100
C  28.91400 0.88300 30.76200
C  27.55400 1.11800 30.97500
C  30.20000 0.19900 28.60900
C  29.60500 0.98500 32.00100
O  30.78900 0.78600 32.29500
C  28.47000 1.23800 33.09000
C  28.54200 0.27300 34.16500
O  28.14700 -0.87000 34.12800
O  29.19300 0.75800 35.26400
C  29.51200 -0.09900 36.41200
H  21.57200 1.59300 32.86600
H  21.94600 1.88800 26.46700
H  28.18800 0.60700 26.81800
H  25.94900 1.06700 34.92000
H  23.28700 2.36300 34.56800
H  23.94400 -0.07300 35.62900
H  23.19900 -0.57900 34.07800
H  22.30900 0.50800 35.11800
H  24.95500 3.89800 34.48600
H  26.62300 3.43900 34.19400
H  26.40800 4.43000 36.40900
H  27.32800 3.06400 36.33500
H  19.69200 1.90800 32.29900
H  18.62800 1.10200 31.16600
H  18.93100 2.85600 31.03200
H  17.75000 2.75300 28.77700
H  17.83000 0.95600 29.11700
H  17.59500 1.44300 27.49500
H  24.30400 2.37600 25.13000
H  26.11600 0.02300 25.06200
H  24.17900 -0.11500 23.71900
H  23.00800 1.28700 23.57300
H  22.79300 -0.13900 24.64000
H  26.43000 2.33800 23.83700
H  27.77000 1.47600 24.53400
H  26.92600 4.30100 25.06200
H  28.28700 3.31500 25.69200
H  26.76100 3.58700 26.58500
H  31.15500 0.22400 29.13400
H  30.33500 1.03400 27.92100
H  30.20100 -0.75800 28.08800
H  28.77700 2.16300 33.57800
H  30.56700 0.01800 36.65900
H  29.11300 -1.11300 36.43200
H  29.04400 0.43400 37.23900

