158

Mg 16.68400 -2.70900 28.15600
C  15.37300 -0.29000 30.38600
C  18.65900 -4.10000 30.59500
C  18.26800 -4.57800 25.71600
C  15.37600 -0.65400 25.57100
N  16.93300 -2.25400 30.25200
C  16.29600 -1.22600 31.00000
C  16.80800 -1.25100 32.42200
C  17.86500 -2.38600 32.42400
C  17.87200 -2.95700 30.97300
C  19.19100 -1.85400 32.92200
C  15.65700 -1.42100 33.52100
C  15.46800 -0.49900 34.71200
H  16.83900 0.11300 35.26100
N  18.02600 -4.16800 28.18600
C  18.62100 -4.72500 29.32400
C  19.41700 -5.91800 28.94100
C  19.36900 -6.05600 27.50100
C  18.51700 -4.90800 27.06100
C  20.25900 -6.66200 29.93500
C  20.06700 -7.04500 26.54800
O  19.84800 -7.11000 25.34500
C  21.07100 -8.10900 27.18000
N  16.76800 -2.62800 25.93400
C  17.46700 -3.53600 25.18400
C  17.43300 -3.20000 23.70100
C  16.38200 -2.09600 23.61900
C  16.13800 -1.77100 25.13700
C  18.76600 -2.90900 23.09500
C  15.06000 -2.42700 22.91900
C  14.17600 -1.39600 22.37800
N  15.46200 -0.91900 27.99500
C  14.97000 -0.20900 26.89600
C  14.09900 0.89100 27.26600
C  14.16900 0.84500 28.66700
C  15.02900 -0.23600 29.04400
C  13.50200 1.84700 26.28300
C  13.79800 1.51300 29.87800
O  13.02200 2.47500 29.98300
C  14.50000 0.76100 30.99100
C  15.21100 1.89200 31.70600
O  16.34400 2.36100 31.48600
O  14.47600 2.36900 32.67900
C  15.00900 3.36800 33.57200
H  19.28600 -4.70300 31.25500
H  18.79700 -5.12700 24.93500
H  15.01000 0.00900 24.78400
H  17.30800 -0.29500 32.57700
H  17.42700 -3.10900 33.11100
H  19.29200 -0.77400 32.81700
H  19.93300 -2.35000 32.29700
H  19.32300 -2.07900 33.98000
H  15.56600 -2.45400 33.86000
H  14.75400 -1.19500 32.95400
H  14.91100 -1.20400 35.33000
H  14.84200 0.35700 34.46100
H  20.31300 -7.74100 29.79100
H  19.76200 -6.55800 30.89900
H  21.19200 -6.10000 29.98000
H  21.64200 -7.61400 27.96500
H  21.74600 -8.47800 26.40700
H  20.60500 -9.01500 27.56600
H  16.97700 -4.09400 23.27500
H  16.74500 -1.17300 23.16700
H  19.44600 -2.68600 23.91600
H  18.62700 -1.97900 22.54300
H  19.04900 -3.78700 22.51400
H  14.42000 -3.06400 23.53100
H  15.32900 -2.98100 22.02000
H  14.20700 -1.40000 21.28800
H  14.45900 -0.37500 22.63500
H  13.19400 -1.72600 22.71700
H  12.92700 1.33700 25.51000
H  14.27800 2.52200 25.92100
H  12.80800 2.56300 26.72400
H  13.83000 0.23300 31.67000
H  15.50100 2.97700 34.46300
H  14.12300 3.91500 33.89400
H  15.56500 4.09200 32.97500
Mg 6.41400 53.86600 40.86500
C  5.95400 50.47500 40.88200
C  9.54200 53.47400 39.61600
C  6.63100 57.42000 40.56700
C  3.04500 54.32500 41.76500
N  7.48100 52.06800 39.93400
C  7.18000 50.76900 40.22500
C  8.31700 49.79600 39.79000
C  9.57200 50.80600 39.75600
C  8.84800 52.22700 39.84800
C  10.71400 50.61400 40.81600
C  8.11700 49.08000 38.46400
C  7.51600 49.87200 37.30800
H  6.77600 49.08400 36.10300
N  7.83900 55.21300 40.18700
C  9.07100 54.83700 39.76200
C  9.92000 55.99400 39.58000
C  9.12900 57.12500 39.98300
C  7.79000 56.58500 40.27400
C  11.31900 55.91600 39.13400
C  9.66500 58.57000 39.99400
O  10.80000 58.80500 39.63600
C  8.90600 59.76000 40.48000
N  5.04700 55.69800 41.18800
C  5.34800 57.00400 40.94700
C  4.11800 57.92200 41.05600
C  2.99000 56.86000 41.28500
C  3.71600 55.55300 41.56600
C  4.27500 59.12600 42.11600
C  2.00600 56.83400 40.05000
C  1.27800 58.20000 39.73100
N  4.87200 52.70800 41.33100
C  3.57800 53.01100 41.74900
C  2.88700 51.80700 42.07100
C  3.85400 50.79600 41.85300
C  5.03300 51.34700 41.35700
C  1.50200 51.60900 42.69400
C  4.07600 49.36400 41.95500
O  3.38700 48.48400 42.41500
C  5.42600 49.15500 41.23300
C  5.12500 48.22000 40.09400
O  4.62200 48.63200 39.05500
O  5.30100 46.88100 40.48200
C  4.98700 46.07800 39.33200
H  10.62300 53.34400 39.53500
H  6.67400 58.47700 40.30000
H  2.01300 54.39800 42.11300
H  8.30600 49.07100 40.60400
H  10.14200 50.62800 38.84400
H  11.62000 50.33700 40.27800
H  10.30100 49.82000 41.43800
H  11.02200 51.42300 41.47900
H  7.37500 48.31700 38.69700
H  9.12000 48.79400 38.14500
H  8.27200 50.49100 36.82500
H  6.74500 50.50700 37.74400
H  11.30300 56.49300 38.21000
H  11.79300 54.97300 38.86400
H  11.97600 56.51600 39.76500
H  8.42700 59.49800 41.42400
H  8.22500 59.81800 39.63100
H  9.56800 60.61400 40.62400
H  3.97700 58.40400 40.08900
H  2.48600 57.18100 42.19600
H  5.25700 59.59700 42.07300
H  4.13900 58.71600 43.11700
H  3.64400 59.98800 41.90000
H  1.18400 56.17300 40.32100
H  2.57200 56.40300 39.22400
H  1.46200 58.43200 38.68200
H  1.53700 59.04200 40.37300
H  0.21100 58.04300 39.88200
H  0.97300 52.55600 42.78900
H  1.56500 51.15600 43.68400
H  0.92100 50.93400 42.06500
H  6.00400 48.61200 41.98000
H  5.50700 46.43100 38.44100
H  3.90700 45.94900 39.25800
H  5.50100 45.14700 39.57200

