158

Mg -2.38000 16.99700 27.56400
C  -2.76200 14.96400 30.34300
C  -2.85300 19.76200 29.60600
C  -2.53800 19.03900 24.69900
C  -2.71500 14.24800 25.41700
N  -2.96600 17.30500 29.76900
C  -2.84200 16.33500 30.74100
C  -2.88000 16.98700 32.14900
C  -3.15600 18.44600 31.88600
C  -2.97900 18.56800 30.36400
C  -4.49300 19.02400 32.33000
C  -1.61400 16.65200 32.99600
C  -1.21100 17.61200 34.16700
H  -0.83400 16.78400 35.47200
N  -2.47900 19.13200 27.23400
C  -2.67400 20.05300 28.19100
C  -2.69700 21.37700 27.54300
C  -2.33400 21.16000 26.16100
C  -2.44900 19.69900 25.96000
C  -3.01500 22.58000 28.37900
C  -2.11400 22.14000 25.02100
O  -2.01300 21.85500 23.86700
C  -1.99100 23.60000 25.45200
N  -2.59200 16.65700 25.37500
C  -2.65100 17.61700 24.39800
C  -2.77900 17.00000 23.01000
C  -2.62100 15.47100 23.23100
C  -2.62600 15.45500 24.72400
C  -4.03500 17.44200 22.26100
C  -1.41900 14.99900 22.40300
C  -0.09400 14.68900 23.17900
N  -2.67400 15.01000 27.79300
C  -2.70400 13.97500 26.90500
C  -2.80700 12.69600 27.50400
C  -2.63000 13.03400 28.81900
C  -2.66300 14.44500 28.99400
C  -3.03000 11.38600 26.95400
C  -2.59300 12.47800 30.16400
O  -2.54800 11.30400 30.56000
C  -2.66200 13.67900 31.24500
C  -1.68000 13.51000 32.23600
O  -0.51600 13.82300 32.14500
O  -2.23700 13.05900 33.46500
C  -1.39400 12.88700 34.67700
H  -2.98200 20.58700 30.30900
H  -2.48100 19.64100 23.79000
H  -2.72500 13.35900 24.78200
H  -3.68600 16.64200 32.79700
H  -2.48200 19.14800 32.37700
H  -5.23400 18.32300 32.71400
H  -4.98700 19.58400 31.53500
H  -4.39300 19.73100 33.15300
H  -0.71100 16.47900 32.41000
H  -1.78100 15.70700 33.51300
H  -2.12800 18.08100 34.52300
H  -0.42600 18.34600 33.98400
H  -2.14700 23.22300 28.53000
H  -3.45600 22.32100 29.34200
H  -3.77200 23.08900 27.78300
H  -2.05100 24.13200 24.50300
H  -1.19500 23.85800 26.15100
H  -2.94300 23.79800 25.94500
H  -1.91000 17.35300 22.45500
H  -3.53900 14.95400 22.95100
H  -4.74800 17.90100 22.94600
H  -4.39000 16.59900 21.66800
H  -3.88500 18.19200 21.48400
H  -1.12600 15.59500 21.53900
H  -1.74900 14.03300 22.02200
H  -0.11500 14.95600 24.23500
H  0.64100 15.27500 22.62700
H  0.24100 13.65600 23.08100
H  -2.36400 10.66600 27.43000
H  -2.88900 11.27800 25.87800
H  -4.02400 11.10300 27.30100
H  -3.57500 13.71700 31.83900
H  -1.79700 13.47500 35.50200
H  -0.33600 13.13900 34.59500
H  -1.41900 11.82700 34.92900
Mg 16.33800 -1.05900 27.40800
C  15.42200 1.04800 29.92400
C  18.22600 -2.89300 29.60600
C  17.43300 -2.91900 24.89600
C  14.76600 1.10500 25.15300
N  16.93000 -0.81600 29.49400
C  16.23200 -0.00900 30.31300
C  16.60100 -0.33000 31.76700
C  17.71800 -1.45800 31.63000
C  17.70000 -1.70500 30.12400
C  19.10000 -1.14000 32.20800
C  15.40900 -0.63500 32.77700
C  15.40900 -0.03600 34.19200
H  16.82500 0.31900 34.80300
N  17.75200 -2.70400 27.29100
C  18.28200 -3.41100 28.30300
C  18.99300 -4.56300 27.76700
C  18.79700 -4.51500 26.38000
C  17.97100 -3.34900 26.13700
C  19.73600 -5.51200 28.65000
C  19.48100 -5.38700 25.32400
O  19.25600 -5.25600 24.14400
C  20.52400 -6.35100 25.78900
N  15.97100 -1.05900 25.31000
C  16.68300 -1.83900 24.45200
C  16.53900 -1.51100 22.97400
C  15.66000 -0.23900 23.06000
C  15.35700 -0.03000 24.58500
C  17.93000 -1.16700 22.34000
C  14.31700 -0.44200 22.28000
C  14.15600 0.71800 21.26600
N  15.04100 0.53700 27.47400
C  14.55000 1.38300 26.49200
C  14.02100 2.58000 27.12100
C  14.25600 2.41400 28.44800
C  14.95000 1.23500 28.65300
C  13.30400 3.67800 26.41200
C  14.13500 3.05100 29.71200
O  13.61500 4.07000 29.98900
C  14.74100 2.12700 30.80300
C  15.59700 2.87800 31.68400
O  16.80700 3.17800 31.54500
O  14.92800 3.22000 32.82900
C  15.56000 3.84000 34.02600
H  18.89100 -3.34500 30.34500
H  17.86000 -3.45400 24.04500
H  14.40300 1.83000 24.42200
H  17.21600 0.50000 32.11400
H  17.31000 -2.37200 32.06100
H  19.86800 -1.06400 31.43800
H  19.49200 -1.88700 32.89800
H  19.02000 -0.24700 32.82800
H  15.35300 -1.69200 33.03700
H  14.51000 -0.35100 32.22900
H  14.99600 -0.77500 34.87900
H  14.83100 0.88800 34.16500
H  20.75300 -5.16200 28.82700
H  19.71400 -6.55000 28.31800
H  19.36400 -5.41800 29.67000
H  21.11900 -6.69200 24.94200
H  20.04000 -7.24500 26.18400
H  21.10600 -5.75600 26.49300
H  16.08300 -2.34600 22.44200
H  16.25700 0.59200 22.68400
H  18.82300 -1.62900 22.76200
H  18.16300 -0.11600 22.51100
H  17.89900 -1.41900 21.28000
H  13.48400 -0.48100 22.98200
H  14.35400 -1.41800 21.79600
H  14.98700 0.97300 20.60900
H  13.78900 1.59800 21.79400
H  13.35000 0.45100 20.58200
H  12.30700 3.36200 26.10500
H  13.80700 4.09600 25.54000
H  13.22500 4.50900 27.11300
H  13.87200 1.71700 31.31800
H  15.41500 3.25400 34.93400
H  15.02400 4.73100 34.35100
H  16.62500 4.04700 33.92300

