158

Mg 53.09000 25.02100 43.28100
C  50.77600 27.52600 42.71300
C  50.88700 22.68100 41.99800
C  55.64300 22.74600 42.81300
C  55.54200 27.43600 44.09500
N  51.09800 25.10300 42.45900
C  50.24700 26.20500 42.43700
C  48.87600 25.89800 41.93000
C  48.85900 24.25000 41.91000
C  50.33500 23.97800 42.21200
C  47.97100 23.65700 43.11900
C  48.45800 26.38000 40.48100
C  49.54700 26.29300 39.36400
H  49.33700 25.55200 38.08400
N  53.23200 22.95800 42.59000
C  52.19900 22.13500 42.27500
C  52.64300 20.82800 41.95200
C  54.01200 20.81700 42.05300
C  54.35100 22.21000 42.58800
C  51.72500 19.66900 41.52600
C  54.94800 19.65400 41.88200
O  54.54200 18.58700 41.49200
C  56.46400 19.73200 42.14800
N  55.23700 25.15600 43.49600
C  56.06600 24.03200 43.23500
C  57.64000 24.41200 43.55200
C  57.43500 25.86900 44.10800
C  55.96200 26.21800 43.83300
C  58.37300 23.43900 44.53100
C  58.54100 26.78200 43.50400
C  59.39700 27.55500 44.60000
N  53.16600 27.07100 43.45600
C  54.20000 27.92100 43.83200
C  53.58700 29.19800 44.14300
C  52.33900 29.10300 43.56200
C  52.08000 27.79100 43.25400
C  54.29300 30.43900 44.65900
C  51.05400 29.78400 43.37100
O  50.73200 30.93800 43.56800
C  50.04500 28.76700 42.76300
C  49.57500 29.38500 41.44800
O  50.31000 29.55100 40.41300
O  48.20400 29.66400 41.51800
C  47.56300 30.16000 40.33300
H  50.10100 21.99700 41.67200
H  56.52900 22.11400 42.71800
H  56.27700 28.11800 44.52800
H  48.20700 26.21100 42.73100
H  48.47000 23.79800 40.99800
H  47.62700 24.48600 43.73700
H  48.55600 22.93000 43.68300
H  47.12400 23.15300 42.65500
H  48.05900 27.39400 40.44400
H  47.59300 25.78100 40.19600
H  50.40500 25.78800 39.80800
H  49.87200 27.25400 38.96600
H  52.00500 19.27400 40.54900
H  50.71500 20.01000 41.29800
H  51.70900 18.79400 42.17600
H  56.95500 18.79900 41.87400
H  56.61600 20.12700 43.15200
H  56.79600 20.49600 41.44400
H  58.18700 24.33900 42.61200
H  57.58600 25.95700 45.18400
H  57.78000 22.54300 44.71800
H  58.50600 23.97300 45.47200
H  59.33600 23.18400 44.09000
H  58.07800 27.54000 42.87100
H  59.20400 26.24600 42.82500
H  59.08600 28.59900 44.55000
H  60.46900 27.41600 44.46000
H  59.17400 27.37700 45.65200
H  55.08600 30.69800 43.95800
H  54.74000 30.18100 45.62000
H  53.55100 31.23100 44.75300
H  49.15000 28.65200 43.37400
H  47.52900 29.41200 39.54000
H  48.16100 31.01900 40.02800
H  46.56500 30.52100 40.58300
Mg 26.98500 49.39100 25.26500
C  24.81000 50.50600 28.05100
C  29.08100 48.28500 27.73600
C  28.94800 48.63300 22.77200
C  24.68200 50.90900 23.07600
N  26.80200 49.35000 27.70300
C  25.94600 49.86500 28.56800
C  26.27500 49.55400 29.95600
C  27.83800 49.12500 29.89400
C  27.92500 48.85400 28.34800
C  28.88800 50.05300 30.49300
C  25.42200 48.39600 30.60700
C  24.85500 48.64100 31.97400
H  25.88000 49.20500 32.99700
N  28.73600 48.57800 25.28100
C  29.44900 48.05700 26.36000
C  30.74800 47.55800 25.86000
C  30.79100 47.79200 24.45000
C  29.46500 48.40200 24.07900
C  31.71200 46.95400 26.82700
C  32.05300 47.63800 23.59500
O  32.17300 48.21300 22.52400
C  33.26000 46.93000 24.11100
N  26.81900 49.65100 23.20900
C  27.76300 49.18800 22.31900
C  27.25500 49.27400 20.90800
C  25.93300 50.03100 21.00900
C  25.77600 50.23100 22.50800
C  28.21700 49.71100 19.83800
C  24.76500 49.29100 20.33500
C  23.96400 50.07600 19.31600
N  25.12300 50.45200 25.51100
C  24.29200 50.95300 24.50600
C  23.20400 51.68900 25.10900
C  23.37100 51.55500 26.46600
C  24.54800 50.78000 26.69700
C  22.16400 52.46700 24.34500
C  22.79100 51.92000 27.74600
O  21.81700 52.52900 28.04200
C  23.71000 51.17900 28.83800
C  24.12900 52.15500 29.86600
O  24.97600 53.00100 29.79100
O  23.43100 51.92100 31.04100
C  23.95800 52.71900 32.11400
H  29.80300 47.98800 28.50000
H  29.53200 48.25400 21.93000
H  23.90500 51.32900 22.43500
H  26.16000 50.43600 30.58500
H  27.93900 48.24400 30.52800
H  29.43500 49.37500 31.14900
H  28.39300 50.89500 30.97700
H  29.60100 50.38500 29.73800
H  25.99800 47.48400 30.76100
H  24.62500 48.11200 29.91900
H  24.44800 47.71600 32.38200
H  24.03400 49.35700 31.93400
H  31.33900 46.60300 27.79000
H  32.48200 47.71300 26.96100
H  32.21400 46.11200 26.35200
H  33.16900 45.86300 24.31500
H  33.55000 47.30900 25.09200
H  34.12600 47.02600 23.45600
H  26.97300 48.25700 20.63600
H  25.99300 51.01200 20.53700
H  28.57000 48.77900 19.39700
H  29.09000 50.16000 20.31300
H  27.78700 50.32400 19.04600
H  24.17800 48.91300 21.17200
H  25.17100 48.37700 19.90100
H  22.91600 49.78200 19.24900
H  24.30400 49.76900 18.32700
H  24.00900 51.16100 19.41700
H  21.16800 52.19100 24.69300
H  22.29500 52.28400 23.27800
H  22.44400 53.43600 24.75900
H  23.09100 50.46900 29.38700
H  23.57100 52.26700 33.02800
H  23.62600 53.75800 32.10100
H  25.04700 52.77100 32.11200

