158

Mg 52.54100 23.72000 44.95200
C  49.60500 25.61000 44.48900
C  50.76600 20.84600 44.44400
C  55.43800 22.15500 44.38000
C  54.30200 26.68800 45.24200
N  50.39300 23.31900 44.24600
C  49.34400 24.19800 44.46700
C  48.07800 23.36400 44.56500
C  48.48800 21.84700 44.79800
C  50.02500 21.99700 44.46200
C  48.26100 21.44900 46.34300
C  47.18300 23.49400 43.28700
C  47.75000 22.82500 42.00100
H  47.57800 23.63000 40.72600
N  53.03200 21.83600 44.44800
C  52.14800 20.73300 44.33600
C  52.96800 19.51400 44.09300
C  54.33200 19.87700 44.00400
C  54.30300 21.34700 44.32900
C  52.26600 18.15500 44.02500
C  55.47700 18.81400 43.78200
O  55.25400 17.67900 43.48300
C  56.85700 19.24400 43.91700
N  54.62500 24.35600 44.65600
C  55.62600 23.50200 44.59000
C  57.05000 24.20600 44.56700
C  56.66800 25.72800 44.83700
C  55.10700 25.59400 44.98700
C  58.07400 23.66100 45.58800
C  57.11100 26.82300 43.78000
C  58.42500 26.73100 43.12600
N  52.09800 25.78500 44.91000
C  52.93400 26.84100 45.13400
C  52.06600 28.08600 45.17100
C  50.75700 27.63300 44.98900
C  50.84900 26.23900 44.67000
C  52.51500 29.49900 45.48000
C  49.33900 27.96500 44.94700
O  48.85700 29.07700 45.03800
C  48.53800 26.71600 44.57900
C  48.02000 27.08300 43.23400
O  48.63500 27.05900 42.19200
O  46.65800 27.25200 43.27500
C  45.94100 27.49300 42.01100
H  50.25000 19.92000 44.70300
H  56.27300 21.48500 44.16600
H  54.83900 27.63500 45.33600
H  47.43600 23.76300 45.35100
H  48.14300 21.07100 44.11500
H  48.25700 20.36000 46.37200
H  47.33500 21.91200 46.68600
H  49.08200 21.77000 46.98400
H  47.10100 24.54600 43.01000
H  46.12400 23.28400 43.43900
H  47.15700 21.94200 41.76400
H  48.78100 22.47300 42.04400
H  51.52300 18.20500 43.22900
H  51.75500 17.93600 44.96300
H  52.90700 17.29500 43.83100
H  57.50400 18.37500 43.80000
H  56.90600 19.71400 44.89900
H  57.09000 20.00500 43.17300
H  57.53300 24.08200 43.59800
H  57.01200 26.16400 45.77500
H  59.06400 23.90500 45.20200
H  58.01000 22.57300 45.62200
H  57.87400 24.13000 46.55100
H  57.20000 27.80000 44.25400
H  56.28100 26.86100 43.07400
H  59.15600 26.01000 43.49300
H  58.87400 27.72100 43.04300
H  58.31400 26.49900 42.06700
H  53.14900 29.71700 46.33900
H  51.72400 30.23900 45.59700
H  53.10000 29.81300 44.61500
H  47.72800 26.54200 45.28600
H  45.58400 28.52200 41.97800
H  45.10400 26.79400 42.03400
H  46.51800 27.38000 41.09300
Mg 46.48800 35.24600 28.79000
C  45.00300 33.46400 31.11300
C  46.66600 37.92800 31.15000
C  48.10200 37.16200 26.48300
C  46.11100 32.75000 26.42800
N  46.00100 35.63100 30.91900
C  45.43700 34.65200 31.65600
C  45.55200 35.03900 33.11100
C  45.58200 36.60100 33.06000
C  46.15700 36.76200 31.64000
C  44.13000 37.17400 33.29100
C  46.91500 34.43800 33.65300
C  46.86700 34.09200 35.13300
H  45.89900 34.70300 36.09100
N  47.09200 37.23300 28.73900
C  47.07700 38.11600 29.79300
C  47.58700 39.41400 29.29600
C  48.03700 39.21600 27.97600
C  47.74300 37.77700 27.61900
C  47.54300 40.56700 30.20700
C  48.55900 40.24000 26.98600
O  48.94900 39.92300 25.85800
C  48.75700 41.58400 27.40400
N  46.99100 34.95700 26.68500
C  47.73200 35.89900 25.98700
C  48.22300 35.29500 24.64900
C  47.57100 33.89000 24.67000
C  46.81600 33.86100 25.98000
C  47.78800 36.20900 23.54200
C  48.56600 32.67000 24.42400
C  48.26200 31.79300 23.14800
N  45.83200 33.48700 28.74500
C  45.58900 32.54700 27.72300
C  45.09000 31.27400 28.30500
C  44.79800 31.62100 29.64900
C  45.25800 32.95200 29.82400
C  44.86400 29.91600 27.56700
C  44.23900 31.17100 30.85700
O  43.83200 30.06200 31.13100
C  44.27200 32.33000 31.85400
C  44.98100 31.76000 32.97500
O  46.14900 31.41400 33.01800
O  44.12800 31.73000 33.97200
C  44.59100 30.80700 35.01300
H  46.69500 38.74500 31.87400
H  48.76200 37.69800 25.79800
H  45.85500 31.88800 25.80900
H  44.67900 34.64000 33.62800
H  46.29600 36.97400 33.79500
H  43.93500 37.20600 34.36300
H  43.43900 36.55600 32.71800
H  44.11100 38.22100 32.99000
H  47.65800 35.22500 33.52600
H  47.30800 33.64100 33.02100
H  47.84300 34.42900 35.48200
H  46.72100 33.01200 35.11400
H  47.75800 41.53000 29.74500
H  48.19700 40.34000 31.04900
H  46.49500 40.53200 30.50400
H  49.30100 42.12500 26.63000
H  49.38100 41.40100 28.27800
H  47.78800 42.03400 27.62400
H  49.31300 35.29500 24.61000
H  46.77200 33.96200 23.93100
H  47.01700 36.90600 23.87200
H  47.37500 35.57800 22.75500
H  48.54200 36.70200 22.92900
H  48.47400 32.07600 25.33200
H  49.62800 32.91700 24.40700
H  48.12400 30.76100 23.47100
H  49.04100 31.83500 22.38700
H  47.39500 32.15200 22.59400
H  44.95500 29.04700 28.21700
H  45.54900 29.92400 26.71900
H  43.86200 29.92200 27.13800
H  43.24000 32.64600 32.00600
H  44.98700 29.89400 34.56900
H  43.67400 30.61000 35.56900
H  45.29700 31.26200 35.70700

