158

Mg -0.79000 7.65900 25.87800
C  0.14300 9.32000 28.92600
C  -0.89900 4.76900 27.87100
C  -1.39000 5.87800 22.98800
C  0.18100 10.44100 24.09700
N  -0.46300 7.12800 28.15900
C  -0.13100 7.99000 29.14000
C  -0.05800 7.27600 30.48200
C  -0.33400 5.77400 30.17600
C  -0.59000 5.87600 28.63600
C  0.78800 4.77900 30.61900
C  -1.09800 7.92800 31.59800
C  -0.64800 8.10000 33.00400
H  0.76200 7.59400 33.46900
N  -1.17300 5.64100 25.48000
C  -1.22100 4.63100 26.48000
C  -1.49200 3.41500 25.81100
C  -1.71400 3.70300 24.45700
C  -1.42000 5.16300 24.20000
C  -1.69100 2.10100 26.62200
C  -2.19100 2.78000 23.29900
O  -2.56900 3.17600 22.19700
C  -2.35300 1.27900 23.58200
N  -0.56300 7.99200 23.89400
C  -0.98600 7.19600 22.86500
C  -0.98500 7.87200 21.49200
C  -0.45000 9.30400 21.86900
C  -0.15000 9.26400 23.37100
C  -0.02300 7.25900 20.38600
C  -1.53200 10.36500 21.50400
C  -2.91900 10.16400 22.19800
N  0.05500 9.57600 26.35300
C  0.35200 10.59500 25.46000
C  0.69500 11.78200 26.27200
C  0.74400 11.30100 27.54100
C  0.27400 9.95300 27.61700
C  1.11200 13.15000 25.73300
C  1.01800 11.69700 28.85700
O  1.39600 12.76500 29.31500
C  0.71500 10.45400 29.76500
C  1.97200 10.10900 30.49700
O  2.84600 9.36300 30.12900
O  2.06500 10.81300 31.67700
C  3.36000 10.63100 32.41300
H  -0.82000 3.80900 28.38500
H  -1.52100 5.47800 21.98000
H  0.22800 11.28000 23.40000
H  0.96600 7.41600 30.82900
H  -1.29800 5.35000 30.45500
H  1.52000 5.20800 31.30400
H  1.28400 4.44800 29.70700
H  0.23700 3.99800 31.14400
H  -1.99900 7.31600 31.55500
H  -1.34600 8.93500 31.26200
H  -1.29000 7.48900 33.64000
H  -0.82000 9.10300 33.39400
H  -0.86100 1.40000 26.70600
H  -2.55500 1.55700 26.23900
H  -1.95000 2.43200 27.62800
H  -2.63000 0.82600 22.63000
H  -3.17600 1.11500 24.27700
H  -1.41300 0.85700 23.93800
H  -2.00800 7.79900 21.12400
H  0.49200 9.48200 21.35000
H  0.16000 8.03800 19.64500
H  -0.53600 6.49800 19.79800
H  0.95000 6.97000 20.78400
H  -1.61200 10.20900 20.42800
H  -1.23000 11.41200 21.53200
H  -3.41100 11.12000 22.01400
H  -2.66600 10.12600 23.25700
H  -3.32000 9.23200 21.80000
H  0.31100 13.42500 25.04600
H  2.06300 13.13200 25.20000
H  1.13000 13.88800 26.53500
H  0.04100 10.77800 30.55800
H  4.22700 10.14300 31.96900
H  3.19500 10.13600 33.37100
H  3.58900 11.67200 32.64300
Mg 1.18600 41.85300 25.29300
C  1.86500 42.11900 28.70400
C  -1.74900 40.31000 26.16400
C  0.77100 41.00200 22.03600
C  4.52500 42.59200 24.64700
N  0.16500 41.26000 27.21900
C  0.61900 41.59700 28.46700
C  -0.52800 41.47500 29.46300
C  -1.55700 40.63500 28.68600
C  -1.04100 40.72800 27.28500
C  -1.67300 39.14000 29.11000
C  -0.96800 42.88100 29.96700
C  -2.40400 42.81700 30.53400
H  -2.70000 41.81100 31.52800
N  -0.40700 40.92100 24.19200
C  -1.51900 40.34900 24.76500
C  -2.36100 39.94900 23.62100
C  -1.57500 40.04100 22.41900
C  -0.35500 40.67400 22.85100
C  -3.74400 39.36500 23.90000
C  -1.96500 39.66800 21.00600
O  -1.23500 39.86300 20.05900
C  -3.26400 39.08600 20.71800
N  2.45700 41.77700 23.65000
C  2.02700 41.40600 22.41700
C  3.12300 41.67700 21.28500
C  4.25300 42.35400 22.15100
C  3.70000 42.18600 23.59600
C  3.68400 40.41500 20.57500
C  4.50600 43.84100 21.64200
C  3.53300 44.88300 22.14800
N  2.86700 42.43500 26.41300
C  4.15800 42.70600 25.98900
C  4.92800 43.11100 27.18000
C  4.05000 42.90300 28.28000
C  2.85200 42.40300 27.72700
C  6.40600 43.47900 27.24600
C  3.89700 42.96300 29.76800
O  4.67500 43.26900 30.70600
C  2.46900 42.45200 30.06100
C  2.62400 41.30800 30.94400
O  3.34200 40.31700 30.66300
O  1.89800 41.42000 32.08600
C  1.82800 40.17100 32.86400
H  -2.71700 39.85800 26.38500
H  0.80000 40.76400 20.97100
H  5.55800 42.78700 24.35000
H  -0.30300 40.91000 30.36800
H  -2.57800 41.01600 28.69000
H  -0.77300 38.59100 28.83200
H  -2.54700 38.83800 28.53200
H  -1.90000 39.11500 30.17500
H  -0.92500 43.71700 29.26900
H  -0.44500 43.10700 30.89600
H  -3.16300 42.68200 29.76300
H  -2.58700 43.77100 31.02800
H  -4.56200 39.78200 23.31300
H  -4.02500 39.63000 24.91900
H  -3.70900 38.28000 23.80100
H  -3.50300 38.19500 21.29800
H  -3.35100 38.81400 19.66600
H  -4.00900 39.83400 20.98900
H  2.77800 42.42000 20.56700
H  5.17600 41.78000 22.06600
H  4.76000 40.49100 20.42000
H  3.22100 40.23800 19.60400
H  3.42400 39.57200 21.21500
H  4.50600 43.79600 20.55300
H  5.51900 44.03600 21.99400
H  2.76400 44.43500 22.77700
H  3.09400 45.29200 21.23900
H  4.04000 45.69500 22.66900
H  6.66800 43.81200 26.24100
H  6.97800 42.56500 27.40600
H  6.59500 44.21200 28.02900
H  1.87700 43.11000 30.69700
H  1.71600 39.30100 32.21600
H  0.89200 40.17100 33.42200
H  2.73600 40.08800 33.46100

