158

Mg 6.87000 53.01100 41.37700
C  6.22200 49.58500 41.35300
C  10.13500 52.49200 40.60600
C  7.28100 56.45300 40.88500
C  3.41600 53.66300 41.67900
N  8.00000 51.26100 41.04000
C  7.57600 49.93700 41.00300
C  8.81300 49.06400 40.63100
C  10.06600 49.90100 40.73900
C  9.36900 51.31600 40.82100
C  11.03500 49.81200 41.98400
C  8.73500 48.25100 39.34500
C  8.73800 48.99000 38.05100
H  7.64900 48.73400 37.00100
N  8.48500 54.33200 40.92500
C  9.78200 53.89800 40.68100
C  10.68700 55.01400 40.39700
C  9.86800 56.17600 40.36700
C  8.46400 55.71400 40.72400
C  12.16800 54.90100 40.18000
C  10.35900 57.59900 40.09100
O  11.54600 57.78100 39.93200
C  9.38800 58.82400 39.89300
N  5.57600 54.81900 41.43800
C  6.01500 56.11800 41.16200
C  4.84100 57.09400 41.49500
C  3.67400 56.20600 41.38000
C  4.24400 54.75800 41.56200
C  4.90900 57.95200 42.78400
C  2.86500 56.31300 40.09300
C  1.45100 55.79900 40.28700
N  5.13800 51.89300 41.71700
C  3.82300 52.28700 41.83500
C  3.06100 51.08400 42.07000
C  3.96500 50.01500 41.84600
C  5.25900 50.54900 41.63500
C  1.54500 51.01300 42.19600
C  3.99700 48.54600 41.73600
O  3.09600 47.69200 41.80400
C  5.49900 48.24500 41.48000
C  5.63200 47.44700 40.22200
O  5.45800 47.93200 39.16200
O  5.88700 46.10000 40.45700
C  5.61700 45.29600 39.30700
H  11.18100 52.34700 40.32800
H  7.35900 57.53600 40.76400
H  2.34600 53.81200 41.83600
H  8.97500 48.37700 41.46200
H  10.78900 49.80900 39.92800
H  11.13700 50.67600 42.64200
H  11.96100 49.45700 41.53400
H  10.70700 48.99300 42.62400
H  7.92000 47.52900 39.31500
H  9.64300 47.65100 39.41000
H  9.59300 48.57000 37.52000
H  8.92000 50.06100 38.14700
H  12.72000 55.70500 40.66500
H  12.35700 54.80100 39.11100
H  12.43600 53.96800 40.67600
H  8.65900 58.51100 39.14500
H  9.93000 59.71900 39.58800
H  8.91300 58.96800 40.86400
H  4.80000 57.72700 40.60900
H  3.07600 56.40600 42.27000
H  5.55900 58.80700 42.59800
H  5.39900 57.23000 43.43700
H  3.88600 58.20100 43.06600
H  3.35700 55.67300 39.36000
H  2.79800 57.33000 39.70600
H  1.35600 54.99400 39.55800
H  0.72000 56.53400 39.95000
H  1.26300 55.49700 41.31800
H  1.23200 51.02900 43.24000
H  1.16200 50.25700 41.51000
H  1.13100 51.94600 41.81500
H  5.87700 47.70500 42.34800
H  5.70300 44.25900 39.63300
H  6.30600 45.38400 38.46700
H  4.58200 45.57700 39.11200
Mg 16.46400 51.76900 26.58100
C  18.27300 50.30900 29.15300
C  14.18400 52.83200 28.82700
C  14.53100 52.75300 23.90200
C  18.80100 50.38400 24.22600
N  16.18200 51.42400 28.68600
C  17.07600 50.90800 29.56500
C  16.76100 51.26500 31.09800
C  15.30500 51.72600 30.95400
C  15.24000 52.07500 29.44400
C  14.09800 50.70300 31.39600
C  17.77300 52.37900 31.52600
C  18.34600 52.24300 32.87700
H  17.46200 51.50600 33.92000
N  14.67100 52.80200 26.38800
C  13.91500 53.17300 27.46500
C  12.81300 53.93900 26.96800
C  12.79600 53.85300 25.52400
C  14.02000 53.08600 25.19500
C  11.83700 54.58500 27.94200
C  11.76400 54.47800 24.53300
O  11.88500 54.25900 23.36100
C  10.63300 55.34800 24.95000
N  16.67300 51.63200 24.40700
C  15.73000 52.08800 23.52700
C  16.22200 51.82300 22.06900
C  17.63800 51.33100 22.24900
C  17.72300 51.06800 23.79200
C  15.26500 50.86700 21.33500
C  18.76600 52.23500 21.79000
C  19.87400 51.65700 20.84200
N  18.18000 50.51700 26.62200
C  19.10500 50.15800 25.61900
C  20.14400 49.38200 26.25800
C  19.81500 49.38900 27.64800
C  18.62900 50.10200 27.77400
C  21.34600 48.85600 25.60600
C  20.27200 48.91300 28.95400
O  21.13300 48.18000 29.38400
C  19.36600 49.66100 30.01700
C  18.82100 48.56700 30.87000
O  17.82900 47.80800 30.61600
O  19.54200 48.59900 32.03800
C  19.25800 47.61400 33.08600
H  13.54800 53.14300 29.65900
H  13.93000 53.04600 23.03900
H  19.49700 49.96900 23.49400
H  17.02300 50.40400 31.71200
H  15.12700 52.70500 31.39900
H  14.50400 49.79200 31.83700
H  13.51600 50.51400 30.49500
H  13.47000 51.17600 32.15100
H  17.30600 53.36300 31.48100
H  18.59000 52.37400 30.80400
H  18.57800 53.24700 33.23400
H  19.30900 51.73400 32.84100
H  10.86600 54.14700 27.71200
H  11.73400 55.66100 27.80500
H  11.99600 54.43600 29.01000
H  10.21600 54.79800 25.79300
H  9.93600 55.50100 24.12600
H  11.15700 56.23800 25.29900
H  16.31400 52.80700 21.61000
H  17.72800 50.35100 21.78000
H  15.48100 50.94900 20.27000
H  14.27900 51.22300 21.63300
H  15.26300 49.80500 21.58100
H  19.26100 52.60700 22.68600
H  18.48800 53.21000 21.39000
H  19.94600 52.31200 19.97400
H  19.71700 50.64000 20.48200
H  20.88400 51.71700 21.24700
H  22.12700 48.75200 26.35900
H  21.68100 49.49000 24.78500
H  21.28000 47.86600 25.15400
H  20.02300 50.36000 30.53500
H  19.79000 46.68600 32.88200
H  18.19800 47.36500 33.14800
H  19.45200 47.96200 34.10100

