158

Mg 2.04900 -0.91800 45.65700
C  5.27000 0.23000 44.52400
C  0.77100 1.70900 43.89800
C  -0.78200 -2.41300 45.87600
C  3.72400 -3.82800 46.85300
N  2.98600 0.71000 44.35400
C  4.26100 1.08200 44.11300
C  4.44500 2.44500 43.44600
C  3.04300 2.98600 43.64200
C  2.18600 1.74600 44.02000
C  2.94800 4.17600 44.65200
C  4.73100 2.31400 42.03000
C  6.08700 2.94400 41.57500
H  6.10300 3.37900 40.06100
N  0.16700 -0.32600 45.08500
C  -0.20400 0.77700 44.36800
C  -1.55100 0.81100 44.28500
C  -2.07800 -0.40200 44.83000
C  -0.86000 -1.11400 45.30900
C  -2.35200 1.98200 43.47000
C  -3.51300 -0.85300 44.85200
O  -4.29100 -0.09800 44.31400
C  -3.99600 -2.11400 45.41200
N  1.61100 -2.86300 46.04100
C  0.32000 -3.15600 46.21900
C  0.05000 -4.57100 46.79000
C  1.47300 -4.99100 47.10900
C  2.32600 -3.83800 46.68500
C  -0.95000 -4.65300 48.03300
C  1.92600 -6.30100 46.46900
C  2.32300 -7.35200 47.45800
N  4.11400 -1.59900 45.84300
C  4.60900 -2.84900 46.30600
C  6.07100 -2.79400 46.18800
C  6.29100 -1.59100 45.48800
C  5.10000 -0.96100 45.28300
C  7.01500 -3.83700 46.61700
C  7.38500 -0.85100 44.90000
O  8.57000 -1.11200 44.69500
C  6.75300 0.47400 44.42200
C  7.13400 1.46600 45.34500
O  6.94200 1.46800 46.57300
O  7.78700 2.45400 44.59300
C  8.06100 3.68500 45.41400
H  0.37700 2.62700 43.45600
H  -1.74400 -2.86100 46.13600
H  4.17200 -4.69400 47.34600
H  5.24900 2.86400 44.05100
H  2.64000 3.51100 42.77700
H  3.80500 4.85000 44.65000
H  2.84100 3.80700 45.67200
H  2.12000 4.85300 44.44200
H  4.10000 2.78300 41.27500
H  4.68000 1.25900 41.76300
H  6.97900 2.32500 41.67100
H  6.23300 3.75300 42.29100
H  -2.78000 1.69600 42.51000
H  -1.78100 2.87600 43.21900
H  -3.14600 2.35400 44.12000
H  -3.90100 -2.21600 46.49300
H  -3.48400 -2.94000 44.91700
H  -5.06700 -2.21900 45.23700
H  -0.55000 -5.27900 46.22000
H  1.58800 -4.94200 48.19100
H  -1.88100 -5.12900 47.72400
H  -1.19400 -3.66000 48.41000
H  -0.54800 -5.33500 48.78400
H  2.87200 -6.12900 45.95400
H  1.20800 -6.54700 45.68700
H  1.74700 -8.21900 47.13300
H  2.09800 -7.17000 48.50900
H  3.37600 -7.62300 47.38900
H  8.01200 -3.66100 46.21500
H  6.63400 -4.77700 46.21800
H  6.96400 -3.88200 47.70500
H  7.07000 0.63900 43.39200
H  8.30800 4.54200 44.78700
H  8.94700 3.29200 45.91300
H  7.23200 3.93500 46.07600
Mg 6.23000 53.71400 39.84000
C  5.66400 50.24800 39.62400
C  9.43600 53.35300 39.11700
C  6.38900 56.99700 39.51900
C  2.57900 53.99700 40.30100
N  7.34200 51.98300 39.35500
C  6.94100 50.63500 39.43800
C  8.18500 49.78200 39.22900
C  9.42900 50.76900 39.50300
C  8.69600 52.11700 39.33700
C  10.17000 50.62000 40.87200
C  8.28400 49.03800 37.84600
C  8.28400 49.97700 36.63600
H  7.43400 49.55600 35.40600
N  7.80600 55.05400 39.46300
C  8.99500 54.65200 39.05400
C  9.84900 55.82300 38.79900
C  8.98900 56.93100 39.04700
C  7.64400 56.39900 39.27000
C  11.31400 55.74500 38.55500
C  9.40600 58.35400 39.08600
O  10.58000 58.58700 38.80000
C  8.46900 59.45700 39.50600
N  4.64900 55.24100 39.81500
C  5.06500 56.53500 39.80300
C  3.96700 57.50700 40.09900
C  2.74300 56.62500 40.28100
C  3.34100 55.17900 40.13500
C  4.28900 58.34700 41.36400
C  1.61400 56.94100 39.20500
C  0.20800 57.28000 39.74800
N  4.43000 52.42200 40.00100
C  3.08400 52.69700 40.26400
C  2.40800 51.44100 40.44100
C  3.31400 50.44100 40.16700
C  4.57100 51.07800 39.89900
C  0.90800 51.28700 40.60700
C  3.53800 49.02500 40.01900
O  2.83200 48.04800 40.05900
C  5.03800 48.86000 39.63800
C  4.82800 48.23500 38.25000
O  4.15200 48.80600 37.38800
O  5.24200 47.00000 38.26800
C  4.74900 46.02300 37.29100
H  10.48700 53.06500 39.04400
H  6.25100 58.06900 39.36000
H  1.52100 54.13400 40.53800
H  8.17100 48.88600 39.84900
H  10.15500 50.66900 38.69600
H  10.01700 51.48100 41.52400
H  11.20800 50.64300 40.54200
H  10.01400 49.74700 41.50500
H  7.56700 48.21800 37.81800
H  9.27200 48.59400 37.96100
H  9.29000 50.09300 36.23400
H  8.03100 51.00000 36.91200
H  11.78700 54.78300 38.35500
H  11.85300 56.15200 39.41000
H  11.74900 56.39100 37.79300
H  8.98600 60.40900 39.38300
H  8.27200 59.37000 40.57400
H  7.54200 59.51700 38.93500
H  3.91400 58.15700 39.22600
H  2.35400 56.61100 41.30000
H  5.24100 58.02200 41.78500
H  3.53300 58.24100 42.14100
H  4.46600 59.38500 41.08000
H  1.50500 56.06300 38.56900
H  1.83300 57.74100 38.49800
H  -0.54300 56.72300 39.18800
H  0.02100 58.34500 39.87900
H  0.07600 56.92400 40.76900
H  0.53600 52.14500 40.04800
H  0.75500 51.24700 41.68500
H  0.49100 50.34400 40.25200
H  5.39500 48.06200 40.28800
H  4.92600 45.11700 37.87100
H  5.32100 46.06300 36.36400
H  3.69400 46.15900 37.05600

