158

Mg 25.88000 0.02700 29.00300
C  27.91400 -0.23300 31.83900
C  23.23100 0.26300 31.01900
C  23.87600 0.43700 26.16900
C  28.50900 -0.60400 26.88100
N  25.64000 0.05400 31.21400
C  26.58600 0.04200 32.17500
C  26.00100 0.37600 33.55500
C  24.47200 0.51600 33.26300
C  24.40600 0.30400 31.74900
C  23.35000 -0.13700 34.10500
C  26.72800 1.55400 34.26000
C  26.82400 1.39200 35.79400
H  26.37200 2.41400 36.78000
N  23.85200 0.24700 28.68200
C  22.91000 0.28700 29.66700
C  21.62000 0.40600 29.06300
C  21.80000 0.59200 27.65200
C  23.23000 0.44400 27.43900
C  20.33700 0.47400 29.94900
C  20.76700 0.85300 26.61600
O  20.92600 0.84800 25.38700
C  19.37800 1.24500 26.97600
N  26.16500 0.05500 26.88800
C  25.18600 0.22300 25.92800
C  25.84800 0.14300 24.53800
C  27.29000 -0.30500 24.80200
C  27.31700 -0.25400 26.30600
C  25.04800 -0.77800 23.51100
C  28.32300 0.53200 24.07100
C  28.77900 1.83600 24.74000
N  27.72100 -0.51200 29.27500
C  28.76200 -0.72200 28.30000
C  30.03300 -0.91600 28.98300
C  29.74100 -0.79500 30.37800
C  28.35800 -0.47500 30.50400
C  31.33700 -1.21100 28.38900
C  30.32300 -0.75600 31.70200
O  31.49100 -0.83400 32.05200
C  29.18100 -0.27300 32.66300
C  29.02300 -1.24500 33.83600
O  28.28300 -2.17000 33.81200
O  29.71700 -0.85400 34.99100
C  29.37600 -1.48800 36.25500
H  22.31900 0.44200 31.59200
H  23.13000 0.31200 25.38200
H  29.34100 -0.84100 26.21500
H  26.21600 -0.46700 34.21200
H  24.14000 1.54300 33.41700
H  22.77800 -0.89000 33.56300
H  22.69100 0.59400 34.57300
H  23.70000 -0.68600 34.97900
H  26.23800 2.51000 34.07400
H  27.65400 1.85200 33.76700
H  27.88600 1.15800 35.86800
H  26.33200 0.46200 36.07700
H  19.42700 0.05800 29.51800
H  20.12400 1.51200 30.20700
H  20.40700 0.04100 30.94700
H  19.24500 1.88000 27.85200
H  18.85800 0.29700 27.10900
H  18.91700 1.67900 26.08900
H  25.88600 1.14500 24.11100
H  27.50900 -1.33400 24.52000
H  24.04100 -0.96400 23.88400
H  25.54900 -1.73700 23.37900
H  25.05300 -0.28300 22.53900
H  27.81500 0.88000 23.17100
H  29.19600 -0.07200 23.82300
H  28.46800 1.99500 25.77300
H  28.27800 2.64000 24.20000
H  29.85300 2.02200 24.74200
H  32.00200 -0.38400 28.63900
H  31.23200 -1.32000 27.30900
H  31.69600 -2.17900 28.73800
H  29.50400 0.71200 33.00000
H  30.29700 -1.76300 36.76900
H  28.68600 -2.33200 36.27500
H  28.80600 -0.73800 36.80400
Mg 25.60200 51.70900 26.55300
C  23.17100 52.53900 29.03500
C  27.72600 50.69500 29.14100
C  28.08400 51.24600 24.41100
C  23.53700 52.94400 24.03800
N  25.49100 51.77400 28.85900
C  24.35600 52.00500 29.56900
C  24.66200 51.60300 30.98500
C  26.13100 51.06500 31.02100
C  26.51800 51.18100 29.57400
C  27.10800 51.72200 32.10800
C  23.67000 50.60100 31.58000
C  22.98700 51.06500 32.83400
H  23.14200 50.25600 34.11600
N  27.63900 51.08300 26.74100
C  28.28300 50.68200 27.89400
C  29.66700 50.35900 27.55100
C  29.80400 50.38200 26.12600
C  28.47000 50.92800 25.72100
C  30.55000 49.66900 28.58700
C  31.01000 49.97900 25.26200
O  31.12100 50.06000 24.00800
C  32.32200 49.40200 25.93600
N  25.75300 52.00800 24.52000
C  26.87600 51.76500 23.94500
C  26.66000 51.89400 22.43500
C  25.23600 52.42600 22.29400
C  24.76100 52.41700 23.67700
C  27.70300 52.82100 21.66000
C  24.36500 51.55000 21.35800
C  23.36100 52.30100 20.48200
N  23.76000 52.53600 26.48800
C  23.06200 53.06700 25.37000
C  21.74300 53.51200 25.88800
C  21.79400 53.33500 27.29100
C  22.97100 52.71600 27.60600
C  20.63800 53.98400 25.06800
C  20.97200 53.42100 28.45000
O  19.80600 53.75200 28.51000
C  21.82400 52.90400 29.62100
C  22.10000 54.01700 30.53300
O  22.56200 55.10300 30.22200
O  21.51300 53.64900 31.71800
C  21.26500 54.87200 32.54900
H  28.40700 50.32700 29.91100
H  28.80400 51.18300 23.59200
H  22.91400 53.41000 23.27200
H  24.63700 52.53200 31.55500
H  26.24100 49.98500 30.92400
H  27.55500 50.93300 32.71300
H  26.51800 52.44100 32.67800
H  27.85500 52.27000 31.53400
H  24.18000 49.66500 31.81000
H  22.94500 50.47400 30.77600
H  21.91700 51.05900 32.62700
H  23.21500 52.11200 33.03100
H  30.59100 48.58600 28.47000
H  30.39500 49.91500 29.63700
H  31.54700 50.02500 28.33000
H  32.05300 48.55500 26.56600
H  32.81000 50.20500 26.48800
H  33.06700 49.05600 25.21800
H  26.73100 50.87600 22.05100
H  25.25500 53.45700 21.94100
H  27.13000 53.55100 21.08800
H  28.41300 52.28300 21.03300
H  28.31500 53.38200 22.36600
H  23.94200 50.77700 22.00000
H  25.01000 51.04300 20.64100
H  23.48400 52.07800 19.42200
H  23.37700 53.37200 20.68600
H  22.36900 51.95100 20.76700
H  19.78800 53.63100 25.65100
H  20.68000 53.55300 24.06800
H  20.44600 55.05300 24.97500
H  21.36100 52.03400 30.08600
H  21.45100 55.84900 32.10300
H  21.70300 54.84700 33.54600
H  20.21800 54.88600 32.84900

