158

Mg -0.09100 7.02500 26.55200
C  0.81100 9.19000 29.24600
C  -0.24100 4.39900 28.83700
C  -0.72200 5.01000 24.13800
C  0.22600 9.78200 24.40800
N  0.03200 6.87800 28.77100
C  0.52500 7.84400 29.63000
C  0.79000 7.29700 31.05100
C  0.49200 5.78000 30.89800
C  0.07700 5.62700 29.40200
C  1.69300 4.86200 31.31500
C  0.04600 7.93600 32.22800
C  0.73200 8.04300 33.66500
H  1.96200 7.20800 33.99900
N  -0.56000 4.97800 26.50700
C  -0.57400 4.08300 27.50200
C  -0.98700 2.79600 27.03700
C  -1.11900 2.89600 25.66000
C  -0.81300 4.33200 25.35400
C  -1.26100 1.65400 27.95200
C  -1.34100 1.79600 24.61300
O  -1.27200 2.03500 23.39300
C  -1.57700 0.38400 24.98200
N  -0.26400 7.33300 24.54600
C  -0.39600 6.30800 23.70900
C  -0.60600 6.78000 22.21600
C  -0.24300 8.32400 22.32000
C  -0.12300 8.49800 23.91500
C  0.25400 5.98700 21.17000
C  -1.28000 9.20900 21.63500
C  -2.49900 9.78000 22.33200
N  0.48500 9.10000 26.73300
C  0.47800 10.07900 25.77000
C  0.80100 11.36000 26.39300
C  0.96200 11.05200 27.75300
C  0.73100 9.67600 27.90900
C  0.95000 12.67500 25.75500
C  1.37300 11.62700 28.96900
O  1.80300 12.76900 29.20600
C  1.10600 10.44100 30.04500
C  2.21800 10.27600 30.96800
O  3.24600 9.69900 30.81700
O  1.94100 11.08600 32.03200
C  2.91100 11.08400 33.08000
H  -0.20000 3.61300 29.59400
H  -0.97700 4.28500 23.36200
H  0.46600 10.60400 23.73100
H  1.86700 7.37300 31.20000
H  -0.46700 5.57300 31.37300
H  2.47900 5.38100 31.86400
H  2.16300 4.24800 30.54700
H  1.41500 4.23000 32.15800
H  -0.86600 7.36000 32.38200
H  -0.21200 8.94200 31.89700
H  0.00100 7.97800 34.47100
H  1.02900 9.09100 33.62700
H  -0.32800 1.11200 28.10800
H  -1.95700 1.04700 27.37300
H  -1.78700 1.94000 28.86300
H  -2.39600 0.36300 25.70100
H  -0.62300 0.19600 25.47500
H  -1.73700 -0.30300 24.15100
H  -1.64200 6.65900 21.89800
H  0.74500 8.59900 21.95000
H  0.98000 6.64500 20.69200
H  -0.35200 5.61800 20.34200
H  0.89200 5.25800 21.66800
H  -1.51800 8.56100 20.79200
H  -0.73400 10.06300 21.23400
H  -3.40000 9.54600 21.76600
H  -2.43800 10.84100 22.57300
H  -2.62100 9.25000 23.27700
H  1.78200 12.71100 25.05100
H  1.13300 13.38500 26.56200
H  0.08000 12.84100 25.11900
H  0.27800 10.78500 30.66500
H  2.30700 11.34400 33.95000
H  3.68900 11.83600 32.94700
H  3.28500 10.08500 33.30500
Mg 17.47600 51.92100 25.94700
C  19.30800 50.71900 28.50800
C  15.05700 52.84000 28.13600
C  15.62300 52.92800 23.28900
C  20.00100 50.86100 23.74600
N  17.17700 51.63600 28.03100
C  18.08700 51.20600 28.92600
C  17.67300 51.41000 30.35900
C  16.20900 51.83500 30.17400
C  16.11300 52.17100 28.70700
C  15.28200 50.67400 30.41200
C  18.54300 52.48500 31.05000
C  18.95400 52.24000 32.57500
H  18.00100 51.48000 33.46800
N  15.55000 52.64600 25.71900
C  14.75300 53.10700 26.74200
C  13.63400 53.88100 26.21700
C  13.62300 53.62300 24.75800
C  14.96400 53.04000 24.52900
C  12.65000 54.57400 27.21300
C  12.68200 54.08300 23.69300
O  12.83700 53.80300 22.50400
C  11.47200 55.01500 24.08200
N  17.76300 51.78400 23.74800
C  16.90400 52.47500 22.92700
C  17.43300 52.39800 21.47900
C  18.83000 51.84300 21.60900
C  18.90700 51.43300 23.10400
C  16.61900 51.54800 20.40100
C  19.94100 52.90400 21.42800
C  21.37600 52.33400 21.06400
N  19.30400 50.92100 26.06400
C  20.19000 50.45300 25.10400
C  21.35300 49.80900 25.72500
C  21.03200 49.85900 27.10600
C  19.81300 50.55200 27.21700
C  22.45200 49.23600 24.93900
C  21.40800 49.45700 28.46200
O  22.38200 48.92300 28.82100
C  20.34200 50.06900 29.43800
C  19.83400 48.87800 30.32700
O  19.03200 48.09600 29.87600
O  20.35400 48.92600 31.48900
C  19.68700 48.00400 32.47200
H  14.47800 53.29100 28.94500
H  15.11300 53.41000 22.45200
H  20.77100 50.71600 22.98600
H  17.69100 50.47900 30.92500
H  15.89000 52.60500 30.87600
H  14.74900 50.83200 31.35000
H  15.78300 49.70700 30.45300
H  14.61900 50.57400 29.55300
H  18.09000 53.45600 30.85000
H  19.45100 52.61200 30.46000
H  18.89700 53.22500 33.03700
H  19.93700 51.80000 32.74600
H  12.10800 53.76000 27.69300
H  11.87700 55.26900 26.88500
H  13.26400 54.98900 28.01100
H  10.59900 54.48900 24.46900
H  11.08700 55.69700 23.32400
H  11.85500 55.66800 24.86700
H  17.35300 53.44200 21.17600
H  18.99600 50.89200 21.10300
H  17.16700 50.78500 19.84800
H  16.43500 52.22600 19.56800
H  15.75300 51.11600 20.90200
H  19.97300 53.45600 22.36800
H  19.58700 53.71400 20.79100
H  21.60700 52.87800 20.14900
H  21.54300 51.26300 20.94900
H  22.13000 52.59600 21.80700
H  22.81700 49.93800 24.19000
H  22.10300 48.39500 24.34000
H  23.12700 48.87700 25.71600
H  20.87900 50.80400 30.03900
H  20.47100 47.24800 32.51200
H  18.80800 47.38600 32.29200
H  19.61200 48.48300 33.44800

