158

Mg 8.13500 3.03300 28.46000
C  9.44300 1.36500 31.29800
C  5.92500 4.57600 30.19500
C  6.65200 3.97400 25.48500
C  10.06500 0.60100 26.53500
N  7.73000 2.83900 30.44800
C  8.34400 2.16500 31.50900
C  7.71500 2.54200 32.86700
C  6.54300 3.52100 32.41100
C  6.71300 3.65500 30.91300
C  5.07400 3.09800 32.89500
C  8.76400 3.19300 33.88000
C  8.10900 3.70000 35.15600
H  8.67100 3.30400 36.48500
N  6.66700 4.29000 27.91900
C  5.86400 4.91400 28.84800
C  4.99200 5.81100 28.18000
C  5.22600 5.64000 26.79800
C  6.20700 4.60800 26.64300
C  4.09400 6.70600 28.91300
C  4.59200 6.35900 25.62400
O  4.83400 5.98300 24.48900
C  3.47500 7.37800 25.84700
N  8.27500 2.38900 26.31400
C  7.62800 2.97500 25.30500
C  7.98300 2.44800 23.93800
C  9.25400 1.57000 24.32400
C  9.13700 1.46600 25.86600
C  6.92700 1.67600 23.15200
C  10.67200 1.91300 23.71300
C  11.60500 2.76100 24.60700
N  9.55600 1.49600 28.79600
C  10.34500 0.67200 27.94700
C  11.23500 -0.20500 28.64000
C  10.89400 0.04100 29.98200
C  9.92500 1.09300 29.99900
C  12.16900 -1.20300 28.14600
C  11.19800 -0.28200 31.37600
O  12.05500 -1.05300 31.84600
C  10.25700 0.56600 32.28900
C  9.40900 -0.40100 33.05200
O  8.59800 -1.23800 32.64500
O  9.60300 -0.07800 34.33800
C  8.71700 -0.83200 35.21300
H  5.45900 5.24200 30.92400
H  6.16000 4.20500 24.53800
H  10.75900 0.10300 25.85400
H  7.28200 1.61800 33.25000
H  6.65300 4.50900 32.85900
H  4.75000 3.88400 33.57800
H  5.12300 2.22600 33.54700
H  4.29400 2.98600 32.14300
H  9.18400 4.08600 33.41800
H  9.58700 2.49900 34.05600
H  7.06400 3.39200 35.11900
H  8.22500 4.78400 35.17100
H  4.33000 7.75100 28.71200
H  4.26100 6.72600 29.99000
H  3.05800 6.40500 28.75600
H  3.43000 7.94700 24.91800
H  3.85100 8.04600 26.62100
H  2.47300 6.95400 25.92400
H  8.32800 3.28400 23.33000
H  9.13900 0.54800 23.96400
H  5.98600 1.83100 23.67900
H  7.11300 0.60900 23.27500
H  6.82000 2.21500 22.21100
H  10.46400 2.53400 22.84300
H  11.16700 1.05900 23.24900
H  11.33200 3.07200 25.61500
H  11.83400 3.68700 24.07800
H  12.60600 2.33100 24.63700
H  12.68600 -0.85600 27.25200
H  11.61400 -2.12600 27.97500
H  12.83400 -1.42200 28.98200
H  10.84400 1.11000 33.02900
H  7.85600 -0.17600 35.34700
H  9.17500 -0.97500 36.19200
H  8.39400 -1.82800 34.90900
Mg 55.82900 22.63100 44.87900
C  53.73200 25.15700 43.90500
C  53.61200 20.34600 43.78300
C  58.44400 20.34200 44.59400
C  58.30000 24.96500 45.47100
N  53.95500 22.77500 43.87500
C  53.20200 23.84900 43.61400
C  51.69700 23.47500 43.28800
C  51.63800 21.96400 43.60100
C  53.15900 21.69400 43.79000
C  50.75500 21.44300 44.81400
C  51.06700 23.89200 41.89000
C  49.77100 24.67300 42.07400
H  48.83200 24.57100 40.88100
N  56.00900 20.53400 44.45800
C  54.95200 19.80600 43.88400
C  55.41600 18.43800 43.77600
C  56.77100 18.38700 44.03200
C  57.12100 19.73900 44.43400
C  54.53100 17.35800 43.40700
C  57.71900 17.16800 43.91100
O  57.35400 16.08300 43.40500
C  59.18000 17.18600 44.34800
N  58.11500 22.66300 44.99600
C  58.89700 21.58100 44.91200
C  60.37000 21.90300 45.12500
C  60.27800 23.45700 45.23900
C  58.81200 23.71200 45.26500
C  61.03800 21.26200 46.40400
C  61.06100 24.20400 44.12200
C  62.16500 25.19600 44.64200
N  55.94800 24.64400 44.90200
C  57.01100 25.42500 45.20000
C  56.58400 26.79800 45.30900
C  55.23900 26.81800 44.79300
C  54.95600 25.40100 44.56200
C  57.35300 27.97300 45.82900
C  54.06400 27.55300 44.40300
O  53.78300 28.77500 44.51900
C  53.12000 26.53600 43.69100
C  53.11200 26.95800 42.26300
O  54.01500 26.68100 41.44000
O  51.88100 27.56200 41.95200
C  51.78700 27.75900 40.58100
H  52.83700 19.58500 43.67700
H  59.25000 19.60600 44.55100
H  58.95900 25.79600 45.73200
H  51.16700 24.00700 44.07800
H  51.18000 21.45100 42.75600
H  50.05900 22.22900 45.11100
H  51.34500 21.16600 45.68700
H  50.20500 20.64700 44.31300
H  50.92800 22.99900 41.28100
H  51.74600 24.55800 41.35700
H  50.05000 25.69400 42.33600
H  49.25000 24.23100 42.92200
H  54.73600 16.81100 42.48700
H  53.48600 17.62200 43.24400
H  54.54900 16.58700 44.17800
H  59.81100 17.65800 43.59500
H  59.44500 16.14500 44.53100
H  59.28500 17.68700 45.31000
H  60.92500 21.59200 44.24000
H  60.69500 23.78800 46.19000
H  61.91100 20.64800 46.18600
H  60.23300 20.63200 46.78200
H  61.35400 22.08700 47.04300
H  60.31000 24.70800 43.51400
H  61.46700 23.47600 43.42000
H  62.38600 25.07200 45.70200
H  61.91600 26.21600 44.35100
H  63.11100 24.97800 44.14600
H  56.68200 28.56900 46.44700
H  57.61200 28.64200 45.00900
H  58.24500 27.67000 46.37700
H  52.13600 26.70600 44.12800
H  50.92500 28.39000 40.36500
H  51.71700 26.84100 39.99700
H  52.65500 28.25200 40.14500

