158

Mg 25.66100 0.56400 28.77700
C  27.53700 0.16400 31.64300
C  22.78600 0.92800 30.77500
C  23.78300 0.70500 26.06700
C  28.44400 -0.42700 26.92000
N  25.21400 0.30600 30.94000
C  26.18500 0.45300 31.91700
C  25.57100 0.82300 33.30500
C  24.05300 0.90100 32.98600
C  23.93700 0.67300 31.45200
C  23.35500 -0.16800 33.84100
C  26.17000 2.06000 33.95500
C  26.31300 1.88400 35.51400
H  25.75500 2.94900 36.49500
N  23.61900 0.89600 28.45900
C  22.63700 1.02800 29.38200
C  21.37000 1.20100 28.73900
C  21.62800 1.17900 27.29800
C  23.07100 0.85100 27.23900
C  20.04900 1.39300 29.44200
C  20.62800 1.37900 26.20200
O  20.85300 1.20200 25.06100
C  19.20700 1.84100 26.53200
N  26.00500 0.08500 26.81300
C  25.14300 0.46300 25.79800
C  25.76100 0.12900 24.37400
C  27.21800 -0.13100 24.71700
C  27.23500 -0.17100 26.18400
C  24.98100 -1.01100 23.69100
C  28.25200 0.96600 24.27600
C  28.47800 1.17000 22.73400
N  27.66900 0.06700 29.19300
C  28.71600 -0.24000 28.33200
C  29.83700 -0.36600 29.13100
C  29.45600 -0.13900 30.47900
C  28.12100 0.06000 30.44500
C  31.30100 -0.71000 28.75400
C  29.97200 -0.12100 31.78700
O  31.08400 -0.44300 32.15700
C  28.68500 0.07600 32.63900
C  28.53400 -0.99300 33.74100
O  27.88500 -1.95100 33.60500
O  29.04500 -0.47400 34.87800
C  28.79600 -1.18500 36.13000
H  21.91400 0.94600 31.43200
H  23.19100 0.67500 25.15000
H  29.30900 -0.65000 26.29200
H  25.80500 0.03400 34.01900
H  23.68900 1.88400 33.28400
H  22.60100 0.42500 34.35800
H  24.00000 -0.64300 34.58000
H  22.85200 -0.91200 33.22400
H  25.56100 2.92000 33.67300
H  27.17500 2.28200 33.59700
H  27.38800 1.86000 35.68900
H  25.82500 0.94800 35.78500
H  20.13100 1.35400 30.52800
H  19.36100 0.56300 29.28200
H  19.75100 2.42300 29.24500
H  19.16400 2.81100 27.02800
H  18.78900 1.08200 27.19300
H  18.56200 1.80600 25.65400
H  25.77500 0.93700 23.64200
H  27.56800 -1.08900 24.33300
H  24.47200 -1.65800 24.40500
H  25.66500 -1.51900 23.01200
H  24.29400 -0.64700 22.92600
H  29.24100 0.57800 24.52000
H  28.20200 1.90000 24.83600
H  28.51700 2.24600 22.56700
H  27.68100 0.70000 22.15800
H  29.39000 0.82700 22.24600
H  31.40200 -0.84200 27.67600
H  31.50700 -1.67200 29.22300
H  31.93000 0.14500 28.99800
H  28.86800 1.03500 33.12200
H  28.38400 -2.17400 35.92700
H  28.04100 -0.58700 36.64200
H  29.69300 -1.23100 36.74700
Mg -11.75200 17.48800 41.84800
C  -8.57500 15.88000 41.59600
C  -10.43800 20.24100 40.39200
C  -14.81600 18.44700 41.21400
C  -13.10400 14.23800 42.73400
N  -9.69900 17.97700 41.21300
C  -8.52600 17.20300 41.15800
C  -7.36400 17.96500 40.40700
C  -8.01500 19.43900 40.29100
C  -9.50300 19.19700 40.64100
C  -7.41000 20.56800 41.22900
C  -7.09700 17.30300 38.97800
C  -5.62800 17.17000 38.68100
H  -5.21000 17.73300 37.29400
N  -12.50300 19.17200 41.17900
C  -11.79100 20.24300 40.63700
C  -12.70200 21.32600 40.25800
C  -14.04300 20.84800 40.40000
C  -13.86400 19.43000 40.92500
C  -12.29700 22.64300 39.70600
C  -15.28500 21.64100 40.27000
O  -15.26200 22.81200 39.87700
C  -16.60600 20.99100 40.50300
N  -13.68200 16.36700 41.83200
C  -14.77700 17.16400 41.78300
C  -16.03200 16.49300 42.25100
C  -15.51800 15.13900 42.75900
C  -13.99700 15.27700 42.45400
C  -16.72200 17.31800 43.35800
C  -16.09800 13.92700 41.94900
C  -17.11600 13.04600 42.76100
N  -10.99700 15.47800 42.19300
C  -11.68100 14.35600 42.59500
C  -10.72700 13.18800 42.62100
C  -9.44700 13.77200 42.31700
C  -9.65200 15.17300 42.05700
C  -10.97500 11.76600 42.90900
C  -8.03800 13.54100 42.07600
O  -7.38500 12.49900 42.10300
C  -7.44800 14.87100 41.68700
C  -6.45000 15.33100 42.69500
O  -6.68600 15.46200 43.89400
O  -5.26900 15.66400 42.09200
C  -4.16400 16.06600 42.97200
H  -9.97000 21.09000 39.89100
H  -15.84000 18.68000 40.91700
H  -13.53200 13.38100 43.25800
H  -6.49700 17.94800 41.06700
H  -8.10900 19.78800 39.26300
H  -7.39800 21.43900 40.57400
H  -6.37800 20.36500 41.51500
H  -8.13000 20.75100 42.02600
H  -7.38900 18.04200 38.23200
H  -7.71100 16.41200 38.84700
H  -5.31600 16.12600 38.69900
H  -4.88800 17.63200 39.33400
H  -11.32800 22.58200 39.21000
H  -12.12200 23.45500 40.41100
H  -12.95300 22.99500 38.91000
H  -17.41700 21.71800 40.46300
H  -16.53700 20.54700 41.49700
H  -16.79000 20.25000 39.72500
H  -16.76600 16.46400 41.44600
H  -15.60800 15.09500 43.84400
H  -17.12900 16.65800 44.12500
H  -17.47700 17.83200 42.76300
H  -15.98100 17.96500 43.82800
H  -15.29500 13.26200 41.63300
H  -16.58400 14.19900 41.01100
H  -17.11500 13.46100 43.76800
H  -16.66600 12.05400 42.81200
H  -18.12100 13.00600 42.34100
H  -10.09600 11.12900 43.01400
H  -11.55300 11.46200 42.03600
H  -11.47800 11.57100 43.85600
H  -7.10000 14.77400 40.65900
H  -3.91800 17.12800 42.97700
H  -3.25300 15.63900 42.55100
H  -4.17700 15.67400 43.98900

