158

Mg 25.96500 0.37300 28.86100
C  27.89100 -0.20900 31.93300
C  23.32900 0.74200 30.82400
C  24.31200 0.94800 26.07100
C  28.92600 -0.30300 27.11100
N  25.66500 0.27600 31.19800
C  26.54200 -0.02400 32.23900
C  25.86500 0.18600 33.57000
C  24.28900 0.14700 33.11200
C  24.42500 0.46700 31.61400
C  23.55400 -1.11700 33.31400
C  26.42900 1.57100 34.20300
C  27.00700 1.43400 35.64100
H  26.46600 2.46300 36.71400
N  24.04700 0.83900 28.52600
C  23.09500 0.89200 29.40800
C  21.86300 1.23300 28.73400
C  22.10400 1.34400 27.33900
C  23.49700 0.96600 27.23700
C  20.61100 1.49200 29.51300
C  21.18600 1.74400 26.30300
O  21.53700 1.94800 25.14700
C  19.77000 2.00600 26.62600
N  26.50700 0.05900 26.90300
C  25.63500 0.55300 25.94200
C  26.25700 0.54300 24.52300
C  27.77300 0.33300 24.89400
C  27.76300 0.00700 26.38100
C  25.68900 -0.46000 23.52900
C  28.70800 1.43100 24.36500
C  29.67300 0.90900 23.33500
N  27.96900 -0.18000 29.34800
C  29.01900 -0.36100 28.52100
C  30.20300 -0.74600 29.33200
C  29.82400 -0.56500 30.65600
C  28.47500 -0.29200 30.65600
C  31.47600 -1.14100 28.78400
C  30.23700 -0.54500 31.99000
O  31.34000 -0.75500 32.46400
C  29.02700 -0.17900 32.91500
C  28.80200 -1.32000 33.88300
O  28.42900 -2.41900 33.57400
O  29.02400 -0.91900 35.20400
C  28.76700 -1.91300 36.26300
H  22.45600 0.72400 31.47900
H  23.83200 1.23500 25.13400
H  29.86300 -0.46900 26.57600
H  26.08500 -0.63700 34.25000
H  23.71200 0.86800 33.69100
H  23.12900 -1.54500 32.40600
H  22.73700 -0.89700 34.00100
H  24.13000 -1.89400 33.81600
H  25.66000 2.34200 34.17300
H  27.23800 1.96200 33.58700
H  28.07700 1.59000 35.50000
H  26.72000 0.44700 36.00300
H  20.29000 2.52600 29.39000
H  20.67300 1.16900 30.55200
H  19.89100 0.81400 29.05400
H  19.12300 2.27100 25.79000
H  19.78900 2.90500 27.24300
H  19.36700 1.12200 27.12000
H  26.08400 1.54300 24.12400
H  28.06700 -0.61800 24.44800
H  26.43200 -0.46800 22.73200
H  24.72500 -0.18500 23.10200
H  25.67700 -1.47600 23.92300
H  29.24300 2.03100 25.10200
H  28.05300 2.21100 23.97700
H  29.36100 0.08100 22.69900
H  30.52000 0.62300 23.95900
H  30.19400 1.66600 22.74900
H  32.27400 -0.52200 29.19300
H  31.68800 -1.18300 27.71500
H  31.66400 -2.12500 29.21200
H  29.17400 0.78900 33.39500
H  29.67500 -2.37100 36.65600
H  27.99700 -2.60100 35.91400
H  28.29900 -1.44700 37.13100
Mg -0.25500 43.28800 24.61100
C  2.02800 42.98700 27.33600
C  -2.73300 42.34800 26.84200
C  -2.33900 43.30800 22.05700
C  2.54400 43.58300 22.42200
N  -0.33500 42.83500 26.87500
C  0.71900 42.82500 27.75000
C  0.28000 42.60300 29.19400
C  -1.27300 42.15100 29.00100
C  -1.49400 42.48300 27.51500
C  -1.66100 40.67400 29.33300
C  0.55400 43.91200 30.05400
C  1.05200 43.63700 31.44100
H  0.80100 42.25400 32.04000
N  -2.27300 43.07600 24.45300
C  -3.05700 42.65400 25.48000
C  -4.38500 42.61700 24.84200
C  -4.40700 42.83200 23.51400
C  -2.92400 43.06500 23.27700
C  -5.56600 42.19500 25.64500
C  -5.54200 42.90400 22.44700
O  -5.35900 43.20800 21.27100
C  -6.92800 42.63800 22.89600
N  0.04600 43.36900 22.55200
C  -0.96400 43.42400 21.68000
C  -0.54900 43.76100 20.19600
C  1.01000 43.91400 20.43000
C  1.21100 43.65700 21.90800
C  -1.05800 42.72700 19.15800
C  1.42100 45.31100 19.90200
C  0.97200 46.51400 20.67700
N  1.85600 43.22100 24.78600
C  2.85400 43.35900 23.80300
C  4.08900 43.38400 24.44400
C  3.85000 43.13000 25.80600
C  2.43800 42.98400 25.97500
C  5.39400 43.46000 23.84400
C  4.48400 42.95700 27.13200
O  5.68100 43.00800 27.46800
C  3.26800 42.97400 28.13700
C  3.49800 41.76300 28.93800
O  2.98800 40.64100 28.71900
O  4.28100 42.17600 30.00000
C  4.65500 41.07200 30.85200
H  -3.50300 42.03500 27.55000
H  -3.03000 43.29500 21.21200
H  3.40800 43.89400 21.83200
H  0.73100 41.66600 29.51900
H  -1.85300 42.93700 29.48300
H  -2.26200 40.70800 30.24200
H  -0.85600 39.99400 29.61300
H  -2.30300 40.24400 28.56500
H  -0.39000 44.45200 30.13500
H  1.17800 44.61000 29.49500
H  0.53500 44.37600 32.05200
H  2.12800 43.78200 31.34400
H  -6.12400 41.44000 25.09200
H  -6.21100 43.06200 25.78700
H  -5.23800 41.82600 26.61700
H  -7.16500 41.57500 22.94300
H  -7.50500 43.10600 22.09900
H  -7.23600 43.23000 23.75800
H  -0.95300 44.75400 20.00400
H  1.55300 43.15700 19.86400
H  -0.22100 42.15400 18.76000
H  -1.52300 43.24900 18.32100
H  -1.75100 41.98900 19.56300
H  1.01200 45.41100 18.89600
H  2.50900 45.33900 19.83800
H  1.85100 46.98700 21.11300
H  0.43400 46.22100 21.57800
H  0.46600 47.23800 20.03900
H  6.05800 43.37600 24.70400
H  5.55500 44.36400 23.25600
H  5.58200 42.70700 23.07800
H  3.30500 43.86800 28.75900
H  5.69200 41.24900 31.13600
H  4.65900 40.03900 30.50400
H  4.05700 41.03100 31.76300

