158

Mg 48.18900 35.60400 28.06600
C  46.40000 34.13700 30.46200
C  48.59400 38.44800 29.94700
C  49.82600 37.11100 25.35800
C  48.00600 32.70900 26.01700
N  47.39600 36.24800 29.92900
C  46.91500 35.35800 30.84900
C  47.16400 35.84000 32.29400
C  47.53900 37.35800 31.97300
C  47.89600 37.34900 30.56500
C  46.44200 38.39300 32.22700
C  48.42200 35.16100 32.90900
C  48.83500 35.43500 34.29400
H  47.91600 36.34700 35.19800
N  49.10800 37.44300 27.72400
C  49.25200 38.45700 28.69200
C  50.18900 39.53500 28.14700
C  50.46200 39.14200 26.79500
C  49.81500 37.81400 26.55900
C  50.55900 40.74200 28.97800
C  51.23900 40.01100 25.81100
O  51.35400 39.66000 24.66700
C  51.76600 41.27600 26.22500
N  48.80000 34.94900 25.95900
C  49.43100 35.79700 25.08400
C  49.60900 35.03200 23.68200
C  49.17500 33.56900 23.94600
C  48.66400 33.74300 25.41800
C  48.95400 35.81400 22.56300
C  50.27700 32.47600 23.74000
C  51.14400 32.70400 22.47300
N  47.29300 33.76600 28.11400
C  47.28500 32.65700 27.29400
C  46.50500 31.59000 27.85100
C  46.13800 32.14900 29.08100
C  46.64400 33.45800 29.21700
C  45.96100 30.36200 27.21700
C  45.35900 31.91000 30.29800
O  44.56600 30.98600 30.51000
C  45.47900 33.19400 31.25300
C  45.84900 32.74800 32.64200
O  46.78900 32.02700 32.93100
O  44.94800 33.25900 33.54200
C  45.09500 32.63500 34.84900
H  48.74200 39.29700 30.61700
H  50.23900 37.59500 24.47000
H  48.21800 31.77400 25.49300
H  46.30400 35.92100 32.95900
H  48.41800 37.70300 32.51700
H  46.69000 39.40800 31.91600
H  46.29600 38.47900 33.30400
H  45.43800 38.28700 31.81500
H  49.30200 35.22400 32.27000
H  48.19700 34.09800 33.00400
H  49.85300 35.82300 34.31400
H  48.94300 34.45800 34.76400
H  50.04800 41.67500 28.73800
H  51.64100 40.85500 28.90800
H  50.18400 40.60900 29.99300
H  52.31300 41.72300 25.39500
H  52.52100 41.21600 27.00900
H  50.99300 41.95200 26.59000
H  50.65300 35.11100 23.37700
H  48.28400 33.30600 23.37500
H  49.42700 36.78100 22.39300
H  47.88100 35.93400 22.70900
H  49.12900 35.32900 21.60300
H  49.79600 31.50300 23.64300
H  50.98700 32.43000 24.56600
H  50.57200 33.34900 21.80600
H  51.48200 31.77500 22.01400
H  52.05700 33.26700 22.67000
H  46.45300 30.08500 26.28400
H  44.92100 30.46200 26.90800
H  46.08000 29.59400 27.98200
H  44.59000 33.82400 31.29000
H  45.06900 31.54600 34.83800
H  44.22700 32.89600 35.45500
H  45.96600 33.03700 35.36600
Mg -10.85000 37.59900 42.51500
C  -8.23700 35.17600 42.06200
C  -8.52600 39.98800 41.40500
C  -13.24800 39.66900 42.78000
C  -13.05700 34.86400 43.12700
N  -8.67000 37.56500 41.73900
C  -7.80700 36.47800 41.79600
C  -6.45700 36.81600 41.22900
C  -6.51300 38.39900 41.20800
C  -7.97700 38.67400 41.39200
C  -5.59200 39.05000 42.28700
C  -6.07200 36.10600 39.85800
C  -4.70800 35.33900 39.83800
H  -3.85600 35.74000 38.61100
N  -10.85900 39.63300 42.16200
C  -9.86100 40.46100 41.69800
C  -10.28800 41.82900 41.77500
C  -11.68300 41.71800 42.13600
C  -12.02900 40.30500 42.41700
C  -9.41100 43.05500 41.24100
C  -12.57400 42.91000 42.20900
O  -12.23800 44.05700 41.85600
C  -13.94500 42.83000 42.77700
N  -12.90000 37.34300 42.78900
C  -13.74000 38.39300 42.96500
C  -15.16900 38.06800 43.32300
C  -15.17000 36.49600 43.33300
C  -13.60400 36.19400 43.07500
C  -15.71100 38.76900 44.58000
C  -15.93100 35.76600 42.23900
C  -17.05300 34.79500 42.82500
N  -10.73400 35.46800 42.66500
C  -11.66200 34.52600 43.00500
C  -11.01800 33.22600 43.24000
C  -9.71700 33.48600 42.87000
C  -9.56200 34.84600 42.50200
C  -11.62200 31.93200 43.75800
C  -8.40900 32.81400 42.69500
O  -7.98500 31.66500 42.78100
C  -7.54600 33.82400 41.99700
C  -6.36500 33.77100 42.91100
O  -6.33800 34.04800 44.11100
O  -5.22500 33.36700 42.21300
C  -4.09700 33.01400 43.09400
H  -7.80500 40.80700 41.36600
H  -14.07500 40.38200 42.81400
H  -13.69700 34.03500 43.43600
H  -5.73600 36.41900 41.94300
H  -6.22000 38.71200 40.20700
H  -4.94100 39.79900 41.83500
H  -5.01100 38.37500 42.91500
H  -6.35600 39.55500 42.87800
H  -6.03800 36.85500 39.06800
H  -6.85000 35.40600 39.55300
H  -4.95600 34.27900 39.86900
H  -4.10500 35.61900 40.70200
H  -9.76400 43.33600 40.24900
H  -8.36900 42.78400 41.07100
H  -9.29400 43.82300 42.00500
H  -14.40400 43.81900 42.78900
H  -13.90200 42.44000 43.79300
H  -14.58100 42.34600 42.03500
H  -15.74700 38.35100 42.44400
H  -15.39600 36.01500 44.28500
H  -14.96300 39.39500 45.06600
H  -16.02000 37.98400 45.27100
H  -16.49500 39.47900 44.31700
H  -15.29600 35.09800 41.65600
H  -16.34100 36.42100 41.47000
H  -17.21400 34.89200 43.89900
H  -16.83600 33.75800 42.56600
H  -18.01500 35.11000 42.42100
H  -12.45300 31.72400 43.08500
H  -12.01100 32.33700 44.69200
H  -10.86400 31.15400 43.85100
H  -7.29300 33.54400 40.97400
H  -3.13400 32.92700 42.59100
H  -4.19900 32.02300 43.53600
H  -4.00800 33.73800 43.90400

