158

Mg 25.89400 0.93300 29.21600
C  27.85500 0.93600 32.09700
C  23.11900 1.69900 31.13500
C  24.05100 0.47600 26.42000
C  28.66500 -0.24400 27.40600
N  25.60400 1.20100 31.32500
C  26.52900 1.28700 32.35400
C  25.92600 1.79400 33.74500
C  24.38900 1.78300 33.37000
C  24.30600 1.48100 31.84800
C  23.67400 0.73800 34.15400
C  26.56700 3.18700 34.26000
C  27.14300 3.04400 35.68500
H  26.31400 3.83100 36.73900
N  23.90000 1.12800 28.86200
C  22.93300 1.49500 29.81700
C  21.65700 1.58800 29.01100
C  21.87200 1.16900 27.69300
C  23.37100 0.87700 27.59100
C  20.30000 2.02000 29.57800
C  20.88900 1.02500 26.52900
O  21.25300 0.73300 25.39300
C  19.47000 1.32600 26.67700
N  26.34300 0.25800 27.14000
C  25.42100 0.28900 26.14600
C  26.06800 -0.03200 24.79800
C  27.59400 -0.06800 25.10700
C  27.58500 -0.03600 26.61700
C  25.45800 -1.21600 23.96800
C  28.47400 0.98600 24.44000
C  28.62100 0.77000 22.95700
N  27.82900 0.37100 29.61600
C  28.85600 0.00300 28.78500
C  30.11400 -0.21000 29.55400
C  29.72000 0.30700 30.81400
C  28.37300 0.60500 30.83200
C  31.44400 -0.73600 29.15400
C  30.26600 0.37800 32.18600
O  31.40600 0.14600 32.55100
C  29.01600 0.86600 33.08300
C  28.84900 -0.25300 34.13400
O  28.32900 -1.30500 33.84900
O  29.51800 0.01200 35.27900
C  29.36500 -1.02300 36.33600
H  22.29800 1.97900 31.79800
H  23.51900 0.41200 25.46800
H  29.55900 -0.56500 26.86600
H  26.09900 1.00500 34.47700
H  23.92700 2.75100 33.56000
H  22.68500 0.61900 33.71300
H  23.50000 0.90200 35.21700
H  24.14700 -0.24400 34.14500
H  25.86100 4.01400 34.19500
H  27.32800 3.42200 33.51600
H  28.14500 3.46900 35.75100
H  27.22800 2.00700 36.00900
H  20.08000 3.05900 29.33200
H  20.36700 1.77500 30.63800
H  19.58600 1.24000 29.31300
H  18.87400 0.57500 27.19600
H  19.02000 1.34900 25.68400
H  19.46800 2.34200 27.07100
H  25.78000 0.83000 24.19600
H  27.97700 -1.06600 24.89400
H  24.48700 -1.47300 24.39100
H  26.12100 -2.07000 23.82800
H  25.21000 -0.88400 22.96000
H  29.37900 0.85700 25.03500
H  28.17500 2.02100 24.60200
H  28.28100 1.60400 22.34400
H  28.13800 -0.15200 22.63300
H  29.70600 0.72500 22.86200
H  32.21300 -0.35000 29.82300
H  31.69400 -0.50300 28.11900
H  31.41200 -1.82500 29.12300
H  29.34700 1.81700 33.50100
H  28.35900 -1.43100 36.24800
H  29.47400 -0.51800 37.29600
H  30.18800 -1.72800 36.21400
Mg -11.71500 37.82700 42.03900
C  -9.10900 35.32800 41.33200
C  -9.76000 40.13200 40.67900
C  -14.33600 39.69100 42.32200
C  -13.73100 35.03000 43.06400
N  -9.56000 37.71500 41.04600
C  -8.74100 36.61100 40.82700
C  -7.68900 37.07200 39.82900
C  -7.66500 38.67200 39.99800
C  -9.09300 38.86000 40.60800
C  -6.55700 39.17400 41.02000
C  -7.80400 36.57700 38.34000
C  -6.53000 35.99500 37.75200
H  -5.63200 36.69900 36.75900
N  -11.96700 39.66700 41.59800
C  -11.01700 40.48600 41.09200
C  -11.51600 41.82400 41.08500
C  -12.85800 41.72400 41.52900
C  -13.13600 40.28100 41.78900
C  -10.79800 42.96400 40.49600
C  -13.82400 42.91500 41.64900
O  -13.35700 44.02400 41.37700
C  -15.27100 42.76600 42.01500
N  -13.85900 37.38000 42.40300
C  -14.73100 38.41900 42.61800
C  -16.14800 37.92400 42.98100
C  -15.90800 36.37900 43.29600
C  -14.37900 36.25100 42.91500
C  -16.77600 38.68800 44.12000
C  -16.72600 35.39400 42.46600
C  -18.07100 35.06500 42.98300
N  -11.53400 35.63100 42.27800
C  -12.37500 34.72400 42.73600
C  -11.68000 33.46500 42.88700
C  -10.48300 33.66300 42.27500
C  -10.38200 35.01500 41.94700
C  -12.30500 32.21500 43.57700
C  -9.24400 33.04700 41.97600
O  -8.91400 31.89600 42.25900
C  -8.26900 34.11000 41.25500
C  -7.00400 34.17400 42.06600
O  -6.81600 34.67600 43.15700
O  -6.06200 33.35900 41.39000
C  -4.96900 33.07300 42.28900
H  -9.11100 40.94400 40.34400
H  -15.16700 40.39200 42.41700
H  -14.32700 34.21900 43.48900
H  -6.75300 36.81500 40.32500
H  -7.67400 39.14900 39.01800
H  -6.87700 39.16200 42.06200
H  -6.21300 40.15900 40.70500
H  -5.64400 38.59900 41.17500
H  -7.91700 37.43000 37.67000
H  -8.65300 35.90700 38.20000
H  -6.84400 35.07700 37.25400
H  -5.83700 35.80900 38.57300
H  -11.02500 43.16900 39.45000
H  -9.73800 42.87000 40.73200
H  -10.95200 43.87700 41.07200
H  -15.74000 42.37500 41.11200
H  -15.61300 43.79900 42.07000
H  -15.36700 42.24800 42.96900
H  -16.84100 38.06900 42.15200
H  -16.17100 36.09900 44.31600
H  -17.75800 38.94800 43.72500
H  -16.18300 39.55600 44.40700
H  -16.92600 38.17100 45.06800
H  -16.15500 34.49400 42.23800
H  -16.83300 35.85500 41.48400
H  -18.07900 33.97500 42.98400
H  -18.74900 35.46700 42.23000
H  -18.25700 35.43500 43.99100
H  -11.88100 31.30900 43.14300
H  -13.38200 32.28100 43.42400
H  -12.26700 32.20600 44.66600
H  -8.08700 33.63900 40.29000
H  -5.36400 32.37100 43.02300
H  -4.54900 33.94100 42.79500
H  -4.11100 32.60800 41.80200

