158

Mg 17.09100 -0.63300 27.67000
C  15.84400 1.23200 30.26700
C  19.07200 -2.39700 29.86800
C  18.70100 -2.09000 24.89500
C  15.43100 1.53300 25.34200
N  17.43100 -0.46600 29.78800
C  16.81700 0.27400 30.68900
C  17.18000 -0.19000 32.13600
C  18.29400 -1.23900 31.88500
C  18.21700 -1.42300 30.39500
C  19.71300 -0.84400 32.46100
C  15.95000 -0.59100 32.95300
C  15.73900 0.17500 34.32600
H  16.92000 0.78000 35.14800
N  18.59300 -2.09200 27.43300
C  19.24800 -2.68800 28.52300
C  20.15000 -3.71900 27.97000
C  20.05000 -3.66800 26.53300
C  19.06500 -2.60800 26.19400
C  20.88500 -4.69500 28.78400
C  20.58000 -4.64100 25.55500
O  20.18100 -4.69700 24.40000
C  21.74300 -5.69800 25.93800
N  17.02500 -0.38500 25.44700
C  17.85200 -1.06200 24.57700
C  17.71800 -0.57600 23.15300
C  16.69000 0.57900 23.23500
C  16.28400 0.57500 24.75600
C  19.13700 -0.14100 22.55100
C  15.47200 0.42400 22.21800
C  15.05500 1.79500 21.52200
N  15.88100 1.01900 27.64900
C  15.27700 1.76400 26.70900
C  14.52500 2.86100 27.34200
C  14.73900 2.70000 28.75700
C  15.57500 1.54100 28.88300
C  13.77600 3.85500 26.61600
C  14.42300 3.20700 30.09100
O  13.83200 4.20700 30.49900
C  15.13200 2.28900 31.12700
C  16.02500 3.04500 32.07300
O  17.20400 3.38200 31.88900
O  15.26800 3.45900 33.17300
C  15.75000 4.55200 34.03500
H  19.56000 -2.96000 30.66700
H  19.23800 -2.52800 24.05100
H  15.02500 2.22900 24.60500
H  17.62700 0.68200 32.61300
H  17.96400 -2.22200 32.22200
H  20.51100 -0.76600 31.72200
H  19.96700 -1.71700 33.06200
H  19.69500 0.10100 33.00400
H  15.82600 -1.66300 33.10700
H  15.16600 -0.28300 32.26100
H  15.31700 -0.66200 34.88300
H  14.96000 0.87500 34.02500
H  20.26400 -5.57300 28.96600
H  20.98600 -4.17000 29.73300
H  21.93400 -4.84700 28.52700
H  21.21000 -6.40700 26.57100
H  22.48500 -5.40200 26.67900
H  22.23900 -6.17900 25.09400
H  17.41600 -1.43600 22.55500
H  17.22600 1.50700 23.03800
H  19.94000 -0.11400 23.28800
H  19.10400 0.82400 22.04600
H  19.44900 -0.80900 21.74800
H  14.59000 0.01400 22.70900
H  15.80800 -0.18800 21.38100
H  15.71600 2.64700 21.68200
H  14.07200 2.07300 21.90200
H  14.88600 1.73100 20.44800
H  12.87500 3.43700 26.16600
H  14.36900 4.35700 25.85300
H  13.48300 4.63700 27.31700
H  14.37000 1.82700 31.75500
H  16.30800 4.20500 34.90400
H  14.82900 5.10300 34.22800
H  16.36700 5.14000 33.35400
Mg 48.69600 15.32400 28.68800
C  46.48400 15.67300 31.38200
C  51.06900 17.13700 30.48000
C  50.51400 15.63400 25.93200
C  46.00400 14.08500 26.60900
N  48.70300 16.27400 30.66300
C  47.73100 16.17300 31.60700
C  48.32000 16.70400 33.00800
C  49.81000 17.23500 32.66100
C  49.88800 16.90200 31.19400
C  50.00000 18.64000 33.14300
C  48.24000 15.49700 34.04100
C  47.72600 15.81400 35.48100
H  47.67300 17.24600 35.96300
N  50.51400 16.25200 28.26000
C  51.34800 16.90600 29.10400
C  52.56800 17.33100 28.40300
C  52.47400 16.74700 27.05500
C  51.16600 16.12000 27.05900
C  53.57500 18.28000 28.99300
C  53.49400 16.85200 25.87800
O  53.19300 16.47800 24.73200
C  54.85600 17.37900 26.13600
N  48.24900 14.87700 26.55300
C  49.25200 15.08200 25.65400
C  48.89600 14.56900 24.29800
C  47.50400 13.88400 24.50100
C  47.22800 14.27700 25.95300
C  48.95900 15.70900 23.15000
C  47.37600 12.33200 24.09500
C  46.19400 12.07700 23.05400
N  46.70400 14.87300 28.90000
C  45.77200 14.37900 27.98400
C  44.48600 14.17300 28.67700
C  44.72300 14.64900 30.02800
C  46.10000 15.06700 30.09500
C  43.23500 13.56500 28.01800
C  44.14900 14.86100 31.30500
O  42.98500 14.60600 31.64400
C  45.28500 15.42400 32.26000
C  44.72600 16.58900 32.94600
O  44.65700 17.74100 32.46800
O  44.24400 16.21600 34.17300
C  43.66700 17.29500 34.89300
H  51.89600 17.60600 31.01700
H  51.26700 15.76100 25.15100
H  45.24400 13.55100 26.03400
H  47.69400 17.53900 33.32400
H  50.59700 16.62400 33.10300
H  51.00300 18.76400 33.55000
H  49.29600 19.05300 33.86600
H  50.05700 19.32600 32.29800
H  49.20000 15.00500 34.19700
H  47.54600 14.71400 33.73500
H  48.24000 15.21500 36.23300
H  46.68600 15.49700 35.56900
H  53.90500 19.10900 28.36700
H  54.41700 17.62900 29.22900
H  53.28800 18.67700 29.96600
H  54.91800 18.46700 26.12400
H  55.50500 16.94500 25.37600
H  55.24000 17.10400 27.11800
H  49.57100 13.75200 24.04300
H  46.84500 14.51800 23.90800
H  48.16500 15.52500 22.42700
H  49.90900 15.61900 22.62300
H  48.85400 16.67600 23.64300
H  47.11000 11.78800 25.00200
H  48.33900 11.96400 23.74200
H  46.61200 11.51700 22.21700
H  45.85700 13.01800 22.62100
H  45.35000 11.53800 23.48500
H  43.14200 14.24200 27.16900
H  42.29400 13.47100 28.56100
H  43.60600 12.58800 27.70800
H  45.45300 14.63900 32.99700
H  44.27800 17.74000 35.67900
H  42.83500 16.89500 35.47300
H  43.23300 18.10000 34.29900

