158

Mg 0.86900 7.96300 26.13700
C  1.56400 9.84300 29.06900
C  0.86300 5.17800 27.96600
C  0.42000 6.34500 23.31000
C  1.02400 11.02000 24.38000
N  1.20500 7.62500 28.33100
C  1.36700 8.47300 29.35500
C  1.31700 7.80100 30.76700
C  1.21700 6.29000 30.34800
C  1.10900 6.38200 28.76400
C  2.29700 5.41800 30.94700
C  0.25900 8.44000 31.84600
C  0.79100 8.44500 33.28300
H  1.73600 7.38600 33.75000
N  0.56200 6.04400 25.70800
C  0.68600 4.95800 26.55800
C  0.42900 3.71200 25.93300
C  0.26500 4.08200 24.53600
C  0.43800 5.54300 24.49600
C  0.66000 2.37400 26.65200
C  -0.10800 3.16100 23.40500
O  -0.22700 3.59500 22.28600
C  -0.51000 1.76400 23.58200
N  0.85800 8.60600 24.12900
C  0.75500 7.67500 23.16800
C  1.17500 8.35500 21.81300
C  0.93200 9.87800 22.12000
C  0.90800 9.87300 23.62300
C  2.73600 8.16500 21.56900
C  -0.39900 10.35800 21.50100
C  -1.78800 9.77400 22.08500
N  1.19700 10.03700 26.58100
C  1.26500 11.14100 25.75300
C  1.66000 12.25800 26.44400
C  1.71800 11.87300 27.79100
C  1.51700 10.47800 27.82000
C  2.10000 13.61800 25.91700
C  1.91300 12.31700 29.13100
O  2.30300 13.46800 29.43100
C  1.66300 11.08300 30.04800
C  2.73800 10.94600 31.00200
O  3.76600 10.28600 30.82500
O  2.49000 11.77400 32.04800
C  3.46800 11.99700 33.04800
H  0.85300 4.25300 28.54700
H  0.27200 5.78600 22.38400
H  0.97100 11.99100 23.88400
H  2.36100 7.81500 31.07900
H  0.23300 5.93300 30.65200
H  1.85200 4.42800 31.04900
H  2.64600 5.71200 31.93700
H  3.16100 5.41700 30.28200
H  -0.59000 7.75600 31.87400
H  -0.03500 9.41100 31.44800
H  -0.01100 8.18300 33.97200
H  1.05400 9.47700 33.51500
H  0.80500 1.64800 25.85200
H  -0.16100 2.01200 27.27000
H  1.49600 2.42400 27.35000
H  -1.22900 1.77000 24.40100
H  0.36500 1.13200 23.73600
H  -1.04700 1.37900 22.71500
H  0.59700 8.03100 20.94700
H  1.74400 10.57000 21.89700
H  3.16400 7.32100 22.11000
H  3.37900 9.02800 21.74000
H  2.79400 7.95200 20.50200
H  -0.47700 10.25200 20.41900
H  -0.42000 11.42800 21.70400
H  -2.63000 9.60600 21.41300
H  -2.14400 10.47200 22.84300
H  -1.61200 8.90500 22.71900
H  1.24000 14.28400 25.98500
H  2.34400 13.64400 24.85500
H  2.87400 14.02200 26.57000
H  0.71200 11.29800 30.53500
H  4.39500 12.45900 32.70700
H  3.74700 11.01500 33.43100
H  3.05200 12.52600 33.90500
Mg 26.55000 49.77400 26.90600
C  24.35200 51.10800 29.53600
C  28.89700 49.19900 29.36600
C  28.68500 48.94900 24.53200
C  24.28000 50.96800 24.61200
N  26.56900 50.06600 29.20800
C  25.56600 50.55600 30.03800
C  26.03400 50.42900 31.44500
C  27.53600 49.88100 31.45000
C  27.69300 49.59200 29.94100
C  28.62500 50.75700 32.04900
C  25.04400 49.38100 32.20400
C  24.34100 49.97000 33.51100
H  24.30800 49.06900 34.75500
N  28.52900 49.26400 26.95200
C  29.31700 48.95800 28.01200
C  30.60100 48.45300 27.64900
C  30.57300 48.53500 26.20300
C  29.23100 48.91400 25.83700
C  31.68300 47.74700 28.52900
C  31.67500 48.19400 25.22300
O  31.46800 48.29800 24.04500
C  32.99000 47.63200 25.73700
N  26.47800 49.94300 24.87200
C  27.42100 49.37500 24.09000
C  26.98500 49.24500 22.59000
C  25.55500 49.97800 22.58600
C  25.37800 50.33100 24.10700
C  28.03500 49.94900 21.58400
C  24.42200 49.14200 21.97700
C  24.07800 49.43200 20.53700
N  24.66000 50.78500 26.98300
C  23.82700 51.05500 25.93000
C  22.62600 51.70200 26.44900
C  22.77200 51.63300 27.83700
C  24.02300 51.09700 28.16000
C  21.54600 52.39500 25.58700
C  22.12100 51.95800 29.09700
O  21.01700 52.47200 29.28500
C  23.09800 51.65600 30.22000
C  23.42700 52.84100 31.06000
O  24.13800 53.81800 30.76900
O  22.89900 52.70100 32.33700
C  23.07300 53.63300 33.34700
H  29.50900 48.74700 30.14900
H  29.24700 48.42800 23.75400
H  23.51000 51.18200 23.86700
H  25.97300 51.42500 31.88200
H  27.71900 48.91400 31.91900
H  29.27800 51.11300 31.25300
H  29.21600 50.14500 32.73000
H  28.20000 51.64200 32.52300
H  25.69100 48.57700 32.55400
H  24.23900 49.12700 31.51400
H  23.29700 50.21100 33.31100
H  24.68700 50.96000 33.80700
H  31.64300 46.68100 28.30100
H  31.42400 47.98200 29.56100
H  32.66200 48.17300 28.31000
H  33.51500 48.30700 26.41400
H  33.65600 47.33400 24.92800
H  32.68900 46.71100 26.23600
H  26.94100 48.19900 22.28700
H  25.72000 50.91800 22.05900
H  28.92200 50.40100 22.02700
H  27.74600 50.69500 20.84400
H  28.45700 49.19500 20.92000
H  23.51400 49.36100 22.53900
H  24.63700 48.07700 22.05900
H  23.09300 49.90000 20.55200
H  24.02400 48.50500 19.96600
H  24.83800 50.06800 20.08400
H  20.57700 52.18000 26.03900
H  21.61600 52.22000 24.51400
H  21.73100 53.45800 25.74000
H  22.72400 50.82400 30.81700
H  23.61200 54.55200 33.11700
H  23.36400 53.23200 34.31800
H  22.01700 53.89300 33.42500

