158

Mg 1.56400 -1.81300 43.83600
C  4.92600 -1.18300 43.23900
C  0.82300 0.95800 41.97100
C  -1.65800 -2.72900 43.76500
C  2.37000 -4.99200 44.97700
N  2.82400 -0.37700 42.60600
C  4.16800 -0.31300 42.55300
C  4.60000 0.89500 41.70300
C  3.24400 1.76300 41.52900
C  2.18300 0.71200 42.03500
C  3.23100 3.19100 42.12800
C  5.28000 0.69200 40.30800
C  6.49400 1.64900 40.05700
H  6.61200 2.29800 38.75600
N  -0.20600 -0.99500 42.91600
C  -0.29300 0.18400 42.31400
C  -1.64500 0.47800 41.93500
C  -2.45500 -0.51500 42.55200
C  -1.45600 -1.43600 43.17200
C  -2.28300 1.74100 41.24800
C  -3.97800 -0.62100 42.41600
O  -4.71000 0.17700 41.78200
C  -4.70700 -1.78600 43.06300
N  0.48100 -3.69500 44.11200
C  -0.81900 -3.67600 44.28200
C  -1.31300 -5.02600 44.83200
C  -0.03700 -5.61800 45.45800
C  1.04400 -4.76000 44.76300
C  -2.52900 -5.10600 45.79600
C  0.08400 -7.06600 44.98600
C  0.75800 -8.02700 46.08000
N  3.24800 -2.88200 44.18800
C  3.49100 -4.12200 44.69600
C  4.86600 -4.32900 44.96100
C  5.45600 -3.19800 44.47100
C  4.44100 -2.36100 43.86500
C  5.44800 -5.50000 45.64400
C  6.70400 -2.46200 44.41000
O  7.86500 -2.66900 44.87300
C  6.40400 -1.13900 43.59000
C  6.78000 0.08100 44.38100
O  6.34900 0.47100 45.48500
O  7.73600 0.76000 43.65600
C  8.19900 2.05300 44.22700
H  0.48200 1.89400 41.52500
H  -2.70000 -3.00700 43.59000
H  2.75100 -5.83100 45.56300
H  5.21700 1.37200 42.46300
H  3.04400 1.89900 40.46600
H  3.07500 3.95300 41.36500
H  4.23900 3.22500 42.54200
H  2.51400 3.22400 42.94800
H  4.63900 0.84300 39.43900
H  5.61200 -0.34600 40.32200
H  7.37100 1.01500 40.18100
H  6.63600 2.35300 40.87700
H  -2.90300 2.33900 41.91700
H  -2.77900 1.39300 40.34200
H  -1.50000 2.38000 40.84100
H  -4.54900 -2.64000 42.40400
H  -5.78400 -1.61400 43.07500
H  -4.31200 -1.93500 44.06800
H  -1.63600 -5.49800 43.90400
H  0.06400 -5.60100 46.54300
H  -3.21900 -4.26800 45.69800
H  -2.17900 -5.10700 46.82800
H  -3.02700 -6.06300 45.64000
H  0.66700 -6.95600 44.07200
H  -0.89200 -7.51500 44.80400
H  1.18700 -7.41900 46.87600
H  1.56900 -8.53300 45.55700
H  0.00500 -8.71600 46.46300
H  4.91000 -5.45600 46.59100
H  6.42800 -5.23500 46.04100
H  5.28100 -6.37400 45.01400
H  7.01300 -0.96700 42.70200
H  7.35300 2.73900 44.27000
H  8.93400 2.48600 43.54700
H  8.62900 1.94600 45.22300
Mg 48.16200 34.84500 26.71700
C  46.52100 33.28500 29.37400
C  48.71000 37.52100 28.84800
C  49.71400 36.20300 24.17200
C  47.54100 31.94700 24.70900
N  47.87700 35.21300 28.93900
C  47.21700 34.44600 29.80400
C  47.38300 35.07800 31.16400
C  47.62200 36.58500 30.88500
C  48.12200 36.42000 29.49100
C  46.44100 37.52500 31.10400
C  48.62800 34.40600 31.86000
C  48.69000 34.47800 33.42000
H  47.65300 35.30200 34.18000
N  48.90600 36.64900 26.47200
C  49.04500 37.62600 27.45800
C  49.80200 38.75700 26.94700
C  50.25100 38.35800 25.59000
C  49.54300 37.07100 25.31300
C  50.25400 40.02200 27.85000
C  51.25100 39.07300 24.60400
O  51.62000 38.53800 23.56500
C  51.76200 40.39300 25.01000
N  48.47100 34.26500 24.57000
C  49.35100 34.93800 23.86900
C  49.81300 34.10900 22.65900
C  49.09800 32.72400 22.86100
C  48.30200 32.97800 24.09600
C  49.32100 34.78300 21.37000
C  50.09600 31.51000 23.09300
C  50.44900 30.70500 21.77000
N  47.12700 33.08500 26.92500
C  47.04200 31.98700 26.00900
C  46.28700 30.90300 26.74600
C  46.05100 31.47000 27.97800
C  46.64100 32.74200 28.08200
C  45.84500 29.64800 26.16200
C  45.34000 31.17600 29.23400
O  44.66100 30.19200 29.52500
C  45.50400 32.43400 30.11300
C  45.63400 32.13200 31.56800
O  46.64800 31.84300 32.16500
O  44.42800 32.35500 32.11900
C  44.38500 32.31800 33.63200
H  48.83200 38.36900 29.52500
H  50.33800 36.63100 23.38500
H  47.34000 31.04500 24.12600
H  46.52400 34.84900 31.79500
H  48.40300 36.93700 31.55900
H  46.60500 38.22600 31.92200
H  45.54100 36.93900 31.29200
H  46.26400 38.17800 30.24900
H  49.48800 34.94400 31.46200
H  48.71400 33.37100 31.52800
H  49.62500 34.94200 33.73600
H  48.67200 33.51400 33.92800
H  49.86100 40.98700 27.52800
H  51.34200 39.99900 27.91700
H  49.92800 39.92100 28.88500
H  52.36800 40.82400 24.21300
H  52.46000 40.39300 25.84700
H  50.91500 41.07500 25.08500
H  50.90200 34.09100 22.61900
H  48.42200 32.61000 22.01400
H  48.67900 35.66300 21.41500
H  48.92300 34.06200 20.65600
H  50.24800 35.04400 20.86100
H  49.74400 30.76500 23.80600
H  51.05000 31.87400 23.47400
H  49.83700 31.01300 20.92200
H  50.22900 29.65700 21.97200
H  51.51100 30.78300 21.53600
H  45.39400 29.85300 25.19100
H  45.13600 29.26800 26.89700
H  46.70300 28.99200 26.01700
H  44.51400 32.82800 29.88100
H  43.71600 33.10600 33.97900
H  45.35500 32.48600 34.10000
H  44.06700 31.32800 33.96000

