158

Mg 2.22900 -1.07600 44.08000
C  5.76100 -0.80400 43.29500
C  1.89000 1.86700 42.42800
C  -1.10600 -1.66600 44.04900
C  2.84400 -4.28800 45.19700
N  3.70000 0.34000 42.81300
C  5.09000 0.25300 42.70100
C  5.61500 1.40700 41.91100
C  4.39800 2.46100 41.97700
C  3.23500 1.53700 42.52800
C  4.71000 3.57400 42.90100
C  6.06100 0.95200 40.43900
C  7.49200 1.46000 39.94400
H  7.56500 2.20100 38.67200
N  0.57200 0.04600 43.55600
C  0.71700 1.20100 42.86000
C  -0.65200 1.72700 42.63900
C  -1.59100 0.76600 43.18700
C  -0.71300 -0.29500 43.67100
C  -0.93800 3.07400 41.96900
C  -3.10400 0.80200 43.17700
O  -3.59300 1.79500 42.63400
C  -3.99200 -0.23300 43.92500
N  1.04500 -2.83000 44.43300
C  -0.28700 -2.72400 44.39800
C  -0.91000 -3.95800 45.13400
C  0.31900 -4.91900 45.22600
C  1.46400 -4.00400 44.89500
C  -1.71100 -3.73000 46.39700
C  0.28600 -6.01600 44.10800
C  0.27900 -7.49600 44.52500
N  3.92700 -2.25300 44.36600
C  4.00000 -3.57500 44.81000
C  5.41000 -3.92200 44.91500
C  6.11500 -2.82900 44.34600
C  5.17900 -1.87700 44.01200
C  6.01200 -5.29300 45.32000
C  7.44700 -2.39300 43.96500
O  8.51800 -2.94300 44.04900
C  7.24500 -1.04700 43.24800
C  7.95700 0.04000 43.96300
O  7.62100 0.63700 45.00600
O  8.97600 0.43700 43.16800
C  9.70300 1.56700 43.64800
H  1.72500 2.84700 41.97500
H  -2.13300 -2.01200 43.91300
H  3.11900 -5.26100 45.60900
H  6.49700 1.70700 42.47600
H  4.11700 2.88200 41.01200
H  5.13400 4.36900 42.28700
H  5.33800 3.16900 43.69500
H  3.83700 3.97000 43.41900
H  5.31800 1.39400 39.77500
H  6.10400 -0.13500 40.38000
H  8.06100 0.53000 39.93900
H  7.94200 2.04300 40.74800
H  -1.94700 3.13000 41.56100
H  -0.20200 3.29600 41.19600
H  -0.88300 3.77500 42.80200
H  -4.85800 0.40300 44.11100
H  -3.52000 -0.49100 44.87300
H  -4.23900 -1.08300 43.28800
H  -1.61400 -4.42600 44.44600
H  0.51000 -5.39300 46.19000
H  -2.67100 -4.24300 46.33500
H  -1.86900 -2.66100 46.54100
H  -1.27100 -4.09500 47.32500
H  1.10400 -5.88400 43.40000
H  -0.54300 -5.69200 43.47800
H  -0.67300 -7.88300 44.16200
H  0.23900 -7.57800 45.61100
H  1.14700 -7.97900 44.07600
H  5.32600 -5.99100 45.79900
H  6.90700 -5.07800 45.90400
H  6.22000 -5.79900 44.37700
H  7.59100 -1.05800 42.21400
H  10.50600 1.78100 42.94300
H  10.08300 1.48100 44.66600
H  9.05800 2.44400 43.68200
Mg 47.10600 44.91200 43.11500
C  43.64800 44.14000 43.13900
C  47.67500 41.47700 43.02800
C  50.33800 45.64300 42.30200
C  46.23400 48.26500 42.58900
N  45.76500 43.05700 42.94600
C  44.39900 42.96800 43.04400
C  43.97600 41.56100 42.86800
C  45.25500 40.71400 43.02500
C  46.32700 41.79200 43.05600
C  45.27700 39.91100 44.38200
C  43.19200 41.26000 41.53800
C  43.81900 41.82600 40.32000
H  43.14500 41.56600 38.96400
N  48.84400 43.77100 42.90600
C  48.87600 42.33400 42.97500
C  50.28700 41.97100 42.75500
C  51.12100 43.13800 42.63300
C  50.12900 44.26200 42.69500
C  50.61800 40.48600 42.50200
C  52.58800 43.18800 42.45500
O  53.16300 42.11900 42.32700
C  53.32800 44.43300 42.40600
N  48.10300 46.65200 42.36600
C  49.41800 46.69100 42.22100
C  49.88600 48.07900 41.73600
C  48.59700 48.94900 41.85000
C  47.54700 47.91000 42.34800
C  51.19100 48.63000 42.40500
C  48.18300 49.80800 40.55800
C  47.93400 51.25700 40.91200
N  45.37100 46.01700 42.95600
C  45.18100 47.34600 42.76500
C  43.70600 47.57800 42.75500
C  43.05200 46.40900 43.00500
C  44.11100 45.46700 43.01600
C  42.96500 48.89100 42.36600
C  41.81500 45.76200 43.18100
O  40.70300 46.17100 43.19000
C  42.13700 44.24700 43.21600
C  41.66200 43.53700 44.32900
O  40.78000 42.71600 44.22800
O  42.27100 43.88400 45.56700
C  41.83100 43.05600 46.69500
H  47.88800 40.40900 43.11600
H  51.29300 45.83400 41.80800
H  45.99600 49.33000 42.62600
H  43.27600 41.39500 43.68700
H  45.43700 40.01300 42.21000
H  45.52000 40.57000 45.21500
H  46.11100 39.23900 44.18100
H  44.30400 39.45300 44.56200
H  42.15300 41.54400 41.70500
H  43.13900 40.17400 41.45800
H  44.84600 41.52000 40.12200
H  43.80800 42.91500 40.36100
H  51.67800 40.26200 42.61700
H  50.33300 40.02800 41.55400
H  50.03900 39.95900 43.26000
H  53.08000 44.92200 41.46400
H  54.40100 44.24300 42.38000
H  53.10900 45.08700 43.25000
H  50.23300 47.88900 40.72100
H  48.71700 49.62000 42.70000
H  51.17700 49.69300 42.64700
H  51.99200 48.47100 41.68300
H  51.45600 48.08900 43.31300
H  47.26100 49.41600 40.12900
H  48.97500 49.74100 39.81200
H  47.09500 51.71700 40.39000
H  48.80400 51.89800 40.76800
H  47.57100 51.29100 41.93900
H  43.68600 49.69400 42.52300
H  42.11200 48.98100 43.03900
H  42.70200 48.90500 41.30900
H  41.70600 43.78000 42.33000
H  40.91400 43.54100 47.03000
H  42.62800 43.15600 47.43100
H  41.59300 42.06500 46.30900

