158

Mg 7.64800 2.73400 28.49000
C  9.45500 1.82000 31.29200
C  5.73400 4.91700 30.42200
C  6.01500 3.68700 25.71100
C  9.26500 0.21400 26.65100
N  7.67100 3.31600 30.65700
C  8.43800 2.76900 31.59100
C  8.09600 3.40900 33.01100
C  6.79700 4.25100 32.67800
C  6.68600 4.19000 31.14300
C  5.52000 3.82400 33.49600
C  9.29700 4.33900 33.34500
C  9.22100 4.73300 34.85400
H  10.02100 3.97700 35.84100
N  6.21800 4.15800 28.14600
C  5.49900 4.86000 29.08100
C  4.43100 5.65700 28.43700
C  4.55600 5.37800 27.02100
C  5.60100 4.37300 26.90500
C  3.44900 6.53800 29.15100
C  3.77900 5.98200 25.91800
O  3.98200 5.74600 24.72800
C  2.70800 6.96200 26.19000
N  7.68800 2.08600 26.48500
C  6.94800 2.70100 25.46500
C  7.29900 2.13800 24.10900
C  8.28500 0.96900 24.43000
C  8.52300 1.11200 25.97800
C  6.06900 1.63600 23.30400
C  9.64400 1.05600 23.63900
C  10.95600 1.82800 24.23400
N  9.06600 1.28000 28.84400
C  9.62900 0.34600 27.99600
C  10.68100 -0.35700 28.65900
C  10.60600 0.12900 29.99000
C  9.63600 1.20100 30.03300
C  11.57900 -1.51000 28.23400
C  11.09500 -0.01500 31.31000
O  11.94000 -0.84800 31.71500
C  10.45900 1.14000 32.24300
C  9.70700 0.29600 33.25900
O  8.74300 -0.43800 33.10600
O  10.45200 0.37700 34.45300
C  10.13900 -0.61200 35.46900
H  5.15300 5.57400 31.07400
H  5.53600 4.01800 24.78700
H  9.91400 -0.44400 26.06900
H  7.94800 2.66700 33.79600
H  7.08500 5.25800 32.98200
H  4.80600 3.25600 32.90000
H  4.93300 4.67300 33.84400
H  5.92300 3.17800 34.27600
H  9.37500 5.12700 32.59600
H  10.20500 3.74200 33.25600
H  8.19100 4.63700 35.19700
H  9.54500 5.76700 34.97000
H  3.73700 7.56600 28.93300
H  3.51700 6.45000 30.23500
H  2.41400 6.33400 28.87600
H  1.92100 6.52700 26.80600
H  2.34800 7.33200 25.23100
H  3.09300 7.87500 26.64600
H  7.69700 2.96300 23.51900
H  7.83800 0.02200 24.12800
H  5.08800 1.74900 23.76500
H  6.19800 0.60400 22.98000
H  6.00400 2.22800 22.39000
H  9.31000 1.52800 22.71600
H  9.99100 0.05500 23.38100
H  11.27200 2.63000 23.56700
H  11.82800 1.17600 24.26700
H  10.78600 2.21500 25.23900
H  10.98700 -2.40700 28.41900
H  12.51600 -1.54800 28.79000
H  11.71800 -1.39600 27.15900
H  11.18300 1.67200 32.86100
H  9.75700 -1.57600 35.13300
H  9.39300 -0.22200 36.16200
H  11.08700 -0.74700 35.99000
Mg 39.90000 10.23600 29.54900
C  41.97200 11.36400 32.15500
C  37.73700 9.17400 31.93700
C  37.96100 8.94600 27.12100
C  42.37400 11.10800 27.32900
N  39.90600 10.30500 31.87200
C  40.74900 11.00700 32.68200
C  40.24600 11.00200 34.14200
C  39.00900 10.07000 34.02100
C  38.88300 9.81400 32.50800
C  39.28600 8.71200 34.80500
C  39.75200 12.44500 34.62600
C  39.43100 12.51000 36.12400
H  40.42200 13.18700 37.08600
N  38.19000 9.16700 29.49700
C  37.41500 8.79100 30.59800
C  36.27400 8.02100 30.23700
C  36.40700 7.88500 28.76800
C  37.51500 8.77900 28.39600
C  35.23000 7.46300 31.23000
C  35.59700 7.03500 27.79800
O  35.77800 6.93600 26.59000
C  34.41000 6.25500 28.35000
N  40.14000 10.03200 27.53000
C  39.12700 9.46600 26.67200
C  39.54500 9.59800 25.16400
C  40.92900 10.38900 25.30600
C  41.19500 10.50200 26.82100
C  39.61600 8.24800 24.28600
C  40.83100 11.81600 24.74000
C  41.76500 12.30000 23.67900
N  41.86200 10.90700 29.68800
C  42.71400 11.34200 28.68000
C  43.81500 12.07400 29.25300
C  43.57500 12.04500 30.62400
C  42.36100 11.38600 30.79900
C  44.91000 12.76600 28.42200
C  44.06700 12.42900 31.95100
O  45.11000 12.99000 32.28400
C  43.01300 12.04800 32.95800
C  43.59700 11.26600 34.08100
O  43.73400 10.07400 34.17700
O  44.05200 12.15000 35.04200
C  44.78800 11.66400 36.22200
H  37.06500 8.90600 32.75500
H  37.28500 8.55000 26.36000
H  43.05200 11.55700 26.59900
H  41.03500 10.59000 34.77100
H  38.12000 10.62100 34.32600
H  38.65600 8.62700 35.69100
H  40.32400 8.69200 35.13600
H  39.12100 7.86100 34.14400
H  38.88200 12.75500 34.04700
H  40.52200 13.20600 34.50200
H  39.29700 11.46900 36.41800
H  38.50400 13.08300 36.14500
H  34.22700 7.72600 30.89500
H  35.37800 7.71200 32.28100
H  35.33300 6.38900 31.07500
H  34.82100 5.47200 28.98900
H  34.03900 5.75200 27.45800
H  33.66700 6.92900 28.77600
H  38.74700 10.20400 24.73400
H  41.77500 9.90000 24.82400
H  40.59000 7.89500 23.94900
H  38.98800 8.34700 23.40100
H  39.35500 7.33500 24.82300
H  40.99900 12.58300 25.49700
H  39.88300 11.91300 24.21100
H  41.24900 12.47600 22.73500
H  42.47400 11.57600 23.27800
H  42.41000 13.12300 23.98600
H  45.49500 13.45400 29.03200
H  44.56500 13.39700 27.60300
H  45.60800 12.00000 28.08500
H  42.58900 12.95900 33.38100
H  45.83800 11.79900 35.96000
H  44.76900 10.59900 36.45600
H  44.60500 12.25100 37.12200

