158

Mg 47.50200 25.33900 28.20100
C  48.38200 27.58300 30.82400
C  46.77200 23.01300 30.65300
C  46.89200 23.11800 25.83300
C  48.62400 27.60300 25.91700
N  47.61800 25.31300 30.54500
C  47.87700 26.37100 31.36800
C  47.65000 26.04900 32.90100
C  47.36900 24.47100 32.80700
C  47.25200 24.20100 31.25100
C  48.53000 23.63200 33.37200
C  46.53900 26.92800 33.55800
C  45.81600 26.35900 34.76200
H  45.45600 27.35900 35.92000
N  46.79200 23.38400 28.26400
C  46.50700 22.59200 29.33400
C  46.09000 21.29300 28.92500
C  46.01300 21.35600 27.42400
C  46.50400 22.69300 27.10600
C  45.67900 20.22900 29.91100
C  45.47400 20.41200 26.40100
O  45.30300 20.74900 25.23900
C  45.16100 19.00400 26.86100
N  47.70200 25.39500 26.13700
C  47.49300 24.27400 25.34800
C  47.99200 24.45000 23.90500
C  48.40500 25.95500 23.86100
C  48.20000 26.36500 25.37000
C  49.04800 23.43400 23.55300
C  47.50300 26.84000 22.92700
C  48.13800 27.74800 21.92800
N  48.21300 27.29100 28.27500
C  48.63900 28.11700 27.24400
C  49.18200 29.37900 27.77300
C  49.04900 29.22100 29.18300
C  48.55000 27.91800 29.40000
C  49.73200 30.54900 26.94700
C  49.27500 29.87000 30.46900
O  49.68400 30.99800 30.68800
C  48.86300 28.80600 31.53500
C  50.04800 28.49900 32.46300
O  51.05800 27.93100 32.16500
O  49.69400 28.86700 33.75400
C  50.54900 28.26100 34.76400
H  46.52800 22.26900 31.41400
H  46.81800 22.41700 24.99900
H  48.98900 28.23400 25.10400
H  48.60200 26.21900 33.40300
H  46.35000 24.27000 33.13800
H  49.02300 23.04600 32.59600
H  48.05700 22.91500 34.04200
H  49.18200 24.35300 33.86500
H  45.84700 27.09100 32.73200
H  47.01900 27.85600 33.86700
H  46.24700 25.45000 35.18200
H  44.92400 25.85400 34.39200
H  46.42200 19.44000 30.02000
H  44.76800 19.78200 29.51300
H  45.48600 20.56700 30.92900
H  44.83100 18.46000 25.97700
H  44.43100 18.91900 27.66500
H  46.06400 18.57900 27.30100
H  47.08700 24.27800 23.32300
H  49.43400 26.19600 23.59700
H  49.97800 23.96000 23.76900
H  49.07300 23.32600 22.46800
H  49.00800 22.43400 23.98400
H  46.94200 27.53300 23.55400
H  46.64100 26.36400 22.45900
H  47.67800 27.66400 20.94300
H  49.21000 27.57800 21.82000
H  47.98300 28.76300 22.29300
H  49.51500 30.45200 25.88300
H  50.79700 30.65300 27.15700
H  49.27400 31.43400 27.38900
H  47.94200 29.02500 32.07500
H  51.39300 28.88500 35.06100
H  50.90800 27.25100 34.56800
H  49.88500 28.13200 35.61900
Mg -10.83300 17.24200 41.08800
C  -7.25500 17.13800 40.89500
C  -10.60400 20.50000 40.30900
C  -13.94100 17.03400 40.01100
C  -10.72000 13.73500 41.18300
N  -9.09500 18.55300 40.38600
C  -7.75900 18.37700 40.60300
C  -6.96900 19.56900 40.14900
C  -8.02600 20.68300 40.42500
C  -9.34700 19.86700 40.37600
C  -7.82200 21.56100 41.75600
C  -6.54400 19.40000 38.60400
C  -5.08000 19.08400 38.43200
H  -4.76500 17.93500 37.49300
N  -12.13600 18.61100 40.20800
C  -11.89400 19.93800 40.15100
C  -13.05100 20.65400 39.81200
C  -14.08700 19.66200 39.77900
C  -13.44000 18.33300 40.04500
C  -12.99300 22.13700 39.47000
C  -15.59700 19.92500 39.28300
O  -15.95300 21.08100 38.94300
C  -16.59200 18.76600 39.16600
N  -12.14300 15.48400 40.48400
C  -13.38800 15.72700 40.20200
C  -14.24300 14.46100 40.25800
C  -13.21900 13.35400 40.70500
C  -12.00300 14.22900 40.86500
C  -15.57200 14.52900 41.02500
C  -12.95700 12.03800 39.93900
C  -13.60100 10.82600 40.58500
N  -9.42400 15.67600 41.40500
C  -9.50200 14.33000 41.48800
C  -8.15300 13.80400 41.74300
C  -7.31300 14.86900 41.51900
C  -8.08700 16.01300 41.27300
C  -7.74100 12.38700 41.94400
C  -5.83700 15.20000 41.50200
O  -4.84500 14.46600 41.59000
C  -5.76300 16.76200 41.17200
C  -5.15200 17.53400 42.36200
O  -3.96100 17.72100 42.41400
O  -6.12100 17.95600 43.27100
C  -5.53800 18.72900 44.38100
H  -10.62100 21.58400 40.17700
H  -15.02800 17.10200 40.08900
H  -10.68400 12.67600 41.44400
H  -6.05800 19.61500 40.74500
H  -8.03600 21.35600 39.56700
H  -6.87300 21.33600 42.24300
H  -8.59600 21.34000 42.49100
H  -7.88600 22.63200 41.56600
H  -6.70700 20.32300 38.04900
H  -7.08800 18.58800 38.12200
H  -4.66300 19.08000 39.43900
H  -4.57000 19.93800 37.98700
H  -13.01400 22.65500 40.42900
H  -13.86700 22.53700 38.95600
H  -12.10000 22.40400 38.90500
H  -16.26000 17.98400 38.48200
H  -17.49200 19.08200 38.64000
H  -16.95700 18.47600 40.15100
H  -14.51400 14.26900 39.22000
H  -13.50100 13.05900 41.71600
H  -16.32800 14.25200 40.29000
H  -15.85900 15.46500 41.50400
H  -15.56300 13.71700 41.75200
H  -11.88500 11.88600 39.81100
H  -13.40200 12.24600 38.96600
H  -14.40800 10.41300 39.98000
H  -13.86100 11.01300 41.62700
H  -12.76900 10.12300 40.62200
H  -8.62100 11.75800 41.81000
H  -7.45300 12.29700 42.99200
H  -6.93100 11.93900 41.36800
H  -5.05700 16.87800 40.35000
H  -6.33800 18.83800 45.11300
H  -5.15500 19.69900 44.06200
H  -4.68100 18.23200 44.83600

