158

Mg 16.03200 52.44400 25.16300
C  17.80200 51.35600 27.84700
C  13.42900 53.19600 27.21900
C  14.28500 53.31500 22.43900
C  18.65600 51.36600 23.01300
N  15.59100 52.11400 27.28700
C  16.55600 51.81700 28.18900
C  16.02000 52.05700 29.59600
C  14.47500 52.47300 29.40000
C  14.50900 52.62400 27.87800
C  13.39600 51.46400 29.97700
C  16.80600 53.27500 30.20000
C  16.50300 53.44600 31.70800
H  15.74400 52.47000 32.51200
N  14.08700 53.18200 24.88100
C  13.10900 53.38300 25.86200
C  11.88300 53.86300 25.21700
C  12.09500 53.81700 23.78500
C  13.51900 53.39900 23.64200
C  10.72800 54.35700 25.98100
C  11.17200 54.19100 22.64000
O  11.43600 53.92300 21.46200
C  9.81600 54.75200 22.79500
N  16.56400 52.45700 23.04400
C  15.62600 52.92800 22.17000
C  16.21100 52.86200 20.72400
C  17.63700 52.29400 20.99400
C  17.64300 52.06400 22.44200
C  15.32700 52.01400 19.73900
C  18.76400 53.27800 20.44800
C  18.81300 54.60300 21.13500
N  17.82600 51.48000 25.28100
C  18.78700 51.06600 24.36900
C  19.94000 50.52000 25.06700
C  19.60400 50.60500 26.44400
C  18.32900 51.14100 26.52200
C  21.25900 50.07000 24.46900
C  19.98900 50.26600 27.83900
O  20.96200 49.62500 28.28300
C  18.88800 50.79800 28.75600
C  18.32200 49.75600 29.64800
O  17.64500 48.73300 29.32000
O  18.83000 50.03700 30.92200
C  18.58600 49.00900 31.92100
H  12.60700 53.57300 27.83100
H  13.68600 53.70500 21.61300
H  19.43700 51.05400 22.31600
H  16.06900 51.12500 30.15800
H  14.33500 53.42000 29.92100
H  12.67400 51.96500 30.62300
H  13.88900 50.69000 30.56500
H  12.90000 51.03300 29.10800
H  16.43300 54.13600 29.64500
H  17.86600 53.07100 30.04900
H  15.85100 54.31900 31.72400
H  17.44700 53.71100 32.18500
H  9.80500 53.81700 25.77300
H  10.55800 55.40400 25.72900
H  10.81900 54.41200 27.06600
H  10.08500 55.76700 23.08900
H  9.19800 54.18800 23.49400
H  9.16600 54.71700 21.92100
H  16.23900 53.85000 20.26400
H  17.86600 51.44400 20.35200
H  14.33500 51.81600 20.14600
H  15.83500 51.10200 19.42600
H  15.07200 52.59600 18.85300
H  18.51000 53.38100 19.39300
H  19.73700 52.82600 20.64200
H  17.85200 55.07900 21.32900
H  19.34000 55.29200 20.47400
H  19.35700 54.67600 22.07600
H  22.09900 50.69600 24.76900
H  21.17500 50.12500 23.38400
H  21.45900 49.06300 24.83600
H  19.35300 51.65400 29.24400
H  17.61700 49.05800 32.41600
H  19.34500 48.95400 32.70200
H  18.65200 48.03300 31.44000
Mg -0.26100 43.52800 26.67500
C  2.09600 43.17500 29.31700
C  -2.67500 42.92300 28.88400
C  -2.36300 43.36200 24.13100
C  2.52500 43.96300 24.38600
N  -0.30700 43.20500 28.89500
C  0.74300 43.04700 29.78600
C  0.26000 42.98500 31.21600
C  -1.30300 42.73200 30.97200
C  -1.42800 42.99000 29.49600
C  -1.79500 41.37500 31.53700
C  0.77600 44.27100 32.01800
C  1.57400 44.04000 33.28500
H  1.11600 43.05000 34.35100
N  -2.26200 43.29300 26.47400
C  -3.13500 43.03900 27.54200
C  -4.51700 42.86700 27.04400
C  -4.44500 43.06300 25.62500
C  -3.03300 43.28100 25.32300
C  -5.70200 42.71600 28.01300
C  -5.60100 43.21100 24.62700
O  -5.36900 43.57000 23.48400
C  -7.02700 43.10700 25.03200
N  0.03400 43.76500 24.57100
C  -0.99800 43.54900 23.71000
C  -0.54700 43.39300 22.29300
C  0.96200 43.74700 22.35000
C  1.21600 43.88500 23.86000
C  -0.74800 41.90000 21.79700
C  1.24400 45.18300 21.67300
C  2.61900 45.37800 21.05400
N  1.84900 43.68600 26.79000
C  2.82500 43.90500 25.78300
C  4.17900 43.80700 26.38800
C  3.94000 43.57400 27.76200
C  2.51500 43.44800 27.94400
C  5.56700 44.01200 25.76500
C  4.58500 43.37600 29.09000
O  5.75300 43.39000 29.48200
C  3.35700 43.10800 30.02200
C  3.56400 41.87200 30.85000
O  3.35800 40.73800 30.46800
O  4.17400 42.25600 31.95100
C  4.78400 41.15400 32.80700
H  -3.50300 42.74200 29.57300
H  -2.90600 43.17200 23.20300
H  3.25000 44.14300 23.59000
H  0.58500 42.10900 31.77700
H  -1.74300 43.49300 31.61700
H  -2.80800 41.37800 31.93800
H  -1.13800 41.00100 32.32300
H  -1.65600 40.67300 30.71400
H  -0.06300 44.89800 32.31800
H  1.36100 44.93900 31.38700
H  1.63700 45.03100 33.73300
H  2.61300 43.87000 33.00400
H  -6.48200 42.19200 27.46100
H  -6.04600 43.67800 28.39200
H  -5.38400 42.08500 28.84300
H  -7.23800 42.06900 25.28700
H  -7.70600 43.34300 24.21300
H  -7.38600 43.82400 25.77000
H  -0.95700 44.16000 21.63500
H  1.53400 42.99000 21.81400
H  0.13400 41.34000 21.48700
H  -1.35700 42.14000 20.92500
H  -1.43100 41.25500 22.35000
H  1.05600 45.87000 22.49800
H  0.41300 45.33800 20.98600
H  2.45600 45.37300 19.97700
H  3.28700 44.54100 21.25800
H  2.95300 46.38700 21.29700
H  5.56400 44.71100 24.92900
H  5.94300 43.08400 25.33500
H  6.34900 44.26700 26.48000
H  3.41600 43.90400 30.76400
H  5.20800 40.32900 32.23500
H  3.94300 40.66400 33.29800
H  5.55400 41.52400 33.48400

