158

Mg 0.15700 7.97400 26.95600
C  0.79300 9.93700 29.86300
C  0.28000 5.19600 28.86300
C  -0.28600 6.24700 24.13300
C  0.41600 10.95800 25.08300
N  0.50000 7.60100 29.11900
C  0.63800 8.55500 30.15000
C  0.60000 7.89400 31.55300
C  0.52300 6.36700 31.13700
C  0.37100 6.37900 29.62700
C  1.73000 5.51800 31.62200
C  -0.62500 8.34400 32.48200
C  -0.16800 8.90700 33.84500
H  0.77100 8.08700 34.67200
N  0.04300 5.99000 26.55100
C  0.12800 4.98900 27.44700
C  -0.05700 3.77100 26.76800
C  -0.37400 4.03700 25.40700
C  -0.26100 5.46800 25.30000
C  0.24800 2.37800 27.42200
C  -0.76600 3.09000 24.31700
O  -0.91900 3.53100 23.17300
C  -0.93200 1.69100 24.64400
N  0.01500 8.56200 24.92300
C  -0.13100 7.67300 23.93700
C  -0.01300 8.43000 22.50900
C  -0.14500 9.90300 22.89700
C  0.01100 9.80200 24.39400
C  1.24900 8.05800 21.69000
C  -1.53500 10.53500 22.51900
C  -1.75100 10.75800 20.95900
N  0.65000 10.00200 27.34100
C  0.75800 11.10000 26.46100
C  0.99700 12.36900 27.22100
C  1.04200 11.88500 28.57200
C  0.84900 10.48900 28.59800
C  1.15200 13.76300 26.83000
C  1.25200 12.35300 29.95200
O  1.59800 13.41700 30.31900
C  1.03500 11.17200 30.84300
C  2.24600 11.05800 31.64800
O  3.23100 10.35600 31.31000
O  2.19700 11.77700 32.76000
C  3.27600 11.51700 33.75400
H  0.46900 4.27400 29.41900
H  -0.53300 5.70200 23.21900
H  0.52800 11.91000 24.56100
H  1.51800 8.25000 32.01900
H  -0.34900 5.84200 31.52600
H  2.25000 5.03400 30.79500
H  1.44300 4.78800 32.37900
H  2.43900 6.15400 32.15300
H  -1.25100 7.48600 32.72600
H  -1.22000 9.04400 31.89600
H  -0.98700 9.13700 34.52700
H  0.32800 9.87300 33.74600
H  0.93700 1.81500 26.79100
H  -0.64600 1.78700 27.61800
H  0.86600 2.42900 28.31800
H  0.08000 1.28700 24.64900
H  -1.35600 1.25700 23.73900
H  -1.54100 1.57100 25.54000
H  -0.84800 8.08000 21.90300
H  0.67200 10.48800 22.47300
H  0.85200 7.39900 20.91800
H  1.95400 7.55000 22.34800
H  1.69400 8.90800 21.17300
H  -1.68500 11.49000 23.02400
H  -2.21900 9.89100 23.07100
H  -1.16800 10.16500 20.25400
H  -1.56900 11.80600 20.71900
H  -2.79900 10.59400 20.71100
H  0.22800 14.17200 27.23600
H  1.55300 13.74700 25.81600
H  1.80500 14.38200 27.44500
H  0.23400 11.36200 31.55700
H  3.65200 12.48200 34.09500
H  4.05600 10.90700 33.29800
H  2.80600 10.91000 34.52700
Mg 49.20500 47.96400 42.61500
C  45.89100 47.58900 41.32200
C  49.79400 44.82800 41.43400
C  52.26100 48.48100 43.54600
C  48.23200 51.19000 43.58700
N  48.02200 46.53600 41.25400
C  46.70000 46.56900 40.94500
C  46.31000 45.32800 40.11900
C  47.54500 44.38200 40.37800
C  48.48900 45.31300 41.06200
C  47.11800 43.20800 41.33600
C  46.07600 45.77900 38.67300
C  44.77600 45.36700 37.89400
H  44.93000 44.51900 36.62800
N  50.80100 46.84400 42.46000
C  50.85300 45.57300 41.95400
C  52.22600 45.13200 41.93700
C  52.99800 46.14300 42.57900
C  52.03000 47.25300 42.89200
C  52.63800 43.78500 41.31800
C  54.47800 46.08000 42.79000
O  55.14800 45.12300 42.45500
C  55.21600 47.17000 43.49800
N  50.16500 49.66600 43.34300
C  51.46800 49.61100 43.62500
C  51.92900 50.93700 44.32900
C  50.61100 51.78100 44.36700
C  49.62900 50.87800 43.72800
C  52.58300 50.85400 45.74900
C  50.73700 53.17800 43.67600
C  50.80500 54.27300 44.78500
N  47.45700 49.13100 42.55700
C  47.24200 50.38100 43.02700
C  45.85300 50.77500 42.78200
C  45.24100 49.65800 42.23500
C  46.30900 48.76400 42.01300
C  45.29400 52.12200 43.05400
C  43.99500 49.16000 41.60600
O  42.88200 49.60100 41.44600
C  44.41500 47.72700 41.02700
C  43.54700 46.73900 41.64500
O  43.71400 46.41100 42.80200
O  42.61100 46.30400 40.72500
C  41.65100 45.38600 41.28600
H  50.07300 43.79300 41.22600
H  53.22700 48.58700 44.04400
H  47.86300 52.13700 43.98700
H  45.40200 44.97100 40.60600
H  47.84500 44.07400 39.37600
H  46.16500 43.32700 41.85000
H  47.85800 43.21400 42.13700
H  47.22000 42.20900 40.91100
H  46.84300 45.41100 37.99200
H  46.17400 46.86500 38.66600
H  44.28900 46.21400 37.41000
H  44.03400 44.86800 38.51800
H  52.63400 43.83900 40.23000
H  51.95900 42.99400 41.63700
H  53.60400 43.45700 41.70200
H  55.06100 48.10400 42.95900
H  56.30200 47.07500 43.50900
H  54.78900 47.15400 44.50100
H  52.72700 51.27800 43.67000
H  50.34800 51.99300 45.40300
H  52.50900 49.82600 46.10200
H  52.24100 51.55600 46.51000
H  53.59000 51.19500 45.50800
H  49.82000 53.28700 43.09500
H  51.60500 53.11200 43.02000
H  50.26900 55.14500 44.41000
H  51.84100 54.50300 45.03400
H  50.35900 54.13700 45.77000
H  45.16800 52.78400 42.19700
H  45.85200 52.66800 43.81500
H  44.34600 52.09700 43.59100
H  44.23600 47.79000 39.95400
H  41.90800 44.32700 41.29600
H  40.68600 45.30900 40.78600
H  41.37500 45.56200 42.32500

