158

Mg 24.76300 -6.67400 45.86800
C  26.83600 -4.12500 44.32500
C  22.25800 -5.58300 43.82400
C  23.26200 -9.49100 46.41200
C  27.63000 -7.71600 47.59100
N  24.64200 -5.05900 44.22200
C  25.56700 -4.13300 43.75200
C  24.84400 -3.06200 42.86000
C  23.35100 -3.49800 42.90700
C  23.40700 -4.77900 43.72400
C  22.29900 -2.46700 43.50900
C  25.44500 -3.02500 41.47200
C  25.69800 -1.63800 40.76600
H  25.06700 -1.33000 39.38300
N  22.95800 -7.42700 45.35300
C  22.06500 -6.80900 44.50200
C  20.94700 -7.64100 44.27200
C  21.19200 -8.78100 45.05100
C  22.48600 -8.59300 45.64100
C  19.73500 -7.29200 43.51900
C  20.25800 -9.99300 45.13400
O  19.08200 -9.94300 44.70600
C  20.72700 -11.18300 45.74400
N  25.41700 -8.42900 46.75800
C  24.54500 -9.44500 46.97100
C  25.31100 -10.62500 47.66200
C  26.57800 -9.95700 48.22600
C  26.58800 -8.65200 47.47100
C  24.52000 -11.47800 48.68000
C  27.92000 -10.84500 48.09300
C  29.11800 -10.69900 49.10300
N  26.85100 -6.01200 46.09200
C  27.79200 -6.54800 46.78300
C  29.02400 -5.70600 46.61600
C  28.65000 -4.70800 45.64100
C  27.31500 -5.00100 45.31800
C  30.31700 -5.78100 47.38700
C  29.16300 -3.62600 44.87600
O  30.33000 -3.25200 44.72300
C  27.99300 -3.20300 43.92900
C  27.61600 -1.79000 44.25100
O  27.22400 -1.29500 45.34700
O  27.87300 -0.99300 43.14400
C  27.57600 0.47900 43.11100
H  21.42300 -5.18200 43.24600
H  22.87500 -10.47600 46.68400
H  28.49500 -8.10500 48.13200
H  24.96800 -2.05700 43.26400
H  22.96600 -3.74100 41.91700
H  22.66200 -1.46100 43.71500
H  21.84000 -2.73100 44.46200
H  21.50700 -2.47100 42.76000
H  24.82000 -3.48600 40.70800
H  26.33200 -3.65000 41.57600
H  26.76700 -1.62600 40.55400
H  25.39900 -0.77200 41.35700
H  19.01900 -8.09300 43.33600
H  20.03300 -6.79300 42.59700
H  19.14300 -6.56000 44.06900
H  19.90600 -11.88500 45.88800
H  21.05100 -10.82200 46.72000
H  21.53800 -11.63300 45.17100
H  25.54500 -11.23200 46.78700
H  26.46000 -9.76100 49.29100
H  23.46300 -11.21200 48.66600
H  24.85600 -11.19200 49.67700
H  24.57100 -12.55300 48.50800
H  28.36100 -10.64900 47.11600
H  27.57800 -11.88000 48.06400
H  29.46900 -11.60000 49.60600
H  28.93400 -9.98000 49.90200
H  29.98100 -10.26900 48.59500
H  30.90300 -4.92200 47.06000
H  30.81900 -6.70000 47.08300
H  30.11300 -5.73600 48.45600
H  28.17000 -3.39100 42.87000
H  26.96900 0.62900 42.21800
H  28.49200 1.03200 42.90600
H  27.03400 0.74400 44.02000
Mg -9.99800 17.61900 41.42200
C  -6.56300 16.91500 41.55700
C  -9.03500 20.85200 40.57200
C  -13.10500 18.17900 40.53200
C  -10.69300 14.26600 41.67600
N  -8.01400 18.72100 40.96000
C  -6.75900 18.23800 41.14100
C  -5.72900 19.23200 40.74500
C  -6.49300 20.59200 40.79200
C  -7.94400 20.04400 40.86300
C  -6.21800 21.49900 42.07200
C  -5.19500 18.89600 39.32000
C  -3.71200 18.57700 39.13400
H  -3.38300 17.28900 38.36700
N  -10.96200 19.35600 40.76300
C  -10.44300 20.56200 40.54900
C  -11.46700 21.53500 40.18600
C  -12.66200 20.75700 40.20400
C  -12.31300 19.37000 40.50100
C  -11.13700 23.03000 39.93100
C  -14.04600 21.37700 39.91900
O  -14.18000 22.62200 39.83100
C  -15.38700 20.65300 39.67300
N  -11.69000 16.33200 41.06600
C  -12.93500 16.80300 40.85000
C  -13.98500 15.73000 40.77700
C  -13.16300 14.40800 41.06100
C  -11.79800 15.03800 41.32400
C  -15.26700 15.87800 41.67900
C  -13.13000 13.41400 39.89300
C  -12.11400 13.69000 38.71600
N  -8.83100 15.88000 41.75000
C  -9.30300 14.58700 41.79500
C  -8.15900 13.71300 41.77800
C  -7.02500 14.54500 41.80200
C  -7.52600 15.87200 41.81100
C  -8.16600 12.18100 41.74700
C  -5.53700 14.68300 41.70800
O  -4.67600 13.79500 41.67400
C  -5.22000 16.19300 41.69500
C  -4.38100 16.63000 42.84800
O  -3.34500 17.34100 42.75800
O  -4.72300 15.89900 44.02800
C  -3.96800 16.12100 45.20900
H  -8.79200 21.89000 40.33600
H  -14.12700 18.38800 40.20700
H  -10.86100 13.20600 41.88000
H  -4.88900 19.18600 41.43800
H  -6.37600 21.10800 39.83900
H  -6.98300 21.32200 42.82900
H  -6.23400 22.53700 41.74000
H  -5.24300 21.33100 42.53000
H  -5.38200 19.68300 38.59000
H  -5.80100 18.07200 38.94400
H  -3.30100 18.57300 40.14400
H  -3.27800 19.44300 38.63500
H  -10.38000 22.97900 39.14800
H  -10.79000 23.48500 40.85900
H  -11.98800 23.58200 39.53300
H  -15.72000 19.92400 40.41300
H  -15.34500 20.19800 38.68400
H  -16.15000 21.43000 39.65000
H  -14.29500 15.55200 39.74700
H  -13.42400 14.01700 42.04400
H  -16.19400 15.77700 41.11600
H  -15.27800 16.83600 42.20100
H  -15.15300 15.11900 42.45300
H  -14.09500 13.37800 39.38700
H  -12.95900 12.42200 40.31000
H  -11.75200 14.71700 38.74500
H  -12.55000 13.57700 37.72300
H  -11.26300 13.00900 38.74300
H  -9.12000 11.95000 42.22200
H  -7.42300 11.70900 42.39000
H  -8.20600 11.76900 40.73900
H  -4.57100 16.26500 40.82200
H  -3.23900 16.92900 45.14300
H  -3.49600 15.22200 45.60600
H  -4.77400 16.31500 45.91700

