158

Mg 0.38100 7.07700 25.92700
C  1.10100 9.12500 28.69800
C  1.27800 4.37600 27.95200
C  0.66000 5.03600 23.15600
C  0.58200 9.87100 23.85100
N  0.99400 6.80600 28.05100
C  1.08100 7.74100 29.03500
C  1.14500 7.14600 30.43900
C  1.23900 5.62200 30.16800
C  1.12600 5.58300 28.64800
C  2.50600 5.00400 30.70000
C  -0.06500 7.56900 31.39000
C  0.10000 7.63800 32.90500
H  1.30100 6.96200 33.56700
N  0.76300 4.91200 25.62200
C  1.04400 4.04100 26.58100
C  1.12000 2.69200 25.99400
C  0.90800 2.84400 24.61500
C  0.78100 4.29900 24.35300
C  1.33500 1.51800 26.76800
C  0.79000 1.75800 23.47900
O  0.77200 2.04000 22.28900
C  0.74600 0.27600 23.85900
N  0.61900 7.38600 23.82300
C  0.55900 6.40200 22.93500
C  0.31300 6.96700 21.48100
C  0.23000 8.51000 21.68200
C  0.42900 8.61900 23.24700
C  1.33100 6.48000 20.46300
C  -1.20500 9.09900 21.32000
C  -2.26700 9.26800 22.36400
N  0.65800 9.09200 26.19600
C  0.72400 10.12700 25.27600
C  0.84900 11.39300 25.97500
C  1.02400 11.05700 27.33300
C  0.87700 9.68300 27.38000
C  0.72300 12.66100 25.36300
C  1.25300 11.52000 28.64100
O  1.48000 12.60600 29.05700
C  1.12600 10.33800 29.57900
C  2.41500 10.43500 30.46000
O  3.60000 10.37700 30.00700
O  2.05500 10.82700 31.73800
C  3.13600 10.89500 32.71900
H  1.31600 3.51300 28.62100
H  0.59300 4.50400 22.20500
H  0.60700 10.75400 23.20900
H  2.06600 7.54800 30.86000
H  0.31700 5.08900 30.40100
H  2.28000 4.53100 31.65600
H  3.25300 5.78500 30.84800
H  2.97400 4.22200 30.10300
H  -0.84400 6.82000 31.24500
H  -0.61900 8.43600 31.03000
H  -0.81600 7.23000 33.33200
H  0.10400 8.68500 33.20800
H  0.81700 0.65100 26.35900
H  1.04000 1.62300 27.81200
H  2.41300 1.36600 26.72000
H  1.56700 0.04600 24.53800
H  0.80800 -0.39800 23.00500
H  -0.22000 -0.03800 24.25200
H  -0.65400 6.51500 21.25600
H  1.02900 9.00800 21.13300
H  1.73600 7.38200 20.00200
H  1.04200 5.74200 19.71500
H  2.13600 5.99800 21.01700
H  -1.76100 8.48500 20.61200
H  -1.04700 10.02200 20.76100
H  -2.02600 8.91500 23.36600
H  -3.17600 8.70900 22.14400
H  -2.54400 10.32200 22.36700
H  0.32500 13.38900 26.07100
H  0.18900 12.66700 24.41300
H  1.68500 13.08600 25.07600
H  0.11100 10.39300 29.97300
H  3.74700 10.00600 32.56200
H  2.86300 10.89200 33.77400
H  3.67300 11.82700 32.54400
Mg 16.89800 -2.41200 28.18200
C  16.01800 -0.32100 30.86400
C  18.69900 -4.29200 30.32500
C  18.03300 -3.99100 25.43700
C  15.29000 -0.00800 26.03700
N  17.27500 -2.20600 30.32700
C  16.78200 -1.37400 31.29600
C  17.37100 -1.67900 32.66800
C  18.39200 -2.84200 32.32600
C  18.04700 -3.17800 30.89400
C  19.91400 -2.46700 32.46800
C  16.32300 -1.99200 33.72100
C  16.58000 -1.51400 35.16600
H  18.01000 -1.63900 35.71300
N  18.06000 -4.08100 27.92300
C  18.70900 -4.70700 28.97100
C  19.39900 -5.86300 28.40200
C  19.20500 -5.79400 26.92400
C  18.38500 -4.58400 26.69700
C  20.10200 -6.79400 29.35900
C  19.75800 -6.67400 25.86400
O  19.54500 -6.63300 24.63800
C  20.71700 -7.66000 26.24600
N  16.67700 -2.06600 26.01500
C  17.35100 -2.79700 25.07400
C  17.06500 -2.27600 23.66600
C  16.20800 -1.07700 23.92100
C  16.06400 -1.02800 25.42700
C  18.33100 -1.90500 22.80100
C  14.86100 -1.05600 23.05400
C  13.45800 -1.47600 23.49900
N  15.84400 -0.62500 28.29100
C  15.16000 0.18100 27.42200
C  14.42900 1.18200 28.11700
C  14.79200 1.06600 29.45100
C  15.63500 -0.01700 29.53600
C  13.51100 2.17400 27.50000
C  14.62300 1.71400 30.72400
O  13.99600 2.70500 30.99400
C  15.40700 0.78100 31.72500
C  16.48700 1.61600 32.38900
O  17.66200 1.72100 32.11500
O  15.87900 2.46300 33.26100
C  16.75400 3.51300 33.82400
H  19.17300 -4.90100 31.09700
H  18.51700 -4.50000 24.60100
H  14.80700 0.74100 25.40500
H  17.86600 -0.77600 33.02600
H  18.20000 -3.67100 33.00700
H  20.03200 -1.42600 32.76900
H  20.31500 -2.56300 31.45900
H  20.44100 -3.15300 33.13200
H  16.10300 -3.05700 33.64500
H  15.39200 -1.51900 33.41100
H  15.90100 -2.21500 35.65100
H  16.09700 -0.54700 35.30700
H  19.45000 -7.27700 30.08700
H  20.91900 -6.25900 29.84400
H  20.49100 -7.65600 28.81700
H  21.10000 -8.13300 25.34200
H  20.14700 -8.39200 26.81800
H  21.59800 -7.33600 26.79900
H  16.49200 -2.98300 23.06700
H  16.72600 -0.12000 23.85800
H  18.26800 -2.67800 22.03500
H  19.21500 -2.15300 23.38800
H  18.36000 -0.88400 22.42000
H  15.06900 -1.58000 22.12100
H  14.78600 -0.00800 22.76300
H  12.84600 -0.58400 23.63300
H  13.58100 -1.98200 24.45600
H  13.03100 -2.14900 22.75500
H  12.82400 1.62800 26.85500
H  14.10400 2.90500 26.95000
H  13.04100 2.80400 28.25600
H  14.75700 0.28900 32.45000
H  17.67000 3.13600 34.27800
H  16.30900 4.09300 34.63200
H  17.18000 4.22400 33.11600

