158

Mg 48.37000 14.95700 28.17200
C  46.40000 14.99700 31.24400
C  50.48800 17.04100 29.72600
C  50.07300 14.92200 25.27200
C  45.73300 13.04200 26.69400
N  48.34600 15.94800 30.19500
C  47.54500 15.72900 31.31300
C  48.16600 16.38900 32.56300
C  49.27400 17.35700 31.91300
C  49.35900 16.79100 30.49300
C  49.04500 18.89200 31.91600
C  48.63500 15.31100 33.64400
C  48.38000 15.43500 35.13200
H  49.51200 15.34400 36.12900
N  50.09300 15.82000 27.60700
C  50.89500 16.64400 28.42400
C  52.21400 16.70700 27.81400
C  52.13100 16.19900 26.52200
C  50.71500 15.62700 26.41800
C  53.42100 17.33900 28.46400
C  53.19200 15.96900 25.46000
O  53.02500 15.41500 24.39400
C  54.63800 16.39300 25.70300
N  47.82000 14.39700 26.14400
C  48.75600 14.38300 25.13200
C  48.43100 13.31800 24.04800
C  46.98500 12.81600 24.44100
C  46.84000 13.39300 25.86300
C  48.57400 13.81400 22.52000
C  46.93000 11.18800 24.53800
C  45.78200 10.46600 23.88900
N  46.37900 14.27800 28.71300
C  45.49000 13.48400 28.02700
C  44.35100 13.23000 28.94400
C  44.66800 13.70800 30.17000
C  45.92100 14.40600 30.04000
C  43.14300 12.40200 28.64200
C  44.26200 13.78400 31.58200
O  43.25900 13.32700 32.14000
C  45.42400 14.53100 32.32200
C  44.76900 15.69800 33.01300
O  44.05500 16.53000 32.48000
O  45.23500 15.80500 34.30700
C  44.75500 16.94300 34.98300
H  51.20100 17.71700 30.20200
H  50.69200 14.79700 24.38100
H  44.97000 12.33800 26.35400
H  47.35700 16.94400 33.03700
H  50.25900 17.22800 32.36200
H  49.84500 19.36300 32.48700
H  48.08100 19.18400 32.33300
H  49.14700 19.27300 30.90000
H  49.71800 15.26700 33.53500
H  48.08700 14.39200 33.43600
H  47.60300 14.70400 35.35800
H  47.95200 16.42800 35.27100
H  53.44900 18.38200 28.14900
H  54.31100 16.71100 28.41000
H  53.24900 17.46000 29.53300
H  54.80300 17.43300 25.98500
H  55.14800 16.04900 24.80300
H  55.00600 15.76800 26.51700
H  49.22200 12.58200 24.19100
H  46.16900 13.18400 23.81900
H  49.29500 14.62600 22.60100
H  47.56500 14.12000 22.24500
H  48.95200 13.01700 21.87900
H  47.15300 10.91500 25.57000
H  47.75000 10.86400 23.89800
H  45.06200 11.20800 23.54300
H  45.32400 9.71800 24.53700
H  46.05800 10.02700 22.93000
H  42.23700 12.69100 29.17300
H  43.40900 11.40000 28.97900
H  43.00800 12.27500 27.56800
H  45.68700 13.82000 33.10500
H  43.68300 17.07300 34.83900
H  45.37400 17.76900 34.63200
H  45.03300 16.77500 36.02300
Mg 15.85900 52.44700 24.95600
C  17.65200 51.11000 27.79000
C  13.23700 53.23000 26.94000
C  14.16600 53.12200 22.29800
C  18.49600 50.99500 23.06500
N  15.57100 52.17200 27.05500
C  16.41800 51.72200 28.08500
C  15.77200 52.02200 29.43600
C  14.33400 52.39200 29.03400
C  14.33000 52.63200 27.57000
C  13.12400 51.61100 29.64500
C  16.57200 53.06800 30.24000
C  16.86700 52.81400 31.67400
H  16.11000 51.77300 32.53600
N  14.00500 53.22500 24.65400
C  13.05400 53.50800 25.60200
C  11.89800 54.12900 25.00800
C  12.10500 53.95700 23.56200
C  13.45200 53.41400 23.43500
C  10.79900 54.58900 25.83400
C  11.06200 54.21500 22.40600
O  11.37900 54.01500 21.25200
C  9.80800 54.95600 22.75400
N  16.20300 52.03300 22.95000
C  15.37500 52.38100 22.06600
C  15.81000 51.93500 20.62100
C  17.26200 51.43200 20.86600
C  17.32700 51.49900 22.42000
C  14.83400 50.91600 20.01100
C  18.35100 52.30200 20.20500
C  18.15500 52.22900 18.65100
N  17.72200 51.25900 25.27700
C  18.65200 50.78300 24.43200
C  19.65200 50.03300 25.09200
C  19.28800 50.15500 26.43800
C  18.10800 50.90600 26.47500
C  20.76700 49.38900 24.43700
C  19.67500 49.77200 27.79700
O  20.69600 49.18800 28.19400
C  18.72400 50.37800 28.70800
C  18.11500 49.26700 29.54500
O  17.40300 48.34800 29.14400
O  18.61700 49.26400 30.83900
C  18.16900 48.12700 31.65100
H  12.41400 53.48700 27.61000
H  13.63000 53.34100 21.37100
H  19.31400 50.59300 22.46300
H  15.72100 51.14000 30.07400
H  14.16400 53.42600 29.33400
H  12.42600 51.27300 28.87800
H  12.42800 52.17100 30.26900
H  13.50500 50.69000 30.08600
H  16.09000 54.04400 30.18400
H  17.53100 53.11500 29.72600
H  16.85400 53.70800 32.29700
H  17.92500 52.58500 31.80800
H  9.94900 53.94100 25.61900
H  10.51200 55.58800 25.50700
H  10.98200 54.72400 26.90000
H  9.16800 55.02800 21.87500
H  10.11300 55.89700 23.21200
H  9.19300 54.36600 23.43300
H  15.63500 52.82900 20.02300
H  17.44300 50.36500 20.73200
H  14.04200 51.39400 19.43400
H  14.30200 50.25600 20.69600
H  15.33000 50.17900 19.38000
H  19.32900 51.86300 20.40300
H  18.34000 53.32300 20.58900
H  17.41600 51.46300 18.41300
H  19.11600 52.02700 18.17800
H  17.74900 53.15700 18.25000
H  20.94000 48.47400 25.00300
H  21.69200 49.96300 24.50200
H  20.47000 49.37400 23.38900
H  19.24500 51.05600 29.38400
H  18.99900 47.42700 31.74800
H  17.44200 47.38000 31.33200
H  17.93000 48.33100 32.69500

