158

Mg -1.58800 18.21200 27.76100
C  -2.03500 15.94300 30.35100
C  -2.39900 20.75200 29.74400
C  -1.32500 20.20700 24.91200
C  -1.32600 15.41400 25.63500
N  -2.03000 18.27100 29.81000
C  -2.13800 17.28400 30.76500
C  -2.56200 17.88500 32.17800
C  -2.89300 19.34800 31.86700
C  -2.49100 19.47600 30.38800
C  -4.42300 19.68500 31.99800
C  -1.42900 17.75200 33.25700
C  -1.83300 17.31900 34.61500
H  -0.69000 17.09100 35.67000
N  -1.85000 20.25900 27.39200
C  -2.13500 21.10400 28.36600
C  -2.04500 22.49100 27.83700
C  -1.74500 22.37400 26.45700
C  -1.63600 20.86800 26.19000
C  -2.36100 23.79600 28.58600
C  -1.53000 23.42100 25.42200
O  -1.33800 23.08800 24.25300
C  -1.40900 24.87100 25.78300
N  -1.20400 17.89300 25.64400
C  -1.10200 18.87600 24.68100
C  -0.69000 18.25800 23.28800
C  -0.61700 16.70900 23.58000
C  -1.11300 16.65900 25.05400
C  -1.73100 18.59300 22.18300
C  0.72900 16.09100 23.38700
C  1.96600 16.78100 24.12000
N  -1.65800 16.10800 27.92400
C  -1.58500 15.10000 26.96000
C  -1.84500 13.83400 27.61200
C  -1.97200 14.12300 28.89600
C  -1.85800 15.44800 29.02900
C  -1.86000 12.49800 26.85300
C  -2.17500 13.56100 30.26200
O  -2.21400 12.40800 30.65400
C  -2.18400 14.68100 31.23300
C  -1.04300 14.42700 32.10900
O  0.13400 14.72500 31.89800
O  -1.53100 13.66000 33.09500
C  -0.45300 13.18000 33.95800
H  -2.61400 21.62100 30.36900
H  -1.16600 20.74300 23.97400
H  -1.34400 14.60200 24.90600
H  -3.44700 17.36400 32.54300
H  -2.35400 20.03900 32.51600
H  -4.57600 20.42200 32.78600
H  -4.98600 18.79300 32.27400
H  -4.87700 20.14300 31.11900
H  -0.88000 18.68500 33.38800
H  -0.70000 17.03500 32.87900
H  -2.57700 16.52700 34.53000
H  -2.31000 18.20700 35.02900
H  -1.51600 24.46800 28.73300
H  -2.58200 23.46200 29.59900
H  -3.29500 24.24900 28.25200
H  -0.43900 24.95800 26.27200
H  -2.23800 25.23900 26.38900
H  -1.44100 25.34100 24.80000
H  0.32200 18.48400 22.95200
H  -1.29100 16.23600 22.86500
H  -2.53500 19.14300 22.67300
H  -2.03700 17.62500 21.78700
H  -1.40600 19.30100 21.42000
H  0.85600 16.18800 22.30900
H  0.59700 15.01500 23.49400
H  1.62100 17.19900 25.06600
H  2.29300 17.62400 23.51100
H  2.78600 16.08200 24.28600
H  -0.99200 12.39800 26.20100
H  -2.79200 12.46300 26.28900
H  -1.79500 11.65800 27.54400
H  -3.17200 14.54900 31.67300
H  0.31700 12.74200 33.32400
H  -0.86800 12.39600 34.59300
H  0.05200 13.84500 34.65900
Mg 41.23400 41.16300 26.88000
C  40.27200 43.58400 29.12100
C  42.06300 38.97500 29.36200
C  42.25200 38.75300 24.59100
C  40.71000 43.42900 24.26800
N  41.13700 41.28900 28.94100
C  40.61700 42.34300 29.70200
C  40.66900 41.92700 31.24500
C  41.40100 40.57100 31.30500
C  41.55600 40.25800 29.77200
C  42.65700 40.28800 32.17200
C  39.32000 42.05100 32.01300
C  39.44200 42.66900 33.38900
H  38.65200 42.11900 34.65000
N  41.96800 39.07900 26.95100
C  42.27400 38.45800 28.08900
C  42.66800 37.12000 27.73400
C  42.77600 37.00300 26.32500
C  42.29700 38.27300 25.86900
C  43.14500 36.21800 28.80000
C  43.29300 35.85200 25.48300
O  43.36800 35.91800 24.27700
C  43.75000 34.56400 26.10400
N  41.54100 41.17100 24.76900
C  41.81500 39.98900 24.09000
C  41.78700 40.29700 22.48200
C  41.21300 41.73400 22.46200
C  41.16200 42.16600 23.94600
C  43.17900 40.17700 21.88300
C  39.84900 41.82400 21.68400
C  38.60300 41.39000 22.54100
N  40.69800 43.17700 26.65200
C  40.49300 43.94800 25.54700
C  40.10800 45.30900 25.89200
C  39.97100 45.22000 27.34000
C  40.40700 43.92800 27.74800
C  39.91900 46.47300 24.94400
C  39.59400 45.91000 28.61600
O  39.14200 47.02100 28.85700
C  39.75600 44.87200 29.75500
C  40.78000 45.41200 30.59300
O  41.88200 45.92700 30.27900
O  40.19200 45.50000 31.82500
C  41.01600 46.32700 32.75700
H  42.31100 38.32900 30.20700
H  42.51600 38.13200 23.73200
H  40.23600 44.03500 23.49300
H  41.35700 42.65200 31.68000
H  40.65600 39.84400 31.62900
H  42.64200 40.93100 33.05300
H  43.61800 40.45800 31.68700
H  42.51200 39.32800 32.66700
H  38.94200 41.05100 32.22500
H  38.55600 42.48500 31.36800
H  39.12800 43.71300 33.39000
H  40.48900 42.64200 33.69200
H  43.18800 36.63400 29.80700
H  44.14200 35.85000 28.55900
H  42.41300 35.41100 28.83000
H  43.01400 33.97200 26.65000
H  44.71600 34.75600 26.57200
H  44.17100 34.01000 25.26500
H  41.17900 39.51900 22.02000
H  41.93600 42.40800 22.00100
H  43.38200 40.98900 21.18500
H  43.26700 39.23300 21.34600
H  43.92800 40.06900 22.66900
H  39.81600 41.24000 20.76400
H  39.74100 42.87700 21.42300
H  38.78000 41.19600 23.59900
H  38.20300 40.46200 22.13400
H  37.92100 42.23400 22.43400
H  38.88300 46.62400 24.64300
H  40.50900 46.34200 24.03600
H  40.37900 47.33800 25.42200
H  38.84100 44.71100 30.32500
H  42.08500 46.43700 32.57000
H  40.80200 46.08400 33.79800
H  40.67200 47.36100 32.73200

