158

Mg 7.60100 2.88000 27.27900
C  9.09600 1.61000 30.33500
C  5.61400 4.94300 29.21200
C  6.46100 4.20400 24.45000
C  9.47200 0.50400 25.47000
N  7.36600 3.16400 29.50700
C  8.10300 2.61700 30.52600
C  7.69100 3.23400 31.84800
C  6.53600 4.18600 31.47400
C  6.40900 4.09400 29.94200
C  5.24000 3.81200 32.22400
C  8.78300 4.01600 32.60700
C  8.41200 4.43900 33.97900
H  9.28200 4.06800 35.21500
N  6.26600 4.47300 26.87400
C  5.55800 5.23400 27.78800
C  4.87300 6.27600 27.07700
C  5.08000 6.07900 25.71100
C  5.93100 4.87400 25.65600
C  4.06900 7.28700 27.73800
C  4.50500 6.81900 24.50700
O  4.59900 6.46300 23.34000
C  3.61800 7.95200 24.70200
N  7.79300 2.30500 25.30600
C  7.28200 3.06700 24.32400
C  7.74900 2.65500 22.93900
C  8.78400 1.53300 23.24700
C  8.71900 1.43000 24.81100
C  6.60500 2.21000 22.09100
C  10.22700 1.88700 22.65900
C  11.10000 2.89600 23.35100
N  8.90000 1.26400 27.81000
C  9.64900 0.41400 26.91100
C  10.47900 -0.49400 27.74900
C  10.31700 0.00500 29.06300
C  9.31000 1.03600 29.08200
C  11.54000 -1.53100 27.32600
C  10.69300 -0.27600 30.41200
O  11.38200 -1.19300 30.84300
C  10.02100 0.82900 31.31400
C  9.15200 0.16300 32.35300
O  8.12900 -0.45700 32.15400
O  9.74200 0.42900 33.56700
C  8.91400 0.13900 34.77400
H  5.12500 5.63500 29.90100
H  6.18000 4.54900 23.45300
H  10.14700 -0.11300 24.87200
H  7.54500 2.34600 32.46300
H  6.70700 5.21700 31.78200
H  5.41500 2.92300 32.83100
H  4.53900 3.50600 31.44800
H  4.81100 4.63600 32.79400
H  8.89600 4.96600 32.08500
H  9.74500 3.50400 32.65000
H  7.56400 3.82000 34.27100
H  8.03500 5.46100 34.03700
H  4.04400 7.06200 28.80400
H  3.08400 7.07100 27.32400
H  4.36600 8.27900 27.39700
H  3.92800 8.73700 25.39200
H  2.63900 7.55200 24.96500
H  3.45100 8.53600 23.79800
H  8.25400 3.50100 22.47200
H  8.52700 0.52200 22.93300
H  6.39300 2.94500 21.31400
H  5.67300 2.18800 22.65500
H  6.72500 1.27700 21.53900
H  10.04800 2.25300 21.64800
H  10.76200 0.93700 22.64000
H  10.99700 2.81900 24.43400
H  10.77800 3.87000 22.98100
H  12.15400 2.79100 23.09700
H  12.39800 -1.22700 27.92600
H  11.63900 -1.65000 26.24700
H  11.21000 -2.53500 27.59100
H  10.69300 1.60700 31.67700
H  8.06900 0.82700 34.77900
H  9.53600 0.06700 35.66700
H  8.52300 -0.87800 34.80300
Mg 44.09200 4.19300 46.93300
C  42.10200 7.08700 46.78000
C  41.33400 2.25400 46.95800
C  46.12300 1.71000 46.67500
C  46.98500 6.47100 46.85500
N  41.95800 4.73200 46.84700
C  41.35200 5.94900 46.79400
C  39.79900 5.79900 46.88300
C  39.63300 4.25100 46.99200
C  41.08300 3.68700 46.84400
C  38.99800 3.88000 48.31000
C  38.98200 6.48100 45.80800
C  39.53200 6.30300 44.33800
H  38.52200 6.03700 43.18400
N  43.75900 2.22100 46.77000
C  42.58900 1.58900 46.82900
C  42.76600 0.19300 46.62500
C  44.17000 -0.10900 46.55800
C  44.77800 1.27400 46.72000
C  41.66600 -0.79800 46.45100
C  44.79200 -1.45800 46.41700
O  44.04600 -2.41300 46.18900
C  46.31000 -1.78300 46.44100
N  46.32000 4.15200 46.57000
C  46.80200 2.90700 46.67500
C  48.39900 2.98000 46.73700
C  48.69400 4.54300 46.75000
C  47.30800 5.11700 46.71300
C  49.15400 2.08000 47.80000
C  49.46400 5.04300 45.49100
C  51.02800 4.86400 45.48900
N  44.52800 6.36300 46.71200
C  45.69400 7.07400 46.77000
C  45.42000 8.50600 46.81800
C  43.99300 8.55300 46.85600
C  43.49000 7.24200 46.76200
C  46.40700 9.57800 46.89500
C  42.83400 9.42500 46.83200
O  42.81600 10.64100 46.67300
C  41.55800 8.54100 46.82000
C  40.77400 8.83600 48.12500
O  40.92500 8.19500 49.16600
O  39.96900 9.91900 48.06300
C  39.09400 10.00300 49.24200
H  40.40700 1.68000 46.91500
H  46.82200 0.87000 46.67600
H  47.91700 6.99100 47.08800
H  39.43800 6.16900 47.84200
H  39.01100 3.81800 46.20900
H  38.30100 4.63600 48.67000
H  39.73200 3.61100 49.07000
H  38.53700 2.91400 48.10700
H  38.69700 7.50200 46.06200
H  38.07100 5.88500 45.76700
H  40.28400 5.52400 44.21500
H  40.02400 7.25300 44.13000
H  41.85800 -1.55500 45.69000
H  40.71500 -0.26500 46.45700
H  41.63500 -1.42300 47.34300
H  46.83100 -1.21000 45.67400
H  46.51100 -2.84200 46.27400
H  46.60600 -1.65200 47.48200
H  48.63600 2.47400 45.80100
H  49.32300 4.81900 47.59700
H  48.29800 1.77400 48.40200
H  49.85600 2.72000 48.33300
H  49.55600 1.18500 47.32500
H  49.19500 6.05600 45.19100
H  49.09600 4.37300 44.71400
H  51.34500 4.19500 44.68900
H  51.31700 4.45700 46.45800
H  51.52900 5.81300 45.29800
H  47.40100 9.19300 46.66800
H  46.51800 9.88200 47.93600
H  46.16500 10.43000 46.26000
H  40.97800 8.79500 45.93300
H  39.59000 10.63100 49.98200
H  38.69200 9.18500 49.84000
H  38.20100 10.46300 48.81700

