158

Mg 17.41800 -0.93500 27.92900
C  16.34400 0.92200 30.63300
C  19.37800 -2.67100 30.16700
C  18.93000 -2.35700 25.29200
C  15.44300 1.00700 25.82400
N  18.05400 -0.70700 30.18800
C  17.43500 0.07600 31.05600
C  17.85600 -0.28400 32.51800
C  19.01200 -1.34300 32.33800
C  18.82400 -1.58500 30.80200
C  20.40500 -0.73400 32.70700
C  16.65800 -0.79500 33.39400
C  16.55500 -0.18300 34.80000
H  17.79000 0.39300 35.46600
N  18.87900 -2.38200 27.78100
C  19.48800 -3.04200 28.81100
C  20.17700 -4.23100 28.24800
C  20.13300 -4.11600 26.80100
C  19.27300 -2.91300 26.55300
C  20.86200 -5.27800 29.20300
C  20.76200 -4.97300 25.71700
O  20.47500 -4.85500 24.55100
C  21.65700 -6.11800 26.07400
N  17.30600 -0.65300 25.89400
C  18.08000 -1.31800 24.98800
C  17.70800 -0.95000 23.61200
C  16.45200 -0.01100 23.75700
C  16.38900 0.16600 25.31700
C  18.90100 -0.33300 22.86100
C  15.06400 -0.44300 23.18200
C  14.47700 0.22100 21.94500
N  16.18700 0.62800 28.13500
C  15.34900 1.26700 27.24400
C  14.52400 2.30900 27.90000
C  14.86000 2.13100 29.22200
C  15.94400 1.16400 29.34400
C  13.60700 3.23300 27.20200
C  14.53600 2.64100 30.47900
O  13.69000 3.43900 30.81300
C  15.48400 1.90800 31.49000
C  16.25700 2.89000 32.21700
O  17.10400 3.56600 31.64100
O  16.03000 2.90700 33.56900
C  16.51200 4.10000 34.30300
H  20.02500 -3.19500 30.87300
H  19.32100 -2.96300 24.47100
H  14.81100 1.59200 25.15300
H  18.38000 0.54800 32.98900
H  18.82800 -2.25300 32.90800
H  21.19200 -1.20400 32.11800
H  20.56800 -0.94800 33.76300
H  20.50700 0.33600 32.52500
H  16.81700 -1.86600 33.52100
H  15.74500 -0.62200 32.82500
H  16.40900 -1.00900 35.49600
H  15.74800 0.54700 34.85900
H  21.86500 -5.45700 28.81700
H  20.35200 -6.23500 29.31900
H  20.86000 -4.88400 30.21900
H  22.64300 -5.71700 26.31100
H  21.63900 -6.73800 25.17800
H  21.33000 -6.71000 26.92900
H  17.53900 -1.84700 23.01700
H  16.70500 0.98800 23.40300
H  19.79900 -0.27000 23.47600
H  18.67500 0.66400 22.48300
H  19.08000 -1.03900 22.05000
H  14.27900 -0.42200 23.93800
H  15.13700 -1.51100 22.97900
H  13.53300 0.65400 22.27700
H  14.24200 -0.45000 21.11900
H  15.12700 1.00200 21.55000
H  12.61300 2.80600 27.06400
H  13.96100 3.70300 26.28500
H  13.54200 3.92900 28.03800
H  14.71000 1.53400 32.16000
H  17.45800 3.82900 34.77000
H  15.78000 4.34800 35.07200
H  16.55300 4.96300 33.63900
Mg 10.05400 48.53400 25.81000
C  8.14700 49.03700 28.65500
C  12.72400 50.01600 27.44200
C  11.86900 47.98600 23.09800
C  7.16000 47.87300 23.98100
N  10.44300 49.25200 27.91100
C  9.50000 49.34000 28.91300
C  10.05900 49.93300 30.15500
C  11.34400 50.71100 29.55800
C  11.50600 50.02300 28.17800
C  11.44800 52.26100 29.51200
C  10.26100 48.89000 31.27900
C  9.51900 49.19900 32.57600
H  9.33300 48.09500 33.58000
N  12.05700 48.83400 25.38600
C  12.97800 49.43200 26.19800
C  14.23200 49.15800 25.58800
C  14.05600 48.51000 24.28600
C  12.62200 48.39900 24.18100
C  15.49500 49.40700 26.29500
C  15.10800 48.04600 23.31800
O  14.85500 47.53200 22.29100
C  16.56200 48.17500 23.62100
N  9.50600 48.10200 23.78300
C  10.46600 47.83300 22.88600
C  9.89600 47.23400 21.55300
C  8.35500 47.17500 21.83900
C  8.29900 47.75700 23.24800
C  10.33800 48.07500 20.25200
C  7.80400 45.76100 21.67100
C  7.94300 44.80600 22.88500
N  8.11500 48.33600 26.18200
C  7.02200 48.13900 25.33200
C  5.81300 48.29800 26.06100
C  6.20900 48.64800 27.36100
C  7.64400 48.64400 27.36900
C  4.44900 48.35200 25.54200
C  5.70700 48.87600 28.78300
O  4.53400 48.85000 29.18800
C  6.97000 49.06800 29.68100
C  7.01900 47.96000 30.54900
O  7.72100 46.93400 30.44100
O  6.18900 48.05700 31.62000
C  6.07100 46.94900 32.60500
H  13.49500 50.54900 28.00300
H  12.56000 47.82400 22.26800
H  6.24500 47.68300 23.41600
H  9.45400 50.74200 30.56400
H  12.18900 50.30300 30.11200
H  10.47900 52.72600 29.69100
H  11.68500 52.77100 28.57900
H  12.15700 52.71200 30.20700
H  11.32000 48.92200 31.53500
H  9.99700 47.93200 30.83100
H  8.48800 49.49900 32.38900
H  10.00300 50.02900 33.09100
H  15.36000 49.38900 27.37700
H  15.97600 50.35700 26.06300
H  16.29000 48.67000 26.17800
H  16.88100 49.20100 23.80700
H  17.09500 47.84700 22.72800
H  16.65500 47.51900 24.48600
H  10.28500 46.22100 21.44500
H  7.76800 47.84300 21.20900
H  10.98800 48.79300 20.75100
H  9.46500 48.61900 19.89100
H  10.85500 47.57800 19.43000
H  8.36100 45.28000 20.86800
H  6.73800 45.74700 21.44200
H  8.64100 45.18300 23.63300
H  8.23600 43.82600 22.50800
H  6.96200 44.83700 23.35900
H  4.03100 47.36000 25.37200
H  4.35300 48.93200 24.62500
H  3.82200 48.77500 26.32800
H  6.94900 49.99800 30.24800
H  5.04500 46.59000 32.52500
H  6.25000 47.33900 33.60600
H  6.70100 46.10000 32.34000

