158

Mg 41.95200 41.11500 26.48200
C  41.32400 43.46800 29.12500
C  42.86400 38.82300 28.96400
C  43.41100 39.19200 24.07500
C  41.47000 43.64600 24.25600
N  42.12700 41.17500 28.78600
C  41.77900 42.19800 29.64000
C  41.75500 41.74400 31.10700
C  42.48700 40.38700 30.99900
C  42.42300 40.05700 29.48400
C  43.89500 40.42800 31.62100
C  40.39700 41.76900 31.85600
C  40.57000 41.29300 33.37900
H  40.01200 42.23900 34.46000
N  43.02000 39.27500 26.52600
C  43.12000 38.40900 27.61200
C  43.59800 37.09300 27.04600
C  43.77300 37.16000 25.64000
C  43.39700 38.58400 25.32400
C  43.76600 35.85100 27.82800
C  44.31900 36.10100 24.63600
O  44.57500 36.35900 23.47400
C  44.56500 34.66100 25.12600
N  42.39200 41.39200 24.48300
C  42.93800 40.47100 23.66400
C  42.58700 40.71200 22.17600
C  41.76300 42.05100 22.24200
C  41.88800 42.38400 23.76600
C  43.83200 40.72500 21.22600
C  40.20500 41.75900 21.92600
C  39.39700 40.94900 22.94300
N  41.42000 43.14600 26.58300
C  41.36600 44.07500 25.60300
C  41.08100 45.39800 26.06600
C  40.90400 45.18400 27.52300
C  41.23800 43.81300 27.74300
C  40.79900 46.55300 25.23200
C  40.63200 45.88000 28.77500
O  40.35000 47.04000 29.06500
C  40.78700 44.78000 29.84100
C  41.71800 45.32800 30.79900
O  42.91600 45.62900 30.52700
O  41.15600 45.44900 32.03900
C  42.04600 46.19500 32.93900
H  43.19900 38.07800 29.69000
H  43.72300 38.51500 23.27600
H  41.35800 44.35300 23.43200
H  42.20100 42.54000 31.70400
H  41.86900 39.60800 31.44600
H  44.28700 41.38600 31.96200
H  44.52400 40.00300 30.83800
H  43.90900 39.81500 32.52200
H  39.75300 41.08500 31.30300
H  39.99500 42.78000 31.91200
H  41.58000 41.00400 33.67000
H  39.91800 40.42000 33.43000
H  42.93400 35.18700 27.58900
H  43.52400 35.96800 28.88400
H  44.76900 35.43800 27.71900
H  44.71400 33.92600 24.33400
H  43.72300 34.27800 25.70200
H  45.53200 34.73100 25.62400
H  41.95500 39.88200 21.86000
H  42.23100 42.72600 21.52500
H  44.72800 40.59200 21.83300
H  43.82300 41.63500 20.62700
H  43.75700 39.89300 20.52600
H  40.08900 41.23300 20.97900
H  39.74800 42.73600 21.76900
H  38.89700 41.52800 23.72000
H  39.78600 40.01200 23.34100
H  38.64800 40.46400 22.31700
H  40.01700 46.22700 24.54500
H  41.71500 46.84900 24.72000
H  40.46200 47.35800 25.88300
H  39.80100 44.63500 30.28200
H  41.72000 46.01100 33.96300
H  41.92400 47.27600 32.87500
H  43.09100 45.88400 32.94100
Mg 30.39300 58.21900 40.10200
C  27.58300 56.21200 39.34300
C  32.37900 55.52100 39.58700
C  33.00700 60.32300 40.11000
C  28.24400 60.88400 40.72100
N  29.98500 56.10200 39.52600
C  28.81100 55.50900 39.23600
C  29.08700 54.05700 38.75900
C  30.49900 53.78000 39.36200
C  30.99100 55.23700 39.55800
C  30.50500 52.96300 40.65400
C  29.05300 53.98600 37.20600
C  27.88700 53.09100 36.72400
H  27.00800 53.67700 35.59000
N  32.45600 57.94300 39.86000
C  33.07400 56.75600 39.65800
C  34.52500 56.99200 39.72700
C  34.70900 58.36400 39.77800
C  33.37300 58.97900 39.95900
C  35.59600 55.93800 39.58100
C  36.04900 58.99800 39.85300
O  37.14200 58.38400 39.74800
C  36.17600 60.46100 40.26200
N  30.58900 60.37900 40.27400
C  31.78400 60.95400 40.29800
C  31.59100 62.47600 40.53700
C  30.09400 62.59200 40.83100
C  29.56400 61.18400 40.61800
C  32.40000 63.17200 41.64400
C  29.26300 63.66500 40.04000
C  28.37400 64.50500 40.88200
N  28.32000 58.52500 40.10700
C  27.63300 59.67100 40.45100
C  26.26300 59.33800 40.37800
C  26.20100 58.03100 39.92600
C  27.47600 57.55500 39.75500
C  25.11500 60.23100 40.85500
C  25.34200 57.01200 39.61600
O  24.12300 57.04800 39.44800
C  26.10200 55.77600 39.24800
C  25.71600 54.73400 40.26800
O  26.29400 54.54600 41.38900
O  24.67600 54.01300 39.83100
C  24.21000 53.00500 40.77300
H  33.05000 54.66000 39.61200
H  33.79200 61.08200 40.12000
H  27.52900 61.69700 40.86100
H  28.41700 53.35600 39.25700
H  31.05600 53.27200 38.57500
H  29.54500 52.49700 40.87600
H  30.74500 53.42000 41.61300
H  31.19300 52.12900 40.51300
H  29.98700 53.59500 36.80200
H  28.84700 54.99300 36.84200
H  27.21600 52.80300 37.53300
H  28.28500 52.11400 36.45200
H  36.02600 56.06000 38.58700
H  35.08400 54.97900 39.66200
H  36.33200 56.04700 40.37700
H  35.80800 61.07700 39.44200
H  37.22800 60.70600 40.41400
H  35.58400 60.70900 41.14300
H  31.84000 63.01400 39.62200
H  30.01600 62.82500 41.89300
H  33.08200 62.46700 42.11900
H  31.80200 63.64200 42.42500
H  32.99800 64.01100 41.28900
H  28.61600 63.15800 39.32500
H  29.88200 64.25600 39.36500
H  27.43700 64.77600 40.39600
H  28.92100 65.41100 41.14300
H  28.08100 63.98500 41.79400
H  24.25100 60.03500 40.22000
H  25.31100 61.30300 40.87300
H  24.80700 59.99100 41.87300
H  25.75600 55.40700 38.28300
H  24.48200 52.01600 40.40600
H  23.15600 53.28100 40.72000
H  24.50900 53.09400 41.81700

