158

Mg 17.06800 -1.93100 28.17400
C  16.30900 0.00900 31.05600
C  19.04600 -3.91900 30.34700
C  18.52400 -3.30300 25.53400
C  15.48100 0.36600 26.24100
N  17.51400 -2.02600 30.42000
C  17.07300 -1.14000 31.39100
C  17.45300 -1.58300 32.79300
C  18.53500 -2.71100 32.57000
C  18.34800 -2.91900 31.00100
C  19.93500 -2.48900 33.17100
C  16.20100 -1.96100 33.77400
C  16.34600 -1.58600 35.29100
H  17.84800 -1.49100 35.95500
N  18.37300 -3.63700 27.96800
C  19.07600 -4.32000 28.95600
C  19.84600 -5.36700 28.36100
C  19.58300 -5.30600 26.95900
C  18.82400 -4.04400 26.70700
C  20.75000 -6.34000 29.11000
C  20.06200 -6.16100 25.88000
O  19.60500 -6.07900 24.75500
C  21.00600 -7.37200 26.25100
N  17.04000 -1.49600 26.17200
C  17.78400 -2.21400 25.22400
C  17.45500 -1.77100 23.76200
C  16.35200 -0.70500 24.04800
C  16.23200 -0.57600 25.56300
C  18.71900 -1.38900 22.88500
C  15.05100 -0.80200 23.21700
C  13.76400 -1.34400 23.85700
N  16.04300 -0.17400 28.48900
C  15.43500 0.64300 27.64700
C  14.73500 1.66300 28.30300
C  15.06700 1.45300 29.62000
C  15.88600 0.32000 29.71600
C  13.84900 2.64200 27.64300
C  14.90900 2.00400 30.98700
O  14.32400 2.95500 31.41500
C  15.71200 1.08400 31.95900
C  16.80500 1.96900 32.67700
O  17.90100 2.27900 32.17400
O  16.23200 2.50100 33.77700
C  17.05400 3.53200 34.45300
H  19.70500 -4.44100 31.04400
H  18.94500 -3.74600 24.62900
H  14.91900 1.05500 25.60800
H  18.03900 -0.79900 33.27300
H  18.31600 -3.66100 33.05900
H  20.16900 -3.31800 33.83900
H  19.95000 -1.55000 33.72400
H  20.67300 -2.47000 32.36900
H  16.10800 -3.04600 33.74600
H  15.27300 -1.59500 33.33600
H  15.88900 -2.35200 35.91800
H  15.81300 -0.64400 35.41500
H  21.79100 -6.51200 28.83700
H  20.23700 -7.30200 29.13800
H  20.82200 -6.18500 30.18700
H  22.00800 -7.08700 26.57200
H  21.13100 -7.86300 25.28600
H  20.49700 -7.95100 27.02100
H  16.92600 -2.61900 23.32800
H  16.87700 0.20800 23.76600
H  19.61500 -1.61800 23.46100
H  18.70000 -0.31600 22.68900
H  18.52500 -1.91800 21.95200
H  15.36900 -1.53000 22.47000
H  14.96100 0.19500 22.78400
H  13.06200 -1.78000 23.14600
H  13.16500 -0.56000 24.32100
H  14.03900 -2.17800 24.50100
H  14.20800 2.72900 26.61700
H  14.00000 3.56100 28.20800
H  12.84000 2.23200 27.70300
H  15.09900 0.60700 32.72400
H  18.08600 3.19100 34.52300
H  16.72100 3.77400 35.46300
H  16.83400 4.47000 33.94300
Mg 26.01900 0.15100 29.48900
C  27.65500 -0.15500 32.54200
C  23.07100 0.48400 31.43200
C  24.08100 -0.04600 26.67300
C  28.85500 -0.58100 27.81100
N  25.47200 0.31400 31.71000
C  26.32400 0.12600 32.77800
C  25.64200 0.50700 34.14600
C  24.11600 0.59000 33.79000
C  24.18300 0.55000 32.22200
C  23.12500 -0.42000 34.39500
C  26.25200 1.78800 34.73200
C  27.03400 1.63500 36.14100
H  26.54600 2.60700 37.24800
N  23.83500 0.33400 29.09200
C  22.85400 0.51000 30.03300
C  21.54900 0.55000 29.29700
C  21.81600 0.47000 27.85200
C  23.25300 0.24300 27.79700
C  20.24100 0.68000 30.02200
C  20.89600 0.58900 26.64700
O  21.33000 0.38100 25.53700
C  19.50400 1.02300 26.84800
N  26.37300 -0.22000 27.56800
C  25.50600 -0.20100 26.53100
C  26.22900 -0.11100 25.20100
C  27.75900 -0.26800 25.66400
C  27.71100 -0.25200 27.13800
C  25.74600 -1.14300 24.11500
C  28.68600 0.77500 25.01200
C  29.50800 0.24400 23.96800
N  27.93600 -0.26000 30.01600
C  29.02600 -0.63100 29.22500
C  30.18100 -0.75400 30.09600
C  29.64900 -0.55100 31.39600
C  28.30200 -0.27200 31.28800
C  31.64500 -1.18300 29.67800
C  29.99600 -0.52400 32.84300
O  31.04800 -0.62300 33.46500
C  28.71900 -0.23500 33.64200
C  28.62400 -1.45200 34.62400
O  28.34100 -2.57600 34.29900
O  28.94400 -1.03900 35.88100
C  29.47400 -2.02700 36.86300
H  22.17700 0.70000 32.02000
H  23.62700 -0.13800 25.68500
H  29.80100 -0.77400 27.30100
H  25.83500 -0.24400 34.91100
H  23.71900 1.56800 34.06000
H  22.35000 0.01200 35.02800
H  23.75600 -1.13000 34.92900
H  22.67800 -1.12200 33.69100
H  25.43800 2.50100 34.86300
H  26.92700 2.27900 34.03100
H  28.11300 1.76400 36.06000
H  26.96200 0.58900 36.43800
H  20.32100 0.29000 31.03700
H  19.46000 0.12600 29.50100
H  19.98100 1.73300 30.13500
H  19.10500 1.45700 25.93200
H  19.46700 1.76100 27.64900
H  18.95600 0.11600 27.10200
H  26.14400 0.95100 24.96800
H  27.95500 -1.30500 25.39000
H  26.44600 -1.96600 23.97100
H  25.52900 -0.75800 23.11800
H  24.75700 -1.44400 24.46000
H  29.27500 1.28300 25.77500
H  28.03500 1.49600 24.51900
H  29.49300 0.72600 22.99100
H  29.29700 -0.77700 23.65100
H  30.54200 0.24300 24.31400
H  32.33200 -0.50600 30.18600
H  31.79800 -0.91300 28.63300
H  31.82500 -2.23800 29.88100
H  28.80200 0.74100 34.11800
H  29.05000 -1.83300 37.84800
H  30.54700 -1.93100 37.02900
H  29.21000 -3.03100 36.53300

