158

Mg 24.99800 1.13100 28.61000
C  27.14500 0.54000 31.39400
C  22.29800 0.88000 30.79300
C  22.85600 0.96800 25.93600
C  27.68900 0.45600 26.52500
N  24.79700 0.72000 30.77100
C  25.77700 0.64900 31.70700
C  25.26300 0.92900 33.12700
C  23.67700 0.90100 32.86900
C  23.55300 0.79700 31.36400
C  23.04900 -0.31400 33.55600
C  25.76500 2.31700 33.66500
C  25.26100 2.71600 35.06000
H  26.22200 2.72400 36.29700
N  22.83700 1.14600 28.41100
C  21.90100 1.02500 29.41300
C  20.61900 1.13200 28.82300
C  20.76100 1.19200 27.42500
C  22.22300 1.03700 27.18000
C  19.31000 1.19300 29.56800
C  19.63000 1.27500 26.32700
O  19.85800 1.76600 25.18700
C  18.25800 0.89500 26.67800
N  25.22000 0.82700 26.49400
C  24.19000 0.88900 25.61400
C  24.69000 0.99700 24.16500
C  26.30900 0.85100 24.33600
C  26.42500 0.72000 25.89400
C  23.95200 0.08200 23.19300
C  27.03100 2.09700 23.79500
C  26.74700 3.44900 24.50700
N  27.07700 0.68400 28.81600
C  28.02000 0.34900 27.88000
C  29.25600 0.04300 28.55200
C  29.01300 0.17200 29.96000
C  27.61800 0.50000 30.04900
C  30.51000 -0.30300 27.82400
C  29.55300 -0.01600 31.33000
O  30.68100 -0.36300 31.74200
C  28.34000 0.42900 32.22800
C  28.19400 -0.50400 33.33900
O  27.31000 -1.38300 33.43600
O  29.22000 -0.19500 34.29100
C  29.16700 -0.96200 35.50400
H  21.52800 0.97300 31.56200
H  22.23500 0.99000 25.03800
H  28.50200 0.27400 25.81900
H  25.55400 0.13500 33.81400
H  23.21500 1.80800 33.26000
H  22.47500 -0.92300 32.85700
H  22.34000 -0.00100 34.32200
H  23.73700 -1.06900 33.93500
H  25.63900 3.14700 32.97000
H  26.83500 2.52500 33.64700
H  24.57200 1.91700 35.33300
H  24.88000 3.72700 34.91100
H  18.59800 0.40100 29.33300
H  18.99000 2.20000 29.30000
H  19.28000 1.12000 30.65500
H  18.39000 -0.07400 27.15900
H  17.72100 0.68200 25.75400
H  17.92600 1.70100 27.33300
H  24.56100 2.00200 23.76400
H  26.67400 -0.05200 23.84800
H  23.62900 0.67600 22.33800
H  23.24600 -0.57300 23.70300
H  24.70900 -0.54300 22.71900
H  26.77300 2.21200 22.74200
H  28.11100 2.01700 23.92100
H  25.94500 3.37100 25.24000
H  26.29300 4.10300 23.76300
H  27.67000 3.80000 24.96900
H  30.46900 -0.07900 26.75800
H  30.62600 -1.38500 27.88500
H  31.40200 0.02200 28.35800
H  28.65200 1.37400 32.67200
H  28.54500 -0.41100 36.20900
H  30.19100 -1.10400 35.84800
H  28.83800 -1.99700 35.40300
Mg 48.33100 35.29400 27.68800
C  46.10700 33.57700 29.81500
C  48.62800 37.79200 30.10400
C  50.20700 36.94300 25.52300
C  47.97900 32.50800 25.42200
N  47.35500 35.68500 29.71900
C  46.68300 34.71300 30.47300
C  46.84200 35.05800 31.97400
C  47.25600 36.58100 31.92900
C  47.81300 36.74600 30.48700
C  46.08100 37.55800 32.30500
C  47.90600 34.16900 32.59200
C  47.97900 34.08700 34.09000
H  47.07200 34.94800 34.94100
N  49.23600 37.14200 27.77600
C  49.27900 38.05100 28.86500
C  50.16300 39.11000 28.46800
C  50.59400 38.91100 27.10900
C  49.95700 37.62900 26.77400
C  50.39600 40.30700 29.39700
C  51.36100 39.78300 26.25100
O  51.60000 39.49400 25.06800
C  51.78700 41.15200 26.72000
N  48.76300 34.91500 25.58600
C  49.75000 35.72100 25.05800
C  50.19700 35.12500 23.71600
C  49.70000 33.61600 23.81100
C  48.70900 33.64800 24.98200
C  49.68200 35.86400 22.45200
C  50.80700 32.60300 24.12600
C  51.57600 32.14300 22.87600
N  47.28200 33.43300 27.55700
C  47.19000 32.46900 26.56800
C  46.17800 31.53100 26.92300
C  45.67300 31.85200 28.18000
C  46.38000 33.05500 28.48500
C  45.84400 30.24700 26.13100
C  44.78900 31.49200 29.26500
O  43.96100 30.61800 29.42200
C  45.11600 32.52900 30.39700
C  45.56700 31.89800 31.65400
O  46.54500 31.18400 31.73500
O  44.70400 32.23900 32.65200
C  45.07600 31.72500 33.96200
H  48.62100 38.50700 30.93100
H  51.08800 37.34000 25.01500
H  47.99300 31.64600 24.75100
H  45.89200 34.77900 32.42900
H  48.01100 36.78800 32.68700
H  45.20700 36.94800 32.53200
H  45.69300 38.03300 31.40300
H  46.31700 38.27100 33.09500
H  48.90800 34.37600 32.21400
H  47.77000 33.16100 32.20100
H  48.99000 34.39900 34.35500
H  47.96500 33.00500 34.22300
H  49.84600 40.21600 30.33400
H  50.05000 41.19600 28.87000
H  51.45300 40.35700 29.65800
H  50.86200 41.72000 26.81000
H  52.54900 41.68200 26.14800
H  52.14600 40.94700 27.72800
H  51.28400 35.14500 23.78700
H  49.27000 33.31600 22.85500
H  49.21200 35.16300 21.76100
H  50.47600 36.37700 21.91000
H  48.96700 36.64600 22.71000
H  50.50600 31.66700 24.59700
H  51.52400 33.18400 24.70600
H  52.63700 32.34400 23.02400
H  51.16900 32.58900 21.96900
H  51.54600 31.05500 22.81700
H  45.14500 29.68500 26.75000
H  46.68300 29.58300 25.92500
H  45.38600 30.35000 25.14700
H  44.21600 33.05200 30.72000
H  44.60000 30.78300 34.23400
H  44.79000 32.47400 34.69900
H  46.14000 31.59400 34.16200

