158

Mg 36.41200 49.28100 24.47400
C  36.53500 47.39400 27.42500
C  35.04600 51.76700 26.13900
C  35.95100 50.75600 21.47700
C  37.50900 46.33600 22.70700
N  35.79300 49.51800 26.54700
C  36.02900 48.66400 27.60400
C  35.70500 49.35400 28.94700
C  35.02200 50.67000 28.42100
C  35.25500 50.63600 26.89800
C  33.55600 50.94700 28.87300
C  36.92600 49.56400 29.88800
C  36.84400 49.30400 31.41600
H  35.45400 49.35800 32.07500
N  35.73800 51.08200 23.89300
C  35.19200 51.95800 24.76000
C  34.84500 53.12400 24.03700
C  35.21500 52.86800 22.67700
C  35.64100 51.53800 22.62300
C  34.17800 54.27800 24.69700
C  34.92000 53.80200 21.52000
O  35.12000 53.42800 20.34700
C  34.44300 55.19700 21.70400
N  36.48900 48.52600 22.36900
C  36.40600 49.48400 21.40000
C  36.90200 48.90700 20.05200
C  37.42200 47.48200 20.40300
C  37.19300 47.46400 21.92900
C  35.82900 48.87700 18.96600
C  38.89900 47.14600 19.98700
C  39.95700 48.15500 20.50400
N  36.82200 47.23900 24.91900
C  37.42600 46.27300 24.15700
C  37.66800 45.14000 24.98800
C  37.30000 45.55700 26.26800
C  36.81800 46.87700 26.18900
C  38.15500 43.77400 24.62100
C  37.11100 45.14800 27.65000
O  37.27300 44.05100 28.16700
C  36.69400 46.41200 28.48300
C  35.39300 46.07800 29.23500
O  34.23500 46.41100 28.93500
O  35.72800 45.31600 30.32200
C  34.56300 44.88200 31.05400
H  34.55400 52.55100 26.71900
H  36.00500 51.29900 20.53100
H  37.96700 45.55100 22.10000
H  34.93700 48.79600 29.48400
H  35.57500 51.53100 28.79700
H  33.54200 51.89300 29.41500
H  33.23600 50.17100 29.56900
H  32.87100 51.12000 28.04300
H  37.36200 50.56300 29.86000
H  37.75300 48.99200 29.46800
H  37.37100 50.10100 31.94200
H  37.40500 48.37900 31.54400
H  34.65900 55.18800 24.33900
H  34.24400 54.41900 25.77600
H  33.13000 54.20500 24.40800
H  33.59400 55.33100 22.37500
H  34.33300 55.76300 20.78000
H  35.23500 55.58400 22.34500
H  37.66600 49.51600 19.57000
H  36.95600 46.60000 19.96300
H  34.83400 49.06500 19.36900
H  35.99500 47.95900 18.40300
H  35.97900 49.79700 18.40000
H  39.02800 47.26700 18.91200
H  39.18600 46.12000 20.21900
H  39.52300 48.60700 21.39600
H  40.22600 48.89200 19.74800
H  40.82100 47.56300 20.80700
H  38.21600 43.17000 25.52600
H  39.04100 43.75100 23.98700
H  37.37300 43.38500 23.96800
H  37.48800 46.52200 29.22100
H  34.90500 44.33300 31.93100
H  33.90600 44.18200 30.53600
H  33.93000 45.71000 31.37500
Mg -1.74600 34.16500 27.36400
C  -3.50600 32.29300 29.65200
C  -0.34500 35.96100 29.89300
C  -0.54300 36.38100 25.00700
C  -3.77000 32.73400 24.88100
N  -1.85900 34.11000 29.43600
C  -2.60500 33.21400 30.27500
C  -2.36900 33.44800 31.84400
C  -1.43700 34.72300 31.79100
C  -1.23900 34.95900 30.27800
C  -2.05200 35.95200 32.57200
C  -1.84500 32.11700 32.48700
C  -2.72700 31.44800 33.57300
H  -1.96800 31.25600 34.86700
N  -0.42300 35.82900 27.42000
C  0.07400 36.39300 28.59100
C  0.97000 37.50300 28.16800
C  0.99300 37.53500 26.76100
C  -0.03300 36.60600 26.34500
C  1.86000 38.16300 29.14200
C  1.89200 38.37500 25.83800
O  1.70500 38.42200 24.60500
C  2.93300 39.21200 26.38900
N  -2.32900 34.59000 25.29500
C  -1.58100 35.44700 24.50800
C  -1.93100 35.44500 23.07400
C  -2.83200 34.17800 23.05700
C  -3.03600 33.84000 24.52200
C  -2.50800 36.76800 22.58200
C  -2.30900 32.95700 22.13500
C  -1.42000 31.96700 22.85400
N  -3.35900 32.80700 27.17400
C  -3.94100 32.23700 26.17500
C  -4.90900 31.25500 26.57500
C  -4.73900 31.20200 27.97000
C  -3.82600 32.16300 28.28900
C  -5.78500 30.47100 25.68300
C  -5.19800 30.51600 29.13100
O  -5.96100 29.53300 29.35000
C  -4.34100 31.18900 30.32200
C  -5.37200 31.81200 31.25300
O  -6.07700 32.79200 30.98500
O  -5.68600 30.93100 32.26100
C  -6.78400 31.36000 33.17400
H  -0.26500 36.58900 30.78200
H  -0.16300 37.00700 24.19700
H  -4.38700 32.31400 24.08400
H  -3.40800 33.53100 32.16100
H  -0.45900 34.52400 32.23000
H  -1.97700 35.66200 33.62000
H  -3.07600 36.16100 32.26300
H  -1.30200 36.74200 32.53100
H  -0.89800 32.33800 32.98000
H  -1.65100 31.39300 31.69600
H  -2.88900 30.43500 33.20500
H  -3.63300 32.01200 33.79400
H  1.80200 39.22100 28.88600
H  2.88200 37.80900 29.00900
H  1.42200 37.98400 30.12400
H  2.69900 39.82800 27.25800
H  3.34700 39.85800 25.61500
H  3.73700 38.54400 26.69700
H  -0.95800 35.28200 22.61200
H  -3.83700 34.45400 22.74000
H  -2.05000 37.03300 21.62900
H  -2.30200 37.58900 23.26900
H  -3.59400 36.69700 22.53200
H  -1.82500 33.37600 21.25300
H  -3.23600 32.43800 21.89100
H  -1.05400 32.34800 23.80700
H  -0.60500 31.80900 22.14900
H  -1.92500 31.02500 23.07100
H  -5.36300 29.59200 25.19600
H  -6.27000 31.13400 24.96600
H  -6.62800 30.05600 26.23500
H  -3.63300 30.46200 30.71800
H  -6.29500 32.00800 33.90000
H  -7.09800 30.39700 33.57800
H  -7.64900 31.84400 32.72000

