158

Mg 17.47000 -1.47100 27.22000
C  16.33400 0.58300 29.78100
C  19.47900 -3.15200 29.35800
C  18.77600 -2.95300 24.43100
C  15.96000 0.90900 24.93000
N  17.87200 -1.32700 29.34200
C  17.23600 -0.47500 30.18100
C  17.60100 -0.87200 31.65700
C  18.86400 -1.85200 31.50300
C  18.82900 -2.10300 29.99300
C  20.24800 -1.44300 32.02700
C  16.36300 -1.33600 32.47200
C  16.16200 -0.56400 33.70900
H  17.33600 -0.12800 34.63900
N  18.83200 -3.05800 26.92600
C  19.51800 -3.59800 27.99200
C  20.38700 -4.60300 27.33900
C  20.19200 -4.62900 25.96800
C  19.23000 -3.52700 25.71000
C  21.31400 -5.44400 28.22100
C  20.87800 -5.47700 24.95100
O  20.68700 -5.24100 23.74900
C  21.90700 -6.48900 25.36800
N  17.26200 -1.15900 24.86900
C  17.97300 -1.84100 24.04100
C  17.83300 -1.35500 22.58000
C  16.88500 -0.16100 22.79900
C  16.68300 -0.07800 24.31600
C  19.21900 -0.92500 22.00500
C  15.49200 -0.38200 22.10500
C  15.24100 0.52000 20.88800
N  16.22000 0.18900 27.28400
C  15.71400 1.06700 26.31200
C  14.94300 2.10200 26.94600
C  15.20400 1.93700 28.30500
C  15.94100 0.79600 28.47200
C  14.11800 3.22800 26.38100
C  14.88600 2.52500 29.51600
O  14.07700 3.41500 29.84200
C  15.72500 1.70000 30.59100
C  16.69000 2.44900 31.41000
O  17.89600 2.61200 31.13500
O  15.95800 2.99800 32.45500
C  16.70500 3.87600 33.35700
H  20.03400 -3.62300 30.17200
H  19.13700 -3.50100 23.55800
H  15.54200 1.69300 24.29400
H  18.10300 -0.04000 32.15100
H  18.60600 -2.80800 31.95700
H  21.04500 -1.42000 31.28400
H  20.55800 -2.22000 32.72700
H  20.22900 -0.48800 32.55200
H  16.34300 -2.41400 32.63100
H  15.46100 -1.19500 31.87700
H  15.49400 -1.09900 34.38300
H  15.64600 0.31600 33.32400
H  20.95500 -5.33700 29.24400
H  22.37800 -5.23300 28.11600
H  21.20400 -6.50300 27.98500
H  22.76400 -5.88900 25.67700
H  21.99700 -7.07800 24.45600
H  21.54400 -7.19800 26.11100
H  17.47900 -2.07000 21.83800
H  17.27600 0.82200 22.53700
H  19.45500 0.12300 21.82200
H  19.49200 -1.46600 21.09800
H  19.98700 -1.17600 22.73700
H  14.74700 -0.08000 22.84100
H  15.22900 -1.38500 21.76700
H  15.11000 -0.09400 19.99600
H  16.06100 1.17800 20.60100
H  14.36700 1.13500 21.10300
H  14.85800 3.93400 26.00400
H  13.57200 3.71700 27.18800
H  13.41600 2.85300 25.63700
H  14.91500 1.32500 31.21700
H  16.48300 4.91800 33.12500
H  17.78000 3.84500 33.18500
H  16.54500 3.85100 34.43500
Mg 43.86200 4.36100 48.29700
C  41.66400 6.82800 47.45800
C  41.41500 2.05000 47.66800
C  46.25100 1.86300 48.36000
C  46.52700 6.69200 48.27900
N  41.80300 4.49800 47.32600
C  41.07700 5.59400 47.38200
C  39.60100 5.26100 46.89000
C  39.54100 3.74400 47.23600
C  40.98400 3.43200 47.46500
C  38.69200 3.35300 48.51600
C  39.36100 5.60000 45.37200
C  38.38500 6.77600 45.06500
H  37.51100 6.76400 43.79800
N  43.85900 2.27300 48.09600
C  42.73400 1.55500 47.89100
C  43.11100 0.11900 47.97300
C  44.51400 0.07600 48.18800
C  44.91500 1.41700 48.23800
C  42.09700 -0.99000 47.72400
C  45.31700 -1.24700 48.26900
O  44.74300 -2.31600 48.28900
C  46.79500 -1.27000 48.33200
N  46.07800 4.28600 48.48500
C  46.80700 3.14000 48.48500
C  48.24200 3.53300 48.93300
C  48.38400 5.02500 48.69700
C  46.91200 5.38400 48.49300
C  48.69500 3.12900 50.41500
C  49.30500 5.34600 47.55300
C  50.39700 6.38000 47.72000
N  44.08900 6.32800 48.11700
C  45.18600 7.19400 48.12700
C  44.76400 8.58100 47.84100
C  43.38600 8.47700 47.58000
C  43.04700 7.12100 47.81300
C  45.66700 9.68400 47.67600
C  42.16300 9.21700 47.29500
O  42.03600 10.36900 47.09400
C  40.99000 8.22400 47.31900
C  40.03300 8.52800 48.42900
O  40.22700 8.10100 49.57200
O  38.95400 9.21800 48.01400
C  37.79400 9.21300 48.89800
H  40.67500 1.25400 47.77700
H  47.04900 1.12500 48.47000
H  47.35800 7.37700 48.09900
H  38.96800 5.90600 47.49900
H  39.39800 3.15000 46.33300
H  39.30900 3.04800 49.36100
H  37.95400 2.56100 48.38900
H  38.10700 4.20800 48.85400
H  38.86600 4.75500 44.89300
H  40.23200 5.79400 44.74600
H  39.08700 7.58600 44.86800
H  37.69500 7.09100 45.84700
H  42.33900 -1.51200 46.79900
H  41.06000 -0.65500 47.68400
H  42.18500 -1.72200 48.52700
H  47.08100 -0.83200 49.28800
H  47.10500 -0.62300 47.51100
H  47.24700 -2.26100 48.28000
H  48.80500 2.89900 48.24800
H  48.61500 5.57900 49.60700
H  49.38700 2.29100 50.32700
H  47.79500 2.87400 50.97400
H  49.15300 3.97700 50.92400
H  48.64900 5.77400 46.79500
H  49.70500 4.42200 47.13500
H  50.71400 6.23900 48.75300
H  50.12400 7.41900 47.53400
H  51.18400 6.12700 47.00900
H  46.25800 9.77000 48.58800
H  45.06600 10.58900 47.59200
H  46.36900 9.53100 46.85700
H  40.41200 8.31100 46.39900
H  37.62100 10.26000 49.14700
H  37.89100 8.62800 49.81300
H  36.91500 8.85200 48.36400

