158

Mg 17.53600 -1.16300 27.73300
C  16.65500 0.66400 30.68200
C  19.35000 -3.17900 29.74700
C  18.62600 -2.67000 24.96100
C  15.82800 1.10600 25.84200
N  17.91400 -1.27200 30.01200
C  17.55500 -0.31000 30.93500
C  17.97200 -0.76900 32.35800
C  19.08200 -1.79800 31.94000
C  18.74700 -2.12900 30.49200
C  20.56700 -1.21600 31.99400
C  16.90600 -1.39500 33.32300
C  17.19500 -1.76300 34.79900
H  18.55700 -1.61200 35.37400
N  18.68600 -2.80100 27.38600
C  19.39300 -3.45600 28.37600
C  20.14400 -4.55200 27.75600
C  19.88700 -4.45200 26.39400
C  18.98700 -3.26000 26.16300
C  21.03700 -5.55500 28.65200
C  20.44700 -5.27400 25.25700
O  20.04300 -5.17700 24.07200
C  21.28700 -6.45500 25.65500
N  17.37800 -0.74600 25.64600
C  17.91500 -1.54900 24.64000
C  17.52300 -1.12100 23.19000
C  16.53600 0.06000 23.59000
C  16.50600 0.10200 25.13600
C  18.76400 -0.66000 22.26900
C  15.15900 0.05200 22.82800
C  15.11000 0.60900 21.43500
N  16.38200 0.46800 28.08000
C  15.73900 1.29200 27.25000
C  14.87700 2.20700 28.01800
C  15.16500 1.91600 29.32100
C  16.14900 0.95600 29.35700
C  13.88800 3.13200 27.43600
C  14.90700 2.45100 30.66000
O  14.17100 3.35600 31.05700
C  15.81500 1.54800 31.59700
C  16.60900 2.46000 32.44900
O  17.73500 2.77200 32.05200
O  15.82700 3.05800 33.37000
C  16.45500 4.14200 33.99900
H  20.02500 -3.80300 30.33800
H  18.94700 -3.18700 24.05500
H  15.31300 1.92700 25.33800
H  18.34900 0.08500 32.92000
H  19.06000 -2.72500 32.51300
H  20.66500 -0.23300 32.45400
H  20.91700 -1.14000 30.96500
H  21.26000 -1.80000 32.60100
H  16.58000 -2.28700 32.78800
H  16.01000 -0.77800 33.25000
H  16.95100 -2.81900 34.91600
H  16.49000 -1.16600 35.37800
H  20.85800 -6.57300 28.30500
H  20.73300 -5.56200 29.69800
H  22.10800 -5.36000 28.60200
H  22.05700 -6.14100 26.36000
H  21.79800 -6.67500 24.71800
H  20.63400 -7.27100 25.96600
H  16.92000 -1.96500 22.85600
H  16.92500 1.03700 23.30300
H  18.54100 0.31700 21.84000
H  18.68100 -1.46300 21.53700
H  19.69300 -0.83700 22.81000
H  14.57900 0.70800 23.47800
H  14.81800 -0.96300 23.03000
H  14.67100 1.60700 21.42300
H  14.52100 -0.14000 20.90500
H  16.11900 0.70300 21.03500
H  14.39400 3.63300 26.61100
H  13.59500 3.88300 28.16900
H  12.98800 2.68000 27.02000
H  15.17500 1.03200 32.31300
H  15.62300 4.69100 34.44200
H  16.99400 4.82100 33.33800
H  17.17200 3.84100 34.76200
Mg 42.25900 41.88400 26.13000
C  41.64600 44.30300 28.37600
C  43.30900 39.85300 28.69800
C  43.05900 39.73800 23.77200
C  41.71700 44.34700 23.49000
N  42.27300 42.00500 28.29700
C  41.93300 43.08900 29.00400
C  41.86900 42.80100 30.52400
C  42.78500 41.54500 30.62200
C  42.77600 41.08400 29.13100
C  44.22800 41.91300 31.05900
C  40.36300 42.68800 31.05000
C  40.15200 43.22300 32.56400
H  40.80400 42.41500 33.67000
N  42.91100 40.03200 26.26000
C  43.40100 39.38300 27.36800
C  43.90100 38.08400 26.98900
C  43.81100 38.01100 25.56700
C  43.23400 39.28500 25.13900
C  44.40800 36.97400 27.97100
C  43.91600 36.85500 24.66600
O  43.53200 36.86700 23.50400
C  44.16000 35.54600 25.27600
N  42.46500 42.08700 23.87900
C  42.66800 41.00200 23.13800
C  42.70400 41.25400 21.72700
C  42.09600 42.66000 21.64100
C  42.05800 43.05300 23.14100
C  44.11900 41.06700 21.08300
C  40.67100 42.73700 21.01900
C  39.56700 41.79300 21.61400
N  41.79600 43.91600 25.92800
C  41.62200 44.73100 24.84300
C  41.33000 46.06200 25.29900
C  41.32200 46.01300 26.68400
C  41.56100 44.63200 26.99500
C  41.08800 47.30900 24.37800
C  41.06800 46.65400 27.94000
O  40.68000 47.77400 28.20100
C  41.26200 45.59000 29.07400
C  42.10400 46.11500 30.17200
O  43.33400 46.13600 30.15600
O  41.34000 46.41900 31.26100
C  41.92600 46.95200 32.52900
H  43.66000 39.07600 29.38000
H  43.32900 39.11800 22.91500
H  41.43100 45.12000 22.77300
H  42.36700 43.61400 31.05400
H  42.38700 40.73900 31.23900
H  44.14900 42.67200 31.83700
H  44.74400 42.22100 30.15000
H  44.61300 41.04100 31.58800
H  40.07800 41.63900 30.96900
H  39.64300 43.20100 30.41200
H  39.08300 43.17600 32.77200
H  40.33900 44.29200 32.65800
H  44.66600 37.37900 28.94900
H  45.28100 36.39000 27.67700
H  43.50100 36.37200 28.02800
H  44.00200 34.76600 24.53100
H  43.47100 35.34600 26.09700
H  45.19100 35.63200 25.61800
H  42.09000 40.52600 21.19600
H  42.77000 43.37600 21.17200
H  44.44800 41.98400 20.59500
H  44.11500 40.27000 20.34000
H  44.75500 40.82900 21.93500
H  40.75100 42.42900 19.97700
H  40.39400 43.79100 21.03700
H  39.06600 41.28700 20.78900
H  38.84200 42.50200 22.01300
H  39.83600 41.06800 22.38200
H  41.84200 47.42300 23.60000
H  41.12800 48.26100 24.90600
H  40.16000 47.22400 23.81300
H  40.23600 45.56700 29.44100
H  41.82200 46.24300 33.35000
H  41.31600 47.82500 32.76200
H  42.93700 47.35900 32.52300

