158

Mg 2.75100 -3.40600 45.19500
C  5.88200 -2.08900 44.10700
C  1.10500 -1.22600 43.12200
C  -0.06800 -5.43400 45.28400
C  4.52200 -5.95300 46.94000
N  3.44000 -1.92600 43.68400
C  4.73100 -1.42800 43.49300
C  4.67200 -0.10000 42.69500
C  3.16400 0.14000 42.41200
C  2.50700 -1.08800 43.20700
C  2.61900 1.62200 42.68800
C  5.55800 -0.21400 41.43900
C  6.59500 1.00300 41.20400
H  6.32500 1.97100 40.03700
N  0.73000 -3.33300 44.32500
C  0.24300 -2.33100 43.55500
C  -1.15000 -2.48700 43.29300
C  -1.47800 -3.70800 43.99400
C  -0.23800 -4.22400 44.54700
C  -1.94600 -1.69800 42.35100
C  -2.90900 -4.34600 44.00300
O  -3.82500 -3.74600 43.44700
C  -3.24200 -5.74100 44.64800
N  2.30300 -5.45200 46.02300
C  1.08000 -6.01400 45.88700
C  0.93000 -7.17300 46.92800
C  2.49900 -7.48400 47.20400
C  3.13900 -6.24300 46.70600
C  0.11600 -6.93100 48.20300
C  2.99100 -8.82500 46.65200
C  2.46700 -10.08900 47.42400
N  4.73800 -3.82500 45.66600
C  5.30900 -4.95100 46.39800
C  6.82800 -4.80200 46.34200
C  7.02700 -3.69900 45.54300
C  5.77800 -3.17300 45.02200
C  7.79300 -5.57000 47.07700
C  8.07000 -2.85700 44.94800
O  9.26100 -2.85100 45.15600
C  7.36500 -1.87700 43.95400
C  7.82300 -0.50400 44.36200
O  8.79200 0.02500 43.78200
O  7.15800 0.05000 45.39500
C  7.69300 1.23300 46.01200
H  0.66600 -0.50700 42.42800
H  -0.93000 -6.10400 45.27000
H  5.04400 -6.71300 47.52500
H  5.06300 0.68700 43.34100
H  2.95400 -0.13700 41.37900
H  3.47100 2.04400 43.22000
H  1.70800 1.57600 43.28400
H  2.45300 2.04800 41.69800
H  4.99900 -0.20400 40.50300
H  6.21200 -1.08500 41.44400
H  7.55100 0.54800 40.94300
H  6.69100 1.54100 42.14700
H  -1.42500 -0.78200 42.07300
H  -2.92500 -1.41700 42.73900
H  -2.16000 -2.17000 41.39200
H  -2.98400 -5.70700 45.70600
H  -2.71900 -6.50100 44.06800
H  -4.29400 -6.02700 44.61300
H  0.49600 -8.04100 46.43100
H  2.55500 -7.52700 48.29200
H  0.77300 -7.12300 49.05100
H  -0.81600 -7.49500 48.24200
H  -0.26300 -5.91300 48.11300
H  4.08000 -8.80500 46.69600
H  2.84300 -8.87500 45.57300
H  1.85300 -10.69900 46.76100
H  1.88100 -9.68300 48.24900
H  3.23600 -10.73300 47.85200
H  8.82600 -5.34000 46.81700
H  7.54700 -6.62700 47.17500
H  7.74400 -5.21800 48.10700
H  7.71100 -2.18700 42.96800
H  7.46600 1.22600 47.07800
H  7.15800 2.10600 45.64000
H  8.76900 1.20300 45.83600
Mg 7.76200 52.99600 41.60600
C  6.94800 49.59200 41.35800
C  10.70000 52.21400 40.01100
C  8.25100 56.17100 41.15800
C  4.60000 53.54400 42.92900
N  8.68000 51.14500 40.75600
C  8.13600 49.88100 40.78400
C  9.06900 48.86600 40.12600
C  10.38500 49.68600 40.18400
C  9.93600 51.10700 40.30300
C  11.42200 49.15800 41.13900
C  8.59700 48.48200 38.68100
C  9.13700 49.32200 37.44200
H  8.14200 49.68800 36.41800
N  9.26100 54.11200 40.63400
C  10.38800 53.61900 40.00500
C  11.21100 54.71800 39.61800
C  10.48400 55.87800 39.83200
C  9.28300 55.40800 40.56800
C  12.50400 54.60000 39.03000
C  10.87400 57.22700 39.33600
O  11.95600 57.33100 38.71400
C  9.94800 58.39500 39.36800
N  6.59200 54.62900 42.05700
C  7.01800 55.84500 41.78500
C  6.14000 56.92400 42.47100
C  4.90800 56.06100 42.93700
C  5.39500 54.64000 42.65500
C  6.75900 57.82500 43.55600
C  3.62800 56.25300 42.19400
C  3.56600 56.02500 40.62300
N  6.09400 51.80100 42.31500
C  4.84900 52.16200 42.81900
C  3.98200 50.98200 43.02300
C  4.81200 49.99500 42.45300
C  6.05400 50.52400 42.03000
C  2.49900 50.96300 43.31300
C  4.95500 48.51500 42.24600
O  4.29000 47.54600 42.57300
C  6.24700 48.21900 41.49300
C  5.84900 47.49600 40.21400
O  4.96600 47.97900 39.47800
O  6.41100 46.29000 40.01100
C  6.10900 45.61400 38.79000
H  11.67000 52.01600 39.55000
H  8.45200 57.24500 41.13500
H  3.62300 53.80100 43.34200
H  9.12200 48.10500 40.90400
H  10.85700 49.42800 39.23600
H  12.34000 48.96900 40.58200
H  11.05800 48.33900 41.75900
H  11.72500 49.90900 41.86900
H  7.53100 48.67000 38.54800
H  8.70500 47.41300 38.49800
H  9.66600 48.48500 36.98600
H  9.74900 50.17700 37.72900
H  12.91000 53.60300 39.20200
H  13.27100 55.17900 39.54400
H  12.48900 54.72800 37.94800
H  9.84100 58.80700 40.37100
H  8.96800 58.08200 39.00900
H  10.17600 59.22500 38.69900
H  5.92400 57.48400 41.56100
H  4.84900 56.26500 44.00600
H  6.76300 58.87200 43.25200
H  7.78200 57.59200 43.85000
H  6.18700 57.84000 44.48400
H  3.43700 57.32500 42.25100
H  2.81100 55.69000 42.64700
H  4.30200 55.32300 40.23100
H  3.43500 56.97000 40.09600
H  2.65100 55.51800 40.31800
H  2.08400 51.97000 43.34400
H  2.32600 50.39100 44.22400
H  2.08700 50.36100 42.50200
H  6.84100 47.48300 42.03400
H  6.83100 44.82900 38.56800
H  6.19400 46.28800 37.93700
H  5.14500 45.10900 38.72800

