158

Mg 17.61000 -1.03700 28.25500
C  16.02000 1.03100 30.65400
C  19.27900 -2.55700 30.90100
C  19.52400 -2.42500 26.08500
C  16.13400 1.06000 25.75900
N  17.89300 -0.54400 30.44600
C  16.95500 0.14400 31.22200
C  17.22400 -0.05900 32.77900
C  18.37400 -1.12400 32.69000
C  18.55800 -1.43500 31.27300
C  19.62100 -0.75200 33.51600
C  16.04300 -0.58800 33.57200
C  15.63800 0.03500 34.90100
H  16.75600 0.17800 35.92900
N  19.06500 -2.42400 28.46000
C  19.56200 -3.03400 29.61500
C  20.53200 -4.12700 29.22800
C  20.60800 -4.04500 27.79600
C  19.74700 -2.83200 27.40700
C  21.18400 -5.05700 30.28900
C  21.55400 -4.85200 26.83200
O  21.61100 -4.65200 25.62900
C  22.56100 -5.76800 27.38800
N  17.76800 -0.76200 26.20300
C  18.75900 -1.38500 25.51500
C  18.78500 -1.01000 24.01700
C  17.68000 0.06900 23.94200
C  17.13000 0.13100 25.36200
C  20.09700 -0.51300 23.44100
C  16.64700 -0.12500 22.74700
C  16.77100 0.81000 21.50900
N  16.30000 0.71100 28.11800
C  15.70900 1.37700 27.03700
C  14.87900 2.52100 27.48400
C  14.93700 2.36500 28.90500
C  15.73600 1.24600 29.24800
C  14.14100 3.44200 26.54500
C  14.35700 2.88900 30.20200
O  13.47500 3.63900 30.48600
C  15.14600 2.05200 31.34000
C  16.03100 3.00700 32.07400
O  17.15200 3.33200 31.78100
O  15.29900 3.48700 33.13100
C  15.93800 4.18800 34.23400
H  19.62000 -3.12300 31.77000
H  20.17800 -2.83100 25.31100
H  15.72100 1.56400 24.88300
H  17.60100 0.87600 33.19400
H  18.12500 -2.10100 33.10300
H  19.38600 0.05200 34.21300
H  20.34800 -0.56500 32.72600
H  19.90200 -1.61700 34.11500
H  16.12400 -1.65600 33.77200
H  15.22600 -0.39200 32.87700
H  14.83400 -0.55900 35.33600
H  15.14000 0.98500 34.70600
H  22.22100 -4.79200 30.49800
H  21.17700 -6.09800 29.96700
H  20.79800 -4.88000 31.29300
H  22.18300 -6.33700 28.23700
H  23.44100 -5.20400 27.69900
H  22.73100 -6.40600 26.52100
H  18.52900 -1.94700 23.52200
H  18.19300 1.02900 23.87600
H  20.05700 0.54500 23.18200
H  20.37600 -1.05400 22.53700
H  20.84000 -0.57200 24.23600
H  15.61200 -0.01000 23.07100
H  16.81600 -1.13200 22.36700
H  17.66300 1.43600 21.49500
H  15.86500 1.40600 21.39900
H  16.79800 0.14000 20.64900
H  13.34000 2.79600 26.18900
H  14.94600 3.64300 25.83800
H  13.62700 4.29300 26.99300
H  14.43800 1.74000 32.10700
H  16.94200 4.53700 33.99000
H  15.89500 3.43900 35.02500
H  15.29600 4.93300 34.70400
Mg 43.99700 4.72400 48.20800
C  41.88500 7.52200 47.59600
C  41.21400 2.71200 47.59900
C  46.08700 2.30700 47.93700
C  46.81300 7.13800 48.07300
N  41.84100 5.07600 47.43200
C  41.22500 6.30200 47.51800
C  39.70300 6.18900 47.32800
C  39.43300 4.63900 47.40200
C  40.85400 4.10700 47.64100
C  38.44700 4.15900 48.50700
C  39.11200 6.90600 46.06900
C  37.83000 6.39400 45.32800
H  38.10400 5.83800 43.95200
N  43.67800 2.70000 47.93400
C  42.47600 2.02200 47.72900
C  42.82000 0.64300 47.56200
C  44.18500 0.50500 47.80200
C  44.74200 1.87500 47.96800
C  41.76400 -0.45800 47.38700
C  44.93700 -0.83400 47.79000
O  44.31400 -1.90800 47.61700
C  46.39300 -0.80900 48.08200
N  46.13800 4.77200 47.94300
C  46.75900 3.55500 47.86400
C  48.25000 3.69000 47.90500
C  48.55900 5.17900 48.18500
C  47.10900 5.70900 48.09900
C  49.01100 2.76600 48.89400
C  49.48000 5.84000 47.23000
C  50.94100 5.99300 47.67000
N  44.31600 6.88600 47.95000
C  45.54900 7.64500 47.91400
C  45.15500 9.11200 47.80500
C  43.76300 9.07100 47.66600
C  43.31000 7.72300 47.75000
C  46.06300 10.24200 47.73100
C  42.60300 9.87800 47.56300
O  42.52100 11.07700 47.45700
C  41.35400 8.95800 47.52800
C  40.44500 9.31900 48.66100
O  40.09300 8.56400 49.51300
O  39.88700 10.56600 48.51700
C  38.77700 10.85000 49.47000
H  40.40200 1.98300 47.57600
H  46.79700 1.52100 47.67100
H  47.66600 7.82000 48.07700
H  39.23700 6.73300 48.15000
H  39.14800 4.37600 46.38300
H  37.66400 3.51100 48.11300
H  37.82400 5.00000 48.81100
H  38.94600 3.67800 49.34800
H  39.98900 6.90000 45.42100
H  38.85100 7.93000 46.33500
H  37.09400 7.19900 45.32100
H  37.42500 5.64000 46.00300
H  41.38200 -0.73000 48.37100
H  42.09900 -1.38200 46.91600
H  40.97800 -0.02400 46.76900
H  46.91100 -0.64300 47.13700
H  46.69100 -1.83300 48.30500
H  46.71800 -0.18800 48.91700
H  48.54000 3.42500 46.88900
H  48.93000 5.36600 49.19300
H  48.47300 2.30500 49.72300
H  49.99600 3.14400 49.16800
H  49.29300 1.95800 48.22000
H  49.11800 6.79000 46.83900
H  49.53600 5.20400 46.34700
H  51.56700 5.42900 46.97900
H  50.97000 5.63600 48.70000
H  51.26900 7.03300 47.69000
H  46.77700 10.23800 48.55500
H  45.47900 11.16200 47.74100
H  46.67200 10.24900 46.82700
H  40.82800 9.24000 46.61600
H  39.04300 10.64800 50.50700
H  37.86800 10.32000 49.18300
H  38.55300 11.91600 49.43600

