158

Mg 50.48900 46.37200 41.53400
C  47.42500 47.62400 40.75700
C  49.58400 43.20300 40.54400
C  53.91000 45.30200 41.71000
C  51.70900 49.69300 42.32300
N  48.61800 45.55700 40.90100
C  47.48900 46.20900 40.52000
C  46.44600 45.21900 39.95600
C  47.10300 43.77600 40.34700
C  48.52300 44.15700 40.68400
C  46.38400 43.03200 41.47800
C  45.91300 45.36400 38.42000
C  44.49100 45.01200 38.02500
H  44.42200 43.98900 36.85200
N  51.59900 44.55200 40.94100
C  50.99100 43.38300 40.58100
C  52.00300 42.40400 40.34700
C  53.24000 43.00900 40.67600
C  52.98000 44.38400 41.13900
C  51.65900 40.95700 39.96500
C  54.55200 42.34000 40.43400
O  54.53900 41.17000 40.07500
C  55.85200 42.91300 40.68900
N  52.63100 47.46500 41.70500
C  53.72100 46.71600 41.95900
C  54.89900 47.52600 42.50900
C  54.15400 48.80800 42.89100
C  52.74000 48.68900 42.27600
C  55.65600 46.88900 43.74100
C  54.90900 50.11900 42.40700
C  55.78000 50.86300 43.41900
N  49.69100 48.24000 41.76500
C  50.29300 49.47200 42.09000
C  49.24100 50.45600 42.01100
C  48.11800 49.72600 41.50900
C  48.43000 48.45700 41.31500
C  49.34700 51.88900 42.34100
C  46.68300 49.88300 41.17400
O  45.83500 50.75700 41.37600
C  46.26900 48.51400 40.52300
C  44.99100 47.93300 41.18500
O  45.03300 47.33800 42.20700
O  43.85800 48.06400 40.43500
C  42.61500 47.68300 41.12300
H  49.20900 42.20800 40.29400
H  54.87600 44.93600 42.06500
H  51.96800 50.67500 42.72200
H  45.55400 45.17800 40.58200
H  47.16400 43.09400 39.49900
H  47.11500 42.72700 42.22600
H  45.97200 42.11200 41.06200
H  45.64600 43.60800 42.03700
H  46.49800 44.70800 37.77500
H  46.09100 46.37500 38.05400
H  44.03700 45.95400 37.71500
H  43.92500 44.53400 38.82400
H  51.87100 40.23800 40.75600
H  52.27400 40.64700 39.12000
H  50.61800 40.98100 39.64300
H  56.02100 42.84600 41.76300
H  55.77600 43.95500 40.38000
H  56.61400 42.52300 40.01400
H  55.66400 47.65300 41.74300
H  53.96500 48.86500 43.96300
H  55.77700 47.66700 44.49400
H  56.60900 46.44600 43.45200
H  55.06500 46.08800 44.18600
H  54.10800 50.73600 42.00200
H  55.55000 50.05600 41.52700
H  55.35100 51.80900 43.74700
H  56.73700 51.02000 42.92000
H  55.90000 50.22400 44.29400
H  49.90500 52.49600 41.62800
H  49.83100 52.09000 43.29700
H  48.34400 52.29300 42.48000
H  46.13400 48.71300 39.46000
H  41.81000 47.73600 40.39000
H  42.35300 48.45200 41.85000
H  42.63200 46.69200 41.57700
Mg -13.24600 16.33800 41.74300
C  -10.22000 14.63900 41.08800
C  -11.81900 19.16500 40.30200
C  -16.19900 17.63500 42.00700
C  -14.50900 13.22600 42.85200
N  -11.24700 16.83900 40.76400
C  -10.22400 15.99000 40.63500
C  -9.01300 16.68000 39.88600
C  -9.49300 18.19500 39.77900
C  -10.87600 18.08400 40.34500
C  -8.56800 19.19000 40.54900
C  -8.58700 15.95700 38.55700
C  -7.12600 15.55900 38.44800
H  -6.45600 16.02800 37.18900
N  -13.92800 18.12800 41.18800
C  -13.20500 19.16800 40.65300
C  -14.10700 20.38100 40.58500
C  -15.40800 20.00800 41.14900
C  -15.21500 18.50600 41.51300
C  -13.71700 21.77900 40.02900
C  -16.55300 20.99300 41.40200
O  -16.45300 22.17300 41.06000
C  -17.74800 20.53800 42.22300
N  -15.20000 15.34800 42.10600
C  -16.23400 16.26800 42.36600
C  -17.55300 15.40100 42.61600
C  -16.83900 14.17800 43.23600
C  -15.44200 14.19600 42.69400
C  -18.54800 16.05800 43.62000
C  -17.60400 12.84600 42.92100
C  -17.61300 11.74500 43.98100
N  -12.54000 14.29800 41.99000
C  -13.16100 13.16600 42.46700
C  -12.15800 12.11500 42.55400
C  -11.01900 12.62700 42.05000
C  -11.26100 13.95200 41.66000
C  -12.45100 10.80700 43.08000
C  -9.62200 12.25600 41.72100
O  -8.96800 11.22100 41.90200
C  -9.06400 13.59200 41.01900
C  -7.79900 14.03700 41.79100
O  -7.75400 14.93800 42.62100
O  -6.71600 13.37000 41.28000
C  -5.47200 13.70000 41.91900
H  -11.40700 20.09600 39.90600
H  -17.23200 17.98600 42.04100
H  -14.80300 12.28300 43.31900
H  -8.17200 16.62700 40.57700
H  -9.56200 18.41700 38.71500
H  -8.16200 19.91700 39.84600
H  -7.73700 18.66500 41.02000
H  -9.15800 19.71800 41.29800
H  -8.75900 16.60900 37.70100
H  -9.20200 15.08100 38.35400
H  -6.98800 14.49100 38.62100
H  -6.51900 15.88700 39.29200
H  -14.35400 21.96200 39.16300
H  -12.70400 21.75700 39.62600
H  -13.67100 22.55700 40.79100
H  -18.43600 19.88100 41.69200
H  -18.46300 21.35000 42.35800
H  -17.48400 19.85200 43.02800
H  -18.04800 15.11900 41.68700
H  -16.80800 14.30500 44.31900
H  -18.26800 17.08800 43.84200
H  -18.70100 15.56100 44.57700
H  -19.49300 16.09300 43.07800
H  -17.20400 12.54400 41.95300
H  -18.65900 13.04400 42.72700
H  -18.68300 11.62700 44.15600
H  -17.09700 12.03600 44.89600
H  -17.15700 10.90900 43.45200
H  -13.12100 10.25900 42.41800
H  -13.03000 10.98000 43.98700
H  -11.61600 10.22600 43.47200
H  -8.73900 13.22300 40.04600
H  -5.28900 14.76600 41.78500
H  -4.66300 13.33300 41.28700
H  -5.50800 13.38400 42.96200

