158

Mg 2.17100 -1.43800 43.30300
C  5.52100 -1.20200 43.34900
C  1.91300 1.35300 41.49600
C  -1.13000 -2.22600 42.62400
C  2.56100 -4.79700 44.38000
N  3.51700 -0.06900 42.63900
C  4.87300 -0.13200 42.74900
C  5.64500 1.02400 42.06800
C  4.40700 1.84400 41.55100
C  3.20300 0.98100 41.92600
C  4.36100 3.33900 42.05600
C  6.56700 0.63800 40.80600
C  7.03400 1.92500 40.05600
H  6.49000 2.26900 38.66200
N  0.63300 -0.45500 42.29100
C  0.65200 0.71100 41.63200
C  -0.66900 1.16300 41.32000
C  -1.55700 0.16700 41.61400
C  -0.67000 -0.87800 42.23700
C  -1.14000 2.44300 40.63400
C  -3.05500 0.21800 41.51900
O  -3.56900 1.17600 40.94700
C  -4.03000 -0.96900 41.95600
N  0.95800 -3.31800 43.33500
C  -0.43800 -3.27300 43.17700
C  -1.10300 -4.62300 43.54600
C  0.11900 -5.45100 44.01100
C  1.31300 -4.48300 43.84200
C  -2.23700 -4.46800 44.54600
C  0.35500 -6.73800 43.11900
C  -0.78200 -7.86900 42.99300
N  3.68900 -2.66100 44.06400
C  3.69400 -3.98700 44.47100
C  5.04600 -4.43900 44.74900
C  5.77900 -3.30700 44.46100
C  4.91000 -2.31200 43.93500
C  5.49000 -5.77300 45.12400
C  7.09900 -2.82300 44.37000
O  8.19500 -3.34300 44.63800
C  6.98400 -1.42300 43.58800
C  7.43700 -0.34200 44.46200
O  6.93100 0.04400 45.50200
O  8.47000 0.26100 43.80000
C  8.88300 1.57700 44.29500
H  1.91000 2.31000 40.97000
H  -2.19800 -2.41800 42.50300
H  2.56100 -5.81900 44.76400
H  6.24000 1.46400 42.86900
H  4.31500 1.94800 40.47000
H  3.42600 3.50600 42.59200
H  4.41800 3.97600 41.17300
H  5.26200 3.43800 42.66000
H  5.86600 0.09900 40.16800
H  7.43200 0.03700 41.08300
H  8.09600 1.79200 39.85000
H  6.88200 2.86800 40.58000
H  -0.22100 2.97300 40.38300
H  -1.77700 3.02600 41.29900
H  -1.60800 2.05900 39.72700
H  -5.08500 -0.74100 42.10700
H  -3.68900 -1.24800 42.95300
H  -3.92500 -1.82200 41.28500
H  -1.37600 -5.05100 42.58100
H  0.16600 -5.70500 45.07000
H  -3.16900 -4.85400 44.13300
H  -2.37600 -3.39400 44.66700
H  -2.10900 -4.90300 45.53800
H  1.27300 -7.22800 43.44300
H  0.41700 -6.20400 42.17100
H  -1.32600 -7.91300 42.04900
H  -1.64000 -7.76800 43.65800
H  -0.38000 -8.81800 43.34700
H  6.01800 -6.16800 44.25600
H  4.60200 -6.33200 45.41800
H  6.14000 -5.53100 45.96400
H  7.67000 -1.57600 42.75500
H  8.06900 2.30300 44.31500
H  9.55600 2.05500 43.58300
H  9.34300 1.54900 45.28300
Mg -1.81800 35.12300 26.81100
C  -3.74600 33.21800 29.11100
C  -1.25500 37.30700 29.21300
C  -0.24700 36.67000 24.43400
C  -3.14600 32.98900 24.33200
N  -2.51200 35.26100 28.84600
C  -3.13400 34.34000 29.64100
C  -3.09700 34.69700 31.16800
C  -2.55400 36.11500 31.11200
C  -2.03600 36.26800 29.66100
C  -3.55700 37.30700 31.56400
C  -2.23200 33.64500 31.98300
C  -2.95400 32.96700 33.17300
H  -2.14600 32.65800 34.50800
N  -0.75800 36.74200 26.88300
C  -0.62000 37.54800 27.94300
C  0.23600 38.65600 27.55800
C  0.56500 38.50000 26.12300
C  -0.19400 37.27600 25.77300
C  0.53300 39.79600 28.47200
C  1.50700 39.28400 25.27500
O  1.67900 39.01600 24.10200
C  2.29300 40.43500 25.80900
N  -1.62100 34.79700 24.74400
C  -0.92500 35.58700 23.99100
C  -0.92600 35.17100 22.49100
C  -1.52300 33.82100 22.53500
C  -2.19500 33.88400 23.94500
C  -1.67800 36.20500 21.59300
C  -0.66900 32.53800 22.40900
C  0.68700 32.58900 23.14500
N  -3.18300 33.56300 26.70200
C  -3.63300 32.73700 25.59000
C  -4.58800 31.77600 26.02200
C  -4.52000 31.91500 27.41600
C  -3.72500 32.96900 27.75200
C  -5.42200 30.92700 25.14500
C  -5.11100 31.24500 28.60300
O  -5.92800 30.36800 28.71900
C  -4.52900 32.06900 29.72000
C  -5.61100 32.55300 30.54500
O  -6.41100 33.48200 30.26800
O  -5.59800 31.81900 31.71500
C  -6.39400 32.31800 32.83700
H  -0.87700 37.98200 29.98400
H  0.20200 37.27900 23.64600
H  -3.23200 32.27100 23.51400
H  -4.09500 34.66600 31.60300
H  -1.80500 36.18700 31.90000
H  -2.85900 37.92200 32.13200
H  -4.36500 37.05100 32.24900
H  -3.96500 37.92500 30.76400
H  -1.26800 34.07200 32.25900
H  -1.89200 32.78100 31.41300
H  -3.28300 31.96600 32.89400
H  -3.78200 33.60200 33.48800
H  -0.00200 39.79400 29.42100
H  0.02300 40.55100 27.87400
H  1.59800 40.02400 28.50600
H  2.94900 40.22600 26.65500
H  1.55200 41.15700 26.15200
H  2.93500 40.77600 24.99600
H  0.09800 35.11400 22.12300
H  -2.23200 33.66600 21.72200
H  -2.10000 36.97400 22.23900
H  -2.54000 35.68200 21.17900
H  -0.94900 36.62700 20.90100
H  -0.34200 32.45600 21.37200
H  -1.27600 31.63500 22.48400
H  0.53200 31.75200 23.82600
H  0.87000 33.56500 23.59500
H  1.51300 32.35300 22.47400
H  -5.30900 31.07500 24.07200
H  -6.48700 30.96000 25.37700
H  -5.07500 29.91400 25.34800
H  -3.81300 31.42900 30.23600
H  -6.18900 33.37700 32.99400
H  -6.00200 31.88000 33.75500
H  -7.45900 32.10500 32.74800

