158

Mg 48.17300 34.55600 28.02400
C  46.08800 33.26200 30.61600
C  48.39700 37.43400 29.95100
C  49.35100 36.25900 25.42000
C  47.07900 32.07000 25.89600
N  47.36500 35.22300 30.03500
C  46.72800 34.43900 30.99700
C  46.89100 34.99200 32.39500
C  47.33000 36.46100 32.11800
C  47.66200 36.45300 30.58900
C  46.24600 37.50300 32.31400
C  48.03500 34.29100 33.22000
C  47.87200 34.29700 34.73900
H  47.18900 35.60300 35.29300
N  48.89800 36.53900 27.74000
C  48.90100 37.58000 28.67100
C  49.61500 38.72100 28.09000
C  49.88000 38.41200 26.68900
C  49.35400 37.02500 26.56400
C  50.04900 39.87300 28.94000
C  50.59100 39.24300 25.60600
O  50.99500 38.75900 24.55100
C  50.84800 40.68300 25.98000
N  48.24500 34.16800 25.96900
C  48.87400 34.94400 25.13500
C  48.98800 34.28400 23.73100
C  48.62500 32.78600 24.05300
C  47.88800 32.98500 25.31800
C  48.03100 34.95700 22.75200
C  49.79900 31.76800 24.14800
C  51.26300 32.18400 23.76200
N  46.98600 32.90500 28.20300
C  46.68400 31.90500 27.25800
C  45.81800 30.92600 27.86500
C  45.48100 31.49500 29.15400
C  46.28800 32.65200 29.34600
C  45.17200 29.64700 27.29500
C  44.68400 31.30500 30.26700
O  43.97100 30.34900 30.61300
C  44.95900 32.52000 31.28100
C  45.18900 31.94700 32.60200
O  46.12200 31.25800 32.94600
O  44.13800 32.36400 33.33000
C  44.08300 31.92500 34.77000
H  48.57600 38.34400 30.52800
H  49.78400 36.87500 24.63000
H  46.71800 31.21000 25.32700
H  45.99100 34.92100 33.00700
H  48.27300 36.76800 32.57000
H  46.44300 38.27600 33.05700
H  45.42400 36.87300 32.65300
H  45.85000 37.94100 31.39800
H  48.96800 34.71200 32.84600
H  48.00300 33.24000 32.93500
H  48.77400 34.05200 35.30000
H  47.13000 33.50900 34.86500
H  51.10100 40.14900 28.86600
H  49.84600 39.83200 30.01000
H  49.51900 40.74000 28.54700
H  51.61000 40.70900 26.75900
H  49.95200 41.21900 26.29500
H  51.19100 41.30600 25.15400
H  50.04100 34.46100 23.51500
H  47.83800 32.41100 23.39800
H  48.50500 35.00900 21.77300
H  47.66900 35.94000 23.05700
H  47.20400 34.26900 22.57600
H  49.66600 31.08500 23.30900
H  49.85000 31.27700 25.12000
H  51.91600 31.34900 24.01600
H  51.49800 33.11500 24.27700
H  51.38000 32.26300 22.68100
H  45.72300 29.31300 26.41600
H  44.12000 29.84100 27.08900
H  45.32300 28.85700 28.03000
H  44.11900 33.21200 31.33300
H  44.28300 32.83700 35.33200
H  44.72200 31.05800 34.94000
H  43.02300 31.76400 34.97000
Mg 42.38900 41.48500 26.92700
C  41.64400 43.93100 29.38300
C  43.38100 39.40100 29.42600
C  43.12700 39.23500 24.58300
C  41.73500 43.88400 24.44300
N  42.36400 41.72600 29.12300
C  41.94500 42.73200 29.95600
C  41.92700 42.32600 31.38000
C  42.70100 40.96600 31.36000
C  42.92000 40.69200 29.84300
C  44.02300 40.94900 32.24900
C  40.55200 42.19000 31.88200
C  40.36500 41.67000 33.33300
H  39.74600 42.60200 34.31200
N  43.27500 39.58200 26.96400
C  43.60400 38.88600 28.09400
C  44.17800 37.65800 27.68100
C  44.01400 37.48400 26.26100
C  43.41500 38.80200 25.88800
C  44.77100 36.61000 28.64000
C  44.39500 36.28300 25.44600
O  44.23100 36.24700 24.24300
C  44.93700 34.99200 26.17500
N  42.30300 41.53900 24.84700
C  42.67000 40.51200 24.11400
C  42.61800 40.79800 22.58500
C  41.87800 42.20000 22.55700
C  42.00900 42.64200 24.02700
C  44.00900 40.91900 21.78400
C  40.44600 42.10300 21.95000
C  39.36500 41.73700 22.95800
N  41.76600 43.45800 26.86500
C  41.58900 44.34300 25.79500
C  41.33800 45.70000 26.35700
C  41.27800 45.45700 27.64200
C  41.56700 44.19000 27.98300
C  41.15700 46.95500 25.55400
C  40.99200 46.24800 28.85100
O  40.62900 47.42200 28.91000
C  41.04900 45.20800 30.03700
C  41.90100 45.79200 31.08900
O  43.14000 46.01900 31.00800
O  41.18400 45.90800 32.26900
C  41.99700 46.31600 33.42700
H  43.52200 38.77500 30.30900
H  43.16500 38.50800 23.77000
H  41.53700 44.58300 23.62800
H  42.49600 42.99800 32.02200
H  42.06800 40.20000 31.80600
H  43.77400 40.72800 33.28700
H  44.45400 41.94800 32.31600
H  44.87200 40.29600 32.04700
H  40.12400 41.51700 31.13900
H  40.13500 43.19400 31.80500
H  41.24600 41.16500 33.72900
H  39.64100 40.87300 33.16500
H  45.76800 36.24400 28.39300
H  44.00800 35.83200 28.67900
H  44.74200 36.99500 29.65900
H  45.94200 35.15200 26.56700
H  44.88900 34.19200 25.43600
H  44.29300 34.68100 26.99800
H  41.96400 40.07800 22.09400
H  42.50600 42.89600 21.99900
H  44.42800 41.85300 22.16000
H  43.89300 40.82000 20.70500
H  44.66600 40.11500 22.11500
H  40.48100 41.34900 21.16300
H  40.32000 43.10400 21.53600
H  39.84900 41.53700 23.91400
H  38.82300 40.85700 22.61200
H  38.72600 42.62000 22.96600
H  41.52600 46.87100 24.53200
H  41.82000 47.65600 26.06000
H  40.14600 47.35400 25.64300
H  40.03000 45.06000 30.39400
H  42.37200 47.30700 33.17400
H  42.80400 45.65200 33.74000
H  41.24300 46.64900 34.13900

