158

Mg 23.86100 -6.80200 47.36100
C  26.54400 -4.66000 46.26900
C  21.84200 -5.14900 45.10300
C  21.57300 -9.20100 47.82700
C  26.26100 -8.65300 49.07200
N  24.19200 -5.07100 45.93300
C  25.30400 -4.36200 45.65100
C  25.14100 -3.41200 44.45600
C  23.57300 -3.42600 44.32800
C  23.16400 -4.65700 45.13300
C  22.79100 -2.19500 44.75500
C  25.87300 -4.01200 43.24100
C  27.10300 -3.13500 42.74400
H  27.10200 -2.49900 41.38300
N  21.90400 -7.05300 46.67400
C  21.24000 -6.22900 45.77800
C  19.89100 -6.74300 45.57800
C  19.81200 -7.93500 46.26700
C  21.13900 -8.10400 46.99500
C  18.78200 -5.95400 44.88000
C  18.61300 -8.86500 46.41600
O  17.59700 -8.51700 45.80200
C  18.52300 -10.08600 47.25000
N  23.91800 -8.72200 48.28800
C  22.79300 -9.55600 48.40700
C  23.12000 -10.93100 49.04300
C  24.66900 -10.71200 49.39800
C  24.98400 -9.27000 48.91500
C  22.30100 -11.33800 50.30100
C  25.73500 -11.65500 48.75500
C  26.84300 -12.07200 49.83600
N  25.96200 -6.61800 47.78800
C  26.78400 -7.49200 48.45600
C  28.07100 -6.86600 48.61300
C  28.04700 -5.63500 47.84600
C  26.75100 -5.63100 47.24600
C  29.34400 -7.45900 49.22100
C  28.74200 -4.48000 47.37100
O  29.80000 -4.04800 47.60500
C  27.76900 -3.81400 46.26400
C  27.38100 -2.46000 46.66900
O  26.86900 -2.23200 47.76700
O  27.84800 -1.51500 45.79800
C  27.78400 -0.10100 46.26000
H  21.18600 -4.54100 44.47700
H  20.98800 -10.10500 47.64400
H  27.07300 -9.24300 49.50200
H  25.43400 -2.38100 44.65400
H  23.26800 -3.59700 43.29500
H  23.44500 -1.45300 45.21200
H  22.04100 -2.52500 45.47400
H  22.25000 -1.87700 43.86400
H  25.14700 -4.10700 42.43400
H  26.23300 -5.03000 43.38600
H  28.02900 -3.69700 42.86200
H  27.20400 -2.33100 43.47200
H  17.90700 -5.69900 45.47600
H  18.59300 -6.33200 43.87500
H  19.25200 -4.97200 44.82200
H  17.49300 -10.44300 47.27800
H  18.81000 -9.85600 48.27600
H  19.23100 -10.85000 46.92900
H  23.04400 -11.63600 48.21500
H  24.85400 -10.70900 50.47200
H  21.68400 -10.48400 50.57800
H  22.96600 -11.60300 51.12300
H  21.62700 -12.15500 50.04300
H  26.20500 -11.15000 47.91100
H  25.24500 -12.55700 48.38900
H  26.70200 -13.14600 49.95600
H  26.64800 -11.68400 50.83600
H  27.83700 -11.90700 49.42100
H  30.12500 -6.70100 49.27200
H  29.61800 -8.37400 48.69400
H  29.14100 -7.66000 50.27200
H  28.32800 -3.94100 45.33700
H  26.74700 0.14200 46.49200
H  28.20200 0.50200 45.45500
H  28.41500 0.05900 47.13400
Mg 35.96600 49.40300 25.08400
C  36.56800 47.60800 28.02700
C  34.87600 52.11300 27.07000
C  35.46700 51.12800 22.24000
C  37.13200 46.69800 23.28200
N  35.99300 49.91700 27.24800
C  36.14700 48.95100 28.19000
C  36.00500 49.55700 29.62200
C  35.16900 50.82800 29.25100
C  35.42500 51.02000 27.75800
C  33.64600 50.82800 29.51400
C  37.41800 49.80400 30.36600
C  37.44700 50.34100 31.76300
H  36.14200 50.40900 32.59800
N  35.18000 51.35900 24.74100
C  34.78500 52.31600 25.69200
C  34.29600 53.51200 24.94900
C  34.39800 53.23900 23.57500
C  35.00500 51.83900 23.45200
C  33.87900 54.85000 25.67600
C  34.18300 54.12800 22.38900
O  34.32900 53.80400 21.23200
C  33.60800 55.51100 22.51800
N  35.98000 48.87900 22.99900
C  35.84900 49.80000 22.02900
C  36.37200 49.30800 20.67600
C  37.02400 47.95300 21.01600
C  36.72000 47.82400 22.52400
C  35.20800 49.23600 19.72200
C  38.54500 47.90400 20.68600
C  39.04100 46.55600 20.15700
N  36.64900 47.42300 25.45600
C  37.14200 46.47500 24.62800
C  37.44600 45.30700 25.44600
C  37.26400 45.72800 26.77000
C  36.72800 47.04900 26.71500
C  37.91600 44.04800 24.93100
C  37.31300 45.30200 28.17300
O  37.65600 44.27300 28.71200
C  36.93400 46.51500 29.03400
C  35.97300 46.01600 30.08900
O  35.04900 45.25400 29.94200
O  36.37000 46.50100 31.32200
C  35.66100 46.24000 32.58300
H  34.52700 52.92000 27.71800
H  35.35700 51.66600 21.29600
H  37.56400 45.94500 22.61900
H  35.40800 48.78900 30.11400
H  35.62700 51.62900 29.83100
H  32.97600 50.67700 28.66700
H  33.38700 51.70400 30.10800
H  33.45100 49.88600 30.02700
H  37.86000 50.56200 29.72000
H  38.03400 48.90800 30.28700
H  37.93200 51.31600 31.82000
H  38.02200 49.62100 32.34500
H  33.94400 55.75000 25.06400
H  34.49400 54.82400 26.57500
H  32.81600 54.77800 25.90400
H  33.55600 55.93300 21.51400
H  34.24400 56.23600 23.02600
H  32.57700 55.38500 22.84800
H  37.16800 50.00800 20.42000
H  36.46700 47.14100 20.54900
H  35.12400 48.25400 19.25600
H  35.40000 49.68900 18.75000
H  34.22100 49.50700 20.09700
H  39.13100 48.25100 21.53700
H  38.69900 48.66300 19.91900
H  39.06900 46.47400 19.07100
H  38.26700 45.82400 20.38700
H  40.04000 46.37800 20.55600
H  37.61100 43.89000 23.89600
H  37.43500 43.26400 25.51600
H  39.00600 44.04400 24.90500
H  37.94500 46.77700 29.34700
H  34.77100 46.85100 32.73000
H  36.27400 46.53700 33.43400
H  35.46900 45.17600 32.72400

