158

Mg 25.89700 0.35000 29.73100
C  27.96300 0.22400 32.42100
C  23.18600 0.66500 31.78000
C  23.88100 0.23000 27.00900
C  28.67400 -0.19300 27.63700
N  25.61900 0.29700 31.81200
C  26.59200 0.32400 32.77900
C  26.06800 0.43000 34.28000
C  24.52300 0.39900 33.95200
C  24.43900 0.44300 32.42500
C  23.85700 -0.76100 34.59900
C  26.57600 1.57100 35.10900
C  25.75900 2.21700 36.19900
H  26.69900 2.54900 37.43000
N  23.83900 0.53600 29.42000
C  22.90000 0.69600 30.40500
C  21.61400 0.79300 29.80900
C  21.79200 0.78100 28.44000
C  23.23600 0.51200 28.22400
C  20.29200 0.83000 30.58800
C  20.78100 1.11100 27.29000
O  21.14800 1.10500 26.09200
C  19.31500 1.38300 27.60400
N  26.23500 0.04100 27.73400
C  25.22800 0.00400 26.77600
C  25.72700 -0.20200 25.35900
C  27.23500 -0.35400 25.54400
C  27.46800 -0.05700 27.01400
C  24.99500 -1.42300 24.72600
C  28.07300 0.65900 24.66800
C  28.29200 2.10500 25.21100
N  27.87900 0.15800 29.90700
C  28.91300 -0.13900 29.02600
C  30.21300 -0.26000 29.77200
C  29.91000 -0.10700 31.13200
C  28.48800 0.11700 31.11500
C  31.57600 -0.48500 29.18100
C  30.39600 -0.04800 32.44300
O  31.53600 -0.15400 32.91000
C  29.16800 0.12100 33.29500
C  29.10000 -1.04500 34.22600
O  28.69100 -2.10300 33.92300
O  29.64600 -0.72600 35.39500
C  29.65700 -1.69300 36.46800
H  22.32000 0.83200 32.42400
H  23.29300 0.20000 26.08900
H  29.52700 -0.47700 27.01700
H  26.44900 -0.53800 34.60700
H  23.97700 1.21200 34.43100
H  24.60500 -1.55400 34.59800
H  23.06600 -1.20200 33.99400
H  23.57400 -0.54000 35.62800
H  26.97900 2.36300 34.47800
H  27.35600 1.05400 35.66900
H  24.99600 1.47200 36.42100
H  25.35700 3.15800 35.82300
H  19.66300 -0.00300 30.27200
H  19.79400 1.76700 30.34200
H  20.48900 0.74300 31.65700
H  18.95600 0.53900 28.19300
H  18.74600 1.40500 26.67500
H  19.23400 2.30100 28.18700
H  25.51700 0.68100 24.75500
H  27.57000 -1.36200 25.30200
H  24.34100 -2.02500 25.35500
H  25.57100 -2.18100 24.19600
H  24.35400 -1.04300 23.93000
H  27.50200 0.68500 23.74000
H  29.05100 0.21700 24.47800
H  28.05300 2.39400 26.23400
H  27.65100 2.76800 24.63000
H  29.31700 2.31200 24.90100
H  31.62700 -0.05600 28.18100
H  31.75900 -1.55900 29.16500
H  32.35300 0.02200 29.75500
H  29.30600 1.04600 33.85400
H  28.81000 -1.54300 37.13700
H  30.64100 -1.65800 36.93600
H  29.62000 -2.73500 36.15200
Mg 35.14000 48.99600 25.46200
C  35.67200 47.39400 28.43900
C  34.11300 51.77500 27.05200
C  34.77900 50.56500 22.38600
C  36.23400 46.12000 23.74400
N  34.79300 49.41100 27.51500
C  35.14800 48.68500 28.58400
C  34.81600 49.46800 29.86500
C  34.29800 50.80300 29.35900
C  34.42400 50.67200 27.83600
C  32.79800 51.16000 29.84300
C  36.02400 49.58600 30.82100
C  35.72600 48.99800 32.20800
H  35.85600 49.93000 33.45600
N  34.51800 50.88100 24.78000
C  34.19100 51.89900 25.63000
C  33.88000 53.12200 24.82300
C  34.19200 52.79400 23.47100
C  34.44600 51.33500 23.49900
C  33.52100 54.49800 25.41600
C  34.27500 53.73600 22.24400
O  34.71400 53.43000 21.16400
C  33.91200 55.20900 22.35200
N  35.40800 48.43300 23.28500
C  35.20900 49.28900 22.24200
C  35.44700 48.55000 20.89100
C  35.98100 47.17100 21.31100
C  35.91900 47.23100 22.91000
C  34.18800 48.55900 19.99200
C  37.38200 46.75500 20.85400
C  38.51000 47.30900 21.74800
N  35.77700 47.09900 25.96100
C  36.25500 46.06100 25.16800
C  36.66200 44.95200 26.00400
C  36.45800 45.44200 27.35100
C  35.93700 46.71400 27.23200
C  37.16900 43.67500 25.48600
C  36.59800 45.08500 28.68700
O  37.09300 44.10400 29.14700
C  36.09200 46.35900 29.50500
C  35.04100 45.92600 30.49500
O  33.89300 45.58700 30.25000
O  35.65900 45.85100 31.71000
C  34.89700 45.13800 32.73500
H  33.81700 52.69100 27.56700
H  34.65200 51.10600 21.44600
H  36.63400 45.26600 23.19200
H  34.05500 48.82900 30.31200
H  34.87100 51.66600 29.69800
H  33.02400 51.85400 30.65200
H  32.35000 50.27100 30.28600
H  32.12700 51.69800 29.17300
H  36.37200 50.60700 30.97700
H  36.85900 49.00200 30.43500
H  36.54900 48.28300 32.21000
H  34.76800 48.48900 32.30600
H  34.30900 55.23900 25.28100
H  33.26500 54.43300 26.47300
H  32.55500 54.75200 24.98100
H  33.84600 55.64900 21.35700
H  34.75400 55.62000 22.90800
H  32.97400 55.23300 22.90600
H  36.30800 48.96100 20.36300
H  35.29700 46.47200 20.83000
H  34.01300 47.53600 19.65800
H  34.39800 49.23200 19.16100
H  33.29800 48.86700 20.54100
H  37.53200 47.02400 19.80900
H  37.46500 45.67200 20.94000
H  38.81700 46.46000 22.35900
H  38.20500 48.16900 22.34500
H  39.38700 47.52000 21.13800
H  38.07000 43.91800 24.92400
H  36.37400 43.21500 24.89800
H  37.45000 42.90500 26.20500
H  36.88100 46.72700 30.16100
H  33.87500 45.41200 32.99700
H  35.47300 45.14600 33.66100
H  34.83800 44.10200 32.40000

