158

Mg -2.62100 17.96100 25.84600
C  -3.11100 16.01800 28.64300
C  -3.04900 20.80800 27.80500
C  -2.85300 19.67700 23.00600
C  -2.26800 14.89300 23.84000
N  -3.14700 18.30500 27.90600
C  -3.09400 17.35800 28.86500
C  -3.28000 18.01400 30.24700
C  -3.25900 19.52400 29.96300
C  -3.06800 19.58900 28.43900
C  -4.54200 20.32200 30.47000
C  -2.39600 17.66100 31.43500
C  -2.81100 18.27800 32.78600
H  -2.83600 17.31700 33.97100
N  -2.87400 19.99100 25.47700
C  -3.05000 21.04200 26.37900
C  -3.15700 22.29200 25.71900
C  -3.14900 21.97300 24.34200
C  -2.99800 20.49900 24.18100
C  -3.27700 23.64700 26.36600
C  -3.24300 22.88000 23.20300
O  -3.25400 22.45000 22.06000
C  -3.47500 24.29400 23.47800
N  -2.51100 17.36400 23.70200
C  -2.55600 18.31200 22.77100
C  -2.38700 17.67100 21.34800
C  -2.03100 16.21300 21.68300
C  -2.24900 16.11000 23.17400
C  -3.64100 17.86100 20.42400
C  -0.57100 15.82900 21.20300
C  0.64500 16.05700 22.08100
N  -2.71000 15.90900 26.14100
C  -2.70700 14.79700 25.23400
C  -3.01700 13.65300 26.01400
C  -3.05900 14.05500 27.39400
C  -2.89900 15.44900 27.36400
C  -3.12900 12.21700 25.51200
C  -3.17400 13.58800 28.71800
O  -3.33500 12.43700 29.05800
C  -3.14200 14.84300 29.64300
C  -1.84000 14.64500 30.35000
O  -0.66700 14.80900 29.90700
O  -2.19000 14.11400 31.57500
C  -1.02700 13.64800 32.36200
H  -2.90100 21.63700 28.50000
H  -3.01600 20.27900 22.11000
H  -1.97200 13.97000 23.33600
H  -4.28900 17.71000 30.52500
H  -2.45400 20.06800 30.45500
H  -4.21900 21.19400 31.03900
H  -5.07200 19.78200 31.25500
H  -5.27900 20.52100 29.69200
H  -1.40400 17.84200 31.02200
H  -2.56700 16.58700 31.50400
H  -3.82000 18.68700 32.73100
H  -2.09800 19.08000 32.97600
H  -2.44500 24.24500 25.99300
H  -3.19500 23.55300 27.44900
H  -4.23200 24.13800 26.17600
H  -3.46800 24.84200 22.53600
H  -2.53400 24.52800 23.97500
H  -4.27200 24.61400 24.15000
H  -1.55500 18.17100 20.85300
H  -2.64600 15.39900 21.30000
H  -3.25600 18.33300 19.52000
H  -4.29300 18.60600 20.88000
H  -4.14400 16.90100 20.30800
H  -0.43400 16.43900 20.31000
H  -0.60400 14.77000 20.94400
H  0.37400 16.72500 22.89900
H  1.43200 16.46100 21.44400
H  1.02800 15.14200 22.53100
H  -3.37900 11.43900 26.23200
H  -2.27400 11.79600 24.98300
H  -3.99600 12.15300 24.85400
H  -4.00400 14.93900 30.30400
H  -0.56000 14.59900 32.61700
H  -0.25900 13.10800 31.80800
H  -1.39700 13.30500 33.32800
Mg 26.43800 50.28900 27.14500
C  24.27700 51.27500 29.68200
C  28.53700 49.02400 29.48800
C  28.31600 49.13400 24.68200
C  24.23400 51.76600 24.85800
N  26.37100 50.12800 29.32400
C  25.37000 50.58000 30.19700
C  25.69500 50.26400 31.63600
C  27.13500 49.66600 31.52400
C  27.38400 49.58800 30.03200
C  28.21200 50.42000 32.41700
C  24.67100 49.33500 32.40700
C  24.08200 49.83800 33.73300
H  24.22400 48.82200 34.90600
N  28.19200 49.12400 27.11200
C  28.94700 48.73200 28.18400
C  30.16900 48.10800 27.69300
C  30.06000 48.18900 26.26700
C  28.77300 48.81100 25.98700
C  31.31100 47.51200 28.52400
C  31.10200 47.73300 25.23100
O  30.95200 47.88700 24.00500
C  32.34800 46.97500 25.66000
N  26.34400 50.56600 25.06700
C  27.24600 49.86400 24.25200
C  26.92200 50.15600 22.77100
C  25.45100 50.72000 22.86000
C  25.29600 51.06300 24.34100
C  28.04300 51.11300 22.11800
C  24.32400 49.80800 22.29000
C  23.56200 48.88400 23.25300
N  24.72700 51.43800 27.21300
C  23.86000 51.87500 26.21300
C  22.73700 52.48300 26.77300
C  22.85400 52.19800 28.13200
C  24.07200 51.64100 28.38100
C  21.64000 53.15700 26.06600
C  22.21200 52.36500 29.38000
O  21.07800 52.77600 29.59600
C  23.08600 51.83600 30.48300
C  23.47600 52.90400 31.44900
O  24.27200 53.72800 31.10000
O  22.73700 52.79800 32.58400
C  22.67900 53.94700 33.56200
H  29.22800 48.69400 30.26700
H  28.86100 48.65800 23.86400
H  23.52200 52.15100 24.12400
H  25.74700 51.19000 32.21000
H  27.17500 48.63900 31.88700
H  28.88900 49.76600 32.96600
H  27.79900 50.98200 33.25500
H  28.64600 51.16500 31.75000
H  25.13500 48.37300 32.62500
H  23.96400 48.98400 31.65500
H  23.01100 50.02600 33.65900
H  24.51500 50.81100 33.96400
H  31.18000 46.43500 28.62300
H  31.23300 47.92800 29.52900
H  32.28800 47.81400 28.14700
H  32.78600 46.80300 24.67700
H  32.18000 45.98200 26.07700
H  33.04400 47.41800 26.37200
H  26.95300 49.18700 22.27300
H  25.44400 51.62900 22.25900
H  28.77200 51.44500 22.85800
H  27.65500 52.03800 21.69000
H  28.53100 50.56200 21.31400
H  24.80600 49.16500 21.55400
H  23.61500 50.47000 21.79300
H  24.26800 48.57000 24.02200
H  23.11000 48.08900 22.66000
H  22.67300 49.38900 23.63200
H  21.98100 54.05800 25.55400
H  20.76000 53.48700 26.61900
H  21.19500 52.46600 25.35000
H  22.49100 51.06900 30.97700
H  22.90900 54.89300 33.07400
H  23.41300 53.64700 34.31000
H  21.70000 53.95500 34.04200

