158

Mg 44.66900 3.95500 46.45900
C  43.06400 7.15800 46.24300
C  41.81900 2.51400 45.72900
C  46.44700 1.23700 46.09100
C  47.77700 5.87500 46.13000
N  42.68800 4.80800 45.98200
C  42.19000 6.06100 45.95700
C  40.67600 6.16100 45.68100
C  40.32200 4.60400 45.65000
C  41.69400 3.87100 45.88100
C  39.28500 4.20100 46.70200
C  40.28400 6.91500 44.37300
C  41.33200 6.92600 43.32100
H  40.76400 6.94100 41.80800
N  44.18800 2.13500 45.87500
C  42.89400 1.67200 45.68700
C  42.96900 0.33300 45.46300
C  44.24500 -0.11800 45.66200
C  45.02100 1.05300 45.96300
C  41.81900 -0.59800 45.09300
C  44.78600 -1.56100 45.50100
O  44.04600 -2.43500 45.12600
C  46.22900 -1.95500 45.69000
N  46.87300 3.64400 46.05400
C  47.27200 2.36200 46.21300
C  48.82400 2.30700 46.25200
C  49.27000 3.72900 46.03800
C  47.93000 4.49300 46.06200
C  49.33400 1.62800 47.50600
C  50.19800 4.05600 44.83700
C  49.50200 4.16000 43.42400
N  45.35000 6.01400 46.40300
C  46.62100 6.63100 46.22200
C  46.53700 8.05600 46.14500
C  45.17700 8.25700 46.29900
C  44.47300 7.03700 46.32000
C  47.73300 8.91200 46.05000
C  44.13800 9.26000 46.55200
O  44.26600 10.45700 46.78200
C  42.75400 8.57800 46.45600
C  41.90600 8.83700 47.61600
O  41.97000 8.29800 48.70700
O  40.90800 9.77200 47.27500
C  39.85900 10.03300 48.25600
H  40.91200 1.92200 45.59800
H  47.01200 0.30900 46.20400
H  48.76800 6.33600 46.12300
H  40.03700 6.58000 46.45800
H  39.87300 4.31500 44.70000
H  38.66500 5.07500 46.90200
H  39.64700 3.98600 47.70700
H  38.66000 3.37200 46.37000
H  39.71700 7.82900 44.55500
H  39.51500 6.35500 43.84100
H  41.94800 6.02700 43.34600
H  41.96300 7.80500 43.45100
H  41.74000 -1.51500 45.67600
H  41.83600 -0.82400 44.02700
H  40.88600 -0.06200 45.26800
H  46.56200 -2.98600 45.57000
H  46.40600 -1.69700 46.73500
H  46.81300 -1.40200 44.95400
H  49.01200 1.69800 45.36800
H  49.83500 4.09200 46.89600
H  49.30700 0.54200 47.41800
H  48.51500 1.69400 48.22200
H  50.29300 1.93400 47.92300
H  50.93200 3.25000 44.84400
H  50.79600 4.89800 45.18600
H  48.45600 3.85400 43.39300
H  49.91900 3.59700 42.58900
H  49.43800 5.20700 43.12700
H  48.21000 8.58400 45.12600
H  48.38800 8.82200 46.91700
H  47.44800 9.95500 45.91500
H  42.12800 8.92000 45.63100
H  39.55800 11.07600 48.35200
H  39.97200 9.59900 49.25000
H  38.98300 9.45700 47.95700
Mg 42.64800 41.23400 27.87200
C  41.50700 43.63400 30.30200
C  43.37900 39.11200 30.40400
C  43.96600 39.24000 25.59300
C  42.65900 44.00900 25.50800
N  42.53700 41.48600 30.02800
C  41.94700 42.40800 30.79900
C  41.91700 42.00900 32.23200
C  42.71200 40.68200 32.26400
C  42.90700 40.37700 30.76400
C  44.05500 40.78900 33.02000
C  40.49600 42.02500 32.90500
C  40.30900 43.07000 34.04000
H  39.49900 42.51600 35.31900
N  43.45100 39.35700 27.95100
C  43.54300 38.55600 29.06300
C  43.94200 37.15900 28.71700
C  44.08800 37.21800 27.33200
C  43.92100 38.66700 26.88600
C  43.97400 36.04200 29.69800
C  44.30200 36.04200 26.41200
O  44.64300 36.14900 25.23900
C  44.13400 34.65600 27.03500
N  43.15000 41.59200 25.85600
C  43.70500 40.53900 25.11400
C  43.84500 40.93000 23.64200
C  43.30900 42.42600 23.58000
C  43.06800 42.75000 25.08200
C  45.25100 40.77900 23.04200
C  42.04400 42.57400 22.70800
C  40.67700 42.31400 23.43800
N  42.14700 43.35500 27.90500
C  42.20300 44.29100 26.78500
C  41.67900 45.53400 27.26000
C  41.32200 45.29400 28.66900
C  41.68200 43.97200 28.97700
C  41.37000 46.74900 26.42600
C  40.68400 45.88800 29.91900
O  40.18300 46.96000 30.13100
C  40.91900 44.87000 31.02100
C  41.93100 45.48200 31.94000
O  43.12800 45.27900 31.80200
O  41.27000 46.20300 32.92400
C  41.94900 46.74200 34.16000
H  43.54400 38.36600 31.18500
H  44.30000 38.53300 24.83200
H  42.56400 44.80400 24.76700
H  42.41900 42.80900 32.77700
H  42.07700 39.91500 32.70600
H  44.26400 40.00900 33.75200
H  44.06500 41.75100 33.53200
H  44.92600 40.96000 32.38700
H  40.25500 41.08500 33.40200
H  39.65400 42.11700 32.21800
H  39.75600 43.89000 33.58100
H  41.26000 43.41100 34.44900
H  43.15500 35.35500 29.48200
H  43.79000 36.29200 30.74300
H  44.84600 35.40100 29.57100
H  43.20900 34.48500 27.58500
H  44.96800 34.16200 27.53300
H  44.07700 33.96300 26.19500
H  43.11200 40.29600 23.14400
H  44.09400 43.11700 23.27500
H  45.22400 39.86000 22.45700
H  45.99200 40.53400 23.80200
H  45.53300 41.50100 22.27600
H  41.99200 41.86900 21.87900
H  41.98400 43.49900 22.13400
H  40.76000 42.01800 24.48300
H  39.93600 41.71200 22.91200
H  40.17200 43.28000 23.45100
H  40.52600 46.59600 25.75400
H  42.23100 47.08500 25.84700
H  41.07700 47.53400 27.12300
H  39.95300 44.60900 31.45400
H  42.89000 47.23500 33.91600
H  42.12900 45.96800 34.90600
H  41.25000 47.44800 34.60900

