158

Mg -11.15000 16.11900 42.06900
C  -8.27000 14.18200 41.44300
C  -9.75000 18.63500 40.25900
C  -14.24100 17.62600 41.75500
C  -12.68900 13.18000 43.27200
N  -9.25300 16.36500 41.07600
C  -8.15800 15.48000 40.97900
C  -6.94400 16.14200 40.44900
C  -7.44300 17.60600 40.07600
C  -8.91000 17.56800 40.57300
C  -6.59300 18.75200 40.67700
C  -6.31400 15.44600 39.22900
C  -4.83500 15.05000 39.24800
H  -3.85800 15.57800 38.14000
N  -11.87900 17.99000 41.38000
C  -11.06900 18.87900 40.66100
C  -11.82000 20.10700 40.52100
C  -13.19200 19.82500 40.89000
C  -13.13100 18.40800 41.37100
C  -11.26600 21.43100 39.95300
C  -14.28200 20.87500 40.93600
O  -14.12000 22.02500 40.59600
C  -15.61400 20.42500 41.52500
N  -13.21200 15.41500 42.30400
C  -14.27800 16.26500 42.25900
C  -15.56900 15.58800 42.69000
C  -15.10400 14.18300 43.08200
C  -13.59600 14.21200 42.88100
C  -16.45200 16.44200 43.63100
C  -15.82300 13.04100 42.36500
C  -16.27800 11.80100 43.26400
N  -10.58700 14.15700 42.38100
C  -11.32200 13.03100 42.97700
C  -10.45100 11.87000 43.09700
C  -9.24200 12.32900 42.51500
C  -9.39900 13.66700 42.05800
C  -10.97000 10.60500 43.77100
C  -7.86700 11.89600 42.08000
O  -7.31200 10.81000 42.21200
C  -7.18400 13.16000 41.61900
C  -6.18900 13.68500 42.65500
O  -6.49300 14.31100 43.69500
O  -4.89500 13.44900 42.25000
C  -3.78200 13.85900 43.23900
H  -9.29500 19.51100 39.79200
H  -15.26700 17.91300 41.51300
H  -13.12900 12.29100 43.72800
H  -6.19600 16.14100 41.24200
H  -7.47400 17.76000 38.99700
H  -6.30500 19.54800 39.98900
H  -5.77400 18.22600 41.16700
H  -7.18200 19.13800 41.50900
H  -6.45400 15.92900 38.26200
H  -6.94600 14.58700 39.00500
H  -4.82700 13.96600 39.13300
H  -4.41300 15.19000 40.24300
H  -11.82700 21.78000 39.08600
H  -10.25000 21.26300 39.59500
H  -11.30700 22.16300 40.75900
H  -16.26200 21.30000 41.58900
H  -15.44200 19.94900 42.49100
H  -16.14200 19.67700 40.93500
H  -16.12700 15.46700 41.76100
H  -15.17400 13.94200 44.14300
H  -17.27400 16.89200 43.07500
H  -15.80700 17.17000 44.12400
H  -16.90800 15.80800 44.39200
H  -15.29500 12.61400 41.51300
H  -16.75400 13.38500 41.91600
H  -16.32500 10.82600 42.77900
H  -17.29900 12.01700 43.57800
H  -15.61700 11.77300 44.13000
H  -10.10500 10.29400 44.35600
H  -11.27700 9.84000 43.05800
H  -11.69600 10.97900 44.49300
H  -6.64600 12.99200 40.68600
H  -3.49000 14.84200 42.87100
H  -2.96600 13.13600 43.21400
H  -4.05000 13.96700 44.28900
Mg -6.14900 25.85800 26.21800
C  -4.26300 27.30500 28.80200
C  -7.51100 23.76200 28.33500
C  -7.42600 24.48500 23.47000
C  -4.03400 27.92100 24.03100
N  -5.81300 25.51800 28.31000
C  -5.07900 26.26900 29.19600
C  -5.42300 25.87800 30.67200
C  -6.27300 24.50600 30.44900
C  -6.55600 24.61100 28.90500
C  -5.45900 23.34400 30.97100
C  -6.21200 27.05900 31.39800
C  -5.91500 27.26500 32.87100
H  -5.38500 26.12400 33.76700
N  -7.48000 24.34000 25.96100
C  -7.93500 23.59300 26.96300
C  -8.88400 22.62200 26.44900
C  -8.91600 22.84300 24.98100
C  -7.98400 23.97200 24.77000
C  -9.64700 21.54300 27.30900
C  -9.73500 22.20200 23.89100
O  -9.71600 22.57200 22.75000
C  -10.67800 21.15800 24.37500
N  -5.69800 26.13800 24.05000
C  -6.48200 25.40500 23.13500
C  -6.00600 25.61000 21.69000
C  -5.02500 26.84500 21.88200
C  -4.89500 27.02200 23.40400
C  -5.45500 24.38600 20.95500
C  -5.64900 28.06900 21.11800
C  -5.70500 27.93000 19.61700
N  -4.50600 27.29800 26.31300
C  -3.82100 28.07500 25.41400
C  -2.91000 29.01300 26.07400
C  -3.08500 28.75100 27.41600
C  -4.00000 27.66400 27.49400
C  -1.92100 29.93200 25.26200
C  -2.61500 29.11500 28.72200
O  -1.74700 29.85000 29.10500
C  -3.35400 28.14600 29.73200
C  -2.41400 27.28400 30.45100
O  -1.78800 26.33800 29.95800
O  -2.32800 27.71700 31.69900
C  -1.40900 27.17200 32.72700
H  -7.82600 23.03800 29.08900
H  -7.79300 23.93100 22.60300
H  -3.50800 28.64200 23.40200
H  -4.57200 25.65100 31.31500
H  -7.24300 24.62800 30.93200
H  -5.01300 22.71500 30.20100
H  -6.23500 22.86000 31.56300
H  -4.67300 23.57700 31.69000
H  -7.28900 26.91000 31.31400
H  -6.01500 28.00300 30.88900
H  -6.84700 27.64200 33.29200
H  -5.22300 28.10000 32.97600
H  -10.69300 21.37900 27.05000
H  -9.58000 21.80100 28.36600
H  -9.05000 20.63200 27.28600
H  -10.30000 20.27500 24.89000
H  -11.17200 20.79000 23.47700
H  -11.47500 21.60600 24.96800
H  -6.87600 26.04300 21.19600
H  -4.00500 26.61200 21.57600
H  -5.57900 23.50900 21.59000
H  -4.43000 24.49900 20.60300
H  -6.01500 24.21100 20.03600
H  -4.98600 28.93400 21.13200
H  -6.60800 28.43600 21.48400
H  -5.26100 26.96300 19.37900
H  -5.25700 28.74600 19.05100
H  -6.75700 27.93700 19.33200
H  -2.33400 30.93900 25.20200
H  -1.60700 29.41500 24.35500
H  -1.00400 30.14000 25.81300
H  -3.96900 28.74800 30.40200
H  -1.74400 27.06600 33.75800
H  -0.50700 27.78500 32.73100
H  -1.18800 26.12700 32.51000

