158

Mg 17.65000 -1.26900 28.10000
C  16.56200 0.47000 30.88700
C  19.34100 -3.49500 30.00600
C  18.95300 -2.51600 25.34900
C  15.81800 1.03300 26.13000
N  17.96200 -1.34600 30.21100
C  17.44300 -0.56300 31.20700
C  17.79300 -1.01700 32.64700
C  18.77500 -2.19300 32.27100
C  18.67100 -2.40500 30.76600
C  20.27300 -2.02200 32.80800
C  16.68700 -1.38500 33.68200
C  16.76500 -1.06900 35.14600
H  18.16500 -0.73900 35.69200
N  18.93700 -2.91300 27.65700
C  19.49700 -3.74700 28.62100
C  20.29000 -4.70000 27.91400
C  20.28200 -4.41700 26.53900
C  19.35200 -3.22000 26.42700
C  21.28000 -5.69200 28.54000
C  20.96100 -5.11100 25.31600
O  20.88500 -4.69200 24.19100
C  21.81600 -6.30700 25.46100
N  17.45100 -0.78900 26.03100
C  18.00400 -1.55200 25.10500
C  17.58400 -1.08800 23.69200
C  16.45700 -0.07000 23.97500
C  16.54800 0.06200 25.46400
C  18.83000 -0.52300 22.97600
C  15.15400 -0.46500 23.24300
C  14.44400 0.70400 22.50900
N  16.52400 0.56300 28.40600
C  15.89700 1.40400 27.46000
C  15.17800 2.39300 28.16800
C  15.36900 2.05600 29.57600
C  16.20900 0.92400 29.62500
C  14.34200 3.47800 27.63200
C  15.12800 2.37900 30.95700
O  14.37400 3.25800 31.38200
C  15.83000 1.41400 31.86800
C  16.84100 2.17600 32.73500
O  17.95200 2.40100 32.39900
O  16.23500 2.47600 33.89300
C  16.95300 3.33300 34.74300
H  20.00500 -4.13000 30.59600
H  19.33600 -2.96000 24.42700
H  15.10900 1.54600 25.47800
H  18.39800 -0.17400 32.98000
H  18.40100 -3.11100 32.72400
H  20.42700 -1.05900 33.29500
H  20.94600 -1.83300 31.97100
H  20.63800 -2.96000 33.22600
H  16.45200 -2.44800 33.62900
H  15.82000 -0.86400 33.27700
H  16.35500 -1.93000 35.67400
H  16.18700 -0.15700 35.28800
H  21.01600 -6.72900 28.33600
H  21.28700 -5.63400 29.62900
H  22.33400 -5.57800 28.28700
H  21.34100 -7.01000 26.14500
H  22.74000 -5.97800 25.93600
H  21.90500 -6.74800 24.46800
H  17.32200 -1.88600 22.99700
H  16.84600 0.91000 23.70000
H  19.72300 -0.76900 23.55100
H  18.82200 0.56600 23.01400
H  18.82900 -0.92000 21.96100
H  14.46400 -0.86000 23.98700
H  15.31200 -1.23100 22.48300
H  13.96800 0.47800 21.55500
H  15.25000 1.38200 22.22800
H  13.67500 1.24300 23.06100
H  13.28900 3.23300 27.49700
H  14.69900 3.93800 26.71100
H  14.32400 4.29800 28.35000
H  15.08500 0.93100 32.50000
H  18.01400 3.09300 34.67500
H  16.63900 3.38900 35.78600
H  16.72100 4.34500 34.41200
Mg 48.90000 45.33300 42.86100
C  45.64600 45.15400 41.47200
C  49.24800 41.90700 42.03500
C  52.11500 45.47600 43.46800
C  48.42700 48.55100 43.43200
N  47.50900 43.73900 41.96900
C  46.28600 43.96300 41.36600
C  45.85200 42.68100 40.60500
C  46.72500 41.67600 41.32700
C  47.93500 42.45200 41.81200
C  46.05500 40.93500 42.56300
C  45.98200 42.89200 39.01000
C  44.71000 42.55400 38.13800
H  44.87100 41.77600 36.84200
N  50.46900 43.85800 42.79900
C  50.47300 42.55000 42.40700
C  51.75100 41.96100 42.56700
C  52.54200 42.91500 43.19300
C  51.71000 44.13400 43.20300
C  52.13500 40.58600 42.08900
C  53.94000 42.79100 43.79200
O  54.52300 41.73600 43.66200
C  54.64300 43.89400 44.56000
N  50.15500 46.84900 43.20100
C  51.46900 46.70800 43.53400
C  52.13200 48.05700 43.72100
C  50.93700 49.01700 44.00400
C  49.76200 48.09400 43.59400
C  53.31700 48.14500 44.79600
C  51.03100 50.34800 43.27000
C  50.86800 51.62800 44.13600
N  47.40600 46.67700 42.55700
C  47.28400 47.92700 42.93500
C  45.99000 48.45700 42.61700
C  45.29200 47.39700 42.00700
C  46.23500 46.32400 42.04500
C  45.50400 49.88800 42.82700
C  44.05100 47.04700 41.37800
O  43.05100 47.64700 40.98900
C  44.34400 45.57400 40.92800
C  43.16200 44.81000 41.35200
O  42.27100 44.33900 40.61600
O  43.22100 44.68500 42.74500
C  41.95700 44.21400 43.26700
H  49.30400 40.81700 42.07900
H  53.17900 45.66700 43.62500
H  48.29200 49.60900 43.66700
H  44.77800 42.62100 40.78000
H  46.92600 40.97100 40.52100
H  46.08400 39.85100 42.45600
H  44.99200 41.17100 42.51800
H  46.39500 41.26700 43.54400
H  46.74900 42.20200 38.65800
H  46.27900 43.92000 38.80300
H  44.24400 43.51200 37.90800
H  44.04900 41.96100 38.77000
H  52.97200 40.63000 41.39200
H  51.34500 39.96500 41.66700
H  52.46100 39.99400 42.94300
H  55.16500 44.50200 43.82200
H  55.35500 43.32700 45.15900
H  54.05400 44.52400 45.22600
H  52.58200 48.31800 42.76300
H  50.93900 49.13200 45.08800
H  53.13500 48.82900 45.62500
H  54.23500 48.43800 44.28700
H  53.40900 47.12900 45.17900
H  50.13800 50.31300 42.64600
H  51.89900 50.50700 42.63200
H  51.73800 52.26100 43.96100
H  50.73000 51.24000 45.14500
H  50.01100 52.19500 43.77100
H  45.49200 50.16100 43.88300
H  44.51400 50.05000 42.39900
H  46.27700 50.51100 42.37800
H  44.38200 45.65800 39.84200
H  42.02600 44.51400 44.31300
H  41.79500 43.13700 43.22200
H  41.09500 44.73900 42.85600

