158

Mg 0.61200 7.53200 27.26400
C  0.81300 9.73000 29.96500
C  0.49400 4.94000 29.66400
C  0.32700 5.28800 24.81800
C  0.73000 10.19500 25.09500
N  0.74600 7.35100 29.59400
C  0.68500 8.41400 30.40800
C  0.44000 7.96000 31.89000
C  0.53900 6.39300 31.78100
C  0.63700 6.18300 30.28400
C  1.83600 5.79500 32.39400
C  -1.00400 8.38500 32.45200
C  -1.06800 8.45300 34.01100
H  0.15400 8.04100 34.83800
N  0.47100 5.38200 27.20700
C  0.29700 4.54200 28.31100
C  -0.01000 3.18500 27.82500
C  0.09100 3.26100 26.32600
C  0.27200 4.65000 26.06400
C  -0.37000 2.01300 28.76000
C  -0.05900 2.11100 25.38900
O  -0.16800 2.25700 24.17600
C  -0.17400 0.67400 25.93800
N  0.50200 7.74500 25.30500
C  0.47400 6.64300 24.41200
C  0.48900 7.17100 22.95500
C  0.28600 8.68700 23.09100
C  0.46300 8.90900 24.55600
C  1.77000 6.65500 22.22700
C  -1.08300 9.20700 22.54800
C  -0.99500 10.25100 21.44800
N  0.95700 9.51500 27.42800
C  0.91100 10.52200 26.45200
C  1.09800 11.80000 27.07400
C  1.06700 11.49500 28.47700
C  0.95900 10.11200 28.64400
C  1.19000 13.15500 26.41200
C  1.16100 12.15500 29.72400
O  1.43300 13.30200 29.93400
C  0.77800 10.97900 30.73400
C  1.78200 11.00400 31.85400
O  2.98900 10.72500 31.71800
O  1.18000 11.44400 32.99400
C  2.02500 11.50500 34.11800
H  0.29800 4.23400 30.47400
H  -0.00100 4.69400 23.96200
H  0.69400 11.02000 24.38100
H  1.29500 8.32900 32.45700
H  -0.28700 5.85400 32.24500
H  1.56500 4.87700 32.91500
H  2.30400 6.55600 33.01900
H  2.55600 5.44200 31.65500
H  -1.67000 7.62000 32.05500
H  -1.32600 9.35300 32.06800
H  -1.86900 7.80800 34.37300
H  -1.46900 9.43900 34.24800
H  -1.42300 1.78400 28.59600
H  -0.19000 2.30900 29.79300
H  0.16300 1.10100 28.49000
H  0.71700 0.54300 26.55200
H  -0.11300 0.01700 25.07100
H  -1.09100 0.56000 26.51500
H  -0.40700 6.75900 22.49000
H  1.18700 9.11800 22.65200
H  2.46200 6.15900 22.90700
H  2.29200 7.45800 21.70600
H  1.36500 5.96700 21.48500
H  -1.62100 9.56800 23.42400
H  -1.62000 8.33600 22.17200
H  -1.49400 9.92400 20.53500
H  0.03800 10.54800 21.27100
H  -1.57500 11.08800 21.83600
H  0.16800 13.34600 26.08200
H  1.83000 13.10000 25.53200
H  1.48900 13.92000 27.12800
H  -0.19900 11.16700 31.17900
H  2.47300 12.48900 34.26000
H  2.83600 10.77700 34.15600
H  1.39800 11.31500 34.98900
Mg 6.00500 52.50500 41.19700
C  5.06000 48.98900 41.41600
C  9.14100 51.37800 40.21500
C  6.78900 55.73600 40.42400
C  2.65300 53.27300 41.64600
N  6.93500 50.39000 40.80300
C  6.31800 49.15200 40.92200
C  7.36200 48.08000 40.55500
C  8.72900 48.88000 40.63100
C  8.25300 50.34100 40.56200
C  9.65400 48.51000 41.82500
C  7.03200 47.36300 39.18500
C  6.39300 48.10700 38.01300
H  6.47500 47.55400 36.53200
N  7.66500 53.49800 40.30300
C  8.87100 52.80900 40.11200
C  9.89900 53.74900 39.75800
C  9.23400 55.06400 39.72100
C  7.80900 54.80200 40.17800
C  11.32200 53.40600 39.33400
C  9.94400 56.39600 39.38100
O  11.10300 56.35600 38.94300
C  9.37400 57.75000 39.47200
N  4.81900 54.19300 40.99700
C  5.46300 55.44400 40.83300
C  4.49100 56.50600 41.38000
C  3.10500 55.77300 41.21200
C  3.50200 54.28700 41.20900
C  4.82300 57.07100 42.76200
C  2.52200 56.08700 39.79600
C  1.13300 56.70100 39.97900
N  4.20800 51.41700 41.50100
C  2.93100 51.90000 41.80100
C  1.96500 50.81900 42.11700
C  2.83100 49.69400 42.13700
C  4.14300 50.11100 41.60700
C  0.56400 50.88400 42.56600
C  2.88800 48.33500 42.31100
O  1.96700 47.60200 42.70200
C  4.23700 47.80600 41.72400
C  3.83900 47.09900 40.46900
O  3.20600 47.51700 39.54600
O  4.30100 45.84900 40.64200
C  4.00400 44.77100 39.64900
H  10.17400 51.03800 40.12200
H  7.01300 56.80500 40.40800
H  1.66200 53.61400 41.95200
H  7.34000 47.32700 41.34200
H  9.21200 48.69300 39.67200
H  9.23100 47.83700 42.57100
H  9.75900 49.43400 42.39300
H  10.64300 48.16100 41.52800
H  6.42600 46.48400 39.40800
H  7.91500 46.85200 38.80100
H  6.83300 49.10100 37.93200
H  5.34400 48.36000 38.16800
H  11.28400 53.92800 38.37800
H  11.66500 52.37200 39.30300
H  12.08900 53.85300 39.96600
H  10.14300 58.49900 39.27800
H  8.98500 57.81100 40.48800
H  8.42000 57.92600 38.97500
H  4.55500 57.32100 40.66000
H  2.44900 55.94100 42.06700
H  5.73500 56.56100 43.07100
H  3.99600 56.87800 43.44600
H  5.12100 58.11900 42.72900
H  2.30700 55.18100 39.22900
H  3.18000 56.67400 39.15600
H  1.10800 57.75000 39.68400
H  0.77200 56.73200 41.00700
H  0.47300 56.14100 39.31700
H  0.09000 51.82900 42.29800
H  0.52700 50.73400 43.64500
H  -0.03700 50.07400 42.15400
H  4.69300 47.08900 42.40600
H  4.03500 43.77500 40.09000
H  4.81600 44.66700 38.93000
H  3.09500 44.81100 39.05000

