158

Mg 43.17700 42.46300 25.75700
C  42.39400 44.85500 28.26600
C  44.46500 40.49600 28.24900
C  44.35600 40.39300 23.48800
C  42.21400 44.81100 23.37000
N  43.48000 42.76500 27.94700
C  42.94200 43.72700 28.80600
C  43.19000 43.43900 30.36800
C  44.11400 42.10100 30.27900
C  44.03500 41.76500 28.67500
C  45.50700 42.35100 30.90100
C  41.86800 43.39900 31.16600
C  41.49200 42.32900 32.26100
H  40.86000 42.89300 33.46400
N  44.09500 40.59800 25.83800
C  44.47600 39.93800 27.00500
C  44.86800 38.56900 26.63200
C  44.70600 38.53900 25.20900
C  44.42800 39.85900 24.80500
C  45.30800 37.50400 27.67300
C  44.95400 37.38100 24.22800
O  44.86000 37.46100 22.99900
C  45.18100 36.05000 24.80900
N  43.27700 42.59500 23.74800
C  43.84400 41.57300 23.00700
C  43.76100 41.91000 21.51400
C  42.73000 43.11900 21.49500
C  42.75100 43.56200 22.95000
C  45.09600 42.31500 20.88000
C  41.34000 42.74100 20.91800
C  40.36400 42.08200 21.89200
N  42.48400 44.42600 25.78300
C  42.14500 45.26500 24.74100
C  41.69700 46.52400 25.29400
C  41.78500 46.39800 26.65800
C  42.23600 45.08800 26.88600
C  41.25700 47.68700 24.47300
C  41.54300 47.10000 27.87000
O  41.31800 48.26300 28.10400
C  41.84700 46.12600 28.95100
C  42.88200 46.67800 29.90400
O  44.10800 46.59100 29.69300
O  42.38000 47.16600 31.08900
C  43.36400 47.33000 32.15400
H  44.89500 39.90000 29.05600
H  44.74300 39.72900 22.71200
H  41.91000 45.58400 22.66100
H  43.80200 44.24500 30.77300
H  43.73300 41.21600 30.78800
H  45.71800 43.40900 31.05700
H  46.23500 41.82300 30.28600
H  45.72600 41.89600 31.86700
H  41.00800 43.38300 30.49700
H  41.79200 44.42100 31.53600
H  42.37300 41.74400 32.52600
H  40.85800 41.55700 31.82500
H  45.26800 37.89500 28.69000
H  46.31500 37.17700 27.41500
H  44.66000 36.64700 27.86000
H  45.55400 35.37700 24.03800
H  44.28800 35.69500 25.32500
H  46.04800 36.17600 25.45800
H  43.42100 40.98800 21.04200
H  43.11600 43.99600 20.97500
H  45.73600 42.58700 21.71900
H  44.88800 43.25400 20.36600
H  45.52500 41.51700 20.27300
H  41.54700 42.13000 20.04000
H  41.02100 43.73300 20.60100
H  40.22000 41.10400 21.43200
H  39.42200 42.62800 21.84600
H  40.60100 42.05600 22.95600
H  40.16900 47.67400 24.40800
H  41.60900 47.51500 23.45600
H  41.66300 48.65800 24.75900
H  40.87300 46.03300 29.43000
H  44.04300 46.47800 32.18100
H  42.82800 47.43700 33.09700
H  43.79000 48.33100 32.08300
Mg 16.78100 51.65400 26.59700
C  18.98400 50.56500 29.24300
C  14.60000 52.70000 29.13400
C  14.91000 52.96700 24.22400
C  19.33500 51.05200 24.36100
N  16.77500 51.60700 28.86400
C  17.72200 51.14500 29.72300
C  17.36600 51.39300 31.19100
C  15.91200 51.75000 31.10600
C  15.74000 52.03500 29.58400
C  15.00600 50.59600 31.64100
C  18.33900 52.46700 31.83100
C  18.64600 52.36400 33.30400
H  17.65800 51.58600 34.22100
N  15.01700 52.71400 26.67500
C  14.25100 53.07900 27.75300
C  13.03700 53.84200 27.32900
C  13.05400 53.81800 25.89600
C  14.33500 53.12000 25.53500
C  12.03600 54.29500 28.37400
C  12.09800 54.43200 24.87000
O  12.25700 54.46900 23.65800
C  10.99500 55.13300 25.46400
N  16.97500 51.86500 24.52900
C  16.08000 52.42300 23.74300
C  16.49500 52.31500 22.25500
C  17.95800 51.95600 22.33300
C  18.17000 51.73300 23.88900
C  15.56600 51.38100 21.54100
C  18.96100 53.17100 21.92600
C  20.15200 52.89800 21.03000
N  18.64100 50.73800 26.67600
C  19.53100 50.50700 25.66800
C  20.64900 49.81500 26.17300
C  20.42300 49.72900 27.59000
C  19.30100 50.38700 27.85000
C  21.96500 49.44800 25.49500
C  21.10000 49.34900 28.86100
O  22.15400 48.72500 29.01700
C  20.22500 49.97900 30.00100
C  19.87300 48.84500 30.90600
O  19.22100 47.88400 30.59000
O  20.22800 49.14500 32.22200
C  20.10800 48.06200 33.26500
H  13.91200 53.00000 29.92700
H  14.33700 53.48700 23.45300
H  20.13000 50.98300 23.61600
H  17.55600 50.48800 31.76800
H  15.85700 52.74300 31.55200
H  15.52500 49.74700 32.08600
H  14.29900 50.21500 30.90500
H  14.42000 50.99700 32.46800
H  17.87500 53.42700 31.60500
H  19.29300 52.46700 31.30400
H  18.85800 53.31700 33.79000
H  19.58400 51.81600 33.21200
H  11.07200 53.78700 28.40700
H  11.83200 55.35500 28.21900
H  12.44800 54.22900 29.38100
H  10.49900 55.45500 24.54900
H  11.38900 55.99400 26.00400
H  10.38900 54.51500 26.12600
H  16.37500 53.35300 21.94700
H  18.22300 51.08800 21.72800
H  14.66800 51.02600 22.04600
H  16.09900 50.45600 21.31800
H  15.32900 51.82700 20.57500
H  19.41800 53.70300 22.76000
H  18.37600 53.90800 21.37500
H  20.17900 51.86500 20.68500
H  21.12500 53.08300 21.48500
H  20.18500 53.50800 20.12700
H  22.13400 50.29800 24.83400
H  21.96300 48.52100 24.92100
H  22.70900 49.38800 26.28900
H  20.79300 50.73300 30.54500
H  20.09800 47.05400 32.85000
H  19.40600 48.32700 34.05500
H  21.07200 48.20200 33.75500

