158

Mg 17.38400 -0.77900 28.61400
C  15.80800 0.90200 31.35700
C  19.22300 -2.54100 30.88300
C  18.78300 -2.27600 26.06700
C  15.42800 1.14700 26.47500
N  17.53400 -0.84500 30.88800
C  16.82900 0.02300 31.76600
C  17.15400 -0.27800 33.25300
C  18.30500 -1.39800 32.99200
C  18.42800 -1.60400 31.49300
C  19.53100 -1.01000 33.80400
C  15.93200 -0.83600 34.01400
C  15.59100 -0.27600 35.40000
H  16.73800 0.22400 36.26600
N  18.78000 -2.28500 28.45700
C  19.40100 -2.88000 29.57400
C  20.25000 -3.97400 29.07800
C  20.15200 -3.94100 27.65300
C  19.26700 -2.78500 27.31100
C  21.08200 -4.91000 30.01100
C  20.68200 -4.84800 26.60500
O  20.33600 -4.71600 25.44900
C  21.60700 -6.00500 27.12500
N  17.08800 -0.69200 26.58300
C  17.85300 -1.33500 25.73500
C  17.53000 -0.92800 24.24600
C  16.34100 0.06900 24.39300
C  16.31000 0.20200 25.90100
C  18.80900 -0.47600 23.49900
C  15.04000 -0.34200 23.67500
C  13.93100 -1.06900 24.44000
N  15.99200 0.80600 28.84400
C  15.23700 1.39500 27.85500
C  14.31700 2.36900 28.54200
C  14.49200 2.10700 29.90800
C  15.51200 1.15300 30.02500
C  13.23800 3.20900 27.87700
C  14.06500 2.59200 31.16900
O  13.22200 3.31800 31.53500
C  15.00200 1.89200 32.21100
C  15.90300 2.86500 32.87100
O  16.99700 3.29200 32.46900
O  15.19400 3.33100 33.97600
C  15.82600 4.44700 34.63700
H  19.75300 -3.05500 31.68700
H  19.19600 -2.83300 25.22400
H  14.77900 1.72900 25.81700
H  17.61800 0.61100 33.67900
H  17.98500 -2.31100 33.49600
H  19.91600 -1.75500 34.49900
H  19.40500 -0.04500 34.29600
H  20.39100 -0.78200 33.17400
H  15.91800 -1.89100 34.28900
H  15.03600 -0.60000 33.44000
H  15.00700 -1.03100 35.92600
H  14.94600 0.60000 35.33300
H  20.84600 -5.97400 30.04600
H  21.05500 -4.62300 31.06200
H  22.06800 -4.83600 29.55300
H  21.13100 -6.54400 27.94400
H  22.47800 -5.55500 27.60100
H  22.02000 -6.67900 26.37500
H  17.19200 -1.87500 23.82500
H  16.60000 1.03100 23.94900
H  18.73900 0.46800 22.95700
H  19.11500 -1.29200 22.84500
H  19.56200 -0.28500 24.26300
H  15.29200 -0.88600 22.76500
H  14.63000 0.58700 23.27800
H  13.12600 -1.51500 23.85600
H  13.41600 -0.44900 25.17400
H  14.44600 -1.89300 24.93400
H  12.88500 2.56000 27.07600
H  13.57700 4.19700 27.56600
H  12.46300 3.11300 28.63800
H  14.36700 1.29700 32.86900
H  15.84600 5.34700 34.02300
H  16.84000 4.19300 34.94500
H  15.26500 4.81800 35.49500
Mg -10.01100 39.54200 39.73100
C  -9.12200 36.22900 39.02500
C  -6.95100 40.48700 38.77800
C  -11.27800 42.62300 39.69300
C  -13.30200 38.30800 40.47600
N  -8.24000 38.43200 39.01500
C  -8.07000 37.13400 38.72500
C  -6.61600 36.82000 38.30600
C  -5.86500 38.14500 38.62200
C  -7.09400 39.10700 38.89400
C  -4.93000 37.98300 39.89300
C  -6.59900 36.34000 36.81100
C  -6.73500 37.46600 35.77600
H  -7.85600 37.36100 34.72800
N  -9.20500 41.25300 39.25800
C  -7.94300 41.44400 38.83500
C  -7.69800 42.87000 38.63700
C  -8.92500 43.55200 38.94000
C  -9.89700 42.50200 39.41000
C  -6.38700 43.49700 38.19500
C  -9.11300 45.05700 38.75200
O  -8.20900 45.72100 38.24500
C  -10.36800 45.78200 39.24500
N  -12.14300 40.31100 39.99300
C  -12.26200 41.65700 39.95500
C  -13.74500 42.06600 40.10100
C  -14.42300 40.64400 40.30600
C  -13.24700 39.65800 40.20300
C  -14.03600 43.15200 41.19500
C  -15.61700 40.36700 39.30400
C  -16.71400 39.32300 39.71900
N  -11.06000 37.70900 39.75600
C  -12.31400 37.35300 40.27800
C  -12.49100 35.91300 40.41800
C  -11.26900 35.44800 39.95300
C  -10.44600 36.58400 39.48000
C  -13.68100 35.25800 40.84900
C  -10.53800 34.21800 39.45500
O  -10.87900 33.06900 39.41600
C  -9.04900 34.69600 39.04100
C  -8.26000 34.23200 40.20000
O  -8.61200 34.25800 41.41000
O  -6.95400 33.89000 39.78000
C  -6.12500 33.31300 40.77900
H  -5.96700 40.82100 38.44500
H  -11.64300 43.65000 39.74100
H  -14.22900 37.91000 40.89400
H  -6.26600 35.98300 38.91000
H  -5.22200 38.56300 37.84700
H  -5.46900 38.23900 40.80500
H  -4.14600 38.73100 39.77000
H  -4.42200 37.02000 39.84800
H  -7.46200 35.67400 36.79000
H  -5.64700 35.86800 36.56800
H  -5.72700 37.63600 35.39600
H  -7.04700 38.37000 36.29900
H  -6.53600 44.08000 37.28600
H  -5.82100 42.61400 37.90000
H  -5.89700 44.03800 39.00500
H  -10.55600 45.52500 40.28800
H  -11.18800 45.61400 38.54800
H  -10.27300 46.86200 39.13600
H  -13.91000 42.40100 39.07700
H  -14.80000 40.58100 41.32600
H  -14.71100 43.95700 40.90700
H  -13.12400 43.68900 41.45600
H  -14.26000 42.62800 42.12400
H  -15.23800 40.11200 38.31400
H  -16.06300 41.35700 39.20400
H  -17.20700 38.80400 38.89700
H  -17.50300 39.82200 40.28100
H  -16.24400 38.63100 40.41800
H  -14.48500 35.64800 40.22500
H  -13.89100 35.47500 41.89600
H  -13.56600 34.19700 40.62900
H  -8.83900 34.27500 38.05800
H  -6.67400 32.82400 41.58400
H  -5.70400 34.24600 41.15200
H  -5.34700 32.67700 40.35700

