158

Mg -1.71600 17.08000 25.99900
C  -2.50500 14.89900 28.70300
C  -2.67700 19.63300 28.08100
C  -1.40200 18.97400 23.31200
C  -1.46700 14.20700 23.99100
N  -2.51400 17.20300 28.15800
C  -2.69400 16.17700 29.02300
C  -3.09100 16.67300 30.38700
C  -3.41000 18.23900 30.18100
C  -2.89600 18.36700 28.66900
C  -4.87200 18.74700 30.38400
C  -2.08700 16.36800 31.60300
C  -2.08300 17.29300 32.81300
H  -2.42200 16.61900 34.10600
N  -1.85600 19.12000 25.79000
C  -2.21500 20.07800 26.73600
C  -2.04700 21.31700 26.16000
C  -1.62600 21.18500 24.81600
C  -1.58300 19.69600 24.54200
C  -2.47300 22.50000 26.95100
C  -1.36100 22.19800 23.82800
O  -1.14500 21.95800 22.61200
C  -1.41500 23.65900 24.20100
N  -1.52200 16.69700 23.93700
C  -1.40600 17.63400 22.96800
C  -1.04700 17.10900 21.57200
C  -0.88300 15.61800 21.99700
C  -1.27300 15.49100 23.45500
C  -2.11900 17.47800 20.41600
C  0.50900 14.96800 21.80800
C  1.73200 15.79800 22.31000
N  -1.88400 14.96300 26.29100
C  -1.80200 13.88900 25.33700
C  -2.00300 12.62000 26.04700
C  -2.23100 12.99800 27.38100
C  -2.13400 14.38100 27.44000
C  -2.00100 11.30800 25.38900
C  -2.56500 12.36900 28.60400
O  -2.59700 11.20200 28.88600
C  -2.65100 13.63000 29.53600
C  -1.70900 13.32400 30.70400
O  -0.54800 13.61200 30.85100
O  -2.42500 12.78300 31.73900
C  -1.74700 12.43200 33.00000
H  -2.82000 20.35500 28.88800
H  -1.29500 19.57700 22.40800
H  -1.38400 13.32600 23.35000
H  -3.99700 16.13700 30.67400
H  -2.85000 19.02900 30.68100
H  -5.36400 18.87000 29.41900
H  -4.84200 19.74100 30.83000
H  -5.43300 18.16400 31.11400
H  -1.09100 16.29300 31.16600
H  -2.32100 15.35900 31.94000
H  -2.77200 18.13200 32.71100
H  -1.10600 17.73300 33.01600
H  -1.68200 23.21600 27.17400
H  -2.82900 22.23200 27.94600
H  -3.27600 23.03800 26.44700
H  -0.63500 23.83100 24.94300
H  -2.35700 23.96100 24.66000
H  -1.35300 24.20800 23.26200
H  -0.09800 17.60200 21.36000
H  -1.62500 15.14800 21.35200
H  -1.70300 18.30700 19.84500
H  -3.04500 17.76600 20.91500
H  -2.10000 16.63600 19.72400
H  0.68900 14.91400 20.73400
H  0.44900 13.94300 22.17500
H  2.37900 15.16700 22.91900
H  1.50400 16.64400 22.95800
H  2.27500 16.10600 21.41600
H  -1.87700 10.55900 26.17100
H  -1.22400 11.16400 24.63800
H  -2.92400 11.23500 24.81400
H  -3.62000 13.62000 30.03500
H  -0.93600 11.78700 32.66200
H  -2.47100 11.97100 33.67200
H  -1.33200 13.39600 33.29400
Mg 0.50500 7.74500 25.81400
C  1.51100 9.82000 28.56300
C  0.67700 5.01200 27.91400
C  0.55300 5.64600 23.21300
C  1.30800 10.34100 23.60400
N  1.05600 7.52000 27.90600
C  1.38300 8.43000 28.85300
C  1.24000 7.81900 30.26600
C  1.32100 6.29500 29.97200
C  0.97300 6.26700 28.53300
C  2.65700 5.49500 30.23100
C  -0.06000 8.30000 30.95400
C  0.09400 8.56500 32.47900
H  1.30500 7.94600 33.21200
N  0.35300 5.63300 25.62000
C  0.39200 4.67900 26.58700
C  0.13200 3.40000 25.97900
C  0.06800 3.62100 24.60000
C  0.37200 4.98000 24.39100
C  -0.05300 2.10200 26.75500
C  -0.26800 2.73200 23.35200
O  -0.62500 3.13900 22.21300
C  -0.24100 1.33500 23.62600
N  0.70100 7.97200 23.65200
C  0.70300 6.92100 22.82500
C  0.89200 7.34200 21.33600
C  1.07000 8.86300 21.45900
C  0.99700 9.09800 23.00900
C  2.01300 6.56100 20.58900
C  0.32000 9.80500 20.45700
C  -1.16000 10.06700 20.64900
N  1.10300 9.74500 26.00500
C  1.35400 10.66600 24.99200
C  1.75300 11.87100 25.66100
C  1.75400 11.57900 27.05100
C  1.42800 10.28500 27.20300
C  2.17800 13.18900 25.11800
C  2.09200 12.14500 28.40700
O  2.59600 13.20100 28.69400
C  1.74200 11.03100 29.42300
C  2.85800 10.95500 30.41000
O  3.95000 10.46100 30.31600
O  2.49900 11.51900 31.52700
C  3.31800 11.51700 32.75400
H  0.69400 4.10800 28.52600
H  0.78700 4.96300 22.39400
H  1.77900 11.03700 22.90600
H  2.19400 8.13100 30.69200
H  0.55100 5.74800 30.51600
H  3.34200 6.08400 30.84100
H  3.00200 5.20000 29.24000
H  2.31900 4.56500 30.68900
H  -0.82800 7.52700 30.98300
H  -0.51700 9.18800 30.51500
H  -0.75800 8.12400 32.99600
H  -0.08000 9.63100 32.62900
H  0.82000 1.52200 26.45300
H  -0.92600 1.55500 26.40000
H  -0.00700 2.27600 27.83000
H  0.72000 1.04800 24.05300
H  -0.37100 0.85800 22.65500
H  -1.08300 0.95900 24.20600
H  -0.00700 7.21600 20.73300
H  2.12900 9.06900 21.30500
H  2.45700 7.23400 19.85500
H  1.67500 5.77000 19.91900
H  2.67600 6.11600 21.33100
H  0.56100 9.59000 19.41600
H  0.80400 10.74800 20.71000
H  -1.74100 9.71300 19.79800
H  -1.37800 11.08200 20.98300
H  -1.46500 9.41500 21.46700
H  1.70800 13.45500 24.17100
H  3.25800 13.30900 25.02800
H  1.77700 13.89000 25.85100
H  0.81800 11.36100 29.89800
H  3.75000 12.51800 32.73500
H  4.11100 10.77000 32.78300
H  2.67900 11.50200 33.63700

