158

Mg 30.05200 58.18200 41.12900
C  27.32700 56.45700 39.79000
C  32.16000 56.08600 39.42900
C  32.61400 60.48200 41.30600
C  27.80000 60.79500 42.07000
N  29.79900 56.50900 39.68100
C  28.57400 55.93500 39.35600
C  28.83600 54.54300 38.70600
C  30.34600 54.42700 38.68200
C  30.82900 55.71200 39.33900
C  31.02600 53.21600 39.38900
C  28.18700 54.38400 37.31000
C  27.92500 55.67200 36.47500
H  27.82000 55.48000 34.92500
N  32.17400 58.16700 40.66800
C  32.81000 57.21400 39.94400
C  34.20200 57.58000 39.78000
C  34.39200 58.88100 40.34600
C  33.01300 59.26200 40.76100
C  35.22000 56.72000 39.08500
C  35.70800 59.71800 40.32100
O  36.72900 59.35300 39.71300
C  35.74200 61.08500 41.01300
N  30.14300 60.39000 41.59700
C  31.36600 60.95000 41.83000
C  31.17200 62.41300 42.27200
C  29.51300 62.51800 42.49700
C  29.09500 61.17700 42.04500
C  32.11800 62.95200 43.38300
C  28.91700 63.66300 41.74700
C  27.64200 64.35600 42.21100
N  28.08500 58.50700 41.16300
C  27.27500 59.56200 41.61100
C  25.88600 59.25100 41.47700
C  25.86100 58.06200 40.78500
C  27.16800 57.64800 40.58100
C  24.69200 60.10100 41.86500
C  24.99700 57.02100 40.26400
O  23.76900 56.97200 40.25400
C  25.93300 55.85200 39.59800
C  25.77500 54.51900 40.39100
O  26.43000 54.31100 41.39600
O  24.83500 53.70300 39.86600
C  24.64200 52.42900 40.55100
H  32.78900 55.47800 38.77600
H  33.24200 61.37400 41.26600
H  27.09900 61.57200 42.38200
H  28.41600 53.65600 39.18000
H  30.64600 54.39700 37.63500
H  31.51300 53.46600 40.33100
H  31.80100 52.75800 38.77400
H  30.39600 52.36900 39.65800
H  27.26000 53.81600 37.37600
H  28.83400 53.74600 36.70800
H  28.72800 56.37700 36.69000
H  26.96900 56.07600 36.81000
H  35.95800 57.31000 38.54200
H  34.78000 56.02100 38.37300
H  35.75400 56.16800 39.85900
H  35.20300 61.83900 40.43900
H  36.76100 61.47000 41.04000
H  35.41900 60.83700 42.02400
H  31.36600 63.07400 41.42800
H  29.17500 62.56600 43.53200
H  32.81000 63.67700 42.95400
H  32.44000 62.06700 43.93100
H  31.51800 63.49800 44.11200
H  28.87900 63.47700 40.67400
H  29.70800 64.41100 41.70100
H  26.97100 64.26800 41.35700
H  27.80600 65.40600 42.45600
H  27.21000 63.94200 43.12200
H  24.86100 60.49300 42.86800
H  23.77900 59.51400 41.76900
H  24.72900 60.93800 41.16700
H  25.64600 55.61700 38.57300
H  23.75200 51.91800 40.18300
H  24.50800 52.49300 41.63000
H  25.47800 51.79900 40.24700
Mg -12.07500 37.34000 42.90400
C  -9.65900 34.92200 41.78000
C  -10.30000 39.77000 41.37400
C  -14.85700 39.27400 43.05300
C  -14.08300 34.55600 44.03800
N  -10.16500 37.30300 41.77200
C  -9.29000 36.25400 41.41800
C  -8.12700 36.72400 40.58500
C  -8.24700 38.25600 40.84300
C  -9.65000 38.51800 41.43200
C  -7.20100 38.71600 41.94500
C  -8.24000 36.34100 39.01400
C  -7.19600 35.36100 38.47600
H  -6.07500 35.74100 37.53600
N  -12.44700 39.22600 42.48500
C  -11.53200 40.10100 41.88500
C  -12.12000 41.40600 41.81900
C  -13.43300 41.37100 42.38300
C  -13.65900 39.84300 42.68500
C  -11.41400 42.66400 41.25900
C  -14.28100 42.56200 42.54500
O  -13.98500 43.69300 42.11600
C  -15.62500 42.49100 43.20800
N  -14.18900 36.92700 43.39200
C  -15.10700 37.95400 43.46400
C  -16.46100 37.56000 44.06700
C  -16.21800 36.03100 44.38000
C  -14.77300 35.84300 43.92500
C  -17.01600 38.37700 45.25900
C  -17.30000 35.16500 43.61400
C  -17.63600 33.75500 44.20600
N  -11.90200 35.18800 42.92600
C  -12.75800 34.25300 43.56600
C  -12.01800 32.96400 43.65700
C  -10.80800 33.18200 42.92000
C  -10.80000 34.54600 42.47400
C  -12.38800 31.71300 44.40000
C  -9.61900 32.57900 42.40700
O  -9.11900 31.44100 42.56000
C  -8.83300 33.69500 41.69100
C  -7.54800 33.84600 42.36800
O  -6.55500 33.31900 41.96000
O  -7.60500 34.55500 43.57600
C  -6.37300 34.69300 44.35400
H  -9.64300 40.50700 40.90800
H  -15.75900 39.85400 43.25900
H  -14.75400 33.80300 44.45700
H  -7.25500 36.33200 41.10800
H  -8.32200 38.87200 39.94600
H  -6.75800 39.69800 41.77700
H  -6.44000 37.93500 41.96800
H  -7.77500 38.82000 42.86500
H  -8.24200 37.21100 38.35700
H  -9.26700 35.99500 38.89700
H  -7.87800 34.72400 37.91200
H  -6.83700 34.72600 39.28500
H  -10.33500 42.61300 41.40700
H  -11.66900 43.55500 41.83300
H  -11.79400 42.86500 40.25700
H  -16.06500 43.48200 43.09700
H  -15.61000 42.42200 44.29600
H  -16.28800 41.77900 42.71500
H  -17.18000 37.71600 43.26200
H  -16.34700 35.79200 45.43600
H  -16.19300 38.99700 45.61500
H  -17.27800 37.64000 46.01700
H  -17.86200 39.05900 45.17300
H  -17.05400 35.16000 42.55200
H  -18.16900 35.76700 43.87800
H  -17.42800 33.09600 43.36200
H  -18.72400 33.69600 44.23900
H  -17.11100 33.55600 45.14000
H  -11.88200 31.57100 45.35500
H  -12.23200 30.88200 43.71200
H  -13.44700 31.90900 44.57100
H  -8.76300 33.28500 40.68300
H  -6.66000 34.82100 45.39700
H  -5.80200 35.56600 44.04000
H  -5.79300 33.77600 44.25100

