158

Mg 40.96800 8.31000 29.69400
C  42.68700 9.87600 32.33300
C  38.85800 7.20400 32.04200
C  39.21800 6.81000 27.22600
C  43.51300 9.12800 27.54700
N  40.82800 8.42900 31.90500
C  41.59400 9.16500 32.76200
C  40.99800 9.15200 34.15600
C  39.95500 8.09600 34.10500
C  39.90100 7.89600 32.54400
C  40.15600 6.64800 34.84000
C  40.44100 10.57400 34.64800
C  39.76600 10.61500 36.04700
H  40.11900 11.65400 37.13600
N  39.26400 7.22600 29.60400
C  38.50900 6.89500 30.72300
C  37.37200 6.12600 30.30100
C  37.31600 6.20300 28.88100
C  38.64500 6.74100 28.48700
C  36.44100 5.42000 31.30600
C  36.33500 5.80000 27.89000
O  36.47100 6.05200 26.67300
C  35.14100 5.21100 28.31900
N  41.41700 7.79300 27.69800
C  40.48300 7.21000 26.88200
C  41.03500 7.20500 25.43500
C  42.43100 8.03200 25.53400
C  42.49700 8.27800 27.03600
C  41.07500 5.86300 24.68500
C  42.61600 9.24000 24.64400
C  42.04500 10.63200 25.12100
N  42.79700 9.24500 29.86500
C  43.68000 9.56400 28.91700
C  44.67000 10.41400 29.41600
C  44.29600 10.65700 30.77200
C  43.17700 9.87000 31.01100
C  45.79800 11.03300 28.66100
C  44.63200 11.33200 32.00500
O  45.59700 12.10600 32.24600
C  43.58800 10.87900 33.09500
C  44.29400 10.26200 34.21600
O  44.50500 9.03600 34.45200
O  44.57400 11.23000 35.15600
C  44.97200 10.72000 36.46900
H  38.18400 6.90300 32.84700
H  38.65100 6.28900 26.45200
H  44.16200 9.54600 26.77400
H  41.84900 8.81900 34.74900
H  38.99300 8.33200 34.55900
H  39.29800 6.44300 35.48000
H  41.01000 6.78900 35.50200
H  40.30300 5.82500 34.14000
H  39.82500 10.88500 33.80500
H  41.35200 11.15000 34.81300
H  39.85300 9.61700 36.47700
H  38.70700 10.81300 35.88000
H  35.57800 4.87400 30.92500
H  36.09600 6.08600 32.09700
H  37.08900 4.69300 31.79700
H  34.72600 6.01400 28.92900
H  35.30800 4.22700 28.75800
H  34.55600 5.01500 27.42100
H  40.37200 7.91700 24.94300
H  43.26600 7.36800 25.31200
H  41.09100 5.04900 25.40900
H  42.00300 5.80200 24.11500
H  40.19100 5.72300 24.06200
H  42.14900 8.88000 23.72800
H  43.69400 9.36400 24.53600
H  41.71100 10.65800 26.15800
H  41.13900 10.91400 24.58500
H  42.82100 11.39700 25.10100
H  45.47100 11.99000 28.25400
H  46.21200 10.43100 27.85200
H  46.55200 11.31000 29.39700
H  43.08500 11.81800 33.32300
H  44.56400 11.32500 37.27800
H  46.04500 10.60100 36.61800
H  44.73200 9.68000 36.69000
Mg -10.30400 16.89100 40.95000
C  -6.84400 16.18400 41.05000
C  -9.49900 20.17300 40.33700
C  -13.56300 17.50000 40.32300
C  -10.90500 13.52500 40.70800
N  -8.40400 17.94000 40.68800
C  -7.09200 17.50100 40.86200
C  -6.06400 18.53600 40.36100
C  -6.86500 19.78000 40.64300
C  -8.34500 19.31300 40.54400
C  -6.65200 20.47700 41.93900
C  -5.61000 18.41700 38.79800
C  -4.08400 18.40400 38.33700
H  -3.57600 17.00100 37.79600
N  -11.44600 18.65700 40.62300
C  -10.88400 19.89000 40.32000
C  -12.00300 20.85500 40.20900
C  -13.09900 20.12700 40.28600
C  -12.83500 18.72100 40.47700
C  -11.84800 22.35200 39.73000
C  -14.57500 20.70500 40.10800
O  -14.77900 21.91000 39.97500
C  -15.74600 19.80000 40.17500
N  -12.00100 15.61800 40.59300
C  -13.20000 16.13100 40.30800
C  -14.22100 14.95300 39.97200
C  -13.36900 13.63600 40.07700
C  -12.04700 14.30300 40.52600
C  -15.40200 14.87200 40.92800
C  -13.18000 12.92900 38.67600
C  -13.19800 11.40000 38.68200
N  -9.15600 15.18200 40.97400
C  -9.55200 13.85700 40.96900
C  -8.41100 12.93500 41.06600
C  -7.35900 13.81900 41.09500
C  -7.84900 15.16500 41.05000
C  -8.37400 11.35900 41.16700
C  -5.82700 13.85500 41.25000
O  -4.98600 12.99400 41.39800
C  -5.48300 15.39000 41.19100
C  -4.72700 15.85000 42.35000
O  -3.79800 16.61000 42.38000
O  -5.30000 15.27200 43.42300
C  -4.63200 15.51400 44.69200
H  -9.22600 21.20700 40.11700
H  -14.62900 17.59800 40.10700
H  -11.03200 12.49800 40.36200
H  -5.20700 18.56500 41.03400
H  -6.59300 20.57600 39.95000
H  -5.93100 19.95100 42.56500
H  -7.60900 20.57100 42.45300
H  -6.19700 21.46000 41.81400
H  -6.10500 19.17900 38.19700
H  -5.99800 17.41600 38.61000
H  -3.37800 18.78400 39.07500
H  -4.00400 19.10100 37.50300
H  -10.81300 22.40400 39.39000
H  -11.85400 23.00000 40.60700
H  -12.44200 22.79900 38.93400
H  -15.80800 19.16800 39.28800
H  -16.65100 20.38000 40.35300
H  -15.62800 19.12100 41.02000
H  -14.58400 15.14200 38.96200
H  -13.72800 12.95800 40.85100
H  -15.39000 15.73600 41.59300
H  -15.48000 13.94600 41.49800
H  -16.33400 14.91900 40.36600
H  -12.25800 13.27900 38.21300
H  -14.01100 13.16700 38.01200
H  -14.12200 11.20600 38.13600
H  -13.27400 10.98200 39.68600
H  -12.42900 10.82800 38.16400
H  -7.36700 11.00100 40.95200
H  -9.14400 10.90500 40.54300
H  -8.43400 11.14600 42.23400
H  -4.74400 15.45000 40.39200
H  -5.08400 16.35200 45.22200
H  -3.55300 15.55300 44.54200
H  -4.86200 14.65800 45.32600

