158

Mg 26.91500 50.28100 26.55500
C  24.68300 51.38200 29.13100
C  29.13300 49.72000 28.89500
C  29.10000 49.69900 24.10300
C  24.60700 51.43600 24.15200
N  26.85000 50.49800 28.80300
C  25.83100 50.80200 29.66200
C  26.14300 50.49900 31.09700
C  27.71100 50.28600 31.02000
C  27.94900 50.12400 29.45600
C  28.67700 51.24700 31.74900
C  25.31300 49.29400 31.63000
C  24.31200 49.64800 32.85300
H  24.24000 48.69700 34.01900
N  28.83200 49.63100 26.52400
C  29.59300 49.36300 27.59500
C  30.92900 49.04800 27.16300
C  30.89600 48.93800 25.76200
C  29.57700 49.43500 25.36000
C  32.05300 48.94000 28.18200
C  32.07800 48.53200 24.88500
O  32.05800 48.89000 23.69400
C  33.31800 47.89000 25.48300
N  26.82100 50.62200 24.42400
C  27.91000 50.23900 23.66600
C  27.44500 50.10700 22.14300
C  25.91000 50.58500 22.09200
C  25.67900 50.74400 23.64000
C  28.41200 50.85300 21.18900
C  24.98700 49.55400 21.39800
C  23.95300 50.12300 20.41100
N  25.03800 51.18100 26.56100
C  24.27200 51.69500 25.48900
C  23.06700 52.31200 26.00000
C  23.11700 52.18200 27.45400
C  24.38200 51.52700 27.71000
C  21.97400 52.95700 25.15600
C  22.55300 52.45600 28.74900
O  21.55500 53.06100 29.04600
C  23.50000 51.83200 29.87200
C  23.89000 52.94500 30.77900
O  24.50700 53.96000 30.52100
O  23.32900 52.67700 32.03300
C  23.83100 53.50900 33.16500
H  29.85400 49.45400 29.67000
H  29.67900 49.37600 23.23500
H  23.81300 51.72200 23.46000
H  25.93200 51.40400 31.66700
H  27.79100 49.31200 31.50300
H  29.31900 51.72100 31.00700
H  29.35300 50.63300 32.34400
H  28.11000 51.95700 32.35100
H  25.97000 48.46400 31.88900
H  24.70500 48.94900 30.79400
H  23.29400 49.62400 32.46500
H  24.39100 50.70000 33.12800
H  32.97800 49.45800 27.92800
H  32.30600 47.88800 28.31600
H  31.79200 49.43500 29.11700
H  33.02400 47.10500 26.17800
H  33.84100 48.60900 26.11300
H  34.00400 47.46700 24.74800
H  27.48100 49.04200 21.91300
H  25.80700 51.59900 21.70500
H  28.91300 50.27900 20.41000
H  29.12600 51.39700 21.80700
H  27.86300 51.62400 20.64700
H  24.32600 49.20500 22.19100
H  25.52400 48.71200 20.96100
H  22.92400 49.80000 20.57000
H  24.09100 49.58000 19.47600
H  23.94800 51.21300 20.37700
H  21.38400 52.25300 24.56900
H  22.41100 53.76100 24.56300
H  21.30800 53.49600 25.82900
H  23.02200 51.08900 30.51100
H  24.27900 54.43600 32.80900
H  24.64700 52.94200 33.61200
H  23.01500 53.68400 33.86600
Mg 1.11800 42.45200 26.27700
C  2.97600 42.17900 29.23200
C  -1.63400 41.62600 28.13700
C  -0.54200 42.02200 23.45500
C  4.08300 42.96900 24.63500
N  0.68300 42.04500 28.50700
C  1.60200 42.15200 29.46700
C  0.95500 42.39000 30.78900
C  -0.57500 42.09000 30.43800
C  -0.53300 41.86100 28.95300
C  -1.27600 40.97500 31.18500
C  1.33000 43.77500 31.32200
C  1.83700 43.75700 32.77500
H  1.51800 42.51100 33.65400
N  -0.76800 41.78900 25.89200
C  -1.78800 41.46500 26.73200
C  -2.87100 40.82100 26.03100
C  -2.49900 40.84000 24.63100
C  -1.25800 41.57400 24.55700
C  -4.05300 40.14200 26.76400
C  -3.19700 40.22000 23.42800
O  -2.77300 40.35500 22.26300
C  -4.40400 39.36800 23.64700
N  1.68400 42.51600 24.33600
C  0.73600 42.46700 23.34000
C  1.41700 42.82900 21.92600
C  2.88400 43.18800 22.38400
C  2.90400 42.89800 23.86600
C  1.43400 41.59600 20.92000
C  3.26800 44.69300 22.03200
C  2.34300 45.76400 22.59100
N  3.10000 42.52700 26.69700
C  4.18900 42.87200 25.96700
C  5.42000 42.91600 26.79200
C  4.98100 42.68100 28.06600
C  3.58000 42.36700 27.94600
C  6.84400 43.19700 26.36500
C  5.31200 42.57200 29.42300
O  6.36900 42.72200 30.00900
C  4.09200 42.27300 30.21500
C  4.28900 41.01300 31.14400
O  3.85600 39.89500 30.88700
O  4.86700 41.45700 32.33000
C  5.31800 40.36300 33.19300
H  -2.56500 41.35900 28.64000
H  -1.02700 41.97400 22.47700
H  4.93600 43.17200 23.98500
H  1.38600 41.61400 31.42100
H  -1.11700 43.02000 30.61100
H  -1.46500 40.14300 30.50700
H  -2.20200 41.24300 31.69300
H  -0.58700 40.60600 31.94600
H  0.49600 44.45600 31.15100
H  2.13600 44.12500 30.67700
H  1.33200 44.56100 33.30900
H  2.87200 44.09800 32.76500
H  -3.90700 39.14500 27.18000
H  -4.95700 40.14100 26.15500
H  -4.37000 40.77200 27.59500
H  -4.78800 38.94300 22.72000
H  -5.16300 39.99100 24.12200
H  -4.17400 38.53600 24.31200
H  0.89200 43.64700 21.43100
H  3.59300 42.49200 21.93500
H  1.14500 40.74900 21.54300
H  2.42900 41.51500 20.48500
H  0.62800 41.72100 20.19700
H  3.21700 44.78800 20.94800
H  4.31400 44.84600 22.29800
H  1.97700 46.30300 21.71800
H  2.93000 46.39300 23.26000
H  1.54100 45.31600 23.17800
H  7.51700 42.33900 26.38600
H  7.23600 43.81700 27.17100
H  6.79400 43.81400 25.46900
H  4.05000 43.15100 30.85900
H  5.14500 40.66100 34.22700
H  6.39700 40.21300 33.23600
H  4.89300 39.38300 32.97400

