158

Mg 9.21000 48.08700 25.62800
C  6.91200 48.53700 28.32100
C  11.63800 49.13600 27.66800
C  11.22900 47.65400 23.02200
C  6.40500 47.56800 23.50200
N  9.20300 49.01100 27.78200
C  8.21700 48.85500 28.72900
C  8.78500 49.08400 30.12900
C  10.27200 49.34800 29.83600
C  10.40600 49.17600 28.32800
C  10.74900 50.81500 30.25200
C  8.41000 47.95700 31.11200
C  9.40000 47.46900 32.26400
H  8.72500 47.02800 33.63200
N  11.13500 48.48900 25.34600
C  12.01800 48.84100 26.31100
C  13.39400 48.91100 25.78200
C  13.29300 48.32700 24.49700
C  11.84200 48.18500 24.19300
C  14.51700 49.30700 26.71000
C  14.37700 48.07500 23.51500
O  14.17600 47.80700 22.36400
C  15.76100 48.29300 24.03300
N  8.87000 47.45100 23.49600
C  9.92200 47.34400 22.64400
C  9.44000 47.28200 21.23700
C  7.92000 47.54300 21.33900
C  7.68900 47.54000 22.87500
C  10.12300 48.20300 20.10800
C  6.99500 46.47900 20.54600
C  7.48000 45.94000 19.19100
N  7.08100 47.92800 25.80200
C  6.08900 47.80400 24.82600
C  4.77400 47.79200 25.46200
C  5.04500 47.95000 26.81300
C  6.47600 48.16300 26.94600
C  3.53800 47.51700 24.68500
C  4.43600 48.10200 28.17600
O  3.29800 48.08600 28.49100
C  5.64400 48.42200 29.20800
C  5.63900 47.27700 30.09500
O  6.07500 46.16300 29.90300
O  5.13500 47.65200 31.23900
C  4.73600 46.59300 32.21400
H  12.46500 49.35500 28.34600
H  11.93000 47.47500 22.20400
H  5.60200 47.41100 22.77900
H  8.21400 49.97100 30.40400
H  10.89200 48.63500 30.37900
H  9.89000 51.44200 30.48900
H  11.25700 51.33400 29.43900
H  11.43300 50.80900 31.10100
H  8.33400 47.08400 30.46300
H  7.48800 48.19100 31.64400
H  10.06200 48.27800 32.57100
H  9.90300 46.58700 31.86700
H  15.33700 49.83500 26.22100
H  14.82500 48.56300 27.44400
H  13.98000 50.07300 27.27000
H  16.01800 49.31200 24.32500
H  16.45200 47.86000 23.31100
H  15.85800 47.73900 24.96600
H  9.59100 46.26000 20.88900
H  7.62400 48.49000 20.88900
H  10.99900 48.74300 20.46700
H  9.43000 49.01300 19.88200
H  10.57800 47.65200 19.28500
H  6.07100 47.04100 20.40900
H  6.91400 45.54100 21.09400
H  8.36200 46.53900 18.96700
H  6.68400 45.90500 18.44700
H  7.73600 44.90100 19.40100
H  3.42900 46.49900 24.31100
H  3.49500 48.27300 23.90100
H  2.79300 47.78000 25.43700
H  5.38200 49.31400 29.77600
H  4.12600 47.10900 32.95500
H  5.59900 46.19900 32.75100
H  4.10700 45.82000 31.77100
Mg -9.84800 38.70900 40.12700
C  -8.94100 35.26800 39.20100
C  -6.58000 39.58100 39.21900
C  -10.80800 41.76600 40.27200
C  -12.96000 37.38000 40.89200
N  -7.98700 37.59800 39.19000
C  -7.90600 36.20100 38.91200
C  -6.49700 35.83400 38.54700
C  -5.69800 37.15900 38.74900
C  -6.75600 38.20700 39.15600
C  -4.51600 37.06500 39.86000
C  -6.31200 35.24700 37.05200
C  -6.78000 36.29000 36.00000
H  -7.71700 35.88200 34.82800
N  -8.80800 40.48100 39.88800
C  -7.47900 40.61700 39.50200
C  -7.23500 42.11100 39.30300
C  -8.50900 42.70100 39.58800
C  -9.41200 41.68700 40.04700
C  -5.93000 42.71900 38.78000
C  -8.79100 44.15000 39.42600
O  -7.99900 44.86000 38.83300
C  -10.09300 44.70400 39.84100
N  -11.70300 39.45200 40.30800
C  -11.87700 40.81100 40.44500
C  -13.36300 41.12200 40.55000
C  -13.92500 39.80000 41.17300
C  -12.85000 38.76900 40.75400
C  -13.74300 42.35900 41.46300
C  -15.31000 39.49400 40.64300
C  -16.32600 39.30200 41.75900
N  -10.84800 36.73200 40.00500
C  -12.08500 36.40200 40.46400
C  -12.28800 35.01300 40.47900
C  -11.10900 34.51700 39.79800
C  -10.27900 35.57200 39.64100
C  -13.51200 34.18100 40.91700
C  -10.44800 33.35300 39.33900
O  -10.82300 32.19200 39.34000
C  -9.01100 33.78500 38.78000
C  -7.95400 32.95600 39.40200
O  -7.84900 32.76600 40.63900
O  -7.06200 32.44300 38.51200
C  -6.01700 31.49700 38.99000
H  -5.58000 39.82000 38.85100
H  -11.25200 42.74100 40.48500
H  -13.89800 37.05100 41.34500
H  -6.05200 35.23000 39.33700
H  -5.23500 37.44300 37.80400
H  -3.57900 36.94000 39.31700
H  -4.65900 36.10700 40.35900
H  -4.50900 37.87100 40.59400
H  -6.80200 34.29100 36.87000
H  -5.25500 35.07000 36.85100
H  -5.90400 36.66100 35.46900
H  -7.24500 37.12300 36.52700
H  -5.12500 42.08600 39.15200
H  -5.73400 43.72800 39.14400
H  -5.91000 42.80200 37.69300
H  -10.28900 44.49100 40.89100
H  -10.81400 44.16000 39.23100
H  -10.15500 45.77200 39.63500
H  -13.79300 41.24800 39.55600
H  -13.91100 39.92700 42.25500
H  -14.13800 43.20900 40.90700
H  -12.88300 42.76700 41.99300
H  -14.48700 42.13300 42.22700
H  -15.24600 38.61900 39.99500
H  -15.63000 40.27000 39.94700
H  -17.18000 39.92200 41.48700
H  -16.10000 39.68000 42.75600
H  -16.73400 38.29200 41.76800
H  -13.53500 34.10600 42.00500
H  -13.54100 33.21400 40.41400
H  -14.33100 34.81200 40.57400
H  -8.99700 33.64200 37.70000
H  -6.24500 30.46100 38.74000
H  -5.82100 31.58600 40.05800
H  -5.11900 31.77400 38.43800

