158

Mg 16.65200 -1.24300 28.10100
C  15.58200 1.02400 30.60800
C  18.40000 -2.75500 30.28500
C  18.03300 -2.88300 25.44800
C  14.81200 0.74500 25.75200
N  17.03700 -0.77800 30.24200
C  16.42900 0.01000 31.06500
C  16.88100 -0.21600 32.55400
C  17.92600 -1.37400 32.43100
C  17.76700 -1.68300 30.91300
C  19.33200 -1.16500 32.93900
C  15.68300 -0.58800 33.44900
C  15.60200 0.03900 34.89700
H  16.98600 0.59300 35.39900
N  17.96800 -2.72600 27.90000
C  18.57400 -3.23300 28.98700
C  19.46500 -4.37300 28.64100
C  19.50700 -4.26500 27.17900
C  18.46400 -3.26600 26.76100
C  20.09600 -5.41300 29.56700
C  20.33500 -5.09600 26.25200
O  20.30400 -4.89500 25.03100
C  21.26300 -6.14800 26.87200
N  16.41600 -1.12900 25.94700
C  17.18700 -1.84700 25.07800
C  16.84300 -1.44900 23.62500
C  15.70400 -0.38300 23.78300
C  15.59200 -0.29400 25.24700
C  18.06500 -1.01900 22.82400
C  14.32700 -0.85700 23.19200
C  14.07400 -0.41000 21.79300
N  15.39900 0.52700 28.11300
C  14.75200 1.18600 27.05200
C  14.04300 2.27800 27.62300
C  14.39300 2.32400 29.00100
C  15.16100 1.22700 29.25100
C  13.08100 3.15000 26.77600
C  14.02600 2.98800 30.17300
O  13.29500 3.98900 30.38200
C  14.75700 2.09400 31.32300
C  15.53000 3.08300 32.18000
O  16.71400 3.25800 32.26500
O  14.65800 3.64200 33.04900
C  15.18000 4.31900 34.22500
H  19.01800 -3.28600 31.01200
H  18.39100 -3.35600 24.53200
H  14.22600 1.28300 25.00400
H  17.41700 0.71200 32.75600
H  17.66100 -2.27500 32.98500
H  19.40600 -0.18500 33.41000
H  19.95500 -1.01300 32.05700
H  19.65800 -1.89500 33.68000
H  15.52000 -1.65800 33.57700
H  14.84200 -0.33000 32.80400
H  15.35500 -0.76600 35.59000
H  14.81800 0.79500 34.84700
H  21.18400 -5.37500 29.60700
H  19.73500 -6.34500 29.13100
H  19.75800 -5.34000 30.60000
H  22.07100 -5.66900 27.42500
H  21.62500 -6.65900 25.97900
H  20.73800 -6.89100 27.47300
H  16.49500 -2.38000 23.17900
H  16.14700 0.51100 23.34500
H  17.76300 -0.18100 22.19500
H  18.45800 -1.81600 22.19300
H  18.85700 -0.79900 23.53900
H  13.50700 -0.50400 23.81800
H  14.39100 -1.94200 23.10900
H  14.93900 0.11900 21.39300
H  13.18400 0.18300 21.58100
H  14.15800 -1.26700 21.12500
H  13.06000 2.72200 25.77400
H  13.46500 4.17000 26.79200
H  12.05600 3.12600 27.14600
H  14.06500 1.60800 32.01200
H  15.95400 3.70600 34.68700
H  14.38200 4.41000 34.96200
H  15.53300 5.32000 33.97400
Mg 40.24600 10.33500 29.47800
C  42.22700 11.31300 32.03000
C  37.97800 9.10600 31.93200
C  38.20800 9.40300 26.98600
C  42.62300 11.26500 27.08400
N  40.21500 10.04300 31.77200
C  41.00200 10.86800 32.53800
C  40.58500 10.89300 34.01800
C  39.28600 10.00400 33.91700
C  39.14500 9.71600 32.43400
C  39.36200 8.74400 34.84700
C  40.34900 12.31900 34.56400
C  39.87000 12.29800 36.05600
H  40.52600 13.20900 37.04300
N  38.38000 9.40600 29.45600
C  37.65200 8.87700 30.53100
C  36.46500 8.30900 30.12300
C  36.44400 8.40000 28.69100
C  37.69000 9.06700 28.28600
C  35.42200 7.73800 31.08100
C  35.32100 7.91800 27.75400
O  35.40900 8.16200 26.57600
C  34.13300 7.13600 28.31400
N  40.53100 10.11700 27.27100
C  39.42500 9.79500 26.53900
C  39.71300 10.16000 24.99100
C  41.04300 10.91800 25.03900
C  41.39900 10.83400 26.55600
C  39.83600 8.92300 24.06300
C  40.99700 12.39400 24.51900
C  39.78100 13.30400 24.90300
N  42.08400 10.94200 29.47900
C  42.94600 11.26900 28.47400
C  44.20700 11.73200 29.06300
C  43.93500 11.86000 30.41200
C  42.66000 11.32600 30.69600
C  45.48500 12.14400 28.45000
C  44.47200 12.31500 31.74500
O  45.55100 12.84900 31.96300
C  43.39700 11.87400 32.79200
C  44.01800 10.97900 33.84500
O  43.99700 9.73600 33.91000
O  44.37600 11.76300 34.95200
C  44.83600 11.02800 36.12100
H  37.24400 8.76300 32.66400
H  37.50200 9.30300 26.15900
H  43.35000 11.71300 26.40300
H  41.37400 10.48800 34.65200
H  38.48100 10.70300 34.14400
H  40.40900 8.62000 35.12400
H  38.88900 7.90900 34.33000
H  38.79900 8.98600 35.74900
H  39.59000 12.74000 33.90500
H  41.24900 12.93300 34.51800
H  39.88100 11.25500 36.37300
H  38.80600 12.53500 36.05100
H  34.87100 6.88100 30.69400
H  34.75500 8.54400 31.38700
H  35.84100 7.30000 31.98700
H  33.65000 7.61800 29.16300
H  34.40000 6.10800 28.56000
H  33.34500 7.19100 27.56300
H  39.06600 10.93600 24.58200
H  41.83000 10.40800 24.48400
H  38.80900 8.84500 23.70700
H  40.16100 8.00800 24.55800
H  40.55000 9.08700 23.25700
H  41.03800 12.44700 23.43100
H  41.91700 12.88400 24.83800
H  38.89800 12.84000 25.34200
H  39.52700 13.73600 23.93500
H  40.02300 14.09200 25.61500
H  45.88500 13.00700 28.98200
H  45.43700 12.39500 27.39100
H  46.22400 11.34300 28.48000
H  43.21100 12.81200 33.31400
H  45.71000 10.40000 35.94800
H  44.08500 10.28700 36.39700
H  44.92200 11.67100 36.99700

