158

Mg 46.99700 16.61800 29.10600
C  44.82400 16.03000 31.79700
C  49.03700 18.29800 31.29700
C  48.59300 17.97800 26.44900
C  44.58600 15.33600 27.01400
N  46.83600 17.09400 31.31900
C  45.93900 16.74300 32.21600
C  46.33700 17.15900 33.66000
C  47.65800 17.96000 33.45500
C  47.88700 17.76000 31.92000
C  47.69300 19.43700 33.81200
C  46.57800 15.86800 34.56000
C  46.11600 15.96300 35.99500
H  45.90300 17.34600 36.59200
N  48.77300 17.71400 28.90000
C  49.51200 18.24700 29.93000
C  50.65900 18.94100 29.28100
C  50.52500 18.74200 27.83300
C  49.26600 18.07400 27.66500
C  51.72500 19.65100 30.11000
C  51.50700 19.16100 26.78800
O  51.28300 18.98400 25.61400
C  52.86300 19.63500 27.09100
N  46.61100 16.72300 27.07500
C  47.41100 17.35900 26.14700
C  47.04100 17.07300 24.67300
C  45.87600 16.00200 24.89800
C  45.73400 15.90100 26.42800
C  46.65100 18.37400 23.89600
C  46.32000 14.55800 24.30600
C  45.22300 13.91900 23.37800
N  45.08200 15.78000 29.31600
C  44.33800 15.23500 28.37100
C  43.15700 14.67700 28.92600
C  43.33800 14.94200 30.31200
C  44.54000 15.61900 30.49800
C  42.12900 13.96400 28.23600
C  42.76600 14.73000 31.63200
O  41.72800 14.16200 31.93900
C  43.72300 15.43800 32.61200
C  42.97100 16.50400 33.31100
O  42.35000 17.41700 32.75700
O  43.06000 16.33000 34.69000
C  42.19400 17.29800 35.35800
H  49.76200 18.66200 32.02900
H  49.06800 18.46200 25.59300
H  43.89900 14.91400 26.27700
H  45.54700 17.83600 33.98600
H  48.52400 17.58700 34.00300
H  47.97700 20.06900 32.97100
H  48.41300 19.62200 34.60800
H  46.70800 19.72700 34.18000
H  47.61500 15.53000 34.57500
H  46.01200 15.04200 34.13100
H  46.92900 15.60500 36.62700
H  45.19300 15.41000 36.16800
H  52.32900 18.77700 30.35400
H  51.29900 19.97900 31.05800
H  52.27100 20.42600 29.57200
H  53.32800 19.79500 26.11800
H  53.35600 18.85600 27.67300
H  52.82500 20.58400 27.62500
H  47.94300 16.67800 24.20600
H  44.94500 16.29700 24.41300
H  47.00000 19.27000 24.40900
H  45.56500 18.38500 23.79600
H  46.92800 18.32900 22.84300
H  46.70600 14.00000 25.16000
H  47.05100 14.93300 23.59000
H  45.78700 13.63600 22.48900
H  44.41800 14.59400 23.08900
H  44.72200 13.06300 23.82900
H  41.36600 13.54500 28.89100
H  42.67100 13.13400 27.78300
H  41.58300 14.41700 27.40800
H  44.05000 14.66900 33.31300
H  41.12000 17.16200 35.23500
H  42.53600 18.28500 35.04800
H  42.38200 17.17500 36.42500
Mg 48.16100 34.54200 26.50300
C  45.94200 33.67900 29.22000
C  48.61400 37.63500 27.97500
C  49.62300 35.46900 23.71400
C  47.02000 31.60700 24.80700
N  47.29900 35.57400 28.42600
C  46.57100 34.94700 29.42000
C  46.36700 35.95500 30.58200
C  46.80100 37.33700 29.97300
C  47.61800 36.86900 28.70100
C  45.55700 38.20200 29.62900
C  47.35000 35.49400 31.81000
C  46.67500 35.61100 33.19400
H  46.09500 36.94300 33.68500
N  49.10700 36.26600 25.98800
C  49.34300 37.36000 26.79300
C  50.23700 38.23400 26.09500
C  50.56200 37.66300 24.81800
C  49.74500 36.36700 24.75600
C  50.66600 39.55800 26.72500
C  51.55400 38.15900 23.71800
O  51.72400 37.54000 22.65400
C  52.37200 39.46200 23.96100
N  48.03500 33.72400 24.47900
C  48.84200 34.31500 23.57300
C  49.10600 33.40300 22.28400
C  48.36900 32.12200 22.68700
C  47.76400 32.46100 24.03700
C  48.66100 34.05000 20.90700
C  49.35900 30.88700 22.93200
C  48.62400 29.49600 22.75100
N  46.78400 33.02700 26.86800
C  46.49200 31.92400 26.10900
C  45.51600 31.14400 26.77600
C  45.37800 31.69700 28.02100
C  46.11700 32.89900 28.04400
C  44.81500 29.89900 26.28500
C  44.67900 31.55200 29.34200
O  43.85400 30.70200 29.70500
C  44.99500 32.89900 30.18500
C  45.62000 32.49600 31.45500
O  46.76000 32.03800 31.51300
O  44.67100 32.60700 32.50000
C  45.07800 31.92400 33.70300
H  48.69500 38.64200 28.38900
H  50.17800 35.72200 22.80800
H  46.92700 30.57700 24.45800
H  45.34300 35.97600 30.95600
H  47.46100 37.89100 30.64100
H  45.38300 38.35200 28.56300
H  45.73400 39.20900 30.00600
H  44.67200 37.77700 30.10400
H  48.27100 36.07100 31.73200
H  47.66900 34.45500 31.72600
H  47.39800 35.21800 33.90800
H  45.86900 34.87700 33.20100
H  50.43500 40.37800 26.04500
H  51.72100 39.53200 26.99700
H  50.32800 39.68300 27.75300
H  51.60800 40.20900 24.17800
H  52.93200 39.65400 23.04600
H  53.09800 39.27600 24.75200
H  50.18000 33.25700 22.16800
H  47.62700 31.87300 21.92900
H  47.78200 33.69000 20.37100
H  49.56700 33.94700 20.30900
H  48.51000 35.12600 20.99800
H  49.73900 30.89400 23.95400
H  50.24300 30.99200 22.30400
H  47.62700 29.45600 22.31300
H  48.68800 28.88100 23.64800
H  49.15200 28.94600 21.97200
H  45.07900 29.66000 25.25500
H  43.76600 30.19500 26.30100
H  45.08700 29.09800 26.97300
H  44.03200 33.36700 30.38500
H  44.85100 32.45400 34.62800
H  46.12000 31.60700 33.65900
H  44.50500 31.01300 33.87500

