158

Mg 25.86400 0.04400 29.16300
C  27.49800 -0.23100 32.20000
C  22.92300 0.47600 30.95100
C  24.15100 -0.15800 26.25400
C  28.67500 -1.07700 27.56800
N  25.35800 0.30300 31.35800
C  26.19500 0.15400 32.39700
C  25.46800 0.37100 33.77000
C  23.99100 0.63500 33.31000
C  24.10100 0.46600 31.77300
C  22.85000 -0.22100 33.97200
C  26.04100 1.53100 34.60500
C  26.34000 1.25000 36.13800
H  26.00400 2.27900 37.14300
N  23.75500 0.24200 28.64200
C  22.73400 0.27700 29.52200
C  21.50600 0.27200 28.78600
C  21.79500 0.18000 27.40800
C  23.30400 -0.01500 27.39700
C  20.07400 0.27800 29.50200
C  20.95100 0.29000 26.19600
O  21.32200 -0.05600 25.06200
C  19.52800 0.83700 26.41900
N  26.31600 -0.54500 27.15400
C  25.48700 -0.39500 26.09700
C  26.19800 -0.62000 24.74000
C  27.65000 -0.99100 25.18800
C  27.58000 -0.86100 26.73800
C  25.56200 -1.61100 23.71000
C  28.78500 -0.06300 24.54400
C  28.88100 1.42000 25.06500
N  27.75300 -0.34300 29.66600
C  28.83400 -0.86600 28.93500
C  29.91400 -1.21600 29.88100
C  29.41900 -0.96500 31.13500
C  28.11800 -0.46900 30.96100
C  31.26300 -1.74400 29.53200
C  29.78500 -0.91300 32.59300
O  30.85400 -1.07100 33.16500
C  28.50800 -0.54000 33.27700
C  28.17400 -1.66900 34.16900
O  27.55600 -2.61100 33.84400
O  28.79700 -1.54000 35.40900
C  28.61400 -2.69000 36.39200
H  21.97000 0.69700 31.43800
H  23.66300 -0.05800 25.28300
H  29.54800 -1.28700 26.94600
H  25.41000 -0.55000 34.34900
H  23.75800 1.62800 33.69300
H  22.58300 -1.01800 33.27800
H  22.04000 0.47300 34.20000
H  23.19800 -0.67000 34.90200
H  25.38900 2.40400 34.61500
H  26.95300 1.98200 34.21200
H  27.40500 1.11000 36.32600
H  25.78700 0.38400 36.50200
H  19.58800 1.22900 29.28400
H  19.99600 0.13100 30.57900
H  19.67400 -0.55500 28.92400
H  18.94800 1.14900 25.55000
H  19.46800 1.73600 27.03300
H  18.92300 0.08800 26.93000
H  26.18900 0.35300 24.24900
H  27.92700 -1.98700 24.84400
H  26.27500 -2.41200 23.51500
H  25.31000 -1.17900 22.74200
H  24.72400 -2.12900 24.17700
H  28.59700 0.01800 23.47400
H  29.68400 -0.62200 24.80300
H  28.89400 1.98500 24.13300
H  29.85500 1.40100 25.55500
H  28.14500 1.69800 25.81900
H  31.40100 -2.14800 28.52900
H  31.40200 -2.60700 30.18400
H  32.08400 -1.12900 29.90100
H  28.90200 0.30300 33.84500
H  29.39000 -2.67700 37.15700
H  28.63800 -3.65800 35.89300
H  27.65100 -2.56800 36.88700
Mg 28.86100 58.21600 41.02700
C  26.14900 56.24300 40.19700
C  30.96700 55.85400 39.37200
C  31.44500 60.42400 41.18100
C  26.70600 60.75100 42.24700
N  28.62000 56.29800 40.02800
C  27.39100 55.69700 39.77600
C  27.54600 54.49100 38.80400
C  29.09400 54.18600 38.94400
C  29.61800 55.56700 39.53200
C  29.46400 53.04600 39.87700
C  27.18700 54.98100 37.40400
C  26.10900 54.19800 36.52800
H  26.26100 54.19300 34.97500
N  31.04000 58.09100 40.50100
C  31.66700 57.08200 39.82500
C  33.02600 57.47200 39.63900
C  33.27600 58.75800 40.32400
C  31.89000 59.17100 40.70200
C  34.10300 56.52200 39.08000
C  34.60800 59.49500 40.53100
O  35.63400 59.10100 40.06100
C  34.74500 60.78500 41.36300
N  29.01200 60.31400 41.67100
C  30.20000 60.96300 41.74800
C  29.94200 62.43600 42.09900
C  28.67600 62.30200 42.99100
C  28.03100 61.07800 42.26800
C  31.13900 63.14100 42.82000
C  27.73500 63.62700 43.01000
C  27.31100 64.14900 44.36200
N  26.86500 58.50400 41.17000
C  26.16000 59.54300 41.70700
C  24.79800 59.14700 41.79300
C  24.71100 57.91300 41.08900
C  25.98600 57.59900 40.71700
C  23.68000 59.87100 42.56500
C  23.82400 56.81800 40.71200
O  22.64300 56.68300 40.90900
C  24.74200 55.71200 40.05400
C  24.51200 54.40500 40.72100
O  24.40700 54.25900 41.94000
O  24.43400 53.34600 39.83300
C  24.29400 51.93800 40.29800
H  31.56500 55.13900 38.80300
H  32.15000 61.24400 41.03100
H  25.99300 61.39400 42.76700
H  27.01700 53.56200 39.01800
H  29.59300 54.08700 37.98000
H  30.11300 53.50800 40.62100
H  30.16000 52.34900 39.40900
H  28.61500 52.56000 40.35800
H  28.06600 55.02800 36.76100
H  26.80000 55.99900 37.39900
H  25.05100 54.35000 36.74300
H  26.17600 53.16100 36.85500
H  34.98800 56.94800 38.60700
H  33.60000 55.88100 38.35600
H  34.40500 55.92000 39.93600
H  35.74200 61.02900 41.72900
H  34.04800 60.78600 42.20100
H  34.56300 61.63100 40.70000
H  29.75100 62.99800 41.18500
H  28.94700 62.05600 44.01800
H  31.58200 63.99300 42.30300
H  31.83400 62.33500 43.05500
H  30.71200 63.54600 43.73700
H  26.85400 63.45700 42.39200
H  28.28600 64.39100 42.46100
H  27.83500 63.55200 45.10900
H  26.23300 64.06400 44.50000
H  27.63800 65.15800 44.61100
H  24.09600 60.52800 43.32900
H  22.89200 59.23000 42.96000
H  23.15100 60.48500 41.83600
H  24.52300 55.63300 38.98900
H  23.65000 51.30000 39.69300
H  24.02800 51.81500 41.34800
H  25.33600 51.64700 40.15900

