158

Mg 50.33300 46.15400 42.10300
C  47.20500 47.30400 40.94400
C  49.40700 42.91800 41.02300
C  53.53100 45.22800 42.35700
C  51.24200 49.48300 42.90300
N  48.47400 45.31400 41.13600
C  47.31100 45.90000 40.80500
C  46.36800 44.95700 40.15200
C  46.95800 43.61400 40.54800
C  48.42500 43.93400 40.90200
C  46.13300 42.78100 41.63900
C  46.38500 45.24200 38.58400
C  45.01500 45.29000 37.83600
H  44.71900 44.27500 36.67100
N  51.32000 44.30000 41.77800
C  50.76000 43.10100 41.40000
C  51.81800 42.05900 41.39900
C  53.01800 42.70100 41.76500
C  52.67300 44.12100 42.02600
C  51.56900 40.67500 40.93200
C  54.37500 42.08800 41.89900
O  54.56000 41.01400 41.40900
C  55.57300 42.70700 42.60400
N  52.17900 47.22900 42.43600
C  53.32200 46.61500 42.57700
C  54.43600 47.58300 42.95300
C  53.67200 48.89900 43.37300
C  52.23500 48.51800 42.83600
C  55.46000 46.99800 43.94400
C  54.23400 50.26700 42.86300
C  54.22500 51.44100 43.95700
N  49.40100 48.04700 42.06200
C  49.90500 49.30100 42.43300
C  48.86200 50.25100 42.21900
C  47.81000 49.57400 41.56200
C  48.15800 48.19800 41.53700
C  48.98800 51.71700 42.42000
C  46.50200 49.73300 40.88100
O  45.73200 50.68000 40.63300
C  46.11600 48.31800 40.45900
C  44.77700 48.01000 41.12500
O  44.54300 47.96400 42.28900
O  43.80800 48.00900 40.19400
C  42.45600 48.28200 40.59900
H  49.22600 41.89500 40.68700
H  54.54400 44.83300 42.25400
H  51.66400 50.40300 43.31300
H  45.33100 45.12500 40.44100
H  46.97200 43.08500 39.59500
H  45.59800 41.94800 41.18500
H  45.33400 43.32200 42.14700
H  46.74000 42.38900 42.45500
H  47.02100 44.59400 37.98100
H  46.92200 46.14900 38.30500
H  44.78700 46.28200 37.44500
H  44.31100 45.07700 38.64000
H  52.08700 40.52700 39.98500
H  50.51700 40.45000 40.75300
H  51.98900 39.95600 41.63500
H  55.18500 43.19800 43.49600
H  56.08600 43.36400 41.90200
H  56.23700 41.98100 43.07100
H  54.89800 47.81400 41.99300
H  53.64100 48.87100 44.46200
H  55.81600 47.81700 44.56800
H  56.32100 46.62500 43.38900
H  54.96300 46.22700 44.53300
H  53.69100 50.48700 41.94300
H  55.28600 50.04700 42.68000
H  53.45900 52.11500 43.57500
H  55.24700 51.78400 44.12200
H  53.93300 51.17400 44.97300
H  47.99000 52.14800 42.33600
H  49.67600 52.08100 41.65700
H  49.39700 51.82100 43.42500
H  46.10300 48.33600 39.37000
H  41.73600 47.55100 40.23300
H  42.11400 49.29800 40.40200
H  42.38000 48.30800 41.68600
Mg 6.22800 53.85600 39.74800
C  5.84400 50.38500 39.55300
C  9.43000 53.52800 38.48300
C  6.27500 57.09300 39.17500
C  2.78100 54.05700 40.60300
N  7.48200 52.18000 39.07800
C  7.12500 50.83100 39.16000
C  8.30500 49.97900 38.53200
C  9.52100 51.00700 38.66300
C  8.77400 52.29700 38.79100
C  10.40400 50.74400 39.95500
C  8.31300 49.49600 37.05000
C  7.30900 50.24700 36.12500
H  7.87000 51.32300 35.25400
N  7.70600 55.19100 39.02400
C  8.94600 54.84500 38.54400
C  9.59000 56.02700 38.02100
C  8.69700 57.11400 38.33900
C  7.54100 56.49500 38.89500
C  10.86800 56.08500 37.27400
C  9.02700 58.54300 38.15500
O  10.14400 58.85700 37.70900
C  8.13100 59.70200 38.51600
N  4.60600 55.42900 39.72700
C  4.98400 56.68800 39.67800
C  3.78300 57.59000 40.15800
C  2.70700 56.62100 40.69600
C  3.42700 55.27200 40.36300
C  4.19900 58.75600 41.21700
C  1.24800 56.76500 40.21100
C  0.19100 56.61300 41.34200
N  4.63900 52.54500 40.15100
C  3.26100 52.74700 40.51200
C  2.68800 51.44800 40.84300
C  3.53600 50.52600 40.39000
C  4.76400 51.22500 40.03500
C  1.39800 51.14400 41.46900
C  3.78300 49.14500 40.26700
O  3.15000 48.17000 40.48900
C  5.26500 49.04700 39.72500
C  5.34100 48.27300 38.42700
O  4.77100 48.60200 37.40200
O  6.24900 47.24500 38.57100
C  6.31300 46.40900 37.34100
H  10.43600 53.39600 38.07900
H  6.19200 58.16900 39.00900
H  1.76600 54.14500 40.99500
H  8.41800 49.08200 39.14100
H  10.28000 50.98300 37.88100
H  11.40400 50.41300 39.67300
H  9.82500 50.12300 40.63800
H  10.61600 51.68800 40.45800
H  8.11600 48.42400 37.00800
H  9.24200 49.44800 36.48100
H  6.50100 50.68000 36.71500
H  6.94700 49.48900 35.43100
H  10.65600 56.57100 36.32100
H  11.29000 55.11200 37.02500
H  11.68300 56.60800 37.77400
H  8.76000 60.57000 38.31900
H  7.89900 59.61900 39.57800
H  7.22800 59.73500 37.90700
H  3.33100 58.04700 39.27700
H  2.69700 56.71400 41.78200
H  5.26300 58.93800 41.07100
H  4.14000 58.36300 42.23200
H  3.62400 59.67500 41.10800
H  0.98800 56.00100 39.47900
H  1.15600 57.64900 39.58100
H  0.65300 56.43300 42.31200
H  -0.45400 55.74400 41.21400
H  -0.44800 57.49300 41.42000
H  0.98800 50.14000 41.36100
H  0.63200 51.85200 41.15300
H  1.58200 51.30600 42.53100
H  5.80800 48.59200 40.55400
H  6.89200 45.50500 37.52800
H  6.71200 46.96500 36.49200
H  5.34900 45.98400 37.06200

