158

Mg 8.99600 2.59600 27.31400
C  10.29800 1.01800 30.28300
C  7.16100 4.67600 29.31300
C  7.23400 3.43500 24.70200
C  10.40500 -0.16800 25.58700
N  8.70800 2.72500 29.49200
C  9.44400 2.12500 30.50800
C  9.13800 2.88300 31.83300
C  7.99100 3.89100 31.52500
C  7.88700 3.68600 30.01000
C  6.63500 3.78200 32.26600
C  10.50900 3.62200 32.32500
C  10.50500 4.54900 33.52700
H  10.93300 4.03000 34.96500
N  7.51600 4.02200 27.00600
C  6.91600 4.80300 27.93400
C  6.01500 5.71600 27.26200
C  5.95400 5.30300 25.92400
C  6.98100 4.22700 25.84200
C  5.19700 6.72300 28.02900
C  5.01700 5.79900 24.83800
O  5.17100 5.37400 23.73000
C  4.03900 6.94200 25.08600
N  9.00800 1.87600 25.36600
C  8.05100 2.39300 24.48700
C  8.33200 1.76300 23.16400
C  9.26200 0.56200 23.43100
C  9.56900 0.68000 24.88500
C  7.08800 1.23100 22.32800
C  10.54800 0.56700 22.53400
C  10.55100 -0.66300 21.58700
N  10.15900 0.74400 27.76000
C  10.67000 -0.27400 26.96200
C  11.42400 -1.12900 27.74400
C  11.40300 -0.65200 29.02900
C  10.52000 0.46300 28.97400
C  12.09500 -2.34900 27.16900
C  11.86100 -0.83200 30.39900
O  12.65900 -1.63300 30.86800
C  11.26100 0.31200 31.29800
C  10.60900 -0.47000 32.36300
O  9.56900 -1.14000 32.21200
O  11.27000 -0.20400 33.53900
C  10.77700 -0.88300 34.73100
H  6.69200 5.46500 29.90400
H  6.62200 3.62600 23.81700
H  10.73000 -0.99300 24.95000
H  8.76800 2.07400 32.46200
H  8.37700 4.89300 31.71300
H  6.90600 3.20500 33.15000
H  5.81500 3.31300 31.72300
H  6.29700 4.71800 32.71200
H  10.85600 4.20000 31.46900
H  11.20200 2.79800 32.49500
H  9.44500 4.78800 33.61500
H  11.17400 5.38200 33.31100
H  5.58400 7.01800 29.00400
H  4.27100 6.21800 28.30700
H  4.93300 7.62100 27.47000
H  3.45400 7.15500 24.19100
H  4.52300 7.87500 25.37400
H  3.38500 6.67300 25.91600
H  8.80700 2.55100 22.57900
H  8.87200 -0.42200 23.16900
H  6.33500 1.64100 23.00200
H  7.03100 0.14400 22.27800
H  6.94100 1.71200 21.36200
H  11.42800 0.49300 23.17300
H  10.61300 1.48200 21.94500
H  9.57600 -1.06900 21.32000
H  11.07700 -1.46000 22.11300
H  11.26300 -0.38300 20.81100
H  12.68200 -2.19000 26.26400
H  11.29300 -3.05200 26.94400
H  12.85300 -2.73500 27.85100
H  12.03000 0.95800 31.72200
H  10.27300 -1.84700 34.65600
H  10.25900 -0.11300 35.30200
H  11.64600 -1.08100 35.35900
Mg 25.79500 0.64500 29.23400
C  27.61500 0.30000 32.18900
C  23.01000 1.20600 31.12900
C  23.96700 0.62900 26.42300
C  28.64500 -0.44500 27.45500
N  25.35600 0.68200 31.36500
C  26.30500 0.71300 32.39200
C  25.71600 1.33300 33.65500
C  24.24700 1.56900 33.29900
C  24.16600 1.08600 31.83600
C  23.23000 1.00800 34.34000
C  26.56700 2.54100 34.23100
C  27.23300 2.20600 35.65100
H  26.64900 2.98300 36.89800
N  23.81300 0.97800 28.84400
C  22.80100 1.12900 29.73200
C  21.51000 1.28700 29.00900
C  21.78100 1.20600 27.62100
C  23.21700 0.89500 27.60000
C  20.24500 1.56500 29.71400
C  20.87100 1.45600 26.28600
O  21.26300 1.29400 25.15600
C  19.34800 1.71700 26.37700
N  26.25200 0.22400 27.24700
C  25.30700 0.33800 26.23600
C  25.90500 0.06800 24.86300
C  27.44500 -0.31600 25.14200
C  27.51100 -0.10500 26.70100
C  25.15400 -0.92700 24.02100
C  28.47700 0.64600 24.35900
C  29.70900 -0.03300 23.90100
N  27.74600 0.02500 29.67400
C  28.72100 -0.42100 28.87500
C  29.89700 -0.74300 29.66100
C  29.50500 -0.43700 31.00900
C  28.16400 -0.02400 30.94700
C  31.31000 -0.97800 29.07600
C  29.98200 -0.23200 32.38500
O  31.07400 -0.47200 32.90500
C  28.78000 0.27000 33.18600
C  28.51300 -0.65600 34.30200
O  27.69700 -1.57400 34.24900
O  29.36300 -0.42800 35.31700
C  29.09800 -1.27300 36.53600
H  22.10000 1.26600 31.72900
H  23.42100 0.59900 25.47800
H  29.52400 -0.86400 26.96100
H  25.70500 0.51100 34.37200
H  24.13200 2.65200 33.26200
H  22.36700 1.67100 34.40300
H  23.65400 0.91800 35.34000
H  22.80000 0.15100 33.82100
H  25.92200 3.40800 34.36800
H  27.29500 2.84600 33.48000
H  28.29800 2.39800 35.77900
H  27.09100 1.15100 35.88600
H  19.75500 0.60000 29.83700
H  19.72400 2.27500 29.07200
H  20.38700 1.92900 30.73200
H  19.04900 0.83500 26.94400
H  18.85300 1.66900 25.40800
H  19.19000 2.66400 26.89500
H  25.82300 0.96000 24.24200
H  27.69000 -1.35800 24.94000
H  24.23500 -0.41800 23.72700
H  25.01700 -1.82900 24.61800
H  25.75200 -1.16800 23.14300
H  28.85000 1.52200 24.88900
H  27.86700 0.87700 23.48500
H  29.54800 -0.37400 22.87800
H  30.05700 -0.92000 24.43100
H  30.60100 0.59300 23.90200
H  31.98500 -0.86000 29.92300
H  31.37400 -0.25700 28.26100
H  31.31200 -1.96000 28.60200
H  28.91400 1.27900 33.57600
H  28.96100 -2.35300 36.48700
H  28.29900 -0.91200 37.18300
H  29.99200 -1.17900 37.15200

