158

Mg -3.35300 17.43100 26.63800
C  -3.72900 15.10500 29.28200
C  -3.20500 19.93400 28.77500
C  -3.41600 19.55900 23.94800
C  -3.94900 14.74800 24.34600
N  -3.44400 17.48200 28.66300
C  -3.55400 16.44600 29.62100
C  -3.42200 16.95200 31.06200
C  -3.30400 18.49900 30.90000
C  -3.41900 18.64000 29.34400
C  -4.43200 19.39500 31.61500
C  -2.25400 16.35000 31.99600
C  -1.88700 17.07800 33.33600
H  -2.03600 16.38300 34.67100
N  -3.33900 19.51100 26.34200
C  -3.19600 20.35900 27.41200
C  -3.13600 21.73000 26.93900
C  -3.05600 21.62900 25.52100
C  -3.22200 20.20500 25.18000
C  -3.16600 22.98600 27.78300
C  -2.77300 22.64000 24.44100
O  -2.58100 22.32400 23.23400
C  -2.64200 24.06400 24.83000
N  -3.77400 17.20800 24.45700
C  -3.65800 18.24100 23.63100
C  -3.79700 17.74000 22.09000
C  -3.88200 16.27400 22.25400
C  -3.88000 16.05000 23.76600
C  -4.99400 18.38500 21.41000
C  -2.68700 15.42800 21.52400
C  -1.24400 15.71400 22.05400
N  -3.82600 15.41800 26.71000
C  -3.87000 14.43900 25.70600
C  -3.97900 13.11400 26.28500
C  -4.05700 13.33600 27.69200
C  -3.88100 14.69200 27.94100
C  -4.09400 11.87100 25.60200
C  -4.26300 12.71900 28.96100
O  -4.36300 11.52900 29.37400
C  -4.14700 13.82300 30.08600
C  -2.99700 13.29900 30.95200
O  -1.79800 13.41000 30.76300
O  -3.49100 12.50400 31.96700
C  -2.60000 11.76600 32.85500
H  -3.10400 20.77600 29.46200
H  -3.36700 20.21000 23.07300
H  -4.11500 13.89400 23.68600
H  -4.31800 16.74100 31.64500
H  -2.35100 18.81000 31.33000
H  -5.41200 18.92300 31.68200
H  -4.55300 20.32900 31.06600
H  -4.08800 19.71000 32.60000
H  -1.35600 16.31100 31.37900
H  -2.53400 15.34700 32.31800
H  -2.56100 17.93100 33.41500
H  -0.85900 17.43900 33.30900
H  -2.22500 23.53600 27.80200
H  -3.42300 22.76900 28.82000
H  -3.85900 23.74300 27.41700
H  -3.58400 24.26300 25.34000
H  -2.44200 24.72100 23.98400
H  -1.75800 24.03800 25.46800
H  -2.89900 18.04300 21.55300
H  -4.84200 15.90600 21.88900
H  -4.66000 18.80600 20.46200
H  -5.41000 19.17800 22.03000
H  -5.78000 17.67400 21.15300
H  -2.64300 15.70500 20.47100
H  -2.96800 14.37500 21.52000
H  -0.67200 15.93300 21.15100
H  -0.71600 14.82100 22.38800
H  -1.13300 16.48300 22.81800
H  -3.44700 11.12200 26.05800
H  -3.68200 11.88300 24.59300
H  -5.12800 11.53900 25.50700
H  -5.03700 14.03600 30.67800
H  -1.91100 11.08700 32.35300
H  -3.09000 11.13900 33.60000
H  -2.10800 12.55500 33.42500
Mg 43.39200 41.93200 27.00500
C  42.23000 44.45000 29.30200
C  44.67300 40.33100 29.71600
C  44.89600 39.88500 24.84900
C  42.58800 44.21400 24.33700
N  43.40000 42.37900 29.19000
C  42.78000 43.32300 29.87700
C  42.88100 43.09200 31.37000
C  43.64600 41.77900 31.46500
C  43.96800 41.50900 30.04800
C  44.85600 41.91500 32.38700
C  41.46200 43.17400 32.02400
C  41.04100 42.13200 33.15400
H  40.23700 42.70600 34.36300
N  44.40900 40.20300 27.23000
C  44.91700 39.72000 28.40500
C  45.51200 38.39100 28.19400
C  45.64600 38.20900 26.77000
C  44.99900 39.47400 26.19800
C  45.92900 37.42600 29.34600
C  46.20900 37.05000 26.01400
O  46.09900 36.91300 24.76900
C  46.99900 35.96700 26.79500
N  43.75800 42.05200 24.89400
C  44.28400 40.97700 24.23000
C  44.18000 41.20300 22.71800
C  43.47700 42.57900 22.57100
C  43.30300 43.00900 24.02100
C  45.59600 41.15700 21.93700
C  42.17300 42.49700 21.70500
C  40.95500 41.79500 22.36300
N  42.63800 43.93300 26.80000
C  42.36500 44.72900 25.69000
C  41.79600 46.01800 26.11300
C  41.71400 45.82700 27.52100
C  42.24500 44.65000 27.91000
C  41.22300 47.20200 25.26200
C  41.18500 46.57500 28.72000
O  40.52900 47.61700 28.80300
C  41.51600 45.61200 29.91500
C  42.46800 46.34700 30.81700
O  43.58900 46.78500 30.55800
O  41.79300 46.59300 32.00000
C  42.58900 47.41800 32.96700
H  44.96300 39.82100 30.63700
H  45.31100 39.18000 24.12500
H  42.13600 44.87500 23.59500
H  43.49800 43.87400 31.81300
H  43.06000 40.88500 31.68000
H  44.76200 42.68100 33.15600
H  45.76500 42.14900 31.83200
H  45.16500 40.95700 32.80400
H  40.67700 43.22000 31.27000
H  41.36700 44.16500 32.46900
H  41.92800 41.57200 33.44900
H  40.29400 41.48200 32.69600
H  45.30000 36.53900 29.27000
H  45.60500 37.87000 30.28800
H  46.99100 37.18400 29.39300
H  47.97300 36.41700 26.98800
H  47.10400 35.11800 26.11800
H  46.42000 35.60300 27.64400
H  43.48400 40.47300 22.30500
H  44.10800 43.36200 22.14900
H  46.09400 42.12600 21.98700
H  45.46100 40.86700 20.89500
H  46.20200 40.43200 22.47900
H  42.19600 42.10400 20.68900
H  41.95700 43.55700 21.57100
H  40.56500 40.91900 21.84500
H  40.07300 42.43500 22.37300
H  41.32500 41.51400 23.34900
H  41.21500 46.92200 24.20800
H  41.92900 48.03300 25.27100
H  40.30000 47.64100 25.63800
H  40.59100 45.37200 30.43800
H  43.26900 48.16000 32.54800
H  43.24700 46.86400 33.63600
H  41.91900 47.80100 33.73600

