158

Mg 1.45000 -1.86200 45.40800
C  4.87300 -0.86000 44.88400
C  0.50000 0.76200 43.45500
C  -1.55600 -3.16300 45.48500
C  2.76300 -4.84800 46.74200
N  2.63700 -0.11900 44.36800
C  3.99300 -0.00200 44.21800
C  4.30000 1.25700 43.36100
C  2.85300 1.92000 43.21800
C  1.93800 0.77600 43.59500
C  2.72900 3.21700 44.07700
C  4.96500 0.81500 41.97400
C  6.45200 1.17200 41.66400
H  6.60100 1.61400 40.21400
N  -0.27500 -1.29100 44.54500
C  -0.49300 -0.13100 43.89000
C  -1.88600 0.01000 43.57000
C  -2.54000 -1.02000 44.28800
C  -1.47200 -1.87800 44.87000
C  -2.36400 1.26100 42.90500
C  -3.99200 -1.17800 44.32600
O  -4.76800 -0.45300 43.67600
C  -4.67800 -2.06400 45.24400
N  0.78700 -3.89200 45.63200
C  -0.56300 -4.08800 45.83000
C  -0.90200 -5.43200 46.52900
C  0.48300 -6.05900 46.71000
C  1.43100 -4.84100 46.29900
C  -1.73300 -5.31000 47.84800
C  0.81200 -7.30000 45.82100
C  1.51600 -8.45200 46.59600
N  3.42400 -2.69300 45.94400
C  3.72300 -3.92000 46.48400
C  5.19800 -3.96700 46.77600
C  5.67200 -2.77800 46.09300
C  4.55000 -2.03400 45.60000
C  6.03300 -5.07500 47.44400
C  6.81300 -2.15100 45.61800
O  8.02400 -2.45600 45.64400
C  6.41200 -0.84100 44.88600
C  6.83600 0.38600 45.67300
O  6.86400 0.52100 46.83100
O  7.22400 1.35300 44.75000
C  7.70500 2.62100 45.23900
H  0.25200 1.64900 42.86700
H  -2.55900 -3.55300 45.67000
H  3.10100 -5.74400 47.26800
H  4.97200 1.88800 43.94200
H  2.67200 2.28700 42.20700
H  3.72700 3.57200 44.33400
H  2.03700 3.18200 44.91900
H  2.21100 3.90500 43.40800
H  4.42700 1.16500 41.09200
H  4.88600 -0.26900 41.90200
H  6.96500 0.22000 41.80000
H  6.97400 1.94500 42.22900
H  -2.56300 1.96100 43.71700
H  -3.28700 1.08600 42.35400
H  -1.61500 1.59200 42.18500
H  -3.99700 -1.99400 46.09300
H  -4.74700 -3.06400 44.81600
H  -5.64400 -1.61600 45.47300
H  -1.46300 -6.01400 45.79800
H  0.56700 -6.26100 47.77800
H  -2.79300 -5.23000 47.60500
H  -1.45200 -4.44800 48.45400
H  -1.70800 -6.23200 48.42900
H  1.47400 -6.90900 45.04800
H  -0.11500 -7.65700 45.37000
H  0.98500 -9.38800 46.41900
H  1.55600 -8.36900 47.68200
H  2.51600 -8.45900 46.16400
H  6.19400 -5.90400 46.75500
H  5.56200 -5.49400 48.33300
H  7.08000 -4.85900 47.65400
H  6.87100 -0.90800 43.89900
H  8.15200 2.61700 46.23300
H  6.80900 3.24200 45.23600
H  8.29800 3.00500 44.40900
Mg 34.35000 2.28300 29.82300
C  31.92100 3.51600 32.13000
C  36.60300 2.43800 32.54100
C  36.67600 1.36800 27.65500
C  32.02700 2.86500 27.15000
N  34.21200 2.78800 32.00600
C  33.13200 3.26800 32.69200
C  33.40700 3.44900 34.16700
C  34.95800 3.46400 34.21400
C  35.26400 2.84100 32.83600
C  35.55500 4.85100 34.30200
C  32.77800 2.23800 34.96800
C  33.17100 1.99700 36.36100
H  33.60100 3.12200 37.31100
N  36.30900 1.81700 30.09600
C  37.05500 1.88100 31.25900
C  38.38400 1.45100 30.96700
C  38.46000 1.17300 29.56100
C  37.11700 1.43200 29.04700
C  39.45100 1.15600 32.02600
C  39.62300 0.73400 28.66300
O  39.42800 0.43500 27.51100
C  41.09900 0.65200 29.19000
N  34.34300 2.18000 27.74600
C  35.38100 1.77600 27.06900
C  35.19300 1.75000 25.52400
C  33.70200 1.88000 25.49700
C  33.32200 2.45800 26.84500
C  35.98000 2.88200 24.72700
C  32.82400 0.56400 25.12600
C  32.73400 0.31200 23.64900
N  32.35600 2.96300 29.64200
C  31.59200 3.23900 28.50700
C  30.20900 3.55700 28.96300
C  30.35900 3.67000 30.35200
C  31.67500 3.33400 30.73900
C  28.93600 3.92400 28.06600
C  29.53900 3.99200 31.53800
O  28.34900 4.16500 31.75400
C  30.58100 4.00400 32.72300
C  30.61200 5.37300 33.37800
O  30.78500 6.41000 32.77900
O  30.47000 5.20000 34.77000
C  30.76600 6.37600 35.59500
H  37.37400 2.57900 33.30200
H  37.45500 1.22000 26.90400
H  31.29000 2.93200 26.34700
H  32.85800 4.30700 34.55500
H  35.32500 2.91300 35.08000
H  34.74700 5.57800 34.22100
H  36.31300 5.09200 33.55700
H  35.90500 5.02500 35.31900
H  32.96500 1.31700 34.41600
H  31.70300 2.40100 34.89200
H  34.05100 1.37300 36.20600
H  32.56500 1.26800 36.89900
H  40.28100 1.86100 31.97200
H  39.83500 0.13600 32.04300
H  39.16000 1.23900 33.07300
H  41.33900 1.69000 29.42000
H  41.72200 0.28300 28.37600
H  41.17800 0.14300 30.15100
H  35.54500 0.81500 25.09000
H  33.44500 2.54900 24.67600
H  35.27700 3.22800 23.96900
H  36.85000 2.43300 24.24900
H  36.24100 3.72500 25.36700
H  31.79700 0.64200 25.48300
H  33.32400 -0.20900 25.70900
H  32.92300 -0.75000 23.49100
H  33.48800 0.87200 23.09500
H  31.75500 0.58800 23.25800
H  28.20300 4.39500 28.72000
H  28.50700 2.96900 27.76100
H  29.21500 4.45000 27.15400
H  30.18700 3.31300 33.46700
H  29.88500 7.00200 35.74000
H  31.50900 7.04900 35.16800
H  31.12100 5.97300 36.54300

