158

Mg 49.13000 45.11200 43.49300
C  45.72000 45.17900 42.36800
C  49.28600 41.81600 42.44600
C  52.39200 45.24000 43.57200
C  48.90300 48.55200 43.79700
N  47.73000 43.77100 42.41600
C  46.35900 43.95200 42.14400
C  45.75400 42.70500 41.41500
C  46.69200 41.65600 41.97300
C  48.01000 42.42600 42.30000
C  46.19200 40.86400 43.24100
C  45.61000 42.87700 39.84300
C  44.25000 42.45500 39.14100
H  44.37100 41.42100 37.98700
N  50.61500 43.74800 43.16200
C  50.53000 42.42900 42.77900
C  51.75200 41.77300 42.68300
C  52.74600 42.73000 42.87000
C  51.96600 43.98600 43.25200
C  51.89600 40.30900 42.28000
C  54.18700 42.44500 42.67700
O  54.61500 41.36000 42.22300
C  55.26800 43.49300 42.93800
N  50.45300 46.66300 43.49900
C  51.76700 46.41000 43.82100
C  52.42500 47.66600 44.42600
C  51.30600 48.75000 44.38100
C  50.11300 47.88100 43.94100
C  53.16500 47.37300 45.78700
C  51.61700 49.95100 43.33600
C  51.61700 51.34200 43.98500
N  47.59600 46.60500 43.39600
C  47.63900 47.93900 43.55700
C  46.35000 48.59400 43.43100
C  45.55900 47.47400 43.01400
C  46.36700 46.28800 42.92100
C  46.11000 50.09800 43.52400
C  44.20500 47.06300 42.58200
O  43.15900 47.74100 42.43800
C  44.31200 45.61000 42.09900
C  43.19800 44.72800 42.69800
O  42.49400 43.91500 42.11700
O  43.03800 45.03700 44.08200
C  41.95600 44.28200 44.69100
H  49.21000 40.76000 42.17900
H  53.45200 45.11800 43.80200
H  48.88100 49.59900 44.10600
H  44.76300 42.37400 41.72500
H  46.79500 40.81900 41.28300
H  46.09200 39.79100 43.07900
H  45.16300 41.13400 43.48100
H  46.95500 41.01700 44.00500
H  46.44600 42.35000 39.38300
H  45.94900 43.87500 39.56600
H  43.86700 43.36300 38.67600
H  43.47900 42.19400 39.86600
H  52.19900 40.20100 41.23800
H  51.01800 39.73600 42.57900
H  52.68500 39.85000 42.87600
H  56.28100 43.22300 42.64000
H  55.22800 43.53900 44.02600
H  55.17300 44.52000 42.58600
H  53.15200 47.99900 43.68400
H  51.11000 49.01900 45.41900
H  53.01100 46.33400 46.08000
H  52.86500 48.09900 46.54200
H  54.22800 47.56000 45.64000
H  50.84400 50.01200 42.56900
H  52.59000 49.86600 42.85300
H  50.77700 51.94900 43.64800
H  52.46400 51.93700 43.64200
H  51.65000 51.19300 45.06400
H  46.27200 50.56300 42.55200
H  46.74000 50.66400 44.21000
H  45.08100 50.30900 43.81600
H  44.22900 45.67900 41.01400
H  41.17100 44.40700 43.94500
H  41.67100 44.63900 45.68000
H  42.18500 43.21700 44.65000
Mg -6.75400 26.00000 25.71000
C  -4.88200 27.47000 28.38900
C  -7.94000 23.72200 28.01600
C  -8.18500 24.55300 23.27800
C  -5.18800 28.38600 23.58300
N  -6.41200 25.66100 27.92400
C  -5.68900 26.41500 28.83400
C  -5.87100 26.11700 30.31600
C  -6.77100 24.79900 30.14200
C  -7.04300 24.64400 28.59600
C  -6.28800 23.51100 30.81200
C  -6.66900 27.31600 30.93600
C  -6.58300 27.47500 32.47800
H  -6.08000 26.35000 33.35800
N  -7.90100 24.37700 25.63900
C  -8.38300 23.56500 26.66900
C  -9.36000 22.66300 26.20000
C  -9.56600 22.91200 24.73900
C  -8.44800 23.98400 24.48900
C  -10.13700 21.75500 27.10300
C  -10.60800 22.55000 23.80200
O  -10.65500 22.88100 22.65400
C  -11.70900 21.69800 24.26600
N  -6.68800 26.36200 23.74000
C  -7.43200 25.62100 22.87400
C  -7.41200 26.16500 21.41600
C  -6.40000 27.37700 21.53300
C  -6.03700 27.44800 23.05300
C  -6.99600 25.08500 20.38500
C  -6.81500 28.77000 20.93900
C  -6.29100 29.33000 19.53700
N  -5.29100 27.67700 25.90400
C  -4.85900 28.57800 24.95000
C  -3.91900 29.48200 25.56000
C  -3.86800 29.10100 26.95600
C  -4.73600 27.96900 27.08300
C  -2.98100 30.43700 24.87600
C  -3.27100 29.36000 28.22300
O  -2.43600 30.20800 28.61000
C  -3.94800 28.37500 29.20000
C  -2.80600 27.58700 29.84300
O  -1.86900 27.20000 29.25400
O  -3.00800 27.47400 31.16500
C  -2.18700 26.38700 31.72300
H  -8.48800 23.18300 28.79100
H  -8.83200 24.28900 22.43900
H  -4.50800 28.81800 22.84500
H  -4.91200 25.89400 30.78500
H  -7.73700 24.97900 30.61400
H  -6.37700 22.67600 30.11700
H  -6.92500 23.38300 31.68700
H  -5.23500 23.45500 31.08600
H  -7.72300 27.16400 30.70400
H  -6.44000 28.24600 30.41700
H  -7.61700 27.65900 32.77000
H  -5.88500 28.31200 32.51700
H  -10.25100 20.77400 26.64300
H  -11.12300 22.17500 27.30200
H  -9.63200 21.55000 28.04700
H  -12.02600 22.13400 25.21300
H  -11.26500 20.70300 24.30200
H  -12.41100 21.74400 23.43300
H  -8.35400 26.60400 21.08500
H  -5.51100 27.03900 21.00100
H  -7.70400 25.08500 19.55600
H  -6.79900 24.13400 20.87900
H  -6.03800 25.38700 19.96300
H  -6.70700 29.59100 21.64800
H  -7.90400 28.77300 20.90100
H  -7.04300 29.07500 18.79000
H  -5.39500 28.77500 19.25500
H  -6.12600 30.40700 19.52900
H  -2.97300 31.40600 25.37600
H  -3.33700 30.73400 23.88900
H  -1.95900 30.07100 24.77800
H  -4.42000 28.96300 29.98700
H  -2.53900 25.46900 31.25200
H  -2.42100 26.34700 32.78700
H  -1.11800 26.59400 31.66600

