158

Mg 1.73000 -3.21200 44.76500
C  5.03700 -2.53400 44.09900
C  0.71600 -0.57500 42.76800
C  -1.58800 -4.45500 44.76000
C  2.74700 -6.28300 46.02900
N  2.76500 -1.85600 43.45100
C  4.15300 -1.66200 43.48600
C  4.54900 -0.34400 42.75900
C  3.09900 0.30300 42.53300
C  2.16000 -0.76800 42.93100
C  2.94500 1.67400 43.20900
C  5.17500 -0.70000 41.43300
C  6.27300 0.43600 41.03300
H  6.39300 0.91400 39.58200
N  -0.22700 -2.57200 43.94600
C  -0.38700 -1.43900 43.09400
C  -1.81900 -1.26400 42.82500
C  -2.52000 -2.31500 43.49000
C  -1.46700 -3.18800 44.16200
C  -2.34600 -0.12900 41.96700
C  -3.97500 -2.34600 43.52800
O  -4.68100 -1.60700 42.81600
C  -4.66200 -3.27600 44.41200
N  0.73800 -5.07500 45.34400
C  -0.60900 -5.31700 45.33800
C  -0.81200 -6.89300 45.69300
C  0.51200 -7.28300 46.40200
C  1.36400 -6.16800 45.88400
C  -2.06000 -7.32600 46.47500
C  1.05400 -8.65300 45.91100
C  1.90100 -9.49000 46.84700
N  3.54400 -4.21600 45.17500
C  3.79700 -5.38100 45.79600
C  5.16600 -5.51900 46.01600
C  5.77600 -4.41800 45.43300
C  4.70700 -3.71800 44.80300
C  5.94700 -6.79200 46.60400
C  7.02600 -3.72800 45.12700
O  8.19700 -3.96800 45.34900
C  6.58700 -2.52400 44.12900
C  7.13400 -1.31100 44.70400
O  6.90500 -0.80800 45.78300
O  8.10600 -0.74900 43.83600
C  8.62600 0.56800 44.20600
H  0.48600 0.29000 42.14200
H  -2.57200 -4.89700 44.58700
H  3.16200 -7.17100 46.51200
H  5.26800 0.22500 43.34900
H  2.86000 0.41400 41.47500
H  2.84700 2.31800 42.33500
H  3.83600 1.90500 43.79300
H  2.12000 1.77400 43.91400
H  4.44500 -0.89300 40.64800
H  5.67500 -1.66300 41.53800
H  7.29700 0.09900 41.19300
H  6.01500 1.29400 41.65500
H  -3.23400 0.41700 42.28600
H  -2.47000 -0.53200 40.96100
H  -1.62200 0.68300 41.89900
H  -4.80800 -4.27000 43.99000
H  -5.64700 -2.85600 44.61900
H  -4.25000 -3.32600 45.42000
H  -0.72800 -7.39600 44.72900
H  0.61600 -7.10300 47.47200
H  -2.74200 -7.94600 45.89200
H  -2.60600 -6.41000 46.70000
H  -1.86600 -7.91200 47.37400
H  1.59700 -8.52200 44.97500
H  0.22800 -9.30300 45.62300
H  2.89400 -9.68100 46.44100
H  1.47900 -10.49400 46.88500
H  2.02600 -9.00500 47.81500
H  6.99500 -6.74500 46.30700
H  5.50700 -7.64400 46.08600
H  5.95200 -6.95600 47.68100
H  7.07000 -2.74200 43.17600
H  9.25400 0.85600 43.36300
H  9.23300 0.53200 45.11000
H  7.81200 1.23900 44.48300
Mg 49.27100 47.03500 42.15900
C  45.81400 47.52900 41.26400
C  48.94100 43.76000 41.34500
C  52.52300 46.79100 42.39100
C  49.47100 50.52700 42.49600
N  47.56800 45.80700 41.26200
C  46.25000 46.18400 40.98300
C  45.41300 45.00900 40.52300
C  46.43600 43.81900 40.72700
C  47.73100 44.47900 41.18400
C  45.86300 42.71200 41.62700
C  44.81400 45.13000 39.10900
C  43.30700 44.75500 38.91600
H  42.94300 44.94700 37.40300
N  50.63800 45.38600 42.05800
C  50.23400 44.13100 41.74700
C  51.45200 43.30600 41.86500
C  52.59700 44.17500 42.05500
C  51.97500 45.48800 42.21800
C  51.43400 41.79600 41.54300
C  54.05700 43.81100 42.07400
O  54.33500 42.60800 41.99600
C  55.18000 44.80400 42.23800
N  50.77200 48.44900 42.25500
C  52.05700 48.06800 42.41400
C  53.02000 49.30900 42.63000
C  52.07100 50.52400 42.30600
C  50.67800 49.84500 42.32700
C  53.74300 49.52900 43.99300
C  52.37900 51.02800 40.87400
C  52.03700 52.49700 40.59300
N  47.93300 48.71700 42.09100
C  48.19000 50.08200 42.25600
C  47.02000 50.81300 42.06200
C  46.01200 49.83700 41.87100
C  46.63700 48.57900 41.73800
C  46.93600 52.24600 42.15100
C  44.60600 49.63400 41.58800
O  43.63500 50.43600 41.56200
C  44.42800 48.10900 41.16300
C  43.50900 47.42800 42.08900
O  43.68400 47.43600 43.31000
O  42.49700 46.80100 41.50100
C  41.49600 46.05200 42.24000
H  48.81700 42.70100 41.10600
H  53.60500 46.91000 42.48200
H  49.52700 51.60200 42.68100
H  44.60500 44.97200 41.25300
H  46.54700 43.23200 39.81400
H  46.56300 42.44000 42.41600
H  45.71500 41.81200 41.02900
H  44.97800 43.08200 42.14500
H  45.40000 44.50900 38.43200
H  45.00600 46.06900 38.58900
H  42.57700 45.24200 39.56200
H  43.28300 43.68400 39.11300
H  51.54100 41.70800 40.46200
H  50.54300 41.30200 41.93100
H  52.18300 41.15900 42.01400
H  55.15700 45.42200 41.34000
H  56.08600 44.20400 42.31700
H  55.09700 45.37500 43.16300
H  53.81400 49.20600 41.89100
H  51.96700 51.24400 43.11700
H  53.97200 50.59400 43.97400
H  54.77600 49.18100 43.98700
H  53.21100 49.26600 44.90700
H  51.73100 50.40300 40.25900
H  53.46000 50.95300 40.76500
H  52.16500 53.03600 41.53200
H  51.08300 52.56700 40.07100
H  52.77600 52.84100 39.86900
H  45.96900 52.56200 42.54300
H  47.30500 52.79100 41.28200
H  47.57500 52.54500 42.98300
H  43.96100 47.97200 40.18800
H  40.69400 45.61800 41.64400
H  40.87600 46.77700 42.76700
H  41.97500 45.44600 43.01000

