158

Mg 30.17600 58.00200 39.93700
C  27.06700 56.60800 39.16000
C  31.71600 54.98900 39.06800
C  33.19300 59.61700 39.72000
C  28.51800 61.08300 40.11900
N  29.45400 56.02400 39.10100
C  28.12600 55.69400 39.02800
C  27.98500 54.20600 38.76800
C  29.49200 53.63600 38.79700
C  30.30100 54.96700 39.03500
C  29.90300 52.55100 39.86500
C  27.32000 53.89200 37.46600
C  27.95300 54.42700 36.09100
H  27.01100 55.29800 35.23700
N  32.19100 57.31800 39.72100
C  32.63700 56.04100 39.27300
C  34.07400 56.07700 39.12000
C  34.46200 57.46500 39.32900
C  33.25700 58.19800 39.64800
C  34.93400 54.96500 38.77100
C  35.85700 57.97800 39.26100
O  36.69700 57.23000 38.87000
C  36.34600 59.36400 39.78500
N  30.74700 60.00500 39.89200
C  32.01400 60.40200 39.90700
C  32.18600 61.93300 39.84900
C  30.76700 62.39600 40.01600
C  29.95600 61.05000 40.04800
C  33.21000 62.48800 40.84300
C  30.24200 63.44000 38.99900
C  29.86300 64.80100 39.55200
N  28.20900 58.73100 39.85300
C  27.69100 59.99900 39.97800
C  26.23800 59.91900 39.90800
C  26.02100 58.61900 39.51000
C  27.21300 57.96800 39.52900
C  25.36700 61.01400 40.05600
C  24.92000 57.70400 39.17500
O  23.66400 57.87000 39.06400
C  25.58700 56.42500 38.99800
C  24.89400 55.49500 39.86700
O  25.17200 55.37800 41.03600
O  24.03200 54.64500 39.24500
C  23.33000 53.78500 40.16800
H  32.17800 54.02900 38.82700
H  34.12400 60.11700 39.44500
H  28.03000 62.05100 40.24900
H  27.34100 53.85900 39.57500
H  29.77500 53.18800 37.84500
H  30.47800 52.95700 40.69700
H  30.38900 51.65500 39.47800
H  28.99500 52.16400 40.32800
H  26.33000 54.34800 37.45200
H  27.28600 52.80400 37.41400
H  28.25800 53.53900 35.53600
H  28.87700 54.96000 36.31500
H  35.74500 54.80200 39.48100
H  35.31900 55.10300 37.76000
H  34.48100 53.97500 38.81700
H  36.13600 60.18200 39.09600
H  37.42000 59.17300 39.79900
H  36.01800 59.46200 40.82000
H  32.62900 62.25500 38.90600
H  30.63200 62.81200 41.01400
H  33.52500 61.60300 41.39700
H  32.74200 63.23200 41.48600
H  34.09300 62.94500 40.39500
H  29.33900 62.98300 38.59400
H  30.99900 63.49000 38.21600
H  30.28600 65.62800 38.98200
H  30.05400 64.99600 40.60700
H  28.79600 64.98700 39.43400
H  25.73100 61.65000 40.86300
H  24.38000 60.83200 40.48300
H  25.15900 61.53300 39.12100
H  25.32500 56.06200 38.00400
H  23.84600 52.85100 40.38700
H  22.45600 53.45000 39.61100
H  22.90600 54.42000 40.94600
Mg -10.56100 16.11100 41.97900
C  -7.25700 15.00600 41.56300
C  -9.54900 19.16800 40.62800
C  -13.82300 17.06100 41.98200
C  -11.44200 12.76200 42.43700
N  -8.60300 16.88100 41.08800
C  -7.38700 16.29300 41.09900
C  -6.27900 17.24300 40.63300
C  -7.01700 18.63200 40.50700
C  -8.46700 18.23500 40.69700
C  -6.46300 19.68700 41.54100
C  -5.71400 16.74600 39.28600
C  -4.30600 17.34500 38.95200
H  -4.14400 18.27900 37.68000
N  -11.53300 17.89700 41.48000
C  -10.93700 19.01100 40.91700
C  -11.92100 20.09500 40.78500
C  -13.17700 19.49800 41.08900
C  -12.86700 18.08800 41.53600
C  -11.58200 21.60100 40.46700
C  -14.44800 20.29200 41.17400
O  -14.55100 21.49500 40.90400
C  -15.75100 19.54700 41.30400
N  -12.42300 15.07800 42.23200
C  -13.63700 15.70200 42.29600
C  -14.76100 14.69900 42.44800
C  -13.99300 13.36900 42.65800
C  -12.51500 13.73800 42.44600
C  -15.84900 15.00200 43.43100
C  -14.56400 12.16600 41.78800
C  -14.90700 10.95600 42.58500
N  -9.63100 14.25300 42.07600
C  -10.06600 12.96500 42.33300
C  -8.98600 12.09500 42.42300
C  -7.81000 12.81400 42.21400
C  -8.26900 14.12400 41.99400
C  -9.05500 10.57100 42.62100
C  -6.28900 12.88300 42.19300
O  -5.39300 12.08600 42.47300
C  -5.92300 14.33300 41.79800
C  -5.08100 14.80900 42.91500
O  -5.45800 15.17000 44.02200
O  -3.76300 14.78900 42.41300
C  -2.62600 15.26300 43.33800
H  -9.22500 20.19700 40.45800
H  -14.88000 17.29900 42.11700
H  -11.63500 11.68800 42.48500
H  -5.40900 17.34600 41.28100
H  -6.88400 19.22400 39.60100
H  -5.37700 19.60000 41.55100
H  -6.86900 19.42500 42.51800
H  -6.71100 20.70900 41.25300
H  -6.40900 17.13600 38.54300
H  -5.77600 15.68400 39.04500
H  -3.67800 16.47500 38.76100
H  -3.90800 18.01900 39.71100
H  -11.09100 21.59100 39.49400
H  -10.85400 21.90800 41.21800
H  -12.40300 22.31700 40.42600
H  -16.55000 20.13300 40.85000
H  -16.00100 19.49200 42.36400
H  -15.74800 18.57200 40.81700
H  -15.16200 14.69000 41.43500
H  -13.89600 13.18000 43.72700
H  -15.48400 15.89300 43.94300
H  -15.90100 14.14600 44.10300
H  -16.77200 15.05900 42.85400
H  -13.71200 11.86700 41.17700
H  -15.38600 12.43600 41.12500
H  -15.31300 11.24100 43.55500
H  -14.09100 10.24100 42.68800
H  -15.81900 10.51200 42.18700
H  -8.55700 10.21000 43.52100
H  -8.50500 10.12200 41.79400
H  -10.08100 10.26700 42.41300
H  -5.33300 14.37000 40.88200
H  -2.06900 16.06300 42.85100
H  -1.97200 14.44900 43.64900
H  -3.09200 15.59900 44.26500

