158

Mg 8.38700 3.83000 27.45000
C  9.86600 2.36500 30.27000
C  6.50700 5.70700 29.55100
C  6.81000 5.05000 24.70300
C  9.88600 1.34800 25.50200
N  8.08400 3.89700 29.65400
C  8.96100 3.35800 30.60300
C  8.72400 3.93300 32.04400
C  7.49400 4.87200 31.81000
C  7.29500 4.78600 30.29300
C  6.20700 4.40900 32.62000
C  9.96900 4.80400 32.52100
C  9.76100 5.54700 33.89100
H  10.66300 5.13100 35.12800
N  6.94100 5.24800 27.14500
C  6.37100 5.96000 28.17200
C  5.48800 7.01200 27.56200
C  5.60400 6.80600 26.17500
C  6.48800 5.65100 25.95200
C  4.59600 7.94600 28.40700
C  4.96000 7.63800 24.98900
O  5.24300 7.58800 23.79800
C  4.12600 8.77800 25.48400
N  8.19100 3.08900 25.40600
C  7.68100 3.99900 24.45700
C  7.95400 3.48500 23.00200
C  9.09400 2.37300 23.20800
C  9.07000 2.25200 24.79000
C  6.66600 2.93800 22.37200
C  10.46400 2.57600 22.55000
C  11.41000 3.53600 23.31500
N  9.55100 2.11700 27.82200
C  10.10300 1.24700 26.92000
C  11.02100 0.37500 27.62000
C  11.00300 0.80200 28.92700
C  10.04000 1.81800 29.00400
C  11.98900 -0.68700 27.05000
C  11.60100 0.62200 30.25100
O  12.46800 -0.11800 30.64900
C  10.92600 1.69400 31.11700
C  10.50300 1.18500 32.44400
O  9.43000 0.66100 32.64000
O  11.41600 1.51900 33.39600
C  10.94600 1.34600 34.80700
H  5.97400 6.42100 30.18200
H  6.38900 5.46100 23.78400
H  10.64500 0.71600 25.03700
H  8.49300 3.13000 32.74400
H  7.63600 5.85200 32.26600
H  5.62800 5.29800 32.87000
H  6.49700 3.70700 33.40100
H  5.70700 3.72100 31.93800
H  10.02100 5.52500 31.70500
H  10.83900 4.16200 32.66200
H  8.70800 5.52600 34.17200
H  9.80500 6.62900 33.77200
H  3.52900 7.78900 28.24400
H  4.84600 8.97800 28.16200
H  4.84000 7.80000 29.45900
H  3.82700 9.27800 24.56200
H  4.89000 9.28400 26.07400
H  3.29100 8.51300 26.13100
H  8.36000 4.26800 22.36200
H  8.72200 1.41200 22.85400
H  5.91600 2.75900 23.14200
H  7.02200 2.00800 21.92900
H  6.27900 3.54400 21.55300
H  10.28900 3.07600 21.59700
H  10.91300 1.62100 22.27600
H  11.81100 4.34700 22.70700
H  12.26000 2.95300 23.67000
H  10.81500 3.85900 24.16900
H  12.95300 -0.33800 27.42200
H  12.08300 -0.78800 25.96900
H  11.73300 -1.65600 27.47800
H  11.67900 2.45700 31.31500
H  10.13300 0.62000 34.81400
H  10.61900 2.22700 35.36000
H  11.74600 0.82400 35.33100
Mg 16.48300 -1.21000 27.90800
C  15.55500 1.14000 30.53900
C  18.23100 -2.95000 30.17500
C  17.64100 -3.03800 25.34300
C  15.12400 1.07900 25.60500
N  16.96500 -0.85400 30.02800
C  16.42100 0.08000 30.93300
C  16.89100 -0.18800 32.34900
C  17.76000 -1.45700 32.18100
C  17.73800 -1.75500 30.65200
C  19.27900 -1.12700 32.59000
C  15.67700 -0.37700 33.36900
C  15.83100 0.33600 34.74100
H  17.30300 0.65700 35.24100
N  17.82500 -2.79900 27.78700
C  18.40100 -3.48400 28.81600
C  19.05200 -4.65300 28.28100
C  18.85400 -4.67400 26.90200
C  18.05600 -3.48900 26.63100
C  19.97800 -5.57200 29.11200
C  19.12400 -5.72300 25.82900
O  18.88500 -5.61900 24.61500
C  19.83300 -6.92900 26.28500
N  16.58300 -0.92800 25.72500
C  16.99100 -1.90800 24.90400
C  17.01100 -1.50000 23.47400
C  15.93000 -0.31400 23.52900
C  15.79100 -0.05000 25.05400
C  18.42200 -1.09800 22.97200
C  14.54300 -0.61300 22.82900
C  14.01000 0.57600 21.92600
N  15.44500 0.65800 27.96100
C  15.01000 1.47500 26.97300
C  14.30700 2.67300 27.54500
C  14.47700 2.51600 28.93700
C  15.23600 1.33800 29.15800
C  13.50200 3.70100 26.83100
C  14.07800 3.12200 30.21600
O  13.41300 4.10800 30.53200
C  14.74800 2.23200 31.31700
C  15.52100 2.99600 32.22300
O  16.71100 3.27000 32.09100
O  14.79200 3.47400 33.33200
C  15.59900 4.35600 34.20100
H  18.68200 -3.51300 30.99500
H  18.04400 -3.59100 24.49200
H  14.68700 1.74700 24.86000
H  17.51800 0.65800 32.63000
H  17.33300 -2.28700 32.74300
H  19.32900 -0.14100 33.05100
H  19.89900 -1.10200 31.69400
H  19.62900 -1.83600 33.34000
H  15.53400 -1.42700 33.62400
H  14.72600 -0.11300 32.90700
H  15.39700 -0.31600 35.50000
H  15.32400 1.29900 34.66900
H  20.77500 -5.91000 28.44900
H  19.42600 -6.48600 29.33100
H  20.43800 -5.08100 29.96900
H  19.35900 -7.44100 27.12300
H  20.84900 -6.54600 26.38300
H  19.93600 -7.68100 25.50300
H  16.62200 -2.41300 23.02300
H  16.41000 0.55900 23.08700
H  18.35000 -0.10800 22.52200
H  18.64000 -1.80700 22.17300
H  19.18400 -0.96800 23.74000
H  13.82200 -0.76900 23.63100
H  14.70500 -1.48500 22.19600
H  14.62600 1.47300 21.98700
H  13.04700 0.89300 22.32700
H  13.81300 0.10300 20.96400
H  14.08400 4.62300 26.86500
H  12.52100 3.75600 27.30100
H  13.11300 3.54800 25.82400
H  14.01300 1.67500 31.89900
H  14.95900 4.60500 35.04700
H  15.89700 5.27400 33.69300
H  16.45800 3.92500 34.71700

