158

Mg 46.91900 35.52600 29.03800
C  45.11400 33.41700 31.17700
C  47.11000 37.81900 31.59700
C  48.08900 37.76000 26.92200
C  46.46400 33.25300 26.42700
N  46.06900 35.57800 31.06500
C  45.58400 34.52800 31.80800
C  45.79200 34.76700 33.29700
C  45.87500 36.27900 33.34000
C  46.45400 36.61800 31.88200
C  44.47900 37.00900 33.53000
C  47.02400 34.02600 33.83400
C  47.21400 33.83400 35.33700
H  46.28900 34.68400 36.26500
N  47.50300 37.53000 29.27500
C  47.56700 38.27300 30.34900
C  48.37800 39.41800 30.04600
C  48.67500 39.46400 28.70600
C  48.05400 38.29400 28.22400
C  48.84000 40.30900 31.23400
C  49.52200 40.46000 27.88700
O  49.73300 40.31500 26.68300
C  50.14700 41.71400 28.60500
N  47.14900 35.50100 26.87900
C  47.57800 36.63900 26.30600
C  47.46500 36.49700 24.78900
C  47.21700 34.92000 24.59600
C  46.98800 34.49200 26.02700
C  46.42900 37.50400 24.10600
C  48.33200 34.07200 23.94100
C  48.42600 34.36700 22.46200
N  46.08200 33.64400 28.75800
C  45.93000 32.86900 27.66100
C  45.28300 31.63800 28.06200
C  44.91600 31.81500 29.40700
C  45.45400 33.03300 29.85900
C  44.84800 30.53200 27.19400
C  44.16700 31.24500 30.51000
O  43.54300 30.19500 30.62100
C  44.07700 32.45300 31.59400
C  44.15900 31.85700 33.01600
O  44.94300 31.10700 33.43400
O  43.13800 32.38700 33.79400
C  43.07100 32.08700 35.23500
H  47.36700 38.39400 32.48900
H  48.57100 38.40400 26.18400
H  46.50800 32.48700 25.65000
H  44.95700 34.36600 33.87200
H  46.53200 36.64700 34.12900
H  44.60800 37.80000 34.27000
H  43.79500 36.23700 33.88100
H  44.08900 37.48300 32.62900
H  47.92400 34.51200 33.45700
H  46.94700 33.07900 33.29900
H  48.24600 33.93800 35.67200
H  46.84400 32.81200 35.41400
H  48.20300 40.18200 32.11000
H  48.91600 41.34000 30.89000
H  49.77700 39.82800 31.51600
H  50.72200 41.35000 29.45600
H  49.43600 42.43000 29.01800
H  50.69600 42.35600 27.91600
H  48.47100 36.56900 24.37500
H  46.31400 34.82200 23.99300
H  46.85600 38.36200 23.58800
H  45.72100 37.88900 24.84000
H  45.92600 36.86100 23.38400
H  48.30600 32.99700 24.11900
H  49.23700 34.36500 24.47300
H  49.32400 34.94800 22.25200
H  47.51900 34.80400 22.04500
H  48.40700 33.40600 21.94800
H  44.52800 29.63100 27.71800
H  45.76400 30.14200 26.75100
H  44.02700 30.77600 26.51900
H  43.09400 32.90800 31.47700
H  42.17800 31.46300 35.28400
H  42.82700 33.07000 35.63700
H  43.93300 31.50600 35.56100
Mg 41.62100 41.31100 27.41900
C  40.95300 43.77400 29.75800
C  41.98700 39.00500 29.89500
C  42.52800 39.11400 25.02200
C  41.69500 43.93100 24.99800
N  41.40100 41.34700 29.57800
C  40.99000 42.47400 30.34500
C  40.83400 42.14700 31.77900
C  41.22900 40.64700 31.86500
C  41.51100 40.25900 30.37400
C  42.34300 40.23800 32.83300
C  39.47900 42.58900 32.51000
C  38.90900 41.81700 33.73500
H  38.18900 42.65700 34.80500
N  42.14300 39.34400 27.47100
C  42.18000 38.50400 28.57000
C  42.45300 37.12000 28.16100
C  42.63600 37.18400 26.75600
C  42.41800 38.56100 26.37300
C  42.57300 35.88300 29.06100
C  42.99400 36.03500 25.71900
O  43.26900 36.17500 24.51400
C  43.14600 34.62800 26.28200
N  42.13900 41.49900 25.42100
C  42.43800 40.44400 24.59000
C  42.60200 40.84000 23.13800
C  42.10800 42.31700 23.15600
C  41.99100 42.67100 24.63300
C  44.08600 40.65600 22.57300
C  40.83400 42.77900 22.38600
C  39.50200 42.12600 22.92000
N  41.33600 43.41900 27.35800
C  41.38000 44.33600 26.37600
C  41.10800 45.65700 26.79500
C  40.87500 45.53300 28.19000
C  41.09800 44.12600 28.45900
C  41.02800 46.91800 26.01900
C  40.53100 46.15900 29.35600
O  40.27400 47.34500 29.56100
C  40.57100 45.02400 30.46100
C  41.54700 45.42700 31.59300
O  42.72500 45.12700 31.57900
O  40.77000 45.98500 32.59600
C  41.45600 46.13300 33.86300
H  42.13900 38.23000 30.64900
H  42.84200 38.36500 24.29100
H  41.54000 44.68100 24.22000
H  41.67700 42.74900 32.11900
H  40.30200 40.17900 32.19400
H  42.15400 39.26900 33.29600
H  42.16500 41.03800 33.55100
H  43.36700 40.38300 32.48800
H  38.62300 42.61700 31.83600
H  39.73000 43.62100 32.75500
H  39.73600 41.39500 34.30600
H  38.27300 40.96900 33.48200
H  42.59000 36.35600 30.04300
H  43.50600 35.36200 28.84500
H  41.80400 35.12100 28.93700
H  42.20000 34.35900 26.75100
H  43.90100 34.66000 27.06800
H  43.48000 34.01800 25.44200
H  41.84400 40.19800 22.68900
H  42.91800 42.95600 22.80600
H  44.67600 40.11400 23.31200
H  44.53500 41.57600 22.19900
H  43.97600 39.93300 21.76400
H  40.98900 42.42800 21.36600
H  40.80500 43.86700 22.43400
H  39.64000 41.60600 23.86800
H  39.10100 41.44400 22.17000
H  38.73600 42.87100 23.13900
H  40.18900 46.88800 25.32300
H  41.93400 47.07600 25.43500
H  40.97600 47.70700 26.76900
H  39.54300 44.86600 30.78700
H  42.53000 46.31100 33.81600
H  41.26800 45.33000 34.57600
H  41.09900 47.07000 34.29200

