158

Mg 35.28000 3.17800 29.43900
C  33.16100 4.13900 32.14000
C  37.85300 2.73900 31.64000
C  37.15200 2.00200 26.89700
C  32.68000 3.92200 27.18800
N  35.49900 3.51600 31.61100
C  34.52000 3.88800 32.54200
C  35.07500 3.85800 33.94400
C  36.64900 3.75800 33.67900
C  36.68200 3.30100 32.18200
C  37.47500 5.05100 33.91500
C  34.46100 2.81500 34.91100
C  34.17600 3.29600 36.30400
H  35.05700 4.39100 36.87100
N  37.22700 2.35700 29.29100
C  38.09900 2.23900 30.31700
C  39.34500 1.59400 29.83400
C  39.09100 1.26000 28.44500
C  37.70400 1.80900 28.15600
C  40.51100 1.16800 30.66200
C  39.96000 0.41300 27.47700
O  39.61100 0.22400 26.35600
C  41.35700 -0.23700 27.88400
N  35.02000 3.06500 27.45400
C  35.94500 2.64000 26.58300
C  35.46200 2.61600 25.13800
C  33.94000 2.88300 25.29300
C  33.86000 3.38800 26.67600
C  36.24800 3.68900 24.37300
C  32.84400 1.84600 24.97500
C  31.64500 2.39100 24.23700
N  33.37600 3.89700 29.57700
C  32.37600 4.03300 28.55300
C  31.15900 4.43000 29.13000
C  31.43600 4.46300 30.52900
C  32.80800 4.13400 30.73700
C  29.87500 4.66300 28.41400
C  30.83600 4.75800 31.79700
O  29.68200 5.11700 32.12000
C  31.92600 4.39000 32.94200
C  31.97100 5.62700 33.88000
O  32.46800 6.71700 33.68600
O  31.31200 5.40300 35.04500
C  31.23000 6.57400 35.98800
H  38.63500 2.54900 32.37700
H  37.62500 1.62400 25.98900
H  31.86400 4.00000 26.46700
H  34.77200 4.85000 34.28100
H  37.07800 3.03500 34.37300
H  36.80700 5.90400 34.03500
H  38.01000 5.25800 32.98800
H  38.14500 4.97600 34.77100
H  35.09800 1.93300 34.84500
H  33.51500 2.53000 34.45100
H  34.11100 2.51000 37.05800
H  33.18000 3.73000 36.39600
H  40.59200 0.08300 30.72200
H  40.37000 1.66500 31.62200
H  41.42100 1.45700 30.13700
H  42.08800 0.56000 28.01800
H  41.47400 -0.84400 26.98600
H  41.09500 -0.77100 28.79700
H  35.61200 1.64200 24.67300
H  33.73400 3.71400 24.61900
H  37.15600 3.96600 24.90900
H  35.73500 4.65100 24.36100
H  36.45300 3.21800 23.41200
H  32.57400 1.36900 25.91700
H  33.25700 1.07100 24.32900
H  30.76600 1.99900 24.75000
H  31.67100 1.94400 23.24300
H  31.58000 3.46800 24.08200
H  29.75800 4.01500 27.54500
H  29.73600 5.68100 28.05200
H  29.01100 4.34100 28.99500
H  31.52200 3.49300 33.41300
H  30.64600 7.34000 35.47700
H  32.17800 6.77100 36.48800
H  30.47000 6.31800 36.72600
Mg -12.41500 38.89400 42.97500
C  -10.62200 36.13600 41.62700
C  -10.37100 40.96600 41.26500
C  -14.59100 41.35900 43.73700
C  -14.89700 36.48600 44.07900
N  -10.73800 38.55400 41.47300
C  -10.14000 37.39500 41.18500
C  -8.88000 37.63600 40.41900
C  -8.74200 39.18100 40.43300
C  -10.02500 39.64400 41.14000
C  -7.46500 39.78000 41.14400
C  -8.81200 36.94700 39.04700
C  -7.54200 36.02800 38.68400
H  -6.50700 36.59000 37.76000
N  -12.40600 40.90700 42.61700
C  -11.45900 41.57800 41.95400
C  -11.87400 42.96000 41.87000
C  -13.08000 43.11200 42.57100
C  -13.42200 41.78900 43.06800
C  -11.13700 43.97800 40.99300
C  -13.73000 44.45500 42.79400
O  -13.26200 45.49000 42.33300
C  -14.98100 44.62200 43.63100
N  -14.45200 38.92100 43.75700
C  -15.01500 40.09800 44.09200
C  -16.35200 39.84800 44.75100
C  -16.50300 38.28500 44.75500
C  -15.23200 37.79200 44.11900
C  -16.42200 40.53100 46.07400
C  -17.73000 37.76900 44.03800
C  -18.94700 37.43600 44.95600
N  -12.76100 36.76000 42.89000
C  -13.72000 35.94100 43.49300
C  -13.32900 34.51700 43.33600
C  -12.10600 34.58600 42.60500
C  -11.83700 35.92700 42.35400
C  -13.99200 33.28400 43.76000
C  -11.04600 33.81200 42.05800
O  -10.99300 32.58900 41.95200
C  -9.98100 34.75100 41.35400
C  -8.74000 34.57500 41.99300
O  -7.89600 33.90600 41.50000
O  -8.65500 35.34600 43.15800
C  -7.37000 35.25700 43.84700
H  -9.68200 41.69500 40.83400
H  -15.42100 42.03500 43.95200
H  -15.56600 35.81100 44.61800
H  -8.12600 37.25700 41.11000
H  -8.69600 39.68300 39.46600
H  -6.64100 39.08400 41.29900
H  -7.66700 40.25100 42.10600
H  -7.06700 40.46600 40.39600
H  -8.82900 37.65600 38.22000
H  -9.72600 36.39700 38.82600
H  -7.81800 35.09100 38.19900
H  -7.03200 35.86500 39.63300
H  -11.53100 43.87800 39.98200
H  -10.07400 43.73600 41.00300
H  -11.14400 45.00200 41.36700
H  -15.88500 44.29200 43.11800
H  -15.16600 45.60100 44.07400
H  -14.81900 43.91100 44.44100
H  -17.01800 40.29000 44.01100
H  -16.43300 37.84100 45.74800
H  -15.48100 40.94600 46.43500
H  -16.79500 39.85900 46.84700
H  -17.15800 41.32700 45.96200
H  -17.55700 36.80400 43.56000
H  -17.95600 38.47700 43.24100
H  -19.08200 36.36000 44.85100
H  -19.72800 38.11800 44.62000
H  -18.73400 37.59600 46.01300
H  -13.71400 32.40100 43.18400
H  -15.05900 33.46100 43.62300
H  -13.64000 33.05100 44.76500
H  -10.09600 34.64300 40.27500
H  -7.55100 35.38600 44.91400
H  -6.67300 36.02700 43.51600
H  -6.93300 34.25800 43.82900

