158

Mg 24.22300 -6.90000 46.77000
C  26.80300 -4.77800 45.83000
C  22.23800 -5.40900 44.46400
C  22.28000 -9.61900 46.90700
C  26.71500 -8.80600 48.65100
N  24.52800 -5.36300 45.38500
C  25.60600 -4.53700 45.22700
C  25.34800 -3.47100 44.14900
C  23.78300 -3.48900 43.89900
C  23.45200 -4.78700 44.66800
C  23.10900 -2.20300 44.50100
C  26.15400 -3.69900 42.84700
C  26.47000 -2.48600 41.91800
H  25.68600 -2.46400 40.51300
N  22.42100 -7.33100 45.88600
C  21.70700 -6.62400 44.97700
C  20.46000 -7.30100 44.73300
C  20.37000 -8.50900 45.46600
C  21.74200 -8.55100 46.17700
C  19.43600 -6.86900 43.82600
C  19.24500 -9.53200 45.49700
O  18.19900 -9.30500 44.92500
C  19.32400 -10.71200 46.44600
N  24.56700 -8.98900 47.39700
C  23.48400 -9.79300 47.59200
C  23.85700 -11.10300 48.37300
C  25.32500 -10.92300 48.76000
C  25.54400 -9.40200 48.27100
C  22.94700 -11.57500 49.51000
C  26.29600 -11.89300 48.06000
C  26.86400 -12.95600 48.87900
N  26.30200 -6.73700 47.38700
C  27.11100 -7.54200 48.19700
C  28.42400 -6.91700 48.26400
C  28.39100 -5.77800 47.35900
C  27.07300 -5.71700 46.83600
C  29.60300 -7.45500 49.08800
C  29.08600 -4.67100 46.78500
O  30.23000 -4.29700 46.91700
C  28.19900 -4.00000 45.72400
C  28.23700 -2.46500 45.97900
O  29.12900 -1.75200 45.54300
O  27.19900 -2.16600 46.74500
C  27.12300 -0.73700 47.09000
H  21.59700 -5.00300 43.67900
H  21.86300 -10.61600 47.06600
H  27.28600 -9.32600 49.42400
H  25.63400 -2.49100 44.53100
H  23.38400 -3.62800 42.89400
H  22.47400 -2.34700 45.37500
H  22.48600 -1.70700 43.75600
H  23.71500 -1.39400 44.91000
H  25.55200 -4.40900 42.28000
H  27.14200 -4.13100 43.00000
H  27.52500 -2.47700 41.64400
H  26.24900 -1.63600 42.56300
H  18.65800 -6.34100 44.37700
H  18.94700 -7.67900 43.28500
H  19.83300 -6.14500 43.11400
H  19.63400 -10.43800 47.45400
H  20.05100 -11.40500 46.02100
H  18.35200 -11.16100 46.64900
H  23.72300 -11.89800 47.64000
H  25.43600 -10.96000 49.84300
H  22.69700 -12.63500 49.46800
H  21.97200 -11.08600 49.48600
H  23.33200 -11.30200 50.49200
H  27.21600 -11.34900 47.84500
H  25.95900 -12.20200 47.07000
H  27.00200 -13.84900 48.26900
H  26.14800 -13.24000 49.65000
H  27.79100 -12.64700 49.36200
H  29.36200 -8.50300 49.26300
H  29.44700 -7.00800 50.07000
H  30.61000 -7.36600 48.68000
H  28.73800 -4.23500 44.80600
H  28.06800 -0.33400 47.45400
H  26.44100 -0.36800 47.85600
H  26.90500 -0.18400 46.17600
Mg 42.25400 41.11100 26.41600
C  41.63800 43.50500 28.95100
C  42.96000 38.73900 28.58800
C  43.49400 39.29400 23.76300
C  41.76400 43.82600 24.02600
N  42.52100 41.23400 28.58600
C  41.99300 42.19600 29.46100
C  41.89300 41.68000 30.94700
C  42.30400 40.18100 30.67500
C  42.54500 40.00800 29.18600
C  43.42100 39.69100 31.66400
C  40.47300 41.89100 31.58000
C  40.21900 41.18800 32.93800
H  39.48400 42.02300 34.02400
N  43.03800 39.25100 26.23400
C  43.34800 38.38100 27.27600
C  43.84200 37.15100 26.77500
C  44.04500 37.30200 25.36200
C  43.53200 38.69600 25.05400
C  44.02200 35.90100 27.62700
C  44.57200 36.33700 24.28900
O  44.77800 36.56700 23.11800
C  44.72500 34.83500 24.64200
N  42.47800 41.48600 24.24100
C  43.03100 40.55000 23.34600
C  43.00600 40.95300 21.86100
C  42.15700 42.24900 21.94300
C  42.18800 42.62300 23.49700
C  44.41900 41.13800 21.16000
C  40.70700 42.11500 21.47700
C  39.70200 40.97800 21.96300
N  41.90300 43.29600 26.39200
C  41.61500 44.19800 25.41300
C  41.15600 45.43600 25.97800
C  41.18100 45.24700 27.33900
C  41.64700 43.91100 27.56100
C  40.77300 46.72000 25.36600
C  40.95500 45.84200 28.66800
O  40.55500 46.93800 28.93500
C  41.10600 44.73700 29.70400
C  42.04000 45.18400 30.79900
O  43.28300 45.26900 30.74200
O  41.29200 45.41700 31.85100
C  41.96100 45.52700 33.13300
H  43.21200 37.90700 29.24800
H  43.68700 38.64300 22.90800
H  41.53900 44.59600 23.28500
H  42.69000 42.19800 31.48200
H  41.42400 39.57100 30.88300
H  44.35200 39.70100 31.09600
H  43.08800 38.75400 32.11100
H  43.53900 40.41100 32.47400
H  39.81000 41.48500 30.81600
H  40.18200 42.91300 31.82200
H  41.20300 40.85100 33.26500
H  39.53500 40.34900 32.80900
H  43.40600 35.13700 27.15300
H  43.84300 36.01400 28.69600
H  45.01300 35.45300 27.55500
H  45.07500 34.32300 23.74600
H  43.82400 34.50200 25.15700
H  45.44700 34.81100 25.45800
H  42.43900 40.19200 21.32400
H  42.54800 43.07700 21.35300
H  44.51300 40.39300 20.37000
H  45.03600 40.75500 21.97400
H  44.80600 42.10200 20.83000
H  40.84200 41.98900 20.40300
H  40.37700 43.11100 21.77200
H  39.96100 40.42900 22.86900
H  39.42800 40.46700 21.04100
H  38.78600 41.47800 22.27800
H  39.84700 47.07600 25.81800
H  40.50900 46.48100 24.33500
H  41.56700 47.46100 25.45600
H  40.13300 44.63400 30.18300
H  42.35100 44.52500 33.31400
H  41.43100 45.87800 34.01800
H  42.76800 46.25800 33.18500

