158

Mg 17.18200 -1.65700 27.84000
C  16.22300 0.57200 30.34900
C  19.07900 -3.25500 30.01600
C  18.63800 -3.21500 25.19800
C  15.61400 0.55900 25.53500
N  17.73900 -1.19600 29.93800
C  17.08200 -0.41600 30.79000
C  17.40800 -0.70900 32.23900
C  18.56300 -1.74300 32.15100
C  18.42200 -2.19500 30.61600
C  20.00200 -1.09700 32.37800
C  16.10500 -1.24600 32.87200
C  15.97400 -0.89600 34.39300
H  17.15900 -0.30200 35.17600
N  18.57900 -3.14600 27.66100
C  19.16700 -3.74000 28.65600
C  19.89100 -4.89400 28.12000
C  19.68500 -4.90700 26.73200
C  18.87500 -3.71200 26.48000
C  20.31400 -5.97200 29.05800
C  20.16200 -5.91100 25.71200
O  19.92100 -5.73700 24.52100
C  20.88100 -7.14400 26.08100
N  17.09300 -1.40100 25.64500
C  17.84700 -2.18200 24.77200
C  17.64200 -1.72400 23.33000
C  16.47900 -0.62600 23.44200
C  16.33200 -0.49400 24.99000
C  18.97100 -1.47200 22.59100
C  15.14400 -0.89600 22.67900
C  13.86300 -1.39000 23.51600
N  15.98200 0.10400 27.93800
C  15.40300 0.85400 26.94700
C  14.63400 1.91500 27.49700
C  14.93800 1.85700 28.86100
C  15.86500 0.83900 29.02600
C  13.78800 2.91400 26.77200
C  14.59100 2.38000 30.14200
O  13.86300 3.30400 30.46800
C  15.43800 1.56900 31.20500
C  16.28800 2.56700 31.89500
O  17.50100 2.76200 31.77700
O  15.54600 3.07000 32.86500
C  16.15500 3.98800 33.85300
H  19.58000 -3.77400 30.83700
H  19.14800 -3.62900 24.32500
H  15.02500 1.18900 24.86500
H  17.70900 0.24900 32.66400
H  18.35800 -2.66200 32.70000
H  19.88100 -0.09600 32.79200
H  20.53100 -0.96500 31.43500
H  20.59300 -1.65900 33.10200
H  16.12300 -2.30400 32.60800
H  15.24100 -0.77700 32.40300
H  15.63800 -1.78900 34.92100
H  15.20300 -0.13400 34.50400
H  21.37700 -6.15600 28.90400
H  19.70500 -6.85500 28.86100
H  20.35200 -5.68000 30.10800
H  21.77700 -6.93600 26.66500
H  21.20200 -7.52400 25.11100
H  20.18600 -7.89900 26.44900
H  17.14400 -2.55300 22.82700
H  16.89400 0.32400 23.10500
H  18.80300 -0.48100 22.16700
H  19.34900 -2.28600 21.97300
H  19.73800 -1.45000 23.36500
H  15.32300 -1.68500 21.94800
H  14.88800 0.02800 22.16100
H  13.28500 -1.97800 22.80400
H  13.22600 -0.53500 23.74400
H  14.17500 -1.94100 24.40300
H  14.25300 3.36100 25.89300
H  13.57400 3.69900 27.49700
H  12.84700 2.47900 26.43300
H  14.72200 1.11200 31.88800
H  17.09700 4.41300 33.50600
H  16.20600 3.51800 34.83500
H  15.55700 4.89600 33.94200
Mg 35.83600 48.86700 25.39700
C  35.90300 46.64100 28.25300
C  34.76100 51.28500 27.53700
C  35.25400 50.79400 22.64400
C  36.49800 46.09500 23.34600
N  35.28200 48.88200 27.65900
C  35.48300 47.92900 28.67000
C  35.38100 48.55900 30.03900
C  34.86100 50.06300 29.73100
C  34.98900 50.06500 28.15300
C  33.40400 50.37500 30.21300
C  36.79500 48.53500 30.76200
C  36.80400 48.17000 32.28900
H  35.52100 48.14300 33.15400
N  35.18900 50.80800 25.10300
C  34.83500 51.66800 26.14600
C  34.38600 52.88700 25.61100
C  34.44600 52.76000 24.17100
C  34.94600 51.42200 23.87300
C  33.79300 53.98700 26.46000
C  34.07400 53.75500 23.06600
O  34.17300 53.48000 21.91100
C  33.61500 55.11800 23.38300
N  35.92200 48.51500 23.33300
C  35.70400 49.46600 22.37100
C  36.00600 48.85300 20.96500
C  36.44100 47.41500 21.23400
C  36.26300 47.36100 22.76200
C  34.82400 48.99500 19.89300
C  37.91400 47.02600 20.84900
C  38.11200 45.84200 19.93000
N  36.11700 46.82500 25.69000
C  36.44300 45.80600 24.79800
C  36.72800 44.57200 25.42100
C  36.46300 44.89800 26.80700
C  36.12100 46.21500 26.92300
C  37.31500 43.22600 24.81000
C  36.46200 44.33700 28.14200
O  36.74600 43.19400 28.42700
C  36.12300 45.40100 29.15900
C  34.86500 45.05600 29.81500
O  33.85200 44.93900 29.20300
O  35.04300 44.65700 31.18800
C  33.76300 44.23100 31.84000
H  34.47900 52.06200 28.25000
H  35.24000 51.39500 21.73200
H  36.69300 45.09200 22.96100
H  34.65000 47.89600 30.50000
H  35.51200 50.90300 29.97300
H  32.99600 49.50400 30.72700
H  32.81500 50.72600 29.36600
H  33.52400 51.19100 30.92600
H  37.15600 49.54300 30.55700
H  37.39800 47.75000 30.30400
H  37.47200 48.94100 32.67300
H  37.42700 47.28200 32.39200
H  32.71500 53.98300 26.30100
H  34.28000 54.92200 26.18100
H  33.82400 53.77200 27.52800
H  33.74500 55.79200 22.53600
H  34.15100 55.47700 24.26200
H  32.56700 55.04200 23.67300
H  36.85500 49.38800 20.54000
H  35.80600 46.61900 20.84500
H  35.16500 49.31900 18.91000
H  34.00100 49.61600 20.24900
H  34.33600 48.02600 19.78900
H  38.57600 47.13400 21.70800
H  38.34900 47.78700 20.20100
H  39.18400 45.72400 19.77200
H  37.54000 46.07100 19.03100
H  37.65400 44.99700 20.44300
H  36.66100 42.66400 24.14400
H  37.65000 42.61700 25.65000
H  38.22300 43.42200 24.23900
H  36.88600 45.51100 29.93000
H  33.24700 45.09100 32.26700
H  34.12000 43.58000 32.63700
H  33.13100 43.59200 31.22300

