158

Mg 41.26500 8.46800 30.14400
C  43.26200 10.01200 32.76500
C  39.21400 7.27000 32.42400
C  39.75700 6.92500 27.67000
C  43.88100 9.50900 27.94500
N  41.17400 8.75400 32.32400
C  42.02500 9.36400 33.20600
C  41.44800 9.42500 34.62900
C  40.26200 8.29600 34.48600
C  40.17000 8.10500 32.98400
C  40.47400 6.96100 35.20900
C  41.01500 10.84000 35.06600
C  40.45800 11.06400 36.47000
H  41.25900 11.92400 37.41100
N  39.69600 7.25200 30.03400
C  38.88200 6.91600 31.08200
C  37.75800 6.22500 30.57000
C  37.90300 6.16500 29.19100
C  39.13300 6.74000 28.90700
C  36.66100 5.76600 31.44300
C  36.89700 5.49100 28.19700
O  37.03700 5.60400 26.93900
C  35.58900 4.85700 28.70800
N  41.82800 8.18400 28.14200
C  40.91100 7.58300 27.27200
C  41.33100 7.74400 25.78900
C  42.66500 8.52600 25.87700
C  42.82900 8.75000 27.43000
C  41.20700 6.43800 25.02500
C  42.90000 9.77700 25.01400
C  41.94600 11.00600 25.36400
N  43.17100 9.51100 30.26200
C  44.07400 9.79600 29.29600
C  45.23000 10.48300 29.79800
C  44.95100 10.59300 31.17800
C  43.67000 9.95700 31.42300
C  46.36400 11.01000 28.99300
C  45.44300 11.10200 32.39600
O  46.51600 11.67100 32.61700
C  44.38000 10.74100 33.47900
C  45.09000 9.89700 34.52100
O  45.55700 8.80300 34.36900
O  44.77700 10.37900 35.73500
C  45.14200 9.46900 36.85800
H  38.46900 6.88200 33.12100
H  39.19800 6.45400 26.85900
H  44.55700 9.83100 27.15000
H  42.17200 9.08800 35.37000
H  39.31100 8.71200 34.81800
H  39.84000 6.81200 36.08300
H  41.48200 6.91700 35.62100
H  40.34900 6.07000 34.59400
H  40.30600 11.19600 34.31900
H  41.90800 11.46000 34.98900
H  40.33900 10.07700 36.91800
H  39.43400 11.42800 36.39200
H  36.87500 5.84100 32.50900
H  36.59400 4.69700 31.24200
H  35.75800 6.25700 31.08200
H  35.03200 5.57200 29.31300
H  35.88700 3.99900 29.31100
H  35.08500 4.47000 27.82200
H  40.69400 8.39800 25.19400
H  43.37900 7.77800 25.53100
H  40.51400 5.76600 25.53000
H  42.18300 5.96500 24.92000
H  40.83700 6.63500 24.01900
H  42.77000 9.54400 23.95800
H  43.94400 10.07300 25.11500
H  41.14500 10.75700 26.06000
H  41.30700 11.34200 24.54700
H  42.55300 11.84400 25.70700
H  46.34800 10.83300 27.91800
H  47.30000 10.55000 29.30800
H  46.54400 12.05200 29.25600
H  44.09600 11.68500 33.94400
H  46.22300 9.36600 36.94900
H  44.85900 8.44600 36.61300
H  44.77200 9.77300 37.83700
Mg 47.48700 15.78000 28.91200
C  45.73900 15.23300 31.81600
C  50.02500 17.16900 30.58400
C  48.82300 16.78800 25.83000
C  44.88600 14.20300 27.06400
N  47.72400 16.34000 30.97600
C  46.89000 16.02400 31.99100
C  47.47400 16.47800 33.36800
C  48.92800 16.92900 32.94000
C  48.90400 16.82700 31.40000
C  49.32000 18.34700 33.42800
C  47.23300 15.58800 34.63500
C  48.29500 15.53400 35.73700
H  48.15000 16.66800 36.74900
N  49.24300 16.77000 28.27900
C  50.14200 17.24100 29.16500
C  51.30200 17.58500 28.40600
C  51.00600 17.49100 27.04100
C  49.64800 17.00800 26.94300
C  52.63800 17.99200 29.12600
C  51.82200 17.78900 25.85300
O  51.31400 17.65400 24.73100
C  53.29000 18.02800 26.05800
N  46.96800 15.53600 26.78300
C  47.63300 16.11200 25.73800
C  46.97200 15.79100 24.36700
C  45.90900 14.74000 24.71000
C  45.90200 14.77500 26.26700
C  46.61900 17.07400 23.57700
C  46.16700 13.28400 24.08900
C  46.61300 12.10300 25.08600
N  45.82500 14.71600 29.24400
C  44.80800 14.17900 28.43800
C  43.71600 13.69100 29.28400
C  44.09100 14.01100 30.58600
C  45.37700 14.60600 30.54600
C  42.37600 13.14100 28.78600
C  43.57500 13.93400 31.96500
O  42.56400 13.39300 32.44200
C  44.68700 14.71600 32.78300
C  44.08300 15.78600 33.57000
O  43.97700 16.96200 33.26100
O  43.74700 15.29100 34.79900
C  42.91800 16.22800 35.60400
H  50.95400 17.56300 31.00100
H  49.07900 17.23800 24.86900
H  44.11000 13.65000 26.53100
H  46.97300 17.41700 33.60500
H  49.76400 16.25600 33.13100
H  49.37500 19.01100 32.56500
H  50.25800 18.23200 33.97100
H  48.56200 18.78600 34.07600
H  47.08700 14.55000 34.33500
H  46.36000 15.97100 35.16500
H  49.27300 15.70500 35.28700
H  48.22400 14.61000 36.31200
H  53.53000 17.64000 28.60900
H  52.76900 17.46100 30.06900
H  52.66800 19.07000 29.28100
H  53.70800 18.33200 25.09900
H  53.70800 17.09300 26.43000
H  53.33200 18.88100 26.73600
H  47.63800 15.29000 23.66400
H  44.98700 15.14400 24.29200
H  47.09200 17.92100 24.07200
H  45.57000 17.35500 23.67300
H  46.78400 16.98300 22.50300
H  46.99700 13.34700 23.38500
H  45.30200 12.99800 23.49200
H  46.91400 12.50700 26.05300
H  47.49800 11.66800 24.62100
H  45.79900 11.39100 25.22000
H  41.55100 13.59600 29.33500
H  42.35600 12.05200 28.78200
H  42.20800 13.44200 27.75200
H  45.17000 13.98800 33.43300
H  43.18300 17.26800 35.41400
H  43.30400 16.03900 36.60600
H  41.84200 16.05600 35.58200

