158

Mg 41.38700 8.80100 29.95500
C  43.03900 10.05600 32.69800
C  39.09400 7.11200 31.95500
C  39.92500 7.42900 27.22600
C  43.86700 10.07100 27.84100
N  41.14100 8.55200 32.08500
C  41.83200 9.30700 33.03100
C  41.29900 9.03600 34.38700
C  40.19200 7.95100 34.11900
C  40.12100 7.84000 32.63300
C  40.35100 6.58400 34.95800
C  40.92000 10.34900 35.07600
C  40.66100 10.15700 36.57500
H  41.42800 11.07400 37.61700
N  39.64200 7.54000 29.63900
C  38.80100 7.04400 30.58000
C  37.68300 6.43600 29.92800
C  37.82100 6.52700 28.52600
C  39.19000 7.14500 28.42500
C  36.58800 5.65600 30.68900
C  36.83200 6.05800 27.47300
O  37.18700 6.08000 26.32000
C  35.39300 5.50300 27.80300
N  41.85000 8.63200 27.78300
C  41.08500 8.09400 26.89800
C  41.60100 8.38800 25.48300
C  42.92300 9.21500 25.69300
C  42.83700 9.39300 27.17600
C  41.79200 7.12300 24.58800
C  42.97600 10.56000 24.93600
C  44.12100 10.58700 23.92700
N  43.20300 9.83000 30.15800
C  44.08000 10.27500 29.19000
C  45.16900 10.85000 29.94300
C  44.79300 10.80000 31.29000
C  43.57700 10.16100 31.37000
C  46.31000 11.43700 29.24800
C  45.18600 11.22900 32.59800
O  46.22500 11.73900 33.03600
C  44.06500 10.72000 33.56300
C  44.68200 9.78200 34.57400
O  45.20600 8.70100 34.29600
O  44.74800 10.40800 35.79500
C  45.37000 9.58600 36.83700
H  38.51700 6.61200 32.73600
H  39.49200 7.03500 26.30500
H  44.63300 10.45100 27.16200
H  42.12100 8.60600 34.96000
H  39.21800 8.30100 34.46100
H  39.42500 6.46000 35.51900
H  41.10600 6.55100 35.74300
H  40.56500 5.79400 34.23800
H  40.02900 10.79800 34.63600
H  41.70800 11.08900 34.94200
H  40.76300 9.11400 36.87500
H  39.61100 10.36000 36.78400
H  36.62600 5.78900 31.77100
H  36.67700 4.59100 30.47400
H  35.59300 6.06700 30.51700
H  34.88400 5.17900 26.89400
H  34.87400 6.32600 28.29400
H  35.50300 4.57100 28.35700
H  40.84700 9.05800 25.07000
H  43.80100 8.59000 25.53400
H  41.71900 6.19900 25.16100
H  42.64900 7.16600 23.91500
H  40.91600 7.13200 23.94000
H  43.14900 11.35700 25.66000
H  42.04400 10.75500 24.40600
H  44.00000 11.29000 23.10300
H  44.30700 9.65100 23.39900
H  45.06900 10.90200 24.36100
H  46.78200 12.16000 29.91300
H  45.97700 12.03100 28.39700
H  47.05100 10.74000 28.85500
H  43.75000 11.59500 34.13100
H  46.44600 9.68900 36.97300
H  44.93400 8.58800 36.88800
H  45.07600 10.02000 37.79200
Mg 27.24000 50.91200 25.75200
C  25.25600 52.06700 28.40000
C  29.24700 49.59900 28.06200
C  29.25500 49.77400 23.15700
C  25.07300 52.36900 23.49400
N  27.27400 51.00100 27.96600
C  26.35200 51.44600 28.83100
C  26.66000 51.10900 30.27800
C  28.14900 50.54100 30.15500
C  28.19900 50.38700 28.62000
C  29.29500 51.44300 30.80800
C  25.68900 50.07600 30.92200
C  25.05100 50.56500 32.24000
H  26.04100 50.92900 33.38500
N  29.07500 49.86600 25.63400
C  29.75900 49.49300 26.75100
C  30.90200 48.75700 26.27700
C  30.88000 48.71300 24.87500
C  29.75800 49.48400 24.47000
C  32.01100 48.11100 27.17300
C  31.71800 48.00900 23.85600
O  31.72200 48.14400 22.61100
C  32.66000 47.02600 24.40600
N  27.29100 51.19400 23.66500
C  28.10700 50.51400 22.81300
C  27.50500 50.52000 21.36400
C  26.05800 51.18800 21.50000
C  26.15300 51.68000 22.98700
C  28.53400 51.11900 20.37400
C  24.79800 50.37300 21.08600
C  24.69400 48.89500 21.65400
N  25.53300 52.04300 25.88500
C  24.77400 52.53700 24.85000
C  23.66400 53.20600 25.48700
C  23.83400 53.06000 26.81600
C  24.96200 52.30000 27.02700
C  22.57200 53.92600 24.71800
C  23.30900 53.42200 28.04500
O  22.29500 54.05700 28.29600
C  24.06400 52.68900 29.17000
C  24.54900 53.80200 30.01700
O  25.44900 54.55100 29.69100
O  23.82400 53.83000 31.15500
C  24.32000 54.61600 32.21600
H  29.83800 49.04000 28.79100
H  29.53500 49.27900 22.22600
H  24.25400 52.76700 22.89200
H  26.72500 52.11300 30.69600
H  28.31500 49.56200 30.60400
H  30.00000 50.76800 31.29200
H  28.90000 52.18100 31.50700
H  29.90200 51.94200 30.05300
H  26.14500 49.11000 31.13500
H  24.89300 49.93200 30.19100
H  24.56100 49.65000 32.57300
H  24.47500 51.48900 32.18500
H  32.09900 48.58600 28.15000
H  32.97400 48.37500 26.73500
H  32.02500 47.02100 27.19200
H  33.52600 47.53700 24.82600
H  32.99800 46.34000 23.62800
H  32.07700 46.45000 25.12400
H  27.33000 49.48200 21.08200
H  25.87500 52.07000 20.88700
H  29.39200 51.35200 21.00400
H  28.13500 51.98400 19.84500
H  28.74000 50.40700 19.57500
H  24.65000 50.21400 20.01800
H  23.91600 50.92300 21.41300
H  25.63500 48.58100 22.10500
H  24.47900 48.13900 20.89800
H  23.96000 48.75800 22.44700
H  22.91000 54.28200 23.74500
H  22.28900 54.82900 25.25800
H  21.71700 53.25600 24.62700
H  23.50900 51.92500 29.71500
H  24.59400 55.65300 32.02000
H  25.18100 54.14900 32.69300
H  23.59000 54.77500 33.00900

