158

Mg 2.78400 -2.56700 44.80200
C  6.23800 -1.71000 44.51100
C  1.96300 -0.00200 42.72800
C  -0.28600 -3.93300 44.50400
C  3.86600 -5.41400 46.65800
N  4.02900 -1.09500 43.59000
C  5.36300 -0.88200 43.71400
C  5.74700 0.27500 42.83200
C  4.41000 0.91600 42.43000
C  3.36800 -0.03800 43.02300
C  4.11200 2.27700 43.03100
C  6.75700 -0.12500 41.67500
C  7.79500 0.93000 41.39900
H  7.41500 1.77700 40.20700
N  1.03500 -1.98500 43.83200
C  0.90200 -0.86400 43.04000
C  -0.44600 -0.77000 42.52300
C  -1.15300 -1.85700 43.07900
C  -0.16800 -2.66500 43.85000
C  -0.99400 0.31700 41.56900
C  -2.61200 -2.04100 42.96000
O  -3.27400 -1.25200 42.33500
C  -3.38200 -3.09800 43.71000
N  1.80500 -4.45200 45.67200
C  0.56900 -4.79100 45.25800
C  0.25000 -6.22700 45.75000
C  1.64300 -6.71300 46.37400
C  2.50500 -5.52100 46.17300
C  -0.94900 -6.17200 46.74100
C  2.23000 -7.95100 45.59800
C  2.38300 -9.26900 46.38900
N  4.54500 -3.37100 45.47700
C  4.82200 -4.42900 46.29500
C  6.26600 -4.58800 46.54100
C  6.77500 -3.47300 45.95000
C  5.78000 -2.82800 45.25400
C  6.86100 -5.75500 47.24700
C  8.04400 -2.68700 45.78000
O  9.12800 -2.90300 46.22600
C  7.71000 -1.48700 44.86500
C  7.76200 -0.19600 45.64400
O  6.87900 0.07800 46.46100
O  8.74400 0.62100 45.19500
C  8.70000 1.97600 45.73800
H  1.68100 0.92400 42.22200
H  -1.31100 -4.31000 44.47200
H  4.06200 -6.31600 47.24200
H  6.25600 0.95600 43.51400
H  4.29800 0.99700 41.34800
H  3.49500 2.75800 42.27100
H  5.02600 2.74700 43.39300
H  3.56000 2.22100 43.96900
H  6.20800 -0.22100 40.73800
H  7.20900 -1.08300 41.93400
H  8.75100 0.41200 41.32600
H  7.91000 1.60200 42.25000
H  -0.45100 1.26100 41.62200
H  -2.00300 0.62300 41.84300
H  -0.87400 0.00300 40.53200
H  -3.13500 -2.87700 44.74800
H  -3.14900 -4.07900 43.29700
H  -4.44600 -2.87800 43.61400
H  -0.19900 -6.85900 44.98400
H  1.50700 -6.90600 47.43800
H  -1.75600 -6.82400 46.40600
H  -1.35400 -5.16100 46.79200
H  -0.63800 -6.42300 47.75500
H  3.23500 -7.70500 45.25300
H  1.62100 -8.14100 44.71400
H  1.91000 -9.15400 47.36400
H  3.42000 -9.57900 46.51100
H  1.93100 -10.10300 45.85100
H  7.73300 -5.42300 47.81100
H  7.20100 -6.47300 46.50000
H  6.23500 -6.33700 47.92400
H  8.42900 -1.49300 44.04600
H  9.67900 2.16100 46.17800
H  7.93600 2.30500 46.44300
H  8.45200 2.66300 44.92900
Mg 17.01000 51.49800 26.56600
C  19.02500 50.33100 29.11500
C  14.66200 52.55000 28.90700
C  15.07400 52.78400 24.11300
C  19.42600 50.55400 24.23600
N  16.90400 51.54500 28.68400
C  17.88300 51.04600 29.54400
C  17.40900 51.32300 30.98400
C  15.85600 51.48700 30.91400
C  15.74300 51.80200 29.38800
C  14.98300 50.29200 31.29500
C  18.18600 52.45100 31.69200
C  18.14700 52.42400 33.18900
H  17.10800 51.65400 33.90300
N  15.03800 52.58500 26.56300
C  14.26900 52.88200 27.66300
C  13.11700 53.50400 27.10600
C  13.21400 53.71300 25.70900
C  14.48700 52.99300 25.38400
C  12.07300 54.02700 28.14000
C  12.29600 54.28400 24.71900
O  12.52300 54.34500 23.53600
C  11.11400 55.02400 25.20000
N  17.17400 51.56000 24.44600
C  16.22400 52.04900 23.73500
C  16.74700 52.22600 22.25700
C  18.12800 51.55100 22.30300
C  18.27700 51.20500 23.73000
C  15.85400 51.53000 21.12600
C  19.29500 52.44000 21.78600
C  20.16800 51.96000 20.52500
N  18.74800 50.49800 26.59500
C  19.57600 50.12400 25.57300
C  20.80700 49.49900 26.13500
C  20.58900 49.50900 27.60200
C  19.32600 50.14200 27.76000
C  22.02200 49.01200 25.32000
C  21.07200 49.17000 28.93000
O  22.04300 48.53900 29.30300
C  20.10700 49.69500 29.88700
C  19.61300 48.56500 30.62400
O  18.90400 47.66000 30.17400
O  19.89100 48.73700 31.96600
C  19.39500 47.85800 32.97600
H  14.05000 53.00700 29.68800
H  14.60600 53.33500 23.29500
H  20.23300 50.29900 23.54600
H  17.64700 50.44100 31.57900
H  15.63500 52.39700 31.47300
H  14.07700 50.64500 31.78800
H  15.64200 49.62300 31.84800
H  14.55700 49.88200 30.37900
H  17.84900 53.45800 31.44400
H  19.19300 52.45900 31.27600
H  18.10500 53.43700 33.59100
H  19.08500 51.93500 33.44900
H  12.24500 53.72800 29.17400
H  11.13000 53.57100 27.83800
H  12.10400 55.11700 28.13700
H  10.37000 55.27200 24.44300
H  11.30900 56.00200 25.64000
H  10.59400 54.33600 25.86600
H  16.66600 53.30600 22.13300
H  18.18100 50.60100 21.77200
H  15.50800 52.33200 20.47400
H  15.01700 51.01200 21.59300
H  16.35500 50.88600 20.40300
H  19.91500 52.60500 22.66700
H  18.97300 53.46700 21.61100
H  20.36000 52.73800 19.78600
H  19.58000 51.20200 20.00700
H  21.16500 51.61600 20.80000
H  22.25200 49.65900 24.47300
H  21.93300 47.95900 25.05300
H  22.91900 49.17800 25.91700
H  20.47900 50.49000 30.53400
H  18.60700 47.18700 32.63500
H  19.07200 48.39800 33.86700
H  20.20500 47.22500 33.34100

