158

Mg 23.14600 -7.70500 45.87600
C  25.67200 -5.37200 44.74800
C  21.10100 -6.20500 43.54100
C  20.94900 -10.21500 46.41600
C  25.67000 -9.67000 47.35100
N  23.43900 -6.07200 44.25900
C  24.46900 -5.15900 44.07600
C  24.06900 -4.05400 43.05000
C  22.58100 -4.29300 42.84700
C  22.33900 -5.59700 43.55200
C  21.74900 -3.06600 43.31900
C  24.92300 -4.12400 41.66200
C  25.76000 -2.85400 41.31600
H  26.38000 -2.80300 39.94200
N  21.19800 -8.13400 45.15400
C  20.56200 -7.36000 44.24500
C  19.30000 -7.98800 44.00900
C  19.26300 -9.10700 44.82900
C  20.46300 -9.18500 45.60900
C  18.29100 -7.38800 43.04800
C  18.12700 -10.04100 44.90700
O  17.16200 -9.83500 44.13200
C  17.97000 -11.04600 46.04300
N  23.24200 -9.57500 47.05700
C  22.19400 -10.43700 47.01400
C  22.61300 -11.81000 47.59000
C  24.06800 -11.54200 48.09300
C  24.36900 -10.24300 47.43200
C  21.63700 -12.51000 48.54700
C  25.10000 -12.68800 47.87400
C  25.16600 -13.63900 48.98000
N  25.16800 -7.58800 46.12800
C  26.06900 -8.46200 46.70000
C  27.38200 -7.88900 46.65400
C  27.29300 -6.69800 45.93500
C  25.94400 -6.55500 45.56700
C  28.66500 -8.58200 47.14700
C  28.01400 -5.56500 45.57600
O  29.17400 -5.26500 45.81100
C  27.02100 -4.58900 44.74600
C  26.95300 -3.28200 45.42300
O  26.77000 -3.15700 46.58000
O  27.25300 -2.25300 44.52800
C  27.48000 -0.89300 45.10300
H  20.49300 -5.69100 42.79500
H  20.37400 -11.14200 46.46500
H  26.46100 -10.21600 47.87100
H  24.20800 -3.04700 43.44500
H  22.44000 -4.38500 41.77100
H  22.33800 -2.29400 43.81600
H  21.04600 -3.40500 44.08000
H  21.22200 -2.65600 42.45800
H  24.35600 -4.42400 40.78100
H  25.69300 -4.89200 41.74000
H  26.50300 -2.71200 42.10000
H  24.98800 -2.08700 41.38200
H  18.02200 -8.14500 42.31100
H  18.64100 -6.54200 42.45700
H  17.41100 -7.07000 43.60600
H  18.17000 -10.61700 47.02500
H  18.44500 -11.97000 45.71300
H  16.90600 -11.25300 46.15800
H  22.77100 -12.43000 46.70800
H  24.15400 -11.33600 49.16000
H  21.68700 -13.58400 48.36700
H  20.65400 -12.08000 48.35400
H  21.94700 -12.42700 49.58800
H  26.07300 -12.24200 47.67100
H  24.88000 -13.26900 46.97900
H  24.13900 -13.88200 49.25200
H  25.73500 -13.31500 49.85200
H  25.64300 -14.56800 48.66700
H  28.61900 -9.04700 48.13200
H  29.47400 -7.85300 47.11500
H  28.98900 -9.32100 46.41500
H  27.56100 -4.46200 43.80700
H  26.62000 -0.46600 45.62000
H  27.45900 -0.21400 44.25100
H  28.44700 -0.77200 45.59200
Mg 47.87000 14.51500 28.84400
C  45.73400 14.52300 31.42500
C  49.98500 16.66400 30.64800
C  49.86300 14.80200 26.17500
C  45.44600 13.06400 26.66800
N  47.87100 15.56200 30.81700
C  46.91700 15.24100 31.80600
C  47.41200 15.82000 33.18400
C  48.72000 16.66300 32.82800
C  48.79900 16.35000 31.31400
C  48.64900 18.16400 33.06400
C  47.55600 14.71400 34.29500
C  46.84700 15.18600 35.64600
H  47.02700 16.68100 36.06000
N  49.74500 15.47000 28.51400
C  50.41200 16.25100 29.39500
C  51.65900 16.60000 28.80800
C  51.72200 16.03500 27.46800
C  50.41500 15.38200 27.30800
C  52.69800 17.45100 29.51800
C  52.77200 16.07000 26.47600
O  52.77000 15.37700 25.48200
C  54.02000 16.86800 26.60900
N  47.66600 14.02500 26.68300
C  48.65000 14.17500 25.83600
C  48.27300 13.88200 24.37400
C  47.04300 13.04800 24.65800
C  46.64000 13.39300 26.10300
C  47.89900 15.12400 23.49600
C  47.14300 11.48700 24.46800
C  48.38000 10.91100 25.24600
N  45.97100 13.91000 28.94700
C  45.10000 13.33700 28.05900
C  43.85300 12.97600 28.76200
C  43.99500 13.48200 30.02900
C  45.34400 13.97800 30.12600
C  42.73300 12.17300 28.21000
C  43.40800 13.59300 31.33700
O  42.27700 13.26300 31.66700
C  44.43600 14.28400 32.24500
C  43.81600 15.56400 32.83000
O  43.53200 16.55200 32.16100
O  43.77800 15.41900 34.19900
C  43.33500 16.67900 34.85500
H  50.70000 17.21100 31.26700
H  50.38700 14.91000 25.22300
H  44.82000 12.44700 26.02000
H  46.56900 16.41200 33.53900
H  49.56800 16.19100 33.32400
H  48.88800 18.64500 32.11500
H  49.42100 18.49600 33.75800
H  47.70800 18.62400 33.36700
H  48.55600 14.49000 34.66500
H  47.09000 13.90800 33.72700
H  47.16600 14.58600 36.49900
H  45.76900 15.03500 35.60000
H  52.38900 17.88800 30.46700
H  53.02400 18.31300 28.93600
H  53.50000 16.74700 29.73600
H  53.75300 17.91300 26.76900
H  54.50600 16.81400 25.63500
H  54.66500 16.52700 27.41900
H  49.05200 13.26700 23.92100
H  46.34400 13.36700 23.88500
H  46.86700 15.47300 23.51500
H  48.08900 14.73600 22.49500
H  48.54500 15.94000 23.82100
H  47.16600 11.25600 23.40300
H  46.31900 10.96400 24.95300
H  49.07700 10.63200 24.45500
H  48.09500 10.16900 25.99200
H  48.93400 11.67000 25.79800
H  42.98200 11.91400 27.18100
H  41.80000 12.73700 28.18700
H  42.50300 11.32500 28.85500
H  44.61300 13.58900 33.06600
H  43.53300 16.53200 35.91700
H  42.24600 16.72000 34.83600
H  43.74400 17.63100 34.51700

