158

Mg 1.86400 8.58000 26.61400
C  2.03500 10.77000 29.45400
C  1.55600 5.99700 28.78200
C  1.74200 6.62200 23.97100
C  1.91500 11.45500 24.64600
N  1.94300 8.43700 28.72000
C  1.91300 9.44800 29.65700
C  1.75100 8.84500 31.08500
C  2.01500 7.36500 30.84900
C  1.84100 7.23300 29.38600
C  3.35300 6.80100 31.44800
C  0.25300 9.10500 31.56800
C  0.16900 9.59700 33.03300
H  1.14800 8.93800 33.91900
N  1.54300 6.54700 26.41900
C  1.39400 5.65400 27.44900
C  1.25900 4.36100 26.88200
C  1.54000 4.49300 25.49600
C  1.64400 5.94100 25.25800
C  0.86800 3.09800 27.64800
C  1.50300 3.42900 24.39200
O  1.72900 3.73900 23.22600
C  1.32400 1.93600 24.72300
N  1.94500 9.02400 24.61900
C  1.77700 7.99400 23.67700
C  1.97900 8.56600 22.27700
C  1.86600 10.12600 22.46800
C  1.95400 10.24500 24.00600
C  3.18000 8.10800 21.47100
C  0.52700 10.66100 21.90500
C  0.35300 12.14400 21.59800
N  2.09000 10.72500 26.90500
C  2.08200 11.75700 26.03000
C  2.20600 12.99100 26.66500
C  2.08100 12.68800 28.01700
C  2.04300 11.25100 28.10500
C  2.35000 14.35100 26.06700
C  2.05600 13.24600 29.39200
O  2.07400 14.40200 29.80800
C  1.86600 11.98200 30.36300
C  2.91200 12.06500 31.49300
O  4.12200 12.01100 31.33200
O  2.22600 12.25600 32.64900
C  3.08300 12.62400 33.81800
H  1.44800 5.22300 29.54600
H  1.56900 6.04300 23.06200
H  1.94500 12.28900 23.94200
H  2.56800 9.19600 31.71500
H  1.26400 6.74600 31.33900
H  3.74900 6.03500 30.78200
H  3.25700 6.48300 32.48700
H  3.94400 7.71700 31.42200
H  -0.28200 8.16600 31.42700
H  -0.32800 9.83500 31.00400
H  -0.81000 9.23400 33.34500
H  0.05900 10.67300 33.17000
H  -0.10400 2.67600 27.39300
H  0.86500 3.33700 28.71200
H  1.56800 2.31900 27.34700
H  2.04100 1.35500 25.30400
H  1.29000 1.42000 23.76300
H  0.37600 1.76100 25.23200
H  1.05900 8.19800 21.82300
H  2.70100 10.65400 22.00700
H  3.70300 7.49200 22.20300
H  3.87800 8.88900 21.16900
H  2.80400 7.39200 20.74100
H  -0.28600 10.41000 22.58600
H  0.35000 10.08200 20.99900
H  -0.30700 12.21400 20.73300
H  1.31700 12.64800 21.53300
H  -0.05700 12.69400 22.44500
H  1.63300 15.04100 26.51200
H  2.27100 14.39600 24.98100
H  3.33400 14.73600 26.33800
H  0.85300 11.92900 30.76100
H  3.64600 13.53800 33.63000
H  3.80000 11.85500 34.10400
H  2.36500 12.95400 34.56900
Mg 47.67000 34.79400 26.81200
C  45.97800 33.15000 29.22100
C  47.93000 37.64000 28.71600
C  49.22300 36.52600 24.12400
C  47.07000 32.12300 24.59700
N  46.89900 35.36400 28.69900
C  46.51300 34.43000 29.63500
C  46.63500 35.02500 31.00300
C  46.74000 36.62200 30.69500
C  47.29300 36.51100 29.30900
C  45.36000 37.34500 30.68300
C  47.74400 34.49100 31.85500
C  47.77900 34.85000 33.37100
H  46.66700 35.57900 34.07200
N  48.21400 36.86700 26.41700
C  48.44800 37.79100 27.36100
C  49.01300 39.02400 26.89300
C  49.48200 38.66500 25.56800
C  48.97600 37.31800 25.25700
C  49.15700 40.31500 27.61900
C  50.29900 39.56300 24.56800
O  50.54900 39.24100 23.39200
C  50.84500 40.95300 25.04500
N  48.02400 34.36600 24.61400
C  48.68200 35.21100 23.77800
C  48.97000 34.50200 22.41900
C  48.42300 33.01500 22.63700
C  47.84600 33.11300 24.07400
C  48.35800 35.21900 21.14400
C  49.57000 31.95300 22.60600
C  49.82800 31.14100 21.28500
N  46.79100 32.89300 26.82600
C  46.47000 31.98200 25.89300
C  45.58400 30.96900 26.45100
C  45.38100 31.32300 27.76200
C  46.14000 32.51000 27.96700
C  45.05200 29.76800 25.85500
C  44.75100 31.01300 29.07100
O  44.10900 30.04200 29.50300
C  44.91500 32.31100 29.90100
C  45.36200 31.96300 31.30300
O  46.45500 31.48700 31.56300
O  44.27100 32.18400 32.17200
C  44.53900 31.53500 33.50500
H  48.14400 38.38000 29.49100
H  50.01000 36.90700 23.46900
H  46.86800 31.28700 23.92400
H  45.72000 34.88400 31.57800
H  47.38900 37.21400 31.34100
H  44.88300 37.25800 29.70700
H  45.56000 38.40600 30.83200
H  44.61700 36.99700 31.40100
H  48.58700 34.96900 31.35600
H  47.98600 33.45200 31.63400
H  48.66400 35.46900 33.52000
H  47.86900 33.95300 33.98300
H  48.43100 40.24500 28.42900
H  48.90700 41.13300 26.94400
H  50.12800 40.46700 28.09100
H  49.95200 41.57500 25.10200
H  51.52000 41.44100 24.34100
H  51.41400 40.76700 25.95600
H  50.05200 34.41900 22.31100
H  47.54400 32.81700 22.02400
H  47.42700 34.70900 20.89800
H  48.94600 34.99100 20.25500
H  48.05000 36.21100 21.47600
H  49.31600 31.17900 23.33000
H  50.45600 32.45900 22.98900
H  49.27400 31.44700 20.39700
H  49.57400 30.10700 21.51900
H  50.89100 31.30900 21.11200
H  44.70200 30.06300 24.86600
H  44.17700 29.42800 26.40700
H  45.77900 28.96100 25.94100
H  43.96300 32.82800 30.02800
H  43.56000 31.35600 33.95000
H  45.17600 32.24500 34.03200
H  45.01900 30.57600 33.31200

