158

Mg -1.86400 17.27100 27.33800
C  -2.32600 15.19800 30.16300
C  -2.38200 19.97100 29.48100
C  -1.56600 19.24300 24.74500
C  -2.02800 14.46700 25.28100
N  -2.25900 17.50500 29.61800
C  -2.32000 16.54400 30.55700
C  -2.28600 17.16400 31.98600
C  -2.51400 18.67800 31.70800
C  -2.42000 18.72800 30.17600
C  -3.84500 19.24200 32.21100
C  -0.98700 16.89400 32.84900
C  -0.97400 16.31800 34.23400
H  0.17900 16.65500 35.26500
N  -1.84400 19.34900 27.09900
C  -2.07500 20.32300 28.07300
C  -2.00500 21.57600 27.46300
C  -1.58600 21.36400 26.14500
C  -1.66500 19.96400 25.93100
C  -2.15000 22.83400 28.23500
C  -1.22400 22.36200 25.09300
O  -0.79600 22.07500 23.96000
C  -1.14000 23.81400 25.30900
N  -1.88400 16.86300 25.30400
C  -1.66200 17.90800 24.42100
C  -1.74600 17.39700 22.95100
C  -1.42200 15.84300 23.17800
C  -1.87600 15.70900 24.66600
C  -3.03100 17.63100 22.12600
C  0.07800 15.53900 22.87300
C  1.09600 15.95900 23.95300
N  -2.04600 15.28200 27.60900
C  -2.24800 14.25000 26.67000
C  -2.38700 12.94100 27.36300
C  -2.30700 13.31900 28.70700
C  -2.20700 14.71400 28.81900
C  -2.60900 11.55600 26.81900
C  -2.46600 12.70200 30.02500
O  -2.66500 11.53500 30.36000
C  -2.48900 13.95000 30.98100
C  -1.40100 13.66100 31.94000
O  -0.19300 13.71000 31.74800
O  -2.01200 13.19900 33.04000
C  -1.09400 12.28300 33.85100
H  -2.43500 20.80500 30.18400
H  -1.59500 19.96600 23.92700
H  -1.87600 13.56000 24.69300
H  -3.20300 16.83400 32.47500
H  -1.75900 19.32200 32.15800
H  -4.31500 19.90200 31.48300
H  -3.66900 19.85100 33.09800
H  -4.62700 18.51400 32.43000
H  -0.33200 17.76400 32.81300
H  -0.37800 16.17200 32.30400
H  -0.92800 15.24800 34.03300
H  -1.94800 16.54400 34.66700
H  -2.69500 22.69100 29.16800
H  -2.72800 23.57100 27.67800
H  -1.17400 23.24000 28.50100
H  -0.19100 23.90500 25.83700
H  -1.93900 24.28400 25.88300
H  -0.92400 24.36500 24.39400
H  -0.90600 17.83600 22.41200
H  -2.08700 15.18800 22.61500
H  -3.81900 18.29900 22.47300
H  -3.56200 16.69000 21.98600
H  -2.70200 18.12800 21.21400
H  0.34700 16.23100 22.07400
H  0.24300 14.54000 22.46900
H  0.62700 16.21100 24.90400
H  1.75500 16.76300 23.62500
H  1.77200 15.10500 23.92200
H  -1.75800 11.21400 26.23000
H  -3.52900 11.37800 26.26100
H  -2.49900 10.94500 27.71400
H  -3.46500 13.85000 31.45700
H  -0.38000 11.70300 33.26700
H  -1.69800 11.65400 34.50400
H  -0.49100 12.93400 34.48400
Mg 47.47400 25.30300 28.19900
C  48.64700 27.69700 30.59400
C  46.24600 23.45700 30.79000
C  47.21800 22.77300 26.06500
C  49.57400 26.96500 25.87200
N  47.55000 25.52800 30.40800
C  47.75300 26.71500 31.13000
C  47.33700 26.61900 32.64400
C  46.83600 25.08900 32.74500
C  46.90400 24.65100 31.23200
C  47.76600 24.06400 33.51700
C  46.41300 27.68600 33.28300
C  46.78700 28.09600 34.73900
H  45.81400 28.45500 35.79200
N  46.70000 23.39900 28.38700
C  46.20900 22.80500 29.49900
C  45.64400 21.50300 29.22900
C  45.83800 21.28300 27.80000
C  46.59700 22.48100 27.31900
C  45.14600 20.49600 30.26600
C  45.43100 20.02700 26.93300
O  45.55300 19.96800 25.68000
C  44.61500 19.02900 27.62300
N  48.17900 24.93500 26.26700
C  47.88100 23.88300 25.54200
C  48.41100 23.96400 24.15100
C  48.86200 25.42200 24.00000
C  48.81000 25.79500 25.46500
C  49.49100 22.86900 23.81900
C  48.03000 26.40500 23.10400
C  48.54900 26.44500 21.70500
N  48.83000 27.09300 28.10800
C  49.51600 27.63200 27.10800
C  50.32600 28.76600 27.62500
C  49.99400 28.86600 29.00400
C  49.06900 27.80100 29.25000
C  51.33700 29.58700 26.75300
C  50.21100 29.54900 30.23700
O  50.74800 30.62600 30.42300
C  49.29800 28.87000 31.30800
C  50.18900 28.39100 32.44700
O  50.95700 27.41500 32.43800
O  49.98400 29.20600 33.52900
C  50.71800 28.85000 34.74500
H  45.52300 22.99300 31.46400
H  47.06700 21.92500 25.39400
H  49.98500 27.55100 25.04700
H  48.25100 26.64900 33.23700
H  45.80100 24.99800 33.07500
H  48.50000 24.60000 34.11900
H  48.26900 23.33500 32.88300
H  47.12200 23.57300 34.24700
H  45.38900 27.31300 33.31700
H  46.30400 28.59100 32.68600
H  47.58300 28.84000 34.69700
H  47.22800 27.23500 35.24000
H  44.22700 19.97600 29.99700
H  45.06100 20.92700 31.26300
H  45.86800 19.68100 30.22400
H  45.22700 18.78100 28.49000
H  44.45300 18.14900 27.00200
H  43.69100 19.58900 27.77100
H  47.52300 23.66300 23.59600
H  49.92100 25.38200 23.74100
H  50.41400 23.35700 23.50600
H  49.09200 22.14600 23.10800
H  49.68000 22.27200 24.71100
H  47.86800 27.37900 23.56600
H  47.04000 25.95100 23.14300
H  48.71000 27.51900 21.61100
H  47.74800 26.08300 21.06100
H  49.47700 25.92400 21.47300
H  50.81700 30.23100 26.04300
H  52.06300 28.88000 26.35100
H  51.86700 30.21100 27.47300
H  48.58900 29.59200 31.71300
H  51.72700 28.48200 34.55800
H  50.19900 28.13500 35.38300
H  50.78900 29.75800 35.34400

