158

Mg 1.36600 8.47500 26.90400
C  2.01000 10.20400 29.98700
C  1.37400 5.49400 28.72600
C  1.16600 6.88600 24.00300
C  2.07300 11.47600 25.27300
N  1.75800 7.94600 29.11500
C  1.74300 8.82000 30.18200
C  1.35700 8.20400 31.48900
C  1.35500 6.64400 31.10600
C  1.48600 6.66500 29.57700
C  2.41100 5.84400 31.92400
C  -0.06700 8.73000 31.96900
C  -0.38800 8.52100 33.45100
H  0.77000 8.02700 34.28900
N  1.37600 6.47600 26.42200
C  1.36600 5.37300 27.29500
C  1.20500 4.22200 26.61400
C  0.90600 4.56600 25.27900
C  1.13400 6.02900 25.16300
C  1.16100 2.90100 27.27000
C  0.48000 3.65600 24.09400
O  0.16600 4.09200 22.97000
C  0.51800 2.16400 24.24300
N  1.82300 9.04300 24.96300
C  1.55000 8.22800 23.92600
C  1.50900 8.99000 22.59600
C  1.70200 10.45600 23.03100
C  1.83600 10.32900 24.53600
C  2.63100 8.52200 21.58800
C  0.48100 11.37300 22.63000
C  -0.89200 10.95900 23.17100
N  1.85500 10.47300 27.48400
C  2.06200 11.60400 26.71200
C  2.32900 12.80300 27.56200
C  2.29300 12.31600 28.86700
C  2.01900 10.88100 28.73100
C  2.44300 14.24000 27.17200
C  2.33800 12.62600 30.26700
O  2.71300 13.68300 30.79300
C  2.16500 11.31400 31.02400
C  3.31100 11.12200 32.01400
O  4.45800 10.99200 31.71300
O  2.83100 11.39600 33.27900
C  3.87900 11.31300 34.31900
H  1.29200 4.59700 29.34200
H  0.89600 6.31500 23.11200
H  2.34500 12.42800 24.81100
H  2.15400 8.33900 32.22000
H  0.38600 6.25700 31.42200
H  3.27600 6.48500 32.09600
H  2.77600 4.98200 31.36600
H  1.89600 5.49200 32.81800
H  -0.80400 8.03400 31.56600
H  -0.27300 9.78700 31.80300
H  -1.24400 7.85600 33.57200
H  -0.71300 9.42500 33.96700
H  0.24300 2.33200 27.12600
H  1.43500 2.79700 28.32000
H  1.80300 2.28100 26.64500
H  1.49800 1.87300 24.62200
H  0.33300 1.63300 23.31000
H  -0.26500 1.88600 24.94900
H  0.53100 8.78700 22.16100
H  2.56200 10.93200 22.56200
H  3.19900 9.31400 21.09900
H  2.29100 7.94500 20.72800
H  3.25100 7.78700 22.10100
H  0.39900 11.37200 21.54400
H  0.59200 12.41500 22.93000
H  -0.62600 10.35300 24.03800
H  -1.39100 10.41800 22.36700
H  -1.48100 11.76700 23.60400
H  1.73100 14.89500 27.67600
H  2.34400 14.28900 26.08800
H  3.43900 14.61700 27.40200
H  1.30600 11.31200 31.69500
H  4.20700 12.31800 34.58400
H  4.72100 10.70000 33.99600
H  3.46200 10.84800 35.21200
Mg 17.78700 -1.88800 27.91000
C  16.65900 0.11400 30.59100
C  19.90400 -3.51600 29.88800
C  19.19800 -3.17000 25.07100
C  16.18500 0.60500 25.72600
N  18.20200 -1.67200 29.94000
C  17.65600 -0.87800 30.92300
C  18.20400 -1.23600 32.31800
C  19.39900 -2.15800 31.98600
C  19.12400 -2.53800 30.49900
C  20.85700 -1.62200 32.31400
C  17.11800 -2.03000 33.20100
C  17.24200 -1.71700 34.73300
H  18.46200 -0.94800 35.37800
N  19.18500 -3.32600 27.61600
C  19.93900 -3.94300 28.54200
C  20.74700 -4.99600 27.97700
C  20.45200 -4.95800 26.59600
C  19.57900 -3.80000 26.35600
C  21.49800 -5.98100 28.77800
C  21.01500 -5.91300 25.55300
O  20.64000 -5.95800 24.35900
C  22.07100 -6.93300 25.82700
N  17.75600 -1.34100 25.76900
C  18.42000 -2.03600 24.81600
C  18.25300 -1.42400 23.44000
C  17.17700 -0.40500 23.67100
C  16.97500 -0.35500 25.12900
C  19.57600 -0.95000 22.75100
C  15.80200 -0.59600 23.03300
C  15.82300 -0.38000 21.52500
N  16.53300 -0.09900 28.05900
C  15.93700 0.70600 27.11300
C  15.11000 1.73000 27.78700
C  15.35900 1.55400 29.12500
C  16.25300 0.43500 29.27800
C  14.18600 2.79100 27.09900
C  15.14900 2.06100 30.43500
O  14.48500 3.00700 30.79000
C  15.88600 1.11900 31.43100
C  16.84900 1.95100 32.23300
O  17.98700 2.34200 31.96700
O  16.13400 2.28100 33.38700
C  16.83800 3.15300 34.34600
H  20.70600 -3.95100 30.48800
H  19.68200 -3.62000 24.20100
H  15.63600 1.38800 25.19900
H  18.63000 -0.33500 32.75900
H  19.30100 -3.03900 32.62100
H  20.97400 -0.62900 32.74800
H  21.50400 -1.67400 31.43800
H  21.31700 -2.22700 33.09500
H  17.30500 -3.08300 32.99200
H  16.16000 -1.78900 32.74000
H  17.02000 -2.62100 35.30100
H  16.34200 -1.12900 34.91500
H  21.41700 -7.02800 28.48500
H  21.21800 -6.12300 29.82100
H  22.52900 -5.62800 28.79800
H  22.58000 -7.25600 24.91900
H  21.62400 -7.88600 26.11100
H  22.67300 -6.52000 26.63600
H  17.92800 -2.29600 22.87200
H  17.53000 0.55100 23.28500
H  19.63400 0.13700 22.81800
H  19.64500 -1.20500 21.69400
H  20.46700 -1.27700 23.28700
H  15.05700 0.13000 23.35800
H  15.42600 -1.58100 23.30700
H  16.81000 -0.01500 21.24100
H  15.06200 0.34200 21.23000
H  15.69800 -1.32700 20.99900
H  14.26500 2.88100 26.01500
H  14.56000 3.71900 27.52900
H  13.12900 2.78100 27.36700
H  15.16200 0.59900 32.05800
H  16.62000 3.02800 35.40700
H  16.55100 4.19100 34.18100
H  17.91200 3.17800 34.16300

