158

Mg 46.99400 14.82300 27.15400
C  45.17300 15.04800 30.14300
C  49.26800 17.03900 28.39500
C  48.35000 15.07200 23.99900
C  44.41300 12.85400 25.76200
N  47.17400 15.90300 29.01500
C  46.30200 15.90500 30.08400
C  46.91300 16.59900 31.35000
C  48.11000 17.37100 30.65800
C  48.19500 16.72600 29.25500
C  47.91100 18.87900 30.66000
C  47.38400 15.63500 32.49600
C  47.02000 16.10900 33.95500
H  48.06400 15.77700 35.01800
N  48.68300 15.70100 26.39900
C  49.54200 16.48400 27.09700
C  50.62600 16.94500 26.24400
C  50.40500 16.36800 24.96100
C  49.06600 15.69400 25.08100
C  51.78100 17.94700 26.69500
C  51.05100 16.75200 23.62100
O  50.63100 16.50800 22.52000
C  52.32400 17.51400 23.70700
N  46.44700 14.08000 25.17100
C  47.19400 14.29800 24.09600
C  46.66000 13.55300 22.84500
C  45.41500 12.80300 23.40600
C  45.42000 13.17900 24.90000
C  46.36100 14.42000 21.65300
C  45.42100 11.24300 23.22500
C  46.46800 10.48700 24.11000
N  45.10900 14.07500 27.73800
C  44.29000 13.26600 27.11000
C  43.17400 12.98500 28.09300
C  43.52700 13.61800 29.25700
C  44.67000 14.32100 29.02100
C  41.95500 12.10800 27.83000
C  43.17500 13.78100 30.61300
O  42.13300 13.40100 31.23700
C  44.22200 14.67600 31.29800
C  43.44700 15.84000 31.92200
O  43.20200 16.84300 31.29600
O  43.14900 15.57900 33.22400
C  42.72100 16.76600 34.04200
H  50.07500 17.66000 28.79100
H  48.84900 15.02500 23.02900
H  43.70700 12.06500 25.49500
H  46.26600 17.33400 31.82900
H  49.09000 17.15100 31.08200
H  47.85900 19.14900 29.60500
H  48.66400 19.33100 31.30500
H  46.95400 19.19200 31.07900
H  48.44900 15.40600 32.47900
H  46.93800 14.64300 32.44200
H  46.11500 15.56600 34.22800
H  46.74800 17.16500 33.94700
H  52.70800 17.37400 26.71100
H  51.64600 18.24700 27.73400
H  51.83500 18.85700 26.09800
H  52.21700 18.58900 23.84800
H  52.73000 17.36000 22.70800
H  53.10100 17.03600 24.30500
H  47.37800 12.79700 22.52900
H  44.49000 13.10600 22.91700
H  47.08000 14.07700 20.90900
H  46.37400 15.45700 21.99000
H  45.37900 14.24900 21.21400
H  45.81000 10.98100 22.24200
H  44.48800 10.73700 23.47700
H  46.10900 9.68800 24.75900
H  46.99700 11.15300 24.79200
H  47.27000 10.00500 23.55200
H  42.42300 11.35600 27.19500
H  41.30600 12.72100 27.20500
H  41.62300 11.64800 28.76100
H  44.67000 14.04500 32.06600
H  42.34300 16.52900 35.03600
H  41.97600 17.36900 33.52300
H  43.52500 17.46700 34.26700
Mg 8.87700 47.55000 27.56700
C  6.68500 47.16300 30.22800
C  11.27100 48.42600 29.75300
C  10.73500 48.46300 25.02000
C  5.94700 47.52800 25.40300
N  8.88200 47.74400 29.73100
C  7.97300 47.48200 30.65200
C  8.51100 47.60500 32.06200
C  9.95200 48.09300 31.94400
C  10.02800 48.16600 30.38200
C  10.35000 49.46600 32.67200
C  8.42700 46.32300 32.95400
C  9.16700 46.22800 34.34200
H  8.50000 45.64100 35.55900
N  10.80900 48.14700 27.36000
C  11.68300 48.38400 28.39100
C  12.96100 48.81100 27.88200
C  12.86300 48.72600 26.46400
C  11.46900 48.37000 26.17700
C  14.16200 48.99000 28.73200
C  13.91200 48.94000 25.32400
O  13.80700 48.67500 24.13100
C  15.21000 49.53200 25.61300
N  8.39300 47.88700 25.57600
C  9.36700 48.34100 24.74200
C  8.81200 48.73700 23.33700
C  7.28200 48.31200 23.41500
C  7.18100 47.89800 24.83100
C  8.99000 50.24100 23.05300
C  6.97900 47.02400 22.52500
C  6.57300 47.37200 21.09300
N  6.73000 47.24700 27.71200
C  5.71000 47.28400 26.77900
C  4.44100 46.91000 27.37300
C  4.78900 46.79900 28.71700
C  6.17700 47.11200 28.86300
C  3.24100 46.72800 26.58000
C  4.25400 46.48700 30.01200
O  3.13200 46.11200 30.36900
C  5.42200 46.65900 30.98600
C  5.70300 45.22300 31.44300
O  6.47800 44.42300 30.92700
O  4.97200 45.01300 32.61100
C  5.15500 43.70600 33.33100
H  11.98700 48.68500 30.53600
H  11.41000 48.87400 24.26600
H  5.05000 47.58400 24.78200
H  8.02900 48.41800 32.60400
H  10.68800 47.37500 32.30700
H  10.12000 50.28100 31.98500
H  11.41700 49.31700 32.83300
H  9.74600 49.68400 33.55400
H  8.75800 45.45600 32.38200
H  7.37900 46.21100 33.23000
H  9.40700 47.24300 34.66000
H  10.10200 45.77400 34.01300
H  14.94600 48.31300 28.39300
H  14.00100 48.79400 29.79200
H  14.53600 50.00400 28.59200
H  15.12100 50.37900 26.29500
H  15.55200 49.90400 24.64700
H  15.90800 48.92400 26.18900
H  9.30400 48.07300 22.62700
H  6.67800 49.21700 23.34500
H  9.70400 50.61800 23.78600
H  8.06600 50.80400 23.18300
H  9.46200 50.53200 22.11500
H  6.22700 46.38900 22.99200
H  7.83100 46.34400 22.53200
H  7.29300 46.87100 20.44700
H  6.40300 48.41400 20.82300
H  5.68100 46.82800 20.78200
H  3.42600 46.10100 25.70800
H  2.92200 47.72800 26.28700
H  2.52200 46.27200 27.26000
H  5.16200 47.24100 31.87000
H  6.12500 43.78500 33.82200
H  5.31700 42.86900 32.65100
H  4.26900 43.57200 33.95200

