158

Mg -3.22600 16.69500 27.03400
C  -3.63000 14.79700 30.03100
C  -4.23300 19.46000 29.01100
C  -3.49700 18.60900 24.30600
C  -3.50300 13.82400 25.23900
N  -3.62400 17.09700 29.37100
C  -3.66100 16.12300 30.38700
C  -3.73000 16.78000 31.74400
C  -4.11600 18.23000 31.35500
C  -4.04800 18.30000 29.81300
C  -5.41300 18.69300 31.94600
C  -2.39500 16.53900 32.45700
C  -1.89200 17.51900 33.54100
H  -1.40300 16.91300 34.98800
N  -3.41100 18.70100 26.74700
C  -3.76500 19.74100 27.66400
C  -3.66700 21.02300 26.98500
C  -3.32700 20.76200 25.64100
C  -3.46000 19.28300 25.49100
C  -4.03300 22.30600 27.71200
C  -2.93300 21.68500 24.48300
O  -2.73000 21.31500 23.27400
C  -2.59200 23.05900 24.83400
N  -3.65600 16.23200 24.98900
C  -3.64300 17.23500 24.05000
C  -3.73100 16.64800 22.63500
C  -3.63600 15.07400 22.92800
C  -3.59200 15.01200 24.46000
C  -4.96900 17.15100 21.74500
C  -2.46600 14.40400 22.19100
C  -1.05400 14.31700 22.85300
N  -3.44000 14.69500 27.47500
C  -3.43200 13.62800 26.61300
C  -3.48200 12.42100 27.37900
C  -3.51200 12.82600 28.70300
C  -3.53900 14.27900 28.73900
C  -3.52600 10.98300 26.83600
C  -3.55400 12.33200 30.08000
O  -3.56200 11.22700 30.52500
C  -3.58200 13.63800 30.99400
C  -2.29900 13.53800 31.61300
O  -1.20200 13.82600 31.17800
O  -2.49700 13.01200 32.90400
C  -1.49400 13.08700 33.93300
H  -4.54700 20.31900 29.60800
H  -3.52000 19.23300 23.41000
H  -3.58400 12.83700 24.77900
H  -4.50600 16.32200 32.35700
H  -3.40700 18.86800 31.88300
H  -6.18600 18.39300 31.23900
H  -5.32300 19.73400 32.25500
H  -5.36200 18.23300 32.93300
H  -1.68200 16.51200 31.63300
H  -2.48200 15.53300 32.86800
H  -2.60000 18.28600 33.85600
H  -1.07000 18.01300 33.02400
H  -3.09900 22.85800 27.82100
H  -4.54100 22.19800 28.67100
H  -4.65300 22.86500 27.01100
H  -3.33500 23.67300 25.34300
H  -2.40500 23.61300 23.91400
H  -1.68500 22.99700 25.43500
H  -2.81800 17.03100 22.18100
H  -4.51400 14.59800 22.49100
H  -4.63500 17.61800 20.81800
H  -5.59800 17.82600 22.32600
H  -5.62700 16.31200 21.52100
H  -2.36200 14.98000 21.27100
H  -2.79500 13.42900 21.83100
H  -0.38400 14.98000 22.30500
H  -0.78500 13.27200 22.69500
H  -1.02800 14.61100 23.90200
H  -4.52300 10.60100 26.61300
H  -3.11400 10.27500 27.55600
H  -3.00100 11.10500 25.88900
H  -4.35700 13.63100 31.76000
H  -1.70900 13.84000 34.69100
H  -0.52400 13.36500 33.52100
H  -1.50400 12.06400 34.30900
Mg -0.52900 7.17800 27.54200
C  0.17400 9.33500 30.20800
C  -0.76100 4.59300 29.86500
C  -1.12300 5.02000 25.03500
C  -0.45200 9.81400 25.36500
N  -0.27000 6.96300 29.74800
C  -0.06800 7.99900 30.63800
C  -0.26900 7.56000 32.11200
C  -0.43700 6.03300 32.01300
C  -0.50000 5.81000 30.46800
C  0.60400 5.23400 32.70800
C  -1.36700 8.31500 32.87000
C  -1.15100 8.57500 34.41400
H  -0.06100 7.93100 35.23500
N  -0.73600 5.07800 27.41900
C  -0.79700 4.19800 28.49600
C  -1.03400 2.84800 27.96700
C  -0.98300 2.93200 26.55500
C  -0.90300 4.39800 26.23400
C  -0.98700 1.67700 28.91600
C  -0.98700 1.91000 25.57500
O  -0.79300 2.16500 24.41400
C  -1.13400 0.43700 25.96200
N  -0.86900 7.31600 25.56700
C  -0.96800 6.33800 24.66600
C  -0.90200 6.78900 23.17900
C  -0.97600 8.33700 23.41300
C  -0.68600 8.46100 24.92400
C  0.34900 6.35600 22.42000
C  -2.39300 9.00800 23.10400
C  -2.48600 10.50500 22.69900
N  -0.23700 9.11900 27.69600
C  -0.24600 10.15500 26.78100
C  0.09500 11.39500 27.36200
C  0.27800 11.15900 28.70400
C  0.07300 9.75600 28.87100
C  0.25100 12.68600 26.58000
C  0.73000 11.77800 29.99400
O  1.18200 12.89600 30.15200
C  0.38600 10.63400 31.05800
C  1.44200 10.58800 32.04100
O  2.42100 9.88200 31.98400
O  1.13600 11.42800 33.12200
C  2.03100 11.33800 34.30700
H  -0.92700 3.77700 30.57200
H  -1.15900 4.34600 24.17600
H  -0.36500 10.63900 24.65500
H  0.64300 7.83700 32.64100
H  -1.42200 5.72700 32.36600
H  1.03300 4.47900 32.05000
H  0.02900 4.55900 33.34200
H  1.39900 5.85500 33.12100
H  -2.31300 7.77700 32.81700
H  -1.46300 9.28800 32.38800
H  -2.12400 8.31400 34.83000
H  -1.00400 9.65200 34.50400
H  -1.77600 0.94500 28.74400
H  -1.20000 1.88200 29.96500
H  -0.00500 1.20500 28.89300
H  -0.47600 0.30100 26.82100
H  -0.97900 -0.27100 25.14800
H  -2.16400 0.30700 26.29400
H  -1.82300 6.38000 22.76400
H  -0.25200 9.02200 22.97300
H  0.86900 7.20200 21.97000
H  0.10000 5.79400 21.52000
H  1.13800 6.03600 23.10200
H  -3.04900 8.78400 23.94500
H  -2.90600 8.43700 22.33000
H  -3.16200 11.00300 23.39400
H  -2.82500 10.43300 21.66500
H  -1.55800 11.06900 22.79600
H  1.07000 13.18700 27.09700
H  -0.65800 13.24600 26.79900
H  0.45700 12.72500 25.51000
H  -0.59600 10.93300 31.42300
H  2.57600 12.27400 34.42800
H  2.78300 10.55200 34.23200
H  1.53500 11.28200 35.27500

