158

Mg 47.36100 16.86100 27.83000
C  45.43000 16.83000 30.80400
C  49.85300 18.58400 29.61600
C  48.98800 17.20300 25.08100
C  44.57300 15.54900 26.12700
N  47.55900 17.67300 29.95100
C  46.62700 17.54500 30.95700
C  47.22100 18.14800 32.26700
C  48.46100 18.93700 31.71100
C  48.62500 18.35000 30.33400
C  48.29400 20.47800 31.75300
C  47.58200 16.94200 33.21200
C  47.16800 17.14400 34.65900
H  46.69900 18.54600 35.08000
N  49.16000 17.65100 27.39500
C  50.04700 18.22700 28.27200
C  51.25000 18.51200 27.55100
C  51.02700 18.24400 26.18500
C  49.73400 17.62100 26.17200
C  52.53200 19.04400 28.19500
C  51.93300 18.43100 24.96400
O  51.53000 18.10000 23.84900
C  53.30100 19.15800 24.99300
N  46.85200 16.34200 25.92800
C  47.75200 16.56000 24.94800
C  47.16000 16.21300 23.57600
C  45.78200 15.53400 24.02000
C  45.75100 15.74400 25.47100
C  47.04700 17.40000 22.53300
C  45.76800 13.96400 23.64200
C  44.79000 13.66200 22.47500
N  45.46600 16.22700 28.31200
C  44.41800 15.75100 27.50700
C  43.20100 15.60000 28.30600
C  43.58100 15.94800 29.59900
C  44.89900 16.34900 29.55900
C  41.79400 15.21900 27.79800
C  43.04900 16.14200 30.91400
O  41.91500 15.94200 31.29500
C  44.22100 16.75600 31.72200
C  43.80600 18.12100 32.21300
O  44.01000 19.17500 31.66900
O  43.19700 17.97900 33.37700
C  42.48600 19.13100 33.95300
H  50.62400 19.13600 30.15700
H  49.38900 17.20900 24.06600
H  43.75600 14.97600 25.68300
H  46.39100 18.73200 32.66300
H  49.33600 18.69600 32.31400
H  47.45300 20.78600 32.37400
H  48.26700 20.75600 30.70000
H  49.10400 21.08400 32.15900
H  48.65900 16.79300 33.13000
H  46.94600 16.14200 32.83300
H  47.90300 16.76500 35.36900
H  46.27200 16.56500 34.88500
H  53.44000 18.51900 27.89800
H  52.50100 18.89600 29.27400
H  52.62100 20.10400 27.95600
H  53.54400 19.16800 23.93100
H  54.04000 18.67500 25.63400
H  53.17500 20.16400 25.39200
H  47.86500 15.44400 23.26300
H  44.90000 16.03800 23.62600
H  46.03300 17.35500 22.13600
H  47.74300 17.11000 21.74600
H  47.37500 18.32500 23.00700
H  45.49400 13.36600 24.51100
H  46.77600 13.56000 23.53900
H  45.08500 14.18800 21.56700
H  43.81800 14.01100 22.82300
H  44.62300 12.58600 22.42100
H  41.63500 15.56200 26.77500
H  41.10500 15.77600 28.43300
H  41.48200 14.17700 27.85800
H  44.45900 16.10800 32.56600
H  42.25400 19.76300 33.09600
H  43.11400 19.53200 34.74800
H  41.53700 18.84400 34.40800
Mg 10.27600 47.06000 25.82500
C  8.21100 47.15200 28.65200
C  12.68800 48.62100 27.76100
C  11.97300 47.60500 22.97200
C  7.46200 46.03400 23.89800
N  10.34200 47.90800 27.95300
C  9.45000 47.76200 28.95800
C  9.98700 48.32600 30.27500
C  11.34100 48.98800 29.84000
C  11.46300 48.46600 28.43300
C  11.25200 50.57100 29.83400
C  10.02100 47.32900 31.43400
C  10.67600 47.87500 32.76000
H  9.85800 47.87100 34.03500
N  12.19200 47.80900 25.47200
C  13.05200 48.29900 26.39500
C  14.35000 48.55300 25.70200
C  14.17100 48.20100 24.31000
C  12.73000 47.83100 24.18100
C  15.63100 49.16900 26.48600
C  15.11200 48.36000 23.16600
O  14.91900 47.89200 22.03600
C  16.47900 48.92200 23.42200
N  9.71000 46.92300 23.67300
C  10.69500 47.06400 22.75400
C  10.04200 46.79700 21.34200
C  8.78000 46.01300 21.69400
C  8.63700 46.22000 23.21800
C  9.90500 48.25000 20.67400
C  8.63700 44.42900 21.22800
C  8.35500 43.46000 22.35900
N  8.24200 46.71100 26.15500
C  7.13700 46.31500 25.32800
C  5.95200 46.26800 26.07000
C  6.39200 46.56300 27.38700
C  7.75500 46.75200 27.39200
C  4.53200 45.96100 25.62800
C  5.88300 46.74300 28.73600
O  4.72400 46.52500 29.13500
C  7.12900 47.02300 29.59900
C  7.38100 45.85600 30.50100
O  7.94400 44.81300 30.16100
O  6.70900 46.13800 31.69900
C  6.85900 45.14500 32.73500
H  13.48900 49.17300 28.25700
H  12.57100 47.52100 22.06200
H  6.63900 45.45300 23.47600
H  9.25700 48.98800 30.74200
H  12.21200 48.61000 30.37500
H  10.42200 50.86900 30.47400
H  11.04500 50.99300 28.85100
H  12.12900 51.04100 30.28000
H  10.55400 46.44100 31.09400
H  9.10700 46.96500 31.90400
H  10.98400 48.91200 32.63200
H  11.65500 47.46900 33.01100
H  16.15400 49.97800 25.97500
H  16.35100 48.43800 26.85300
H  15.30700 49.56800 27.44700
H  17.02700 48.51900 24.27400
H  16.42500 50.00700 23.34100
H  16.99400 48.68000 22.49300
H  10.77400 46.24100 20.75700
H  7.96300 46.50000 21.16100
H  10.39800 48.15000 19.70700
H  10.39100 49.05800 21.22100
H  8.85900 48.53300 20.56100
H  9.58500 44.11700 20.79100
H  7.84800 44.32600 20.48300
H  9.07900 42.64500 22.37000
H  7.35700 43.08300 22.13600
H  8.39400 43.81500 23.38900
H  4.26000 45.03700 26.13900
H  4.51100 45.75800 24.55700
H  3.77100 46.72800 25.76900
H  7.00800 47.84700 30.30200
H  6.59400 44.10300 32.56000
H  6.17000 45.52400 33.49000
H  7.89300 45.21800 33.07300

