158

Mg 0.46000 8.17200 26.00600
C  1.38300 10.09800 28.97500
C  0.32400 5.43200 27.88900
C  0.20100 6.62800 23.06300
C  1.00400 11.25500 24.31100
N  0.78900 7.82900 28.13200
C  1.06200 8.74600 29.17300
C  0.93200 8.10400 30.55500
C  1.19300 6.59900 30.11600
C  0.67200 6.57800 28.60700
C  2.63100 6.07300 30.53900
C  -0.47000 8.41000 31.27200
C  -0.43400 8.55500 32.86500
H  0.74100 7.89300 33.68000
N  0.10500 6.32100 25.56000
C  0.10700 5.27600 26.47400
C  -0.24000 4.09500 25.78000
C  -0.17300 4.41500 24.34700
C  0.03700 5.87800 24.29100
C  -0.38500 2.73900 26.42600
C  -0.41700 3.46600 23.16000
O  -0.38400 3.76900 21.94200
C  -0.74600 2.00000 23.49600
N  0.50000 8.89000 24.08700
C  0.34100 8.04400 23.04200
C  0.45700 8.77400 21.70300
C  0.16800 10.21000 22.15300
C  0.71600 10.07900 23.56700
C  1.78800 8.69100 21.02900
C  -1.35400 10.68400 22.13600
C  -1.65200 11.71000 21.00900
N  1.22300 10.26500 26.46300
C  1.31300 11.39400 25.66400
C  1.67800 12.52300 26.41000
C  1.63800 12.03600 27.69500
C  1.37600 10.69700 27.70400
C  2.08000 13.91900 25.87100
C  1.75000 12.48000 29.04400
O  2.03100 13.63900 29.40400
C  1.52600 11.23700 29.92600
C  2.62100 11.05500 30.89300
O  3.63500 10.34800 30.85300
O  2.29600 11.87500 31.93000
C  3.11200 11.65500 33.13100
H  0.30500 4.63100 28.63000
H  0.16500 6.12400 22.09500
H  0.89500 12.12300 23.65600
H  1.67400 8.54600 31.22000
H  0.43700 6.05600 30.68500
H  3.09700 6.74400 31.26000
H  3.27700 6.05300 29.66000
H  2.51500 5.14400 31.09600
H  -1.23300 7.81300 30.77100
H  -0.79000 9.40800 30.97100
H  -1.32600 8.07800 33.27000
H  -0.37500 9.60000 33.17200
H  -1.42500 2.42200 26.35000
H  -0.07000 2.78400 27.46900
H  0.44700 2.14800 26.04200
H  -1.00700 1.48400 22.57200
H  -1.60900 2.04800 24.16000
H  0.07400 1.50200 24.01300
H  -0.38400 8.45700 21.08600
H  0.74300 10.93900 21.58300
H  2.53400 9.31700 21.51900
H  1.71500 9.05800 20.00600
H  2.06800 7.63800 20.98400
H  -1.49900 11.23300 23.06600
H  -2.09600 9.88700 22.09600
H  -0.97400 11.68000 20.15600
H  -1.58400 12.68900 21.48200
H  -2.66100 11.57700 20.61900
H  2.47300 13.66300 24.88700
H  2.91400 14.34200 26.43200
H  1.28200 14.64700 25.72600
H  0.59500 11.44500 30.45400
H  2.57800 11.75600 34.07500
H  3.96000 12.34000 33.11500
H  3.63700 10.70800 33.25300
Mg 23.64300 -4.95500 45.27400
C  25.84000 -2.56500 44.01500
C  21.20300 -3.84700 43.13000
C  21.97300 -7.92000 45.76600
C  26.21700 -6.18400 47.22200
N  23.57800 -3.37000 43.78500
C  24.60100 -2.60400 43.37200
C  24.08200 -1.64200 42.24000
C  22.48200 -1.75700 42.28200
C  22.36000 -3.04100 43.12400
C  21.66900 -0.54700 42.89700
C  24.64600 -2.05900 40.79300
C  25.18700 -0.87600 39.96100
H  25.48600 -1.14900 38.49900
N  21.77100 -5.73300 44.62700
C  20.94900 -5.12100 43.76800
C  19.70600 -5.85700 43.63300
C  19.84200 -6.96900 44.46200
C  21.26300 -6.96700 45.00300
C  18.52300 -5.30800 42.85100
C  18.79900 -8.05900 44.72100
O  17.72500 -8.00500 44.16500
C  19.06200 -9.22800 45.64000
N  24.11300 -6.80700 46.28900
C  23.17600 -7.76000 46.47700
C  23.73300 -8.93600 47.36800
C  25.11800 -8.48200 47.75300
C  25.18300 -7.11800 47.06500
C  22.81000 -9.55900 48.42300
C  26.29500 -9.43900 47.31400
C  27.34600 -9.58700 48.38000
N  25.58500 -4.35600 45.70800
C  26.51800 -4.97300 46.47700
C  27.74400 -4.22300 46.47500
C  27.54100 -3.22600 45.45600
C  26.23100 -3.40500 44.99100
C  29.01000 -4.64200 47.10300
C  28.06700 -2.11000 44.66300
O  29.14200 -1.54400 44.70200
C  26.99400 -1.63600 43.61300
C  26.85700 -0.21000 43.96900
O  26.45200 0.24900 45.01500
O  27.23700 0.58500 42.86500
C  27.23700 2.00300 43.16500
H  20.37300 -3.44200 42.54800
H  21.54100 -8.92200 45.78700
H  27.10700 -6.49600 47.77300
H  24.32400 -0.59800 42.43700
H  22.12800 -1.98600 41.27600
H  20.77200 -0.44000 42.28700
H  22.12300 0.44400 42.88400
H  21.50500 -0.81500 43.94000
H  23.93700 -2.77700 40.38100
H  25.49600 -2.70500 41.01200
H  26.16800 -0.75500 40.42100
H  24.66900 0.04800 40.21600
H  18.36600 -4.25300 43.07700
H  17.56000 -5.74600 43.11200
H  18.63600 -5.33700 41.76700
H  19.76000 -9.94100 45.20200
H  18.13700 -9.75400 45.87900
H  19.50100 -8.93300 46.59300
H  23.81900 -9.77900 46.68200
H  25.19100 -8.36100 48.83400
H  23.37100 -9.45100 49.35100
H  22.60000 -10.61500 48.25200
H  21.86800 -9.01100 48.43900
H  26.75400 -8.86900 46.50700
H  25.96900 -10.44200 47.03800
H  27.57200 -10.63700 48.56400
H  27.12900 -9.02900 49.29100
H  28.27800 -9.33200 47.87600
H  29.24700 -5.55000 46.54800
H  28.93000 -4.93400 48.15100
H  29.76100 -3.86100 46.98800
H  27.35100 -1.73100 42.58700
H  28.07500 2.20400 43.83200
H  26.32700 2.39900 43.61500
H  27.37000 2.63800 42.28900

