158

Mg 47.46800 15.65900 27.79800
C  45.22300 15.22000 30.55900
C  49.67900 17.21500 30.06800
C  49.30200 16.44400 25.15600
C  45.00800 14.42800 25.74800
N  47.36500 16.24600 30.01100
C  46.37800 15.88500 30.93800
C  46.74400 16.40500 32.34000
C  48.03900 17.18900 32.05900
C  48.38700 16.87200 30.60900
C  47.99500 18.68700 32.28200
C  46.85400 15.21000 33.33400
C  46.20200 15.39000 34.74200
H  45.89700 16.78300 35.38000
N  49.24500 16.67100 27.67500
C  50.00900 17.22100 28.72500
C  51.23800 17.72000 28.13800
C  51.10300 17.40900 26.70000
C  49.81700 16.88500 26.45800
C  52.26600 18.48700 28.87300
C  52.11600 17.59700 25.59100
O  51.92100 17.31300 24.41100
C  53.53800 17.85100 25.98600
N  47.21900 15.38500 25.69600
C  48.17200 15.74800 24.86200
C  47.69400 15.60200 23.37900
C  46.33500 14.86900 23.51200
C  46.17800 14.82400 25.06800
C  47.50200 17.02200 22.78800
C  46.29200 13.53500 22.75700
C  46.73200 12.22300 23.48400
N  45.58600 14.86300 28.04100
C  44.70800 14.42100 27.08700
C  43.53500 13.95200 27.67800
C  43.63800 14.25300 28.99900
C  44.95900 14.72100 29.18400
C  42.39000 13.26500 27.00300
C  42.92500 14.24000 30.29400
O  41.78100 14.04100 30.66900
C  43.98000 14.85200 31.40300
C  43.35300 16.20900 32.01100
O  43.64400 17.30900 31.59900
O  42.46600 16.02400 33.02100
C  41.90100 17.24100 33.65100
H  50.40700 17.61200 30.77800
H  49.80500 16.63100 24.20500
H  44.25100 13.99600 25.09100
H  45.93800 17.11600 32.52600
H  48.81700 16.75300 32.68600
H  48.99100 19.08500 32.47700
H  47.50700 18.83100 33.24600
H  47.44500 19.27000 31.54300
H  47.88800 15.03800 33.63500
H  46.43000 14.32300 32.86300
H  46.85900 14.84300 35.41800
H  45.29700 14.78300 34.73400
H  52.11000 19.54300 28.65300
H  53.29300 18.18600 28.66500
H  52.11400 18.40600 29.94900
H  54.04700 17.95900 25.02900
H  53.82900 17.02000 26.62800
H  53.67900 18.78500 26.53100
H  48.38500 14.92500 22.87700
H  45.48000 15.49500 23.26100
H  47.90100 17.75300 23.49100
H  46.49300 17.24200 22.43800
H  48.06200 17.04400 21.85400
H  47.01100 13.72200 21.95900
H  45.27700 13.43700 22.37100
H  46.70300 12.37700 24.56200
H  47.71500 11.85300 23.19100
H  46.03600 11.40500 23.29500
H  41.82300 12.62600 27.67900
H  42.78600 12.71300 26.15100
H  41.82500 14.08000 26.55100
H  44.16600 14.25100 32.29300
H  40.81600 17.13900 33.66800
H  42.20300 18.20200 33.23400
H  42.23200 17.09000 34.67900
Mg 26.80100 51.13600 26.56200
C  24.82800 52.02900 29.21400
C  29.33200 50.22400 28.83100
C  28.65200 49.97500 23.90500
C  24.33900 52.12000 24.32500
N  27.09100 51.29400 28.81100
C  26.02300 51.52700 29.68100
C  26.43600 51.17400 31.10700
C  27.94800 50.85300 30.97600
C  28.20400 50.79700 29.43600
C  28.83100 51.91100 31.64900
C  25.56400 50.05400 31.73100
C  24.84800 50.26300 33.11700
H  25.61900 50.90100 34.29500
N  28.75900 50.27300 26.38000
C  29.55900 49.91900 27.40400
C  30.73300 49.22400 26.86700
C  30.60200 49.12800 25.46100
C  29.24200 49.82900 25.14300
C  31.81500 48.50100 27.67200
C  31.50200 48.48000 24.43300
O  31.10000 48.37700 23.25600
C  32.85800 47.81400 24.63500
N  26.59300 51.22100 24.39800
C  27.44700 50.60100 23.53300
C  26.94500 50.74500 22.07600
C  25.52800 51.38500 22.24000
C  25.44600 51.59500 23.75700
C  27.87400 51.51100 21.12100
C  24.43300 50.38100 21.66000
C  23.32600 51.06500 20.90600
N  25.12300 52.11100 26.61300
C  24.13200 52.41300 25.71800
C  22.97300 52.96600 26.29600
C  23.17400 52.80100 27.66200
C  24.47000 52.23900 27.81100
C  21.81600 53.59000 25.58700
C  22.61200 52.96700 28.94400
O  21.56500 53.48700 29.21700
C  23.58100 52.43700 30.02500
C  23.90800 53.56000 30.97900
O  24.64200 54.44600 30.75100
O  23.13400 53.32700 32.07200
C  23.34100 54.24400 33.23500
H  30.12700 49.94400 29.52500
H  29.20300 49.56900 23.05400
H  23.56000 52.39500 23.61000
H  26.32300 52.07100 31.71600
H  28.11500 49.82700 31.30300
H  28.56300 52.88700 31.24300
H  29.84400 51.60300 31.38900
H  28.81700 51.88600 32.73900
H  26.02500 49.07500 31.86000
H  24.75700 49.97000 31.00200
H  24.35900 49.35600 33.47200
H  24.07200 50.96600 32.81100
H  32.70100 49.11600 27.82700
H  32.07900 47.58200 27.14800
H  31.39500 48.31200 28.66000
H  33.32500 47.66100 23.66200
H  32.73300 46.84500 25.11800
H  33.36600 48.47900 25.33400
H  26.84400 49.71000 21.75000
H  25.38700 52.39000 21.84200
H  27.44500 52.41900 20.69700
H  28.38300 50.84400 20.42600
H  28.62300 51.87800 21.82200
H  24.00800 49.76600 22.45300
H  24.85700 49.70500 20.91700
H  23.12200 50.53500 19.97600
H  23.59400 52.06200 20.55700
H  22.39400 50.96200 21.46100
H  22.14100 54.55500 25.19900
H  21.07800 53.64800 26.38800
H  21.51300 52.84900 24.84600
H  23.01000 51.66300 30.53800
H  23.67200 55.23900 32.93700
H  24.03300 53.77600 33.93500
H  22.40900 54.44800 33.76300

