158

Mg 40.83100 9.36800 29.07500
C  42.47300 10.53100 32.00300
C  38.50400 7.75900 31.27900
C  39.45800 8.05000 26.41300
C  43.40900 10.73600 27.17700
N  40.52700 9.15100 31.47800
C  41.26000 9.88200 32.39700
C  40.65700 9.73100 33.76900
C  39.56200 8.63500 33.60000
C  39.50900 8.48600 32.04400
C  39.76200 7.28100 34.42000
C  40.15500 11.01700 34.48000
C  39.68500 11.02600 36.09400
H  40.48100 11.97300 37.02600
N  39.23500 8.08600 28.83900
C  38.40000 7.59500 29.83000
C  37.34600 6.85500 29.21500
C  37.44600 7.04300 27.82900
C  38.76700 7.73400 27.61600
C  36.37000 5.95700 29.92000
C  36.58800 6.59700 26.64000
O  36.85100 6.90900 25.49400
C  35.32400 5.88900 26.93300
N  41.32500 9.41900 27.10100
C  40.53400 8.81800 26.17500
C  41.22000 8.91700 24.81900
C  42.37600 10.04600 24.98900
C  42.38000 10.13700 26.49200
C  41.58600 7.53700 24.08600
C  42.03900 11.41600 24.36500
C  40.86200 12.22600 24.83300
N  42.59000 10.42100 29.49700
C  43.55100 10.86200 28.59000
C  44.63600 11.48700 29.32500
C  44.15700 11.48700 30.64800
C  42.95100 10.72200 30.69500
C  45.89300 12.04800 28.69600
C  44.53300 11.86700 31.99400
O  45.44700 12.60500 32.36300
C  43.33200 11.40600 32.87400
C  43.84600 10.75200 34.11400
O  44.53200 9.73000 34.04200
O  43.34900 11.43600 35.24300
C  43.71300 10.72900 36.48500
H  37.70800 7.40000 31.93500
H  39.09100 7.73000 25.43600
H  44.22300 11.04600 26.51900
H  41.41200 9.24300 34.38600
H  38.56800 8.99300 33.86900
H  38.91600 7.08200 35.07800
H  40.50800 7.39700 35.20600
H  39.96700 6.32100 33.94800
H  39.27200 11.36000 33.94100
H  40.99900 11.69400 34.35200
H  39.72900 10.05800 36.59200
H  38.62000 11.25700 36.11800
H  35.34300 6.32100 29.93500
H  36.55000 5.82700 30.98700
H  36.23200 5.00500 29.40700
H  34.71400 6.43100 27.65500
H  35.59000 4.87500 27.23100
H  34.72300 5.88300 26.02400
H  40.46300 9.40700 24.20700
H  43.25800 9.55400 24.57800
H  41.70500 6.78800 24.86800
H  42.45900 7.48100 23.43600
H  40.72500 7.14700 23.54400
H  41.94800 11.19600 23.30200
H  42.92400 12.02300 24.55500
H  40.11200 12.22300 24.04200
H  41.24300 13.23300 25.00000
H  40.40800 11.87300 25.75900
H  46.25400 11.39000 27.90500
H  46.63400 12.08600 29.49400
H  45.87400 13.07200 28.32300
H  42.80500 12.32100 33.14600
H  43.76700 11.49800 37.25500
H  44.58900 10.09100 36.36400
H  42.88400 10.06200 36.71900
Mg -12.12500 16.27100 42.43900
C  -9.29300 14.32500 42.30700
C  -10.50300 18.88900 40.92700
C  -15.04000 17.82500 42.19300
C  -13.91400 13.40000 43.63700
N  -10.17800 16.47400 41.58200
C  -9.12000 15.61900 41.70500
C  -7.94400 16.04400 40.97700
C  -8.26300 17.55700 40.69400
C  -9.79400 17.64400 40.99700
C  -7.41600 18.68200 41.33100
C  -7.79300 15.20400 39.65600
C  -6.44100 14.67100 39.23200
H  -5.93200 15.04000 37.82400
N  -12.71900 18.10800 41.71800
C  -11.93200 19.03900 41.16200
C  -12.70300 20.24800 40.82300
C  -14.03600 19.95600 41.28900
C  -13.99900 18.54400 41.75600
C  -12.09600 21.46500 40.17700
C  -15.23600 20.89900 41.17800
O  -15.04700 21.99100 40.68700
C  -16.55000 20.47900 41.57700
N  -14.25300 15.59300 42.74900
C  -15.24500 16.51300 42.65800
C  -16.53200 15.92400 43.19000
C  -16.21200 14.44800 43.64200
C  -14.77000 14.43800 43.28200
C  -17.18700 16.78700 44.33100
C  -17.05600 13.30300 43.02200
C  -17.37500 12.10600 43.91300
N  -11.70400 14.24800 42.90800
C  -12.50800 13.28200 43.43200
C  -11.73500 12.09100 43.72300
C  -10.43200 12.47500 43.32900
C  -10.53100 13.76800 42.79700
C  -12.29000 10.84700 44.29400
C  -9.06100 11.92800 43.15700
O  -8.49800 10.87200 43.34800
C  -8.33600 13.15800 42.48200
C  -7.14400 13.50700 43.28000
O  -7.17300 13.90100 44.43500
O  -6.04600 13.40900 42.45400
C  -4.74700 13.91600 42.98400
H  -9.99800 19.69400 40.38900
H  -16.02500 18.27400 42.05400
H  -14.44700 12.53900 44.04600
H  -7.01000 16.01200 41.53700
H  -8.26000 17.78600 39.62800
H  -8.07900 19.18700 42.03400
H  -6.96800 19.31900 40.56900
H  -6.53500 18.28000 41.83100
H  -8.11300 15.79700 38.79900
H  -8.48600 14.36600 39.58100
H  -6.40500 13.59000 39.37100
H  -5.63600 15.06500 39.85300
H  -12.80700 21.91800 39.48500
H  -11.11600 21.28800 39.73300
H  -11.89500 22.30600 40.84100
H  -16.44200 20.28300 42.64400
H  -16.93900 19.71900 40.89900
H  -17.28400 21.26400 41.39700
H  -17.27300 15.87800 42.39200
H  -16.20500 14.33000 44.72600
H  -18.16400 17.09500 43.96100
H  -16.51600 17.63900 44.44700
H  -17.40200 16.14400 45.18400
H  -16.66200 13.02000 42.04600
H  -17.96000 13.89200 42.86600
H  -18.43200 12.22200 44.15000
H  -16.82000 12.12200 44.85100
H  -17.16200 11.23700 43.29100
H  -12.25900 11.10700 45.35200
H  -11.73400 9.96100 43.98600
H  -13.32100 10.77200 43.94800
H  -7.98100 12.73000 41.54500
H  -4.77300 14.93300 43.37700
H  -4.05500 13.88700 42.14200
H  -4.36300 13.26900 43.77200

