158

Mg 25.00000 0.72600 29.05600
C  27.30800 0.90500 31.88400
C  22.47200 1.12800 31.17400
C  23.09100 1.15200 26.29700
C  27.84500 0.25300 27.04200
N  25.02300 0.87300 31.32300
C  26.00000 1.01400 32.26400
C  25.42900 1.18300 33.68100
C  23.84700 1.10400 33.40100
C  23.74800 0.96000 31.83900
C  23.26000 -0.18800 34.01500
C  25.84700 2.53600 34.31800
C  25.07100 3.00000 35.62100
H  25.91800 3.40600 36.88300
N  23.07600 0.99600 28.78700
C  22.19900 1.01300 29.80000
C  20.79700 1.14500 29.21600
C  20.98000 1.08000 27.79300
C  22.39800 1.06700 27.54100
C  19.54600 1.25000 29.93600
C  19.87400 1.23400 26.74800
O  20.12800 1.26000 25.55700
C  18.44900 1.44400 27.10100
N  25.39800 0.68400 27.09500
C  24.41000 0.96400 26.05900
C  24.87400 0.72500 24.65400
C  26.47100 0.64400 24.91900
C  26.60400 0.41400 26.45900
C  24.17700 -0.44200 23.83600
C  27.15800 1.88400 24.38500
C  27.01900 3.19700 25.15600
N  27.12500 0.54000 29.32900
C  28.12800 0.39700 28.42300
C  29.35300 0.51400 29.07100
C  29.10800 0.66500 30.45300
C  27.72200 0.64400 30.57400
C  30.63700 0.62800 28.31100
C  29.76500 0.80800 31.74500
O  30.95500 0.89900 32.10300
C  28.55100 1.00100 32.77300
C  28.68600 0.04300 33.87300
O  28.25400 -1.10400 33.86900
O  29.39100 0.64200 34.91500
C  29.19800 0.12500 36.25500
H  21.60000 1.24700 31.82100
H  22.43600 1.25600 25.43000
H  28.66300 0.02800 26.35600
H  25.80800 0.31600 34.22200
H  23.32600 2.00600 33.72100
H  23.43800 -1.00500 33.31600
H  22.19000 -0.08100 34.19400
H  23.77400 -0.51200 34.92000
H  26.03300 3.39900 33.67800
H  26.82100 2.35300 34.77100
H  24.40400 2.17900 35.88300
H  24.47000 3.84900 35.29600
H  19.12700 2.23000 29.70900
H  19.68200 1.18400 31.01500
H  18.91900 0.43700 29.57200
H  18.36100 2.32400 27.73800
H  18.10900 0.52400 27.57700
H  17.88000 1.67000 26.20000
H  24.69000 1.61800 24.05700
H  26.78800 -0.18300 24.28500
H  24.89800 -1.14600 23.42000
H  23.63500 -0.03700 22.98100
H  23.47900 -1.03700 24.42500
H  26.81800 2.05500 23.36300
H  28.22000 1.64400 24.32800
H  27.92700 3.51900 25.66600
H  26.20100 3.15700 25.87500
H  26.69300 3.95700 24.44600
H  30.85600 -0.31900 27.81800
H  31.49800 0.76900 28.96500
H  30.67100 1.37400 27.51800
H  28.70100 2.00800 33.16200
H  30.17900 -0.03300 36.70300
H  28.56900 -0.76000 36.35300
H  28.76600 0.94500 36.82900
Mg 50.43100 46.83300 43.10100
C  47.21400 47.36800 41.74100
C  50.53100 43.79800 41.84400
C  53.70300 46.97400 43.70400
C  50.38600 50.40400 43.85500
N  48.99500 45.77700 41.94900
C  47.76400 46.11900 41.43900
C  47.08800 44.82800 40.86900
C  48.01900 43.70800 41.22400
C  49.27500 44.47500 41.75000
C  47.52800 42.67900 42.27700
C  46.72700 44.92300 39.33600
C  45.27200 44.65700 38.95900
H  45.01000 43.48800 37.99700
N  51.96300 45.58700 42.78900
C  51.77500 44.32500 42.29600
C  53.02500 43.62300 42.22600
C  54.00100 44.53800 42.86400
C  53.28000 45.76500 43.14800
C  53.15000 42.30800 41.51000
C  55.48000 44.14600 43.06300
O  55.95900 43.11900 42.66500
C  56.39000 44.94100 44.01900
N  51.73400 48.44400 43.88800
C  53.05200 48.15100 44.03100
C  53.89400 49.41000 44.41700
C  52.75600 50.47600 44.66100
C  51.58400 49.77000 43.99300
C  54.80800 49.30700 45.63800
C  53.09600 51.89400 43.99400
C  52.40800 53.11300 44.61400
N  49.03500 48.53400 42.93500
C  49.18000 49.85900 43.36100
C  47.93100 50.59500 43.09400
C  47.09000 49.60000 42.44500
C  47.84400 48.41200 42.40500
C  47.69100 52.07700 43.35400
C  45.78700 49.33700 41.90600
O  44.80300 50.02900 41.81800
C  45.79700 47.85200 41.42800
C  44.76700 47.22600 42.28200
O  44.58700 47.30100 43.49500
O  43.86600 46.66400 41.35300
C  42.56300 46.25200 41.87900
H  50.55900 42.76800 41.48200
H  54.79200 46.98800 43.78100
H  50.35200 51.44300 44.18900
H  46.14500 44.77400 41.41200
H  48.25500 43.25500 40.26100
H  46.44000 42.62800 42.29900
H  47.88800 42.71900 43.30500
H  47.80400 41.70900 41.86200
H  47.42100 44.33800 38.73200
H  46.77400 45.97200 39.04300
H  44.92100 45.52900 38.40600
H  44.65400 44.57400 39.85200
H  54.05700 42.40500 40.91400
H  52.33700 42.11900 40.80900
H  53.34800 41.48200 42.19200
H  56.76500 45.91300 43.69800
H  57.28500 44.34800 44.20800
H  56.07400 45.03500 45.05800
H  54.51900 49.65000 43.55700
H  52.46100 50.62600 45.70000
H  55.77900 49.70500 45.34200
H  55.00700 48.29600 45.99300
H  54.43000 49.88800 46.48000
H  52.87600 51.80300 42.93000
H  54.14700 52.12400 44.16800
H  53.16100 53.75700 45.06800
H  51.51800 52.87500 45.19800
H  52.08500 53.80400 43.83600
H  48.60500 52.63000 43.56800
H  46.85500 52.06200 44.05300
H  47.33500 52.50600 42.41800
H  45.65300 47.75600 40.35200
H  42.65700 45.43100 42.58900
H  41.89900 45.98700 41.05700
H  42.13500 47.02200 42.52000

