158

Mg 1.63400 8.26900 27.34700
C  1.92000 10.11800 30.28800
C  1.46900 5.49800 29.26900
C  1.53800 6.47000 24.58400
C  1.84600 11.25900 25.54700
N  1.73700 7.89600 29.58900
C  1.73700 8.78700 30.57900
C  1.41800 8.18800 31.93800
C  1.52600 6.65400 31.55200
C  1.51200 6.64500 30.02600
C  2.75900 6.02200 32.10500
C  -0.02400 8.57200 32.42400
C  -0.35600 8.63800 33.94900
H  0.74900 8.25800 34.98300
N  1.67500 6.22100 26.94300
C  1.47100 5.29800 27.88700
C  1.33700 3.96400 27.29600
C  1.45400 4.25600 25.92000
C  1.62700 5.68700 25.74200
C  1.16900 2.67800 28.13100
C  1.45600 3.33900 24.79400
O  1.63000 3.72600 23.63700
C  1.10800 1.85100 25.03800
N  1.76900 8.76700 25.37400
C  1.71400 7.87400 24.38100
C  1.73900 8.57700 22.96600
C  1.42900 10.03500 23.34600
C  1.75700 10.01100 24.86300
C  3.11800 8.16000 22.32500
C  -0.05300 10.50600 22.99300
C  -0.57000 10.41300 21.47200
N  1.82300 10.35000 27.78900
C  1.95900 11.42500 26.96100
C  2.15100 12.57000 27.68800
C  2.17000 12.17000 29.01600
C  2.03000 10.75900 29.00600
C  2.15100 13.94100 27.12700
C  2.39700 12.57500 30.39200
O  2.73300 13.62700 30.89100
C  2.03500 11.25700 31.21900
C  2.93800 11.24000 32.40900
O  3.99400 10.66700 32.60600
O  2.28800 12.00200 33.35900
C  3.03100 12.05400 34.67800
H  1.37600 4.58400 29.85900
H  1.35900 5.91800 23.65800
H  2.01100 12.07600 24.84200
H  2.11700 8.50500 32.71200
H  0.72000 6.03700 31.94900
H  3.65300 6.47400 31.67400
H  2.81500 5.03600 31.64400
H  2.91700 5.98000 33.18300
H  -0.79400 7.84200 32.17600
H  -0.20300 9.55600 31.99100
H  -1.17500 7.94000 34.12600
H  -0.69000 9.65500 34.15600
H  0.83700 1.75000 27.66600
H  0.47000 2.88700 28.94100
H  2.13100 2.48400 28.60400
H  1.32200 1.31500 24.11300
H  0.10300 1.81900 25.45900
H  1.81800 1.38800 25.72400
H  0.92400 8.04300 22.47800
H  2.19400 10.65000 22.87200
H  3.51700 8.95000 21.69000
H  2.66000 7.42400 21.66400
H  3.89900 7.86100 23.02500
H  -0.06900 11.55300 23.29500
H  -0.82400 10.07500 23.63300
H  0.16400 9.98000 20.79300
H  -1.08500 11.31200 21.13400
H  -1.44300 9.76000 21.47100
H  1.65100 14.10000 26.17100
H  3.19100 14.21200 26.94500
H  1.65000 14.72600 27.69300
H  1.01800 11.51200 31.51700
H  2.43900 12.74600 35.27800
H  4.03400 12.46200 34.55300
H  3.15100 11.09400 35.18100
Mg 0.43200 44.08300 25.98200
C  2.70600 44.11700 28.68300
C  -2.04500 43.25700 28.18000
C  -1.59200 43.38800 23.34600
C  3.14100 44.22700 23.86800
N  0.39200 43.81800 28.24000
C  1.39600 43.87900 29.15600
C  0.92100 43.78600 30.55300
C  -0.55200 43.21300 30.32800
C  -0.76500 43.54400 28.80100
C  -0.71900 41.74100 30.59000
C  0.94600 45.15900 31.32400
C  0.98300 44.98000 32.88900
H  0.30600 43.80700 33.63200
N  -1.57900 43.54500 25.77800
C  -2.45600 43.26200 26.78900
C  -3.73700 42.94000 26.22400
C  -3.65900 43.10800 24.85000
C  -2.23900 43.46000 24.56000
C  -4.89600 42.60200 27.09400
C  -4.77900 43.18700 23.77500
O  -4.54100 43.45600 22.62300
C  -6.17100 42.91400 24.20000
N  0.72000 43.71700 23.95300
C  -0.26800 43.51100 23.07800
C  0.29800 43.40000 21.62100
C  1.64400 44.15300 21.78200
C  1.89500 44.00100 23.30100
C  0.43200 41.91200 21.26500
C  1.62600 45.63400 21.21700
C  2.85000 46.07000 20.38100
N  2.52300 44.24700 26.17400
C  3.55200 44.25400 25.22400
C  4.83900 44.44400 25.80800
C  4.52500 44.33400 27.13700
C  3.16500 44.24600 27.36600
C  6.21400 44.71100 25.02900
C  5.12600 44.22500 28.48400
O  6.28000 44.03500 28.83300
C  3.96100 44.22200 29.50000
C  4.23100 43.04100 30.38600
O  4.04900 41.87200 30.16600
O  4.66700 43.51700 31.62100
C  4.97800 42.45800 32.60100
H  -2.88000 43.01500 28.84100
H  -2.34000 43.33100 22.55200
H  3.91800 44.48500 23.14500
H  1.54000 43.05900 31.07900
H  -1.33100 43.72800 30.89100
H  -1.73200 41.34600 30.66800
H  -0.13800 41.43300 31.45900
H  -0.29800 41.24200 29.71700
H  0.11400 45.79700 31.02600
H  1.78300 45.76600 30.97800
H  0.63600 45.92600 33.30600
H  2.04300 45.11000 33.11000
H  -5.70300 41.98500 26.70000
H  -5.24200 43.54600 27.51600
H  -4.51000 41.99900 27.91600
H  -6.37300 41.96000 24.68600
H  -6.76400 42.83600 23.28900
H  -6.50900 43.68500 24.89200
H  -0.44900 43.94200 21.04000
H  2.40400 43.63400 21.19700
H  -0.07200 41.64500 20.33600
H  -0.06100 41.21200 21.93900
H  1.47300 41.60000 21.18200
H  1.47200 46.38000 21.99600
H  0.66700 45.72500 20.70800
H  3.30400 46.92100 20.88900
H  2.59000 46.59000 19.45900
H  3.62000 45.34000 20.13200
H  6.66200 45.58800 25.49700
H  5.98800 44.88900 23.97800
H  6.87100 43.85100 25.15800
H  4.08400 45.09700 30.13900
H  5.58100 41.69300 32.11300
H  4.14900 41.97400 33.11700
H  5.71400 42.93700 33.24700

