158

Mg 41.35200 41.09600 27.23600
C  41.22300 43.72900 29.58900
C  41.98100 38.93300 29.83100
C  42.02800 38.61500 25.01500
C  40.75400 43.29000 24.70000
N  41.72200 41.33800 29.48700
C  41.48400 42.43300 30.20600
C  41.43700 42.08700 31.70200
C  41.82700 40.61500 31.70800
C  41.84400 40.24500 30.24300
C  43.15300 40.25000 32.52000
C  40.17600 42.57400 32.39600
C  39.63700 41.89300 33.63800
H  39.24100 42.75200 34.86900
N  41.81400 39.05500 27.41200
C  42.08800 38.38600 28.59300
C  42.49200 37.00700 28.18800
C  42.41700 36.82500 26.80100
C  42.01700 38.19600 26.34300
C  42.84000 36.01000 29.18000
C  42.53300 35.61800 25.94500
O  42.33500 35.72600 24.73500
C  42.68700 34.25600 26.56100
N  41.41400 40.97400 25.18600
C  41.67100 39.86200 24.47800
C  41.44700 40.13300 22.95400
C  40.72300 41.55500 22.90700
C  40.96500 41.97300 24.36400
C  42.73600 40.14400 22.02700
C  39.21400 41.57800 22.51300
C  38.22600 40.58800 23.13400
N  40.99100 43.02100 27.12800
C  40.82100 43.83900 25.98500
C  40.69600 45.23300 26.42100
C  40.82400 45.18400 27.84300
C  41.06000 43.83600 28.20500
C  40.51700 46.36200 25.43900
C  40.92100 45.98700 28.97400
O  40.85500 47.23800 29.06500
C  41.08000 45.04000 30.21600
C  42.24100 45.41200 31.03800
O  43.40000 45.14800 30.79100
O  41.83500 45.97800 32.23100
C  42.74900 45.96100 33.35500
H  42.14800 38.34500 30.73600
H  42.40900 37.99900 24.19800
H  40.46900 43.95200 23.87900
H  42.23500 42.69200 32.13000
H  40.96100 40.04500 32.04500
H  42.90800 39.43600 33.20100
H  43.63400 41.04000 33.09700
H  43.93600 39.82000 31.89500
H  39.49000 42.39200 31.56800
H  40.21500 43.63600 32.63800
H  40.46100 41.27100 33.98800
H  38.88700 41.26200 33.16100
H  42.19900 35.12900 29.19400
H  42.75500 36.45000 30.17400
H  43.83500 35.57900 29.06800
H  42.56300 33.46500 25.82200
H  41.91300 34.17600 27.32400
H  43.69400 34.41300 26.94800
H  40.66900 39.42900 22.65800
H  41.27000 42.22600 22.24400
H  42.34600 39.78800 21.07400
H  43.41000 39.45000 22.52900
H  43.15900 41.13500 21.85800
H  39.16200 41.50800 21.42700
H  38.85100 42.53400 22.89000
H  37.72400 40.20400 22.24500
H  37.62400 41.09900 23.88500
H  38.74200 39.73000 23.56500
H  40.16400 47.18400 26.06200
H  39.91000 46.12100 24.56600
H  41.51700 46.56300 25.05500
H  40.16500 45.05000 30.80900
H  42.50900 45.24400 34.13900
H  42.81200 46.99900 33.68200
H  43.74900 45.57000 33.16300
Mg 36.21800 49.85300 25.77600
C  36.26800 47.81200 28.59200
C  35.66200 52.53500 27.75500
C  35.92900 51.66100 22.96000
C  36.61600 46.98300 23.86600
N  36.08400 50.11300 27.98200
C  35.99800 49.18100 28.96100
C  35.84700 49.78400 30.37800
C  35.24900 51.25400 29.99600
C  35.71400 51.30000 28.48800
C  33.73100 51.51700 30.17000
C  37.33300 49.82200 31.02000
C  37.40300 49.52700 32.48400
H  36.11400 49.72300 33.31800
N  36.02700 51.83900 25.42400
C  35.81400 52.76400 26.35900
C  35.69200 54.07800 25.67800
C  35.62200 53.85800 24.28400
C  35.83900 52.40100 24.21400
C  35.86100 55.37200 26.44400
C  35.54900 54.73500 23.14100
O  35.53700 54.41600 21.97500
C  35.47600 56.25300 23.45800
N  36.11700 49.35500 23.64900
C  36.15300 50.29500 22.73500
C  36.13600 49.75200 21.32400
C  36.45100 48.21000 21.54300
C  36.46200 48.16200 23.10500
C  34.75700 50.06900 20.58100
C  37.78400 47.70000 20.80000
C  37.50800 46.66600 19.77400
N  36.33400 47.84400 26.06600
C  36.63900 46.77800 25.22400
C  36.91300 45.51100 25.96600
C  36.82800 45.91600 27.33100
C  36.43100 47.27700 27.30600
C  37.09200 44.13500 25.36200
C  36.82400 45.43900 28.68900
O  37.08800 44.33600 29.04400
C  36.43600 46.65800 29.64100
C  35.11600 46.52000 30.33400
O  34.05000 46.57800 29.79100
O  35.34600 46.34800 31.71600
C  34.14600 46.44200 32.49700
H  35.37400 53.39700 28.36100
H  35.84600 52.25100 22.04500
H  36.82100 46.06100 23.31900
H  35.08100 49.26400 30.95300
H  35.82700 51.99100 30.55400
H  33.28500 51.70500 29.19400
H  33.55900 52.36200 30.83700
H  33.16600 50.63300 30.46700
H  37.85600 50.76200 30.84500
H  37.84500 49.00500 30.51200
H  38.02400 50.28500 32.96200
H  37.85300 48.56600 32.73500
H  34.86100 55.80500 26.43100
H  36.51500 56.16300 26.07600
H  36.08400 55.27800 27.50600
H  35.14700 56.80900 22.58100
H  36.45000 56.61500 23.78800
H  34.74600 56.40100 24.25400
H  36.88600 50.24500 20.70600
H  35.61200 47.67800 21.09500
H  33.98600 50.32700 21.30700
H  34.28700 49.17300 20.17500
H  34.84700 50.77100 19.75200
H  38.38200 47.15500 21.53200
H  38.41700 48.43600 20.30600
H  37.56700 47.03800 18.75100
H  36.53600 46.17900 19.84700
H  38.16100 45.83600 20.04400
H  36.26900 43.73200 24.77300
H  37.46300 43.35800 26.03000
H  37.78600 44.24200 24.52700
H  37.24400 46.79600 30.36000
H  33.31500 45.79500 32.21500
H  33.70400 47.43500 32.42200
H  34.52000 46.19400 33.49000

