158

Mg 8.99300 3.83200 27.20300
C  10.25700 2.22200 30.03000
C  7.03800 5.75000 29.24000
C  7.87400 5.47800 24.50600
C  10.69300 1.57300 25.24800
N  8.68900 3.87500 29.39200
C  9.42100 3.26600 30.38000
C  9.08000 3.90100 31.72700
C  7.85600 4.83200 31.53300
C  7.86400 4.82300 29.95800
C  6.50200 4.41100 32.08600
C  10.32200 4.54500 32.37900
C  10.16900 5.18100 33.77900
H  10.99600 4.62100 34.97700
N  7.62200 5.33900 26.89000
C  6.87300 5.98500 27.84800
C  6.09900 7.10500 27.25300
C  6.49700 7.13900 25.91800
C  7.35400 5.93100 25.72400
C  5.16700 8.02900 27.99700
C  6.18200 8.15000 24.87100
O  6.52400 7.99700 23.67700
C  5.45700 9.48700 25.24900
N  9.02200 3.37300 25.10800
C  8.68600 4.33100 24.24300
C  9.19700 4.02600 22.88300
C  10.06300 2.69200 23.02100
C  9.90600 2.46500 24.53800
C  8.08900 3.95600 21.83400
C  11.55200 2.75200 22.42900
C  11.98400 1.52600 21.67600
N  10.19100 2.15600 27.48600
C  10.82500 1.37500 26.59300
C  11.64400 0.36900 27.22100
C  11.40600 0.67000 28.59900
C  10.49200 1.76100 28.68300
C  12.55000 -0.71100 26.71900
C  11.73800 0.29700 29.87400
O  12.60000 -0.51200 30.14700
C  11.09200 1.27800 30.89900
C  10.38400 0.65700 32.05800
O  9.22200 0.24100 31.96400
O  11.19600 0.68600 33.15900
C  10.39800 0.58100 34.37400
H  6.50600 6.36400 29.96800
H  7.80600 6.24000 23.72700
H  11.26200 0.88300 24.62100
H  8.83200 3.07900 32.39700
H  8.06300 5.87600 31.76500
H  6.62100 3.41400 32.51000
H  5.69700 4.33700 31.35500
H  6.11600 4.98300 32.93000
H  10.74300 5.33600 31.75700
H  11.15600 3.84300 32.39500
H  9.14100 5.13400 34.13800
H  10.36100 6.25000 33.69500
H  5.65500 8.96400 28.26900
H  4.92800 7.59100 28.96600
H  4.23800 8.16600 27.44300
H  5.63600 10.16400 24.41300
H  5.89100 9.96700 26.12600
H  4.43100 9.12500 25.31800
H  9.82600 4.85900 22.57100
H  9.57700 1.82300 22.57700
H  7.17000 4.18300 22.37500
H  7.92600 3.07000 21.22000
H  8.14100 4.74100 21.07900
H  12.25600 2.85800 23.25500
H  11.64900 3.63700 21.80000
H  12.81900 1.00200 22.14100
H  12.20400 1.84000 20.65600
H  11.12300 0.86000 21.61400
H  12.36200 -0.85800 25.65600
H  12.41400 -1.69500 27.16600
H  13.56400 -0.39100 26.96200
H  11.97300 1.82200 31.23900
H  11.06100 0.20300 35.15200
H  9.52600 -0.07300 34.36600
H  10.07500 1.59400 34.61300
Mg 25.89800 0.82200 29.33800
C  28.01300 0.60100 32.23100
C  23.24500 1.12100 31.43700
C  24.02100 0.95300 26.61100
C  28.70600 -0.02000 27.45800
N  25.72200 0.87200 31.57800
C  26.64900 0.81100 32.55000
C  26.12500 1.05100 33.93200
C  24.56300 1.28700 33.67000
C  24.46600 1.01600 32.11300
C  23.66800 0.37800 34.53900
C  26.78900 2.26000 34.78000
C  27.38500 1.98400 36.15100
H  27.19800 2.97900 37.25300
N  23.93500 0.99900 29.06400
C  22.95300 1.26000 30.02700
C  21.68300 1.25400 29.44100
C  21.86100 1.22600 28.00700
C  23.32800 0.98800 27.85200
C  20.47400 1.45400 30.22900
C  20.84400 1.23700 26.89100
O  21.11400 1.03500 25.67600
C  19.45300 1.50400 27.27800
N  26.25800 0.37300 27.29700
C  25.36600 0.64700 26.31700
C  25.95800 0.38500 24.89100
C  27.48900 0.33800 25.19700
C  27.47000 0.11500 26.73300
C  25.39000 -0.92400 24.30700
C  28.27000 1.58500 24.74200
C  29.44400 1.22900 23.71200
N  27.93800 0.27700 29.68900
C  28.90300 -0.12000 28.82900
C  30.13800 -0.36100 29.59900
C  29.86300 -0.07200 30.95900
C  28.50300 0.36800 30.93300
C  31.51300 -0.74600 29.12300
C  30.41000 0.11800 32.28700
O  31.49800 0.12700 32.71000
C  29.23400 0.48600 33.22800
C  29.07800 -0.66200 34.15700
O  28.62500 -1.80000 33.92900
O  29.46700 -0.29800 35.39200
C  29.16500 -1.34100 36.46000
H  22.35300 1.21500 32.05900
H  23.42700 1.10900 25.70800
H  29.58500 -0.02500 26.81000
H  26.38400 0.19200 34.55100
H  24.30700 2.30700 33.95800
H  23.27400 -0.43000 33.92300
H  22.80700 1.04600 34.56100
H  24.20000 0.00600 35.41400
H  26.17000 3.15700 34.78500
H  27.58600 2.55700 34.09900
H  28.46800 2.01600 36.03300
H  27.22500 0.98600 36.56000
H  20.50000 1.00500 31.22100
H  19.77600 0.79400 29.71300
H  20.05000 2.45800 30.20500
H  19.08700 0.69300 27.90800
H  18.89300 1.48800 26.34300
H  19.40000 2.53900 27.61500
H  25.69500 1.25000 24.28300
H  27.94500 -0.58200 24.83100
H  24.65500 -0.59700 23.57100
H  24.96700 -1.60100 25.04900
H  26.09100 -1.51500 23.71800
H  28.85300 2.06300 25.53000
H  27.58100 2.34200 24.36800
H  30.18300 2.00900 23.89400
H  29.04600 1.42900 22.71700
H  29.85900 0.23700 23.88900
H  32.31000 -0.29000 29.71000
H  31.53500 -0.31900 28.12000
H  31.76200 -1.80500 29.18900
H  29.44500 1.41000 33.76600
H  28.14200 -1.09600 36.74600
H  29.90400 -1.24800 37.25600
H  29.15600 -2.38300 36.14000

