158

Mg 48.18000 35.40700 28.06800
C  46.12100 33.67300 30.21100
C  48.39800 37.91900 30.36900
C  49.85700 37.30500 25.67000
C  47.31800 33.15200 25.53200
N  47.56700 35.65400 30.14800
C  46.76300 34.77700 30.81900
C  46.92600 35.08900 32.33300
C  47.12400 36.58600 32.28400
C  47.76400 36.73800 30.90100
C  45.94500 37.46200 32.58600
C  48.20900 34.32300 32.80100
C  47.88300 33.69200 34.15700
H  47.18000 34.60500 35.18200
N  49.09100 37.27400 28.02200
C  49.14000 38.11600 29.16200
C  50.05800 39.23500 28.82900
C  50.50900 39.01200 27.46500
C  49.83000 37.80900 26.98800
C  50.26300 40.40400 29.82300
C  51.50900 39.87800 26.71500
O  51.67800 39.77600 25.51600
C  52.37400 40.90600 27.27600
N  48.40500 35.31800 25.93500
C  49.13900 36.18300 25.17300
C  49.38300 35.73200 23.72200
C  48.82800 34.30000 23.75700
C  48.13700 34.23300 25.15000
C  48.87600 36.63600 22.51100
C  49.92800 33.21000 23.62400
C  50.25700 32.76100 22.21900
N  46.96200 33.72600 27.92500
C  46.70800 32.98100 26.80400
C  45.71500 31.95800 27.17500
C  45.39000 32.26400 28.47800
C  46.14000 33.34800 28.89300
C  45.14800 30.83700 26.37000
C  44.61700 31.85600 29.58300
O  43.79200 30.97900 29.64000
C  45.00900 32.75900 30.82800
C  45.38000 32.03600 32.11900
O  46.25100 31.22600 32.30200
O  44.37000 32.34000 33.03400
C  44.35400 31.64400 34.32100
H  48.44400 38.75600 31.07000
H  50.43500 37.84600 24.91800
H  47.07000 32.32600 24.86200
H  46.05200 34.79800 32.91600
H  47.84400 36.92000 33.03100
H  45.64500 38.07100 31.73400
H  46.11100 38.10900 33.44800
H  45.06400 36.85600 32.79400
H  49.09100 34.95100 32.92400
H  48.41000 33.46300 32.16200
H  48.82800 33.24500 34.46500
H  47.22600 32.83100 34.03000
H  50.43600 41.31500 29.25000
H  51.16000 40.19100 30.40400
H  49.37400 40.59100 30.42600
H  53.33800 40.97400 26.77200
H  52.69100 40.85900 28.31800
H  51.86200 41.86700 27.25300
H  50.46900 35.65000 23.68000
H  47.99000 34.29100 23.06000
H  48.21600 37.33300 23.02700
H  48.21500 36.07300 21.85200
H  49.63100 37.21500 21.98100
H  49.63500 32.42000 24.31600
H  50.89400 33.49800 24.04000
H  51.29100 32.93200 21.92000
H  49.55300 33.20600 21.51600
H  50.07000 31.68800 22.16700
H  45.92400 30.37200 25.76100
H  44.42400 31.28600 25.68900
H  44.55800 30.01800 26.77900
H  44.18800 33.43700 31.05800
H  45.00800 30.77200 34.31900
H  43.32600 31.35000 34.53400
H  44.63000 32.32000 35.13000
Mg -12.02400 16.16200 42.52600
C  -8.86000 14.69700 41.86900
C  -10.63100 19.11300 41.50300
C  -15.14800 17.42600 42.42200
C  -13.22800 12.98700 43.37800
N  -9.94200 16.78100 41.57700
C  -8.83000 16.04300 41.53200
C  -7.61100 16.85100 41.24700
C  -8.20200 18.25100 41.54500
C  -9.66400 18.07900 41.51900
C  -7.63000 18.73600 42.97300
C  -7.08500 16.76300 39.79600
C  -5.60700 16.32100 39.60900
H  -5.31700 15.16700 38.60300
N  -12.76700 17.99100 41.98300
C  -12.00900 19.10500 41.58300
C  -12.86700 20.14600 41.27700
C  -14.22400 19.82400 41.66300
C  -14.09800 18.38300 42.05100
C  -12.42100 21.39000 40.54900
C  -15.47600 20.74800 41.62800
O  -15.40800 21.92700 41.26600
C  -16.76200 20.25300 42.11000
N  -13.98700 15.32500 42.93800
C  -15.11400 16.06100 42.76500
C  -16.29700 15.20700 42.94700
C  -15.75700 13.72100 43.24100
C  -14.21200 14.00400 43.20400
C  -17.26800 15.65300 44.11800
C  -16.27900 12.70900 42.18000
C  -17.59400 12.12900 42.54800
N  -11.23900 14.20000 42.66100
C  -11.81100 13.03000 43.07600
C  -10.79400 11.96300 43.18000
C  -9.64200 12.57100 42.64300
C  -9.91600 13.92000 42.40900
C  -10.96100 10.53700 43.66300
C  -8.25500 12.31500 42.26200
O  -7.62900 11.29400 42.34500
C  -7.72600 13.66800 41.78700
C  -6.69500 14.03100 42.83400
O  -6.99100 14.11700 44.06200
O  -5.47600 14.25200 42.26400
C  -4.38000 14.78800 43.14000
H  -10.20600 20.11500 41.41500
H  -16.20200 17.71300 42.43500
H  -13.68900 12.04100 43.67100
H  -6.82700 16.61300 41.96600
H  -7.96100 18.99700 40.78800
H  -8.44600 18.47700 43.64800
H  -7.48600 19.81600 42.95300
H  -6.73600 18.24000 43.35100
H  -7.12200 17.69100 39.22500
H  -7.71400 16.06200 39.24900
H  -5.09200 16.12200 40.54900
H  -5.00900 17.19600 39.35400
H  -12.93000 21.47700 39.58900
H  -11.34400 21.55400 40.50500
H  -12.62800 22.25300 41.18200
H  -17.23600 19.53300 41.44300
H  -17.47100 21.08000 42.11300
H  -16.46300 19.87800 43.08900
H  -16.87900 15.36000 42.03800
H  -15.99200 13.35100 44.24000
H  -18.03600 16.33100 43.74400
H  -16.72000 16.17800 44.90000
H  -17.72800 14.78400 44.58800
H  -15.48700 11.98200 42.00300
H  -16.43900 13.28700 41.26900
H  -17.52200 11.44600 43.39400
H  -18.01800 11.55900 41.72200
H  -18.31300 12.93000 42.72100
H  -11.26700 10.47600 44.70700
H  -10.01800 10.06200 43.39300
H  -11.68800 9.91400 43.14100
H  -7.23500 13.74000 40.81600
H  -3.55900 14.07100 43.15200
H  -4.73300 14.96200 44.15700
H  -3.93700 15.74500 42.86600

