158

Mg 2.20800 -1.00300 44.72800
C  5.64400 -0.20000 43.96800
C  1.36600 1.57600 42.76500
C  -0.80200 -2.33800 44.56100
C  3.56500 -4.07200 46.09900
N  3.43500 0.49500 43.47600
C  4.76700 0.69000 43.39700
C  5.12400 2.00800 42.76900
C  3.70300 2.70400 42.71900
C  2.76400 1.54200 43.04700
C  3.41900 3.85700 43.70300
C  5.79500 1.78700 41.35000
C  6.93900 2.68400 40.91800
H  6.79600 3.34600 39.51100
N  0.48200 -0.36800 43.97900
C  0.32500 0.69100 43.13500
C  -1.04500 0.85400 42.69500
C  -1.72500 -0.27800 43.17400
C  -0.66500 -1.04300 43.92000
C  -1.63300 1.96600 41.80400
C  -3.11500 -0.55000 43.05500
O  -3.87300 0.12300 42.40300
C  -3.80600 -1.57300 43.82800
N  1.53500 -3.01500 45.08100
C  0.16300 -3.16600 45.27500
C  -0.24800 -4.44800 45.98600
C  1.19600 -5.08300 46.16600
C  2.20700 -3.96400 45.86400
C  -1.12700 -4.27700 47.29900
C  1.59900 -6.27800 45.25900
C  1.81500 -7.61200 46.04800
N  4.20700 -1.92200 45.14400
C  4.56800 -3.06800 45.87400
C  5.98500 -3.14900 46.00200
C  6.42900 -1.99900 45.28000
C  5.31500 -1.34400 44.77000
C  6.75400 -4.27800 46.70200
C  7.61900 -1.34100 44.85900
O  8.81500 -1.68500 44.84800
C  7.18500 -0.01300 44.10200
C  7.47100 1.10100 45.04400
O  6.69200 1.61100 45.77800
O  8.76200 1.54700 44.93100
C  9.36400 2.79600 45.53700
H  1.13200 2.48100 42.20100
H  -1.73200 -2.90900 44.58400
H  3.81200 -5.00500 46.60800
H  5.78000 2.62300 43.38500
H  3.63700 3.03100 41.68200
H  3.23700 3.43700 44.69300
H  2.63700 4.52800 43.34800
H  4.22600 4.54200 43.96400
H  5.03900 1.84400 40.56800
H  6.27500 0.80900 41.33100
H  7.82100 2.06000 40.77400
H  7.12500 3.52800 41.58200
H  -2.07000 1.72000 40.83600
H  -0.86900 2.73700 41.70400
H  -2.42900 2.34300 42.44600
H  -4.88500 -1.42100 43.80800
H  -3.36400 -1.52800 44.82400
H  -3.64500 -2.56100 43.39500
H  -0.83200 -5.02400 45.26800
H  1.37700 -5.30300 47.21800
H  -2.00500 -3.63200 47.31500
H  -0.55000 -3.96700 48.17100
H  -1.66400 -5.21800 47.41500
H  2.58100 -6.16800 44.80000
H  0.96500 -6.40600 44.38200
H  2.79600 -8.02200 45.80600
H  0.91600 -8.18000 45.80700
H  1.80300 -7.51300 47.13300
H  6.11500 -5.13900 46.50800
H  6.92900 -4.15300 47.77000
H  7.73400 -4.46800 46.26300
H  7.62800 0.13200 43.11700
H  8.57100 3.49000 45.81500
H  10.21000 3.31500 45.08500
H  9.85500 2.51600 46.46900
Mg -10.03800 39.68200 39.89200
C  -9.09600 36.33500 39.18200
C  -6.95500 40.70100 38.79700
C  -11.30200 42.92500 39.61300
C  -13.16400 38.59900 40.74100
N  -8.30900 38.57100 38.85900
C  -8.07100 37.24800 38.76300
C  -6.66800 36.95700 38.24900
C  -5.91900 38.34000 38.52300
C  -7.13500 39.23500 38.76300
C  -5.08300 38.30800 39.86400
C  -6.52900 36.38700 36.78200
C  -6.64100 37.28700 35.57500
H  -7.82400 37.16000 34.62900
N  -9.27000 41.50500 39.28500
C  -7.92900 41.71300 38.96200
C  -7.69300 43.12500 38.92900
C  -8.90400 43.77600 39.06900
C  -9.91700 42.73000 39.31900
C  -6.32400 43.77100 38.74400
C  -9.06100 45.34000 38.94200
O  -8.20300 46.10000 38.58000
C  -10.36900 45.95700 39.39600
N  -11.92300 40.66500 40.01900
C  -12.25600 41.98100 39.87600
C  -13.71700 42.39000 40.14400
C  -14.28700 40.95900 40.53500
C  -13.02800 39.98800 40.44600
C  -13.89200 43.52000 41.22500
C  -15.54300 40.61600 39.67400
C  -16.88300 40.84500 40.21600
N  -10.97200 37.82900 40.11100
C  -12.29500 37.56000 40.45700
C  -12.49900 36.13600 40.37400
C  -11.25800 35.62900 39.90100
C  -10.42900 36.68400 39.65400
C  -13.70300 35.33800 40.68300
C  -10.54600 34.39300 39.57100
O  -11.03900 33.26800 39.55300
C  -9.13600 34.76800 39.06000
C  -8.09000 34.04800 39.81800
O  -7.98300 33.99800 41.03100
O  -7.15600 33.61900 38.97600
C  -5.83700 33.10000 39.41300
H  -5.90400 40.96800 38.67300
H  -11.68300 43.93700 39.45900
H  -14.16900 38.32200 41.06500
H  -6.40800 36.14200 38.92400
H  -5.27300 38.75600 37.75100
H  -5.11300 37.32300 40.33000
H  -5.27300 39.04000 40.64900
H  -4.02600 38.56800 39.79400
H  -7.33500 35.65300 36.77400
H  -5.62600 35.77600 36.77100
H  -5.68600 37.15200 35.06800
H  -6.61700 38.30300 35.97100
H  -6.29200 44.20400 37.74400
H  -5.51000 43.05100 38.83100
H  -6.14600 44.59200 39.43900
H  -10.58700 45.71700 40.43700
H  -11.21400 45.82900 38.72000
H  -10.26300 47.04200 39.40900
H  -14.07600 42.78800 39.19500
H  -14.56100 40.96000 41.59000
H  -12.85300 43.69200 41.50500
H  -14.45200 43.21900 42.11000
H  -14.26300 44.42600 40.74500
H  -15.35600 39.64300 39.22000
H  -15.56700 41.34400 38.86400
H  -17.55100 39.98600 40.15900
H  -17.40400 41.69000 39.76500
H  -16.84200 41.01800 41.29100
H  -14.46400 35.34300 39.90200
H  -14.01700 35.74900 41.64200
H  -13.33700 34.31400 40.61700
H  -9.07100 34.49700 38.00600
H  -5.78800 33.18000 40.49900
H  -4.99000 33.54600 38.89300
H  -5.72600 32.04900 39.14400

