158

Mg 6.50700 53.66200 41.82100
C  5.53800 50.19400 41.50400
C  9.17600 52.94100 39.91100
C  6.67200 56.96300 41.03700
C  3.32600 54.27900 43.05700
N  7.27900 51.72800 40.94100
C  6.72600 50.51800 40.83900
C  7.68400 49.49000 40.27900
C  8.95500 50.35500 40.01300
C  8.46000 51.78800 40.31400
C  10.27500 49.93900 40.71400
C  7.16700 48.79700 38.98400
C  6.22200 49.59900 38.05500
H  5.41800 48.82200 36.97400
N  7.88100 54.83000 40.89700
C  8.96100 54.33600 40.14000
C  9.76000 55.38700 39.63600
C  9.12800 56.60500 40.08500
C  7.77200 56.14800 40.66200
C  11.06500 55.33300 38.84700
C  9.68900 58.02100 40.06900
O  10.85400 58.15000 39.62000
C  9.04400 59.27300 40.70000
N  5.09300 55.33300 41.76900
C  5.42100 56.66100 41.57900
C  4.35700 57.70300 41.97000
C  3.37300 56.80400 42.67200
C  3.98900 55.38100 42.58700
C  4.86800 58.87700 42.81300
C  1.90400 56.84500 42.12500
C  0.71000 56.85700 43.15100
N  4.84100 52.51300 42.40800
C  3.65200 52.93100 42.90800
C  2.87500 51.75200 43.23100
C  3.61400 50.66300 42.73700
C  4.75900 51.14300 42.19100
C  1.53500 51.81100 43.92700
C  3.57500 49.19600 42.55700
O  2.70700 48.41100 42.85700
C  4.94800 48.83300 41.82800
C  4.59400 47.89800 40.70400
O  3.84400 48.15600 39.74800
O  5.29300 46.75300 40.91900
C  4.81600 45.62200 40.15600
H  9.96200 52.68700 39.19700
H  6.86100 57.99900 40.75000
H  2.33800 54.44100 43.49300
H  7.85800 48.66900 40.97400
H  9.25000 50.38600 38.96400
H  9.95700 49.42600 41.62100
H  10.85400 50.82300 40.98100
H  10.87600 49.29100 40.07700
H  6.75300 47.81700 39.22300
H  8.05100 48.61700 38.37200
H  6.86600 50.17800 37.39300
H  5.52000 50.18700 38.64700
H  11.20500 54.41800 38.27100
H  11.97600 55.37900 39.44300
H  11.00500 56.01600 37.99900
H  8.51400 58.89300 41.57400
H  8.39600 59.78800 39.99100
H  9.77000 60.02900 40.99700
H  3.94400 58.15200 41.06600
H  3.29300 57.02300 43.73700
H  4.42400 58.82600 43.80700
H  4.78700 59.80700 42.24900
H  5.94500 58.72000 42.88200
H  1.86700 56.02300 41.41000
H  1.84200 57.66600 41.41100
H  1.12000 56.43100 44.06700
H  -0.00700 56.11100 42.80700
H  0.24800 57.83800 43.25700
H  0.93200 52.65100 43.58200
H  1.69800 51.96900 44.99300
H  1.23100 50.80200 43.65100
H  5.58200 48.39200 42.59800
H  5.45100 44.76000 40.35700
H  4.82500 45.89000 39.09900
H  3.77900 45.48500 40.46300
Mg -10.48500 40.91500 42.61000
C  -9.71400 37.62900 41.81300
C  -7.58700 41.92000 41.06000
C  -11.50600 43.99400 43.15100
C  -13.86000 39.69700 43.39200
N  -8.84800 39.83600 41.45900
C  -8.71500 38.54500 41.37000
C  -7.60900 38.14400 40.45500
C  -6.75700 39.50400 40.35700
C  -7.78100 40.53600 40.95000
C  -5.32600 39.60500 41.00400
C  -7.99800 37.57900 39.09100
C  -7.42400 36.21800 38.63900
H  -6.29700 36.16800 37.54600
N  -9.57800 42.69000 42.21500
C  -8.34900 42.91000 41.66600
C  -8.22300 44.38300 41.63200
C  -9.32700 45.00600 42.20100
C  -10.17500 43.91000 42.55200
C  -6.94800 45.00200 41.25600
C  -9.43200 46.54600 42.37800
O  -8.66800 47.28600 41.72500
C  -10.56900 47.18900 43.24500
N  -12.45700 41.66300 43.15400
C  -12.50500 43.02200 43.43900
C  -13.88900 43.41100 43.82800
C  -14.73300 42.09000 43.71400
C  -13.66200 41.06600 43.37300
C  -13.88500 44.17400 45.15400
C  -15.99600 42.11800 42.81500
C  -16.75600 43.43800 42.71100
N  -11.56500 39.07300 42.75100
C  -12.88800 38.77700 43.10800
C  -13.01200 37.36500 43.04400
C  -11.76700 36.90700 42.63900
C  -10.93700 37.96100 42.43900
C  -14.16400 36.55200 43.35800
C  -11.04800 35.65900 42.26300
O  -11.39000 34.46900 42.29600
C  -9.68000 36.13800 41.71600
C  -8.54100 35.40500 42.37800
O  -7.82000 35.82200 43.24500
O  -8.42600 34.19800 41.80400
C  -7.48700 33.17600 42.32200
H  -6.62000 42.33600 40.76700
H  -11.92800 44.99500 43.26400
H  -14.81500 39.30100 43.74300
H  -6.92300 37.42800 40.90700
H  -6.76400 39.71200 39.28700
H  -5.44200 40.43300 41.70400
H  -4.62200 39.93400 40.23900
H  -4.93100 38.68500 41.43400
H  -7.69500 38.17700 38.23100
H  -9.07700 37.44600 39.01400
H  -8.26900 35.67000 38.22300
H  -7.04100 35.66500 39.49600
H  -6.81600 45.39100 40.24700
H  -6.12700 44.29000 41.17500
H  -6.65600 45.76500 41.97800
H  -10.17100 48.11400 43.66100
H  -10.81500 46.50700 44.05900
H  -11.43800 47.40200 42.62300
H  -14.23100 44.21400 43.17400
H  -15.10500 41.82000 44.70300
H  -14.13100 45.22800 45.02700
H  -12.98000 44.18200 45.76200
H  -14.62200 43.74300 45.83200
H  -16.57900 41.27900 43.19500
H  -15.62600 41.84200 41.82800
H  -17.82100 43.21400 42.76800
H  -16.56000 43.88900 41.73900
H  -16.46300 44.18500 43.44800
H  -15.04400 37.19300 43.29100
H  -13.93000 36.19000 44.35900
H  -14.11500 35.71600 42.66000
H  -9.57400 35.81600 40.68000
H  -6.96600 32.73200 41.47400
H  -8.06100 32.37600 42.78800
H  -6.89500 33.62700 43.11800

