158

Mg 9.21500 4.56400 27.26700
C  10.54100 2.94500 30.00600
C  6.88200 6.04000 29.54300
C  7.51500 5.90600 24.74100
C  10.83700 2.31300 25.13200
N  8.64200 4.39600 29.53400
C  9.52600 3.86000 30.42100
C  9.10600 4.22600 31.85200
C  7.85700 5.06900 31.61600
C  7.76000 5.14900 30.15200
C  6.55900 4.76000 32.45000
C  10.21300 4.95200 32.61900
C  9.85600 5.38000 34.06100
H  10.70200 4.81100 35.23300
N  7.56100 5.93400 27.11200
C  6.74900 6.37200 28.16900
C  5.82200 7.31900 27.64300
C  6.07300 7.41600 26.29900
C  7.08700 6.37300 25.98900
C  4.71900 8.09300 28.52900
C  5.51400 8.38700 25.29900
O  5.82000 8.26300 24.12600
C  4.50800 9.40200 25.77500
N  9.12600 4.09100 25.28800
C  8.38900 4.90000 24.40400
C  8.73200 4.67600 22.93200
C  9.93800 3.62400 23.08300
C  10.04600 3.30500 24.53000
C  7.61300 4.34100 21.92500
C  11.27300 4.25800 22.72300
C  11.56300 5.62600 23.33400
N  10.50100 3.02000 27.41700
C  11.10300 2.15200 26.49300
C  11.92900 1.19800 27.15000
C  11.71800 1.55100 28.52700
C  10.83900 2.56800 28.66600
C  12.94700 0.20200 26.59000
C  12.19100 1.17300 29.78700
O  12.94200 0.25800 30.11800
C  11.38400 2.01800 30.84500
C  10.56900 1.07600 31.67500
O  9.36600 0.73400 31.50700
O  11.35000 0.65600 32.73200
C  10.58300 0.14500 33.92100
H  6.09000 6.46800 30.16100
H  6.99900 6.30900 23.86600
H  11.37000 1.54800 24.56400
H  8.86900 3.32200 32.41300
H  8.04500 6.08800 31.95500
H  5.77600 4.24400 31.89400
H  6.09200 5.68400 32.79000
H  6.88800 4.15500 33.29500
H  10.56300 5.79500 32.02400
H  11.03100 4.23300 32.57900
H  8.81700 5.22000 34.35000
H  10.04300 6.44800 33.94900
H  4.55500 7.47600 29.41200
H  3.74300 8.12600 28.04500
H  5.01400 9.10300 28.81300
H  4.17100 10.08400 24.99500
H  4.98900 10.02200 26.53200
H  3.59500 8.99600 26.21000
H  9.13800 5.59700 22.51300
H  9.71400 2.74500 22.47900
H  7.77300 3.43700 21.33800
H  7.46800 5.19600 21.26400
H  6.69600 4.10600 22.46500
H  11.32800 4.42900 21.64800
H  12.06800 3.55800 22.98100
H  10.75400 5.96200 23.98300
H  11.65800 6.40000 22.57200
H  12.45500 5.69400 23.95600
H  13.33800 0.29100 25.57700
H  12.52800 -0.79400 26.73700
H  13.82600 0.30500 27.22500
H  12.10500 2.48100 31.51900
H  11.30900 0.02900 34.72700
H  9.99700 -0.74700 33.70000
H  9.93700 1.00100 34.11500
Mg -5.52200 25.58200 26.29100
C  -4.53300 27.42900 29.32300
C  -7.35700 23.59500 28.54500
C  -6.31700 23.72400 23.80100
C  -3.30000 27.53000 24.60300
N  -5.94700 25.59600 28.71600
C  -5.34900 26.36600 29.70600
C  -5.80600 25.85000 31.11900
C  -6.68100 24.57000 30.83700
C  -6.71700 24.59600 29.30300
C  -6.04100 23.21500 31.48000
C  -6.60400 26.89700 31.88800
C  -6.42000 27.01900 33.41800
H  -5.84400 25.93500 34.23800
N  -6.72000 23.98000 26.16900
C  -7.35000 23.27900 27.17500
C  -8.21600 22.22900 26.55400
C  -7.90400 22.26900 25.15900
C  -6.96900 23.34500 25.02700
C  -9.15700 21.36600 27.36900
C  -8.42400 21.39100 24.06100
O  -7.98800 21.38000 22.92300
C  -9.54400 20.37900 24.34600
N  -4.93800 25.66400 24.49000
C  -5.39200 24.71000 23.56800
C  -4.72300 24.88700 22.14700
C  -3.86900 26.26000 22.38000
C  -4.03100 26.45200 23.91200
C  -3.90200 23.60200 21.68600
C  -4.38300 27.65100 21.74100
C  -4.10700 27.82200 20.28900
N  -4.25100 27.18300 26.72700
C  -3.38600 27.83800 25.93100
C  -2.72600 28.87100 26.64800
C  -3.15600 28.78300 27.94200
C  -4.12900 27.75800 27.98000
C  -1.84100 29.85800 25.98000
C  -3.04000 29.32700 29.26300
O  -2.25900 30.20000 29.64900
C  -3.83200 28.47800 30.19400
C  -2.83600 27.79100 31.05300
O  -2.19400 26.80900 30.66300
O  -2.69300 28.35000 32.27500
C  -1.97300 27.50700 33.27700
H  -7.78500 22.84200 29.21000
H  -6.50200 23.14800 22.89200
H  -2.66700 28.24000 24.06700
H  -4.91500 25.59200 31.69100
H  -7.73000 24.70100 31.10300
H  -6.78900 22.65100 32.03600
H  -5.24800 23.54000 32.15300
H  -5.64400 22.56300 30.70100
H  -7.61000 26.93900 31.47000
H  -6.18400 27.77300 31.39400
H  -7.44300 27.03400 33.79200
H  -5.84400 27.94000 33.50900
H  -10.10600 21.11900 26.89400
H  -9.34100 21.74900 28.37300
H  -8.63000 20.42700 27.53800
H  -9.38100 19.67400 25.16100
H  -9.63700 19.76100 23.45200
H  -10.48600 20.91500 24.46100
H  -5.34000 24.99800 21.25600
H  -2.82100 26.11800 22.11600
H  -2.86400 23.77100 21.39900
H  -4.27300 23.23600 20.72900
H  -4.02200 22.71400 22.30700
H  -4.11100 28.51400 22.34800
H  -5.46700 27.54900 21.77900
H  -3.91100 26.82800 19.88700
H  -3.17600 28.38900 20.30000
H  -4.86000 28.40100 19.75500
H  -2.35900 30.34500 25.15400
H  -1.05600 29.34400 25.42600
H  -1.34800 30.56400 26.64900
H  -4.54900 29.04300 30.78900
H  -2.06200 26.42900 33.14000
H  -2.32700 27.82100 34.25800
H  -0.89900 27.69000 33.24200

