158

Mg 34.95400 4.08400 30.17800
C  32.39600 4.98100 32.75100
C  37.14200 4.04900 32.86800
C  37.23300 3.07500 28.07700
C  32.48600 4.15300 27.78300
N  34.71300 4.42600 32.54600
C  33.63700 4.76900 33.32400
C  33.96600 4.97000 34.76900
C  35.57000 4.86500 34.78400
C  35.82300 4.37800 33.31100
C  36.42400 6.08300 35.31400
C  33.19100 3.95300 35.64300
C  33.38100 3.98300 37.19700
H  34.05100 5.23100 37.82400
N  36.87900 3.73600 30.35000
C  37.68100 3.85400 31.50700
C  39.02600 3.49600 31.23900
C  39.10700 3.22800 29.87100
C  37.69900 3.34000 29.36500
C  40.09700 3.51800 32.29400
C  40.27500 2.81400 29.03100
O  40.18700 2.58200 27.77100
C  41.57100 2.48200 29.70600
N  34.92000 3.65200 28.14600
C  35.97500 3.25200 27.42600
C  35.64800 2.94600 25.94000
C  34.15800 3.40200 25.92500
C  33.80600 3.72600 27.38000
C  36.60100 3.63400 24.94800
C  33.08400 2.48100 25.22700
C  32.88800 1.18700 25.91200
N  32.93400 4.47700 30.24000
C  32.11900 4.51200 29.04300
C  30.74800 4.95800 29.53400
C  30.82900 5.12500 30.91700
C  32.16100 4.84800 31.34800
C  29.52000 5.06600 28.66300
C  30.04200 5.39800 32.09400
O  28.84600 5.75400 32.20800
C  31.09200 5.44000 33.30300
C  31.05500 6.77500 33.91300
O  31.61300 7.75300 33.51100
O  30.49300 6.69900 35.18600
C  30.76200 7.76000 36.17900
H  37.80100 4.02600 33.73800
H  37.97200 2.71600 27.35700
H  31.74000 4.20800 26.98800
H  33.52100 5.93600 35.00900
H  35.81200 3.98500 35.38000
H  37.23300 5.63600 35.89200
H  35.89000 6.75300 35.98800
H  36.81200 6.62500 34.45200
H  33.32400 2.96600 35.20000
H  32.13200 4.19500 35.55900
H  34.02700 3.14600 37.46300
H  32.42600 3.81700 37.69600
H  39.68300 4.10200 33.11600
H  40.93600 4.02200 31.81300
H  40.38800 2.54600 32.69000
H  41.51400 1.60300 30.34700
H  41.88000 3.28900 30.37100
H  42.32300 2.38000 28.92300
H  35.80200 1.88300 25.75500
H  34.08200 4.40400 25.50300
H  37.19000 4.41800 25.42300
H  35.99100 4.06600 24.15400
H  37.18700 2.83400 24.49400
H  33.51300 2.21400 24.26200
H  32.16200 3.05400 25.12700
H  31.90000 1.22600 26.37200
H  33.62400 1.16700 26.71500
H  33.10800 0.34900 25.25000
H  29.64900 4.57300 27.69900
H  29.20500 6.09500 28.48800
H  28.72100 4.68400 29.29800
H  30.93900 4.63400 34.02100
H  29.91200 8.43700 36.26500
H  31.66100 8.36400 36.05500
H  30.78600 7.35400 37.19000
Mg 27.17500 50.10300 26.52900
C  25.11200 51.12800 29.19400
C  29.37600 49.10300 28.74500
C  29.23400 49.61700 23.93900
C  24.91400 51.69800 24.32500
N  27.25800 50.36600 28.72400
C  26.24000 50.59000 29.58800
C  26.65100 50.13000 30.98900
C  28.10000 49.65900 30.83400
C  28.20600 49.63500 29.32800
C  29.19100 50.63500 31.49300
C  25.73600 49.01000 31.53000
C  25.35500 49.08200 33.06800
H  26.30200 49.52800 34.15100
N  29.07800 49.41100 26.32400
C  29.81800 48.96000 27.36700
C  31.02800 48.29000 26.84700
C  30.99800 48.45900 25.46200
C  29.70400 49.17400 25.17600
C  32.03700 47.70200 27.76600
C  32.07900 48.14800 24.39000
O  31.94600 48.48400 23.21400
C  33.36800 47.55600 24.95600
N  27.10400 50.59800 24.47800
C  28.04700 50.37700 23.61400
C  27.62800 50.55800 22.14500
C  26.07000 50.85300 22.29500
C  25.98000 51.01000 23.83100
C  28.48900 51.71100 21.54700
C  25.15600 49.76300 21.72400
C  23.89700 50.27400 21.03100
N  25.48900 51.31400 26.70600
C  24.63200 51.83000 25.72300
C  23.45800 52.44900 26.29500
C  23.60400 52.14300 27.62800
C  24.80100 51.48200 27.84300
C  22.42300 53.19600 25.55900
C  22.94800 52.11200 28.96600
O  21.86600 52.52300 29.23100
C  23.95800 51.50900 30.03900
C  24.25900 52.56900 31.05500
O  24.97400 53.56800 30.88600
O  23.59500 52.25900 32.18400
C  24.13000 53.01800 33.29500
H  30.11100 48.70300 29.44600
H  29.80600 49.38300 23.03800
H  24.20700 52.14400 23.62200
H  26.60800 50.93600 31.72000
H  28.22300 48.61500 31.11900
H  28.65800 51.47100 31.94500
H  29.81300 50.91700 30.64400
H  29.79700 50.25800 32.31700
H  26.24000 48.04800 31.43400
H  24.73800 49.01100 31.09100
H  24.90100 48.10300 33.22500
H  24.58900 49.85700 33.05200
H  32.31500 46.68500 27.49200
H  31.75000 47.68500 28.81700
H  32.89300 48.37600 27.73600
H  34.09500 47.54600 24.14400
H  33.23400 46.51900 25.26300
H  33.81400 48.07300 25.80500
H  27.79400 49.64500 21.57300
H  25.76000 51.82800 21.91800
H  29.44800 51.87600 22.03800
H  27.92000 52.62800 21.70000
H  28.68000 51.51500 20.49200
H  24.77100 49.08500 22.48600
H  25.66000 49.14000 20.98500
H  23.92100 51.36400 21.00100
H  23.04400 49.88600 21.58700
H  23.76500 49.95700 19.99700
H  21.59200 52.59800 25.18400
H  22.87600 53.78300 24.76100
H  22.03900 53.85500 26.33800
H  23.37600 50.72000 30.51400
H  25.11600 52.61600 33.52500
H  23.49400 52.80000 34.15300
H  24.21700 54.10300 33.35100

