158

Mg 49.43400 35.72400 27.49400
C  47.40200 34.05000 29.70800
C  50.01100 38.15300 29.84500
C  50.75100 37.64200 25.16300
C  48.68900 33.30900 25.03900
N  48.88600 35.89800 29.57600
C  48.07900 35.05800 30.28500
C  47.99000 35.47900 31.73100
C  48.58400 36.92300 31.64100
C  49.27800 36.99500 30.26600
C  47.52300 38.05200 31.90100
C  48.79200 34.49300 32.62300
C  48.38700 34.17400 34.10300
H  47.35200 35.11700 34.77600
N  50.31100 37.60000 27.47600
C  50.46800 38.39000 28.54900
C  50.99300 39.69500 28.10600
C  51.24000 39.60900 26.70200
C  50.67000 38.26300 26.34900
C  51.16600 40.85600 29.07600
C  51.95500 40.57900 25.87100
O  52.25300 40.34100 24.71500
C  52.49500 41.84700 26.39700
N  49.83100 35.41200 25.31500
C  50.42000 36.40600 24.66100
C  50.47300 35.99200 23.18000
C  49.92500 34.54100 23.15500
C  49.39500 34.39800 24.55000
C  49.68500 36.92400 22.22200
C  50.90000 33.43100 22.79000
C  51.71300 33.51000 21.47500
N  48.36300 33.98600 27.35500
C  48.18600 33.12300 26.32100
C  47.34200 32.01500 26.78700
C  46.96500 32.37400 28.09800
C  47.57300 33.56700 28.36800
C  46.99400 30.70900 26.09200
C  46.15900 31.95800 29.24500
O  45.42300 30.98900 29.45400
C  46.27700 33.09800 30.31900
C  46.64000 32.42500 31.65900
O  47.61500 31.72200 31.93900
O  45.53300 32.60900 32.48700
C  45.54900 31.70700 33.66300
H  49.98100 38.92900 30.61300
H  51.07000 38.36100 24.40500
H  48.52200 32.43900 24.40000
H  46.91500 35.45400 31.90500
H  49.27100 37.12900 32.46200
H  46.52200 37.68300 32.12600
H  47.42200 38.54600 30.93400
H  47.95300 38.69100 32.67200
H  49.78000 34.93500 32.75800
H  49.06100 33.62900 32.01500
H  49.32000 34.20000 34.66600
H  48.18300 33.12300 34.30700
H  50.57800 41.67300 28.65800
H  52.18900 41.16900 29.28500
H  50.74800 40.56700 30.04100
H  51.73900 42.51600 26.80800
H  53.08800 42.40800 25.67400
H  53.28800 41.60800 27.10600
H  51.49300 35.95800 22.79800
H  49.06200 34.38400 22.50800
H  49.08000 36.41400 21.47300
H  50.47100 37.50200 21.73600
H  49.04500 37.63000 22.75200
H  50.34100 32.50100 22.69200
H  51.47600 33.49600 23.71300
H  52.75000 33.72600 21.73100
H  51.15600 34.20800 20.85000
H  51.74400 32.54100 20.97700
H  46.68700 31.02100 25.09300
H  46.23000 30.12500 26.60600
H  47.94600 30.17900 26.07400
H  45.40200 33.74400 30.38800
H  44.54900 31.31000 33.84300
H  45.81900 32.33000 34.51600
H  46.21300 30.84500 33.60100
Mg 1.55900 41.22600 24.89400
C  2.23400 41.84900 28.37800
C  -1.47000 40.06500 25.73800
C  1.18400 40.07700 21.70700
C  4.76000 42.31700 24.21100
N  0.55900 40.87400 26.82000
C  1.01500 41.23400 28.06600
C  -0.07500 41.08100 29.07800
C  -1.25000 40.41100 28.22100
C  -0.73900 40.39000 26.80400
C  -1.57200 38.97000 28.63300
C  -0.58100 42.38700 29.76900
C  -0.56600 42.49700 31.31300
H  -0.89700 41.30400 32.17700
N  -0.03400 40.41100 23.78000
C  -1.14100 39.87800 24.36000
C  -2.01100 39.31400 23.34200
C  -1.25700 39.28400 22.13300
C  0.01200 39.92500 22.46300
C  -3.47500 39.07900 23.54900
C  -1.70700 38.88000 20.73700
O  -0.93800 38.83500 19.80200
C  -3.16900 38.44400 20.51700
N  2.78500 41.20700 23.26900
C  2.43600 40.63800 22.04700
C  3.60900 40.68300 21.01000
C  4.58500 41.71200 21.69500
C  4.01100 41.72800 23.17800
C  4.19000 39.23200 20.72000
C  4.68200 43.16000 20.98900
C  4.17800 44.43600 21.80300
N  3.28800 41.88100 25.99900
C  4.44900 42.40000 25.59400
C  5.28500 42.88000 26.68600
C  4.42600 42.68800 27.80400
C  3.23300 42.07400 27.38000
C  6.65400 43.43800 26.68600
C  4.30600 42.87000 29.28600
O  5.09000 43.36400 30.09200
C  2.87900 42.29200 29.69600
C  3.25200 41.14700 30.53900
O  3.85500 40.13800 30.08700
O  2.82100 41.30700 31.82200
C  3.06800 40.25300 32.72800
H  -2.46700 39.74800 26.04900
H  1.19400 39.62400 20.71300
H  5.75300 42.68400 23.94500
H  0.29100 40.35200 29.80100
H  -2.13100 41.04600 28.30900
H  -1.00800 38.67200 29.51600
H  -1.45100 38.25100 27.82200
H  -2.65500 38.93600 28.75500
H  -1.59300 42.67100 29.47800
H  0.14600 43.09300 29.36900
H  -1.10600 43.36400 31.69500
H  0.46900 42.79200 31.48700
H  -4.02500 39.89200 23.07600
H  -3.73900 39.06900 24.60600
H  -3.75700 38.10700 23.14200
H  -3.23000 37.40000 20.82600
H  -3.41800 38.57500 19.46400
H  -3.85800 38.99000 21.16100
H  3.18500 41.04300 20.07200
H  5.55400 41.21400 21.66000
H  3.90100 38.46100 21.43500
H  5.20800 39.30800 20.33800
H  3.73500 38.85000 19.80600
H  4.04300 43.12500 20.10700
H  5.66300 43.42900 20.59500
H  3.40900 44.94400 21.22000
H  5.05600 45.07000 21.92400
H  3.86400 44.20500 22.82100
H  6.72200 44.52600 26.72400
H  7.23600 43.13800 25.81400
H  7.33000 43.07500 27.46000
H  2.27400 42.98500 30.28000
H  2.29600 39.50500 32.54200
H  2.87500 40.70500 33.70100
H  4.02300 39.75100 32.57400

