158

Mg 8.96500 3.66400 27.84500
C  10.31600 2.08700 30.78200
C  7.31300 5.72600 29.84400
C  7.53900 4.76800 25.00000
C  10.31800 1.00000 26.03800
N  8.71100 3.77500 30.09000
C  9.48100 3.13100 31.09900
C  9.16000 3.75000 32.45000
C  8.13900 4.86800 32.11400
C  7.93800 4.72200 30.60800
C  6.73800 4.82700 32.76500
C  10.44700 4.36700 33.09700
C  10.32400 5.04100 34.49200
H  10.98500 4.23400 35.61500
N  7.68000 5.13800 27.41100
C  7.14400 5.87400 28.40000
C  6.32200 6.86700 27.73600
C  6.40300 6.67100 26.30000
C  7.22300 5.50400 26.15100
C  5.64700 7.91900 28.51600
C  5.75900 7.43000 25.21100
O  5.90000 7.12000 24.03700
C  4.85600 8.53700 25.55500
N  9.05000 2.96800 25.84100
C  8.43500 3.69300 24.82400
C  8.78800 3.15800 23.43900
C  9.70800 1.97200 23.77200
C  9.63200 1.89500 25.29500
C  7.63700 2.73100 22.48700
C  11.10400 1.91200 23.17200
C  11.26900 1.16600 21.86100
N  10.16300 1.90100 28.21100
C  10.57900 0.91200 27.38700
C  11.31400 -0.03600 28.06000
C  11.30700 0.42000 29.36900
C  10.49600 1.52600 29.44100
C  11.98300 -1.30400 27.47800
C  11.65200 0.08500 30.77100
O  12.29400 -0.87500 31.24700
C  11.18500 1.23500 31.66500
C  10.48600 0.71300 32.80100
O  9.46200 0.04700 32.83900
O  11.23600 0.85700 33.89100
C  10.96800 0.17300 35.16300
H  6.70300 6.48400 30.34100
H  7.25500 5.15500 24.01900
H  10.77500 0.20600 25.44400
H  8.84200 2.95000 33.11800
H  8.61000 5.81300 32.38400
H  6.84200 4.55100 33.81500
H  6.18100 4.13200 32.13800
H  6.30400 5.82200 32.66500
H  10.92000 5.09600 32.43900
H  11.15900 3.54800 33.20100
H  9.25600 4.96900 34.69800
H  10.64800 6.07700 34.58600
H  5.74600 8.86000 27.97600
H  5.84600 8.10800 29.57100
H  4.59900 7.62300 28.58100
H  4.55200 9.07900 24.65900
H  5.60100 9.25300 25.90100
H  4.03100 8.27200 26.21600
H  9.26200 4.06400 23.06300
H  9.24300 0.99000 23.68600
H  7.38800 3.61400 21.89800
H  6.74600 2.49800 23.07100
H  7.85900 1.89100 21.82900
H  11.83800 1.59300 23.91200
H  11.35700 2.94600 22.93700
H  11.73600 1.78200 21.09200
H  10.27200 1.03100 21.44100
H  11.83900 0.24300 21.96700
H  13.01300 -0.98100 27.32600
H  11.48600 -1.53000 26.53400
H  11.98400 -2.22400 28.06200
H  12.12600 1.68500 31.97900
H  9.93700 -0.17600 35.22400
H  11.25100 0.73900 36.05100
H  11.60300 -0.70900 35.24500
Mg 35.95000 50.25500 24.18400
C  35.78700 48.67400 27.44500
C  35.02600 53.22900 25.76500
C  36.09300 51.49500 21.26700
C  36.85400 47.05400 23.06000
N  35.48100 50.85600 26.35400
C  35.49500 50.04500 27.47800
C  35.17900 50.88800 28.81200
C  34.89200 52.33600 28.21400
C  35.15600 52.14100 26.66900
C  33.51500 52.94800 28.55100
C  36.42200 50.87200 29.83300
C  36.14600 50.56800 31.30200
H  34.73100 50.72100 31.83000
N  35.59200 52.12500 23.59600
C  35.28600 53.20600 24.38100
C  35.04900 54.33400 23.45600
C  35.37400 53.85900 22.13300
C  35.79900 52.48800 22.31800
C  34.77900 55.78500 24.00300
C  35.18300 54.56700 20.86100
O  35.48600 54.03500 19.74200
C  34.55100 55.99200 20.84700
N  36.19700 49.36900 22.48000
C  36.38500 50.09400 21.32500
C  36.79700 49.24800 20.11000
C  37.06500 47.83300 20.69700
C  36.64500 48.09800 22.18300
C  35.76800 49.15800 19.02500
C  38.53400 47.24700 20.51000
C  38.61700 45.85500 20.00400
N  36.05300 48.17000 24.97400
C  36.42100 47.03300 24.36100
C  36.54600 45.98000 25.31200
C  36.35300 46.58500 26.52700
C  36.01700 47.92900 26.29200
C  36.93800 44.51500 25.01900
C  36.30300 46.34400 27.94800
O  36.52000 45.30500 28.55700
C  35.84300 47.62400 28.64900
C  34.53400 47.42100 29.31900
O  33.43100 47.33500 28.81800
O  34.80900 47.24700 30.72100
C  33.78100 46.71700 31.63500
H  34.72400 54.19500 26.17500
H  36.18800 51.88900 20.25300
H  37.25000 46.15600 22.57900
H  34.34700 50.32600 29.23700
H  35.65200 52.99200 28.63900
H  32.95100 52.75300 27.64000
H  33.61900 53.98500 28.87000
H  33.08500 52.39700 29.38700
H  36.96800 51.81400 29.88900
H  37.09700 50.10600 29.45100
H  36.82100 51.21800 31.85800
H  36.38500 49.53200 31.53900
H  35.09000 55.92000 25.03900
H  33.72600 56.03100 24.14700
H  35.36700 56.47600 23.39900
H  34.26600 56.25400 19.82800
H  35.28600 56.65900 21.29800
H  33.58600 56.02000 21.35200
H  37.70400 49.74300 19.76200
H  36.27600 47.12800 20.43300
H  34.76700 48.91200 19.37800
H  36.12500 48.40600 18.32100
H  35.72500 50.12800 18.52700
H  39.24100 47.28200 21.34000
H  39.08900 47.87300 19.81100
H  38.74900 45.80700 18.92300
H  37.66600 45.38300 20.24900
H  39.23000 45.19100 20.61300
H  36.21200 43.99300 24.39700
H  37.10500 43.97500 25.95100
H  37.75500 44.71000 24.32400
H  36.45800 48.04500 29.44500
H  32.86000 47.30100 31.64000
H  34.14900 46.63000 32.65700
H  33.46400 45.73000 31.29900

