158

Mg 40.81700 9.90700 30.07500
C  42.38300 10.95200 32.94500
C  38.04600 8.90300 31.87900
C  39.52000 8.66700 27.15800
C  43.49900 11.23900 28.21200
N  40.35900 9.71800 32.21000
C  41.09300 10.34200 33.14600
C  40.31800 10.51200 34.45000
C  39.09900 9.63700 34.19400
C  39.09000 9.45500 32.63000
C  38.90700 8.28300 34.98300
C  40.05600 11.99900 34.76200
C  39.56300 12.20500 36.15500
H  40.44600 13.02100 37.09700
N  39.02700 8.94900 29.59300
C  38.00200 8.56800 30.45900
C  37.04700 7.69300 29.67500
C  37.46000 7.66700 28.33500
C  38.69400 8.48700 28.28400
C  35.86300 7.06900 30.28700
C  36.82200 6.96900 27.15500
O  37.24100 7.15600 26.06600
C  35.61200 6.26300 27.30400
N  41.47300 9.89200 27.95100
C  40.67000 9.37600 26.98900
C  41.27100 9.69200 25.64400
C  42.40600 10.77900 25.99200
C  42.48000 10.69400 27.45200
C  41.73000 8.47900 24.72800
C  42.13000 12.21400 25.43600
C  41.01600 12.97500 26.14100
N  42.68500 10.69900 30.44900
C  43.63500 11.20400 29.59500
C  44.74400 11.67700 30.40300
C  44.30100 11.64400 31.71200
C  43.02800 11.09600 31.71600
C  45.98500 12.26600 29.85300
C  44.57600 12.03200 33.05200
O  45.58400 12.57600 33.56000
C  43.33500 11.60000 33.91600
C  43.80400 10.66300 34.94300
O  44.49600 9.64800 34.65500
O  43.40800 11.13800 36.21800
C  43.66700 10.21100 37.31900
H  37.10100 8.63200 32.35400
H  39.29200 8.16400 26.21500
H  44.27600 11.63700 27.55700
H  40.80100 10.02200 35.29500
H  38.22800 10.17500 34.56900
H  39.84600 8.16000 35.52200
H  38.76500 7.42300 34.32800
H  38.09100 8.44500 35.68800
H  39.31200 12.40800 34.07800
H  40.96800 12.58000 34.62800
H  39.44800 11.31900 36.78000
H  38.59800 12.70600 36.07400
H  35.09700 7.83500 30.17600
H  35.99300 6.88900 31.35500
H  35.66700 6.06600 29.90600
H  35.42100 5.98400 26.26700
H  34.85400 7.02200 27.49400
H  35.62300 5.34100 27.88400
H  40.56300 10.30300 25.08400
H  43.38500 10.42800 25.66500
H  41.30700 7.54400 25.09600
H  42.80600 8.31600 24.66000
H  41.31700 8.73100 23.75100
H  41.92500 12.01500 24.38400
H  43.03400 12.81300 25.54100
H  41.31900 13.99300 26.38800
H  40.55200 12.48100 26.99500
H  40.23600 13.07100 25.38700
H  46.66400 12.44500 30.68700
H  45.64800 13.05400 29.18000
H  46.51600 11.54800 29.22900
H  43.03100 12.53300 34.39100
H  44.46600 9.49200 37.13900
H  42.74000 9.74900 37.65800
H  43.99600 10.86100 38.13000
Mg -2.01300 34.50500 27.16200
C  -3.65900 32.36400 29.51600
C  -0.81700 36.26200 29.88500
C  -0.66200 36.55100 24.92600
C  -3.53900 32.59600 24.60900
N  -2.28900 34.39700 29.46200
C  -3.00000 33.44900 30.16800
C  -2.85600 33.65200 31.68100
C  -2.11600 35.05600 31.73500
C  -1.74300 35.22200 30.30800
C  -2.84500 36.31300 32.33800
C  -2.04300 32.46600 32.34800
C  -2.62300 31.82600 33.63000
H  -1.85900 31.85200 34.98200
N  -0.86000 36.02800 27.40900
C  -0.40800 36.59500 28.57400
C  0.64000 37.57100 28.27800
C  0.57800 37.72900 26.85400
C  -0.37800 36.76200 26.32000
C  1.62800 38.07600 29.32400
C  1.44300 38.72100 25.94600
O  1.32800 38.89000 24.72700
C  2.52400 39.59300 26.63400
N  -2.19400 34.65500 25.01100
C  -1.55700 35.62100 24.33400
C  -1.81100 35.49200 22.76200
C  -2.42100 34.03300 22.68700
C  -2.77000 33.71000 24.20100
C  -2.83300 36.52200 22.25900
C  -1.60500 32.93600 22.01700
C  -2.36700 31.67200 21.55600
N  -3.44200 32.92900 27.04600
C  -3.93200 32.20100 25.93100
C  -4.74500 31.07500 26.37300
C  -4.67900 31.08100 27.79600
C  -3.86600 32.21600 28.15600
C  -5.50400 30.05300 25.49900
C  -5.16900 30.43900 29.05600
O  -5.87000 29.51200 29.17400
C  -4.43200 31.24200 30.15200
C  -5.39300 31.66300 31.10200
O  -6.18700 32.56200 30.99700
O  -5.48600 30.78400 32.14600
C  -6.45500 31.04300 33.25300
H  -0.52200 36.92900 30.69700
H  -0.25600 37.32200 24.26700
H  -3.98200 31.85000 23.94600
H  -3.84600 33.70900 32.13400
H  -1.22800 34.87200 32.33900
H  -2.46100 36.66500 33.29500
H  -3.81900 35.88800 32.58100
H  -2.96700 37.08600 31.57900
H  -1.02100 32.72500 32.62500
H  -1.91400 31.66900 31.61500
H  -2.74700 30.79600 33.29500
H  -3.63600 32.15200 33.86400
H  2.58400 37.55200 29.33700
H  1.34900 37.93600 30.36800
H  1.86900 39.12700 29.16700
H  2.09500 40.39000 27.24100
H  3.20600 40.05600 25.92100
H  2.97500 38.80600 27.23800
H  -0.88500 35.48800 22.18700
H  -3.35900 34.06200 22.13400
H  -3.59600 36.52400 23.03700
H  -3.32000 36.30500 21.30800
H  -2.52500 37.56800 22.23000
H  -0.81600 32.63600 22.70700
H  -1.03500 33.44700 21.24000
H  -3.44800 31.73600 21.43800
H  -2.06300 30.95600 22.32000
H  -1.86000 31.29100 20.67000
H  -5.02800 29.73500 24.57100
H  -6.47700 30.53000 25.38000
H  -5.72100 29.18200 26.11700
H  -3.73000 30.57900 30.65700
H  -5.99600 31.76200 33.93300
H  -6.72400 30.09900 33.72600
H  -7.31000 31.48400 32.74000

