158

Mg 35.01900 3.44100 29.28700
C  33.05700 4.11200 31.99500
C  37.82700 3.48600 31.48200
C  36.94500 2.71200 26.74000
C  32.21900 3.75100 27.10000
N  35.38900 3.68700 31.43200
C  34.40500 3.94900 32.36500
C  34.91400 3.85800 33.78800
C  36.48300 3.90500 33.54400
C  36.62700 3.73000 32.11600
C  37.22700 5.26600 34.03000
C  34.50900 2.55500 34.52000
C  34.35600 2.71100 36.06600
H  35.06200 3.83100 36.85700
N  37.01100 3.03800 29.15400
C  37.97900 3.03500 30.16000
C  39.26300 2.51200 29.65000
C  38.99600 2.27300 28.28000
C  37.59500 2.67900 27.96200
C  40.40900 2.29500 30.57000
C  39.90600 1.61800 27.23600
O  39.64900 1.47100 26.04400
C  41.21600 1.12800 27.68800
N  34.63500 3.15700 27.20800
C  35.66800 2.98100 26.34900
C  35.11900 2.76000 24.89600
C  33.59400 2.99000 25.13200
C  33.42900 3.34700 26.56200
C  35.84000 3.53000 23.72800
C  32.57300 1.87400 24.62000
C  32.56300 0.57600 25.42900
N  32.98500 3.80100 29.44100
C  32.03100 3.98000 28.47400
C  30.76800 4.23000 29.16100
C  31.17600 4.34100 30.58200
C  32.49900 4.03100 30.69200
C  29.40100 4.34100 28.53500
C  30.61400 4.58400 31.89500
O  29.48800 4.89800 32.23300
C  31.86600 4.36200 32.93700
C  31.92300 5.52900 33.78600
O  32.32000 6.60200 33.46700
O  31.35500 5.22600 35.02000
C  31.09900 6.32400 36.00400
H  38.69600 3.42400 32.14000
H  37.65800 2.53800 25.93000
H  31.28900 3.86400 26.53900
H  34.57700 4.77300 34.27600
H  36.97600 3.13700 34.14100
H  37.88000 5.10200 34.88800
H  36.54100 6.08500 34.24600
H  37.66500 5.72600 33.14400
H  35.26000 1.78200 34.35200
H  33.56800 2.13600 34.16400
H  34.58500 1.76800 36.56200
H  33.33100 2.83500 36.41300
H  40.06900 1.60400 31.34100
H  40.57400 3.27800 31.01300
H  41.37500 2.03100 30.13900
H  42.05800 1.81600 27.76800
H  41.57200 0.34100 27.02400
H  41.08100 0.60700 28.63600
H  35.29800 1.71100 24.66000
H  33.28200 3.87900 24.58600
H  35.92000 2.78100 22.94000
H  36.77900 3.91600 24.12400
H  35.15000 4.34300 23.50100
H  32.90400 1.72800 23.59200
H  31.62700 2.40700 24.52800
H  32.66800 -0.11900 24.59500
H  31.57000 0.37800 25.83200
H  33.28500 0.43200 26.23300
H  29.32700 3.75600 27.61900
H  28.96200 5.31500 28.32100
H  28.69500 3.98500 29.28600
H  31.58100 3.47200 33.50000
H  30.70500 5.86200 36.90900
H  30.42300 7.08500 35.61400
H  31.93400 6.91800 36.37700
Mg 46.86700 17.05000 28.46600
C  45.05200 16.95400 31.44700
C  49.30600 18.44400 30.21800
C  48.10400 17.98100 25.57600
C  43.96000 15.83400 26.71200
N  47.05600 17.68700 30.60900
C  46.25500 17.49700 31.70000
C  46.82300 17.86900 33.03400
C  48.12300 18.58400 32.48100
C  48.28900 18.04600 31.03400
C  48.22000 20.13000 32.74800
C  47.05400 16.61700 33.87200
C  46.60400 16.70600 35.38400
H  46.04900 17.97000 36.08500
N  48.59000 17.95100 27.93000
C  49.47400 18.44600 28.80800
C  50.54000 19.01800 28.09600
C  50.35200 18.80000 26.69800
C  48.98900 18.26000 26.62300
C  51.62500 19.81800 28.80800
C  51.27500 19.12200 25.53100
O  50.84900 18.91900 24.41400
C  52.76900 19.56600 25.66400
N  46.10600 16.81700 26.41800
C  46.87300 17.31800 25.40200
C  46.21400 17.18700 24.06800
C  45.06500 16.27100 24.40900
C  45.01100 16.18900 25.97200
C  45.72800 18.54100 23.48000
C  45.00700 14.95400 23.57900
C  45.57700 13.62800 24.17400
N  44.87500 16.31500 28.92200
C  43.86900 15.82800 28.14000
C  42.76300 15.47500 29.01800
C  43.16000 15.89500 30.32300
C  44.48800 16.41400 30.19700
C  41.32300 15.07300 28.69900
C  42.74200 15.97900 31.72600
O  41.69400 15.60000 32.27800
C  43.98600 16.63600 32.43800
C  43.40900 17.89200 32.95800
O  43.32900 18.96500 32.37700
O  42.77500 17.60800 34.18400
C  41.77900 18.61800 34.68300
H  50.12100 18.81200 30.84500
H  48.52500 18.54700 24.74300
H  43.10500 15.41500 26.17800
H  46.16800 18.56300 33.56200
H  48.95200 18.13900 33.03100
H  47.24600 20.55600 32.99100
H  48.65900 20.69600 31.92600
H  48.87800 20.35800 33.58600
H  48.13000 16.47000 33.96100
H  46.58600 15.75200 33.40100
H  47.44000 16.40100 36.01300
H  45.96200 15.82500 35.41800
H  52.57500 19.42700 28.44400
H  51.79800 19.61800 29.86500
H  51.56300 20.88500 28.59700
H  52.66200 20.65000 25.69700
H  53.25100 19.22600 24.74700
H  53.28700 19.13900 26.52300
H  46.94500 16.69400 23.42700
H  44.09800 16.71200 24.16600
H  45.68600 19.16900 24.37000
H  44.72600 18.48200 23.05500
H  46.48400 18.83700 22.75300
H  45.46600 15.13500 22.60700
H  43.95100 14.70900 23.46800
H  44.74200 12.95900 24.38000
H  46.16700 13.79000 25.07700
H  46.14400 13.02200 23.46800
H  41.06100 15.44300 27.70800
H  40.70500 15.64200 29.39400
H  41.15000 13.99700 28.69100
H  44.22600 16.12100 33.36800
H  40.86900 18.52900 34.08900
H  42.17800 19.62600 34.56600
H  41.65000 18.43000 35.74900

