158

Mg 41.20100 41.06700 26.83100
C  40.52400 43.43200 29.43900
C  41.92300 38.73100 29.15400
C  41.97500 38.96100 24.36100
C  40.51200 43.51700 24.51500
N  41.15500 41.05300 29.05500
C  40.84000 42.13700 29.88500
C  40.88500 41.66400 31.35200
C  41.35300 40.13300 31.24100
C  41.45100 39.94500 29.70100
C  42.71300 39.76800 31.81200
C  39.58500 41.82700 32.15900
C  39.45000 42.97600 33.15900
H  38.98300 42.61800 34.65500
N  41.92200 39.14900 26.75800
C  42.12900 38.36000 27.83900
C  42.60100 37.11300 27.43400
C  42.57300 37.07800 26.00700
C  42.10600 38.43500 25.65500
C  43.05000 35.99700 28.47500
C  42.81100 35.95100 25.03200
O  42.58600 36.05200 23.82100
C  43.34000 34.59200 25.52900
N  41.45300 41.27600 24.74600
C  41.66400 40.23600 23.93800
C  41.40500 40.59400 22.43800
C  40.61500 41.96700 22.56900
C  40.79900 42.23300 24.07900
C  42.66700 40.49500 21.54800
C  39.20200 41.85800 21.95900
C  38.19100 41.41600 22.99900
N  40.68700 43.05900 26.91700
C  40.49300 43.96100 25.85800
C  40.08300 45.29100 26.38200
C  40.14600 45.12400 27.74500
C  40.47000 43.75100 28.02300
C  39.60800 46.55500 25.63300
C  39.87000 45.76600 28.93900
O  39.50700 46.88400 29.14400
C  40.21400 44.74300 30.15000
C  41.41400 45.24900 30.91000
O  42.50300 44.80900 30.78600
O  40.94000 46.05600 31.94100
C  41.89800 46.45300 33.03300
H  42.17900 38.13300 30.03200
H  42.18200 38.29600 23.51900
H  40.17600 44.22200 23.75100
H  41.67400 42.27100 31.79700
H  40.60400 39.39700 31.53300
H  42.82500 40.50300 32.60900
H  43.51600 39.83600 31.07900
H  42.69400 38.76400 32.23700
H  39.40600 40.90600 32.71400
H  38.67900 41.84000 31.55300
H  38.75500 43.65900 32.67200
H  40.44100 43.42900 33.16200
H  42.42500 36.16300 29.35200
H  44.09100 36.05100 28.79200
H  42.86400 34.97500 28.14600
H  42.54900 33.89800 25.81500
H  44.06500 34.67500 26.33900
H  43.94800 34.18700 24.72100
H  40.67900 39.90800 22.00100
H  41.29600 42.65700 22.07100
H  42.66100 39.56800 20.97400
H  43.52100 40.44300 22.22400
H  42.76500 41.36200 20.89500
H  39.18800 41.20600 21.08600
H  38.93900 42.82600 21.53200
H  38.65300 40.83400 23.79700
H  37.31000 40.85300 22.68800
H  37.93800 42.38400 23.43200
H  38.84200 46.16300 24.96400
H  40.40900 46.95800 25.01400
H  39.27500 47.32600 26.32900
H  39.29100 44.78400 30.72700
H  42.75200 46.91000 32.53300
H  42.24500 45.57200 33.57300
H  41.37300 47.12500 33.71100
Mg 16.60300 52.51600 25.05100
C  18.25400 51.48600 28.09500
C  13.90500 53.42100 26.90000
C  15.05200 52.80600 22.17900
C  19.47500 51.07500 23.30500
N  16.23000 52.47200 27.21700
C  17.06000 52.08500 28.25600
C  16.38200 52.43000 29.59400
C  14.92000 52.85200 29.14500
C  15.00100 52.92100 27.62800
C  13.86400 51.83500 29.65100
C  17.09400 53.55100 30.42400
C  17.22400 53.32500 31.96800
H  16.40700 52.24900 32.58100
N  14.74400 53.19800 24.52700
C  13.74300 53.55100 25.48400
C  12.52700 53.93700 24.68300
C  12.89100 53.79100 23.27300
C  14.29300 53.23000 23.30100
C  11.16600 54.35000 25.29200
C  12.07400 54.22100 22.03900
O  12.50100 54.07900 20.90900
C  10.75700 54.77300 22.21000
N  17.27300 52.17700 22.98900
C  16.30000 52.29800 21.99300
C  16.92000 51.77900 20.59300
C  18.42800 51.41900 21.01100
C  18.41200 51.49900 22.55200
C  16.05600 50.60100 20.02800
C  19.49700 52.40700 20.44300
C  19.27900 53.92100 20.59900
N  18.48200 51.55000 25.55400
C  19.51700 51.04300 24.76000
C  20.58300 50.64800 25.58000
C  20.14000 50.76800 26.91100
C  18.82900 51.29100 26.83300
C  21.98400 50.25000 25.20400
C  20.48000 50.53400 28.29200
O  21.48400 50.08500 28.78800
C  19.28100 50.97400 29.14800
C  18.92300 49.75100 29.97300
O  18.47100 48.69400 29.49500
O  19.27700 49.96300 31.29300
C  18.97200 48.82600 32.12200
H  13.01000 53.69100 27.46500
H  14.43800 52.81900 21.27600
H  20.22100 50.54300 22.71100
H  16.29200 51.50500 30.16300
H  14.68500 53.82000 29.58800
H  13.14600 51.45700 28.92300
H  13.23000 52.33000 30.38700
H  14.28100 51.01500 30.23500
H  16.62800 54.53700 30.41900
H  18.05300 53.70700 29.92900
H  17.09700 54.31000 32.41800
H  18.22800 53.00500 32.24800
H  10.31000 53.85400 24.83600
H  10.89400 55.38800 25.10500
H  11.22900 54.17800 26.36600
H  10.19300 54.00000 22.73300
H  10.26500 54.70000 21.24000
H  10.74400 55.77800 22.63300
H  16.90900 52.66600 19.95900
H  18.59100 50.44600 20.54800
H  15.77800 50.83300 19.00000
H  15.18100 50.42700 20.65400
H  16.72100 49.73700 20.06300
H  19.65800 52.03800 19.43000
H  20.40700 52.20200 21.00800
H  19.01900 54.30200 19.61100
H  20.15000 54.54400 20.79700
H  18.64500 54.07900 21.47100
H  22.28700 50.44300 24.17500
H  22.12700 49.17500 25.30700
H  22.60800 50.72400 25.96200
H  19.56400 51.80800 29.79000
H  19.64400 48.06100 31.73400
H  17.94800 48.45100 32.13300
H  19.34400 49.19300 33.07800

