158

Mg -10.93700 16.75700 40.22900
C  -7.57700 16.26000 40.40000
C  -10.44900 20.13200 40.29700
C  -14.29400 17.18400 39.48700
C  -11.37400 13.29500 39.88800
N  -9.15300 17.99300 40.23500
C  -7.86100 17.64900 40.35500
C  -6.99300 18.81400 40.19600
C  -7.91300 19.95100 40.75900
C  -9.29600 19.37300 40.43600
C  -7.72100 20.29200 42.25800
C  -6.47700 19.10400 38.83300
C  -5.04400 18.69900 38.50700
H  -4.83000 18.01300 37.17400
N  -12.17900 18.43500 39.99400
C  -11.79000 19.76200 40.01900
C  -12.83000 20.61600 39.56100
C  -13.97800 19.79200 39.37300
C  -13.53500 18.38700 39.64500
C  -12.58800 22.04900 39.11400
C  -15.36600 20.23800 38.84700
O  -15.51800 21.40600 38.59300
C  -16.59600 19.35900 38.79600
N  -12.53800 15.44100 39.56600
C  -13.86500 15.85700 39.53300
C  -14.85900 14.66200 39.48500
C  -13.85900 13.45100 39.72900
C  -12.50100 14.10100 39.74000
C  -16.08000 14.75500 40.38600
C  -13.97100 12.41600 38.57500
C  -14.07700 10.88400 38.95000
N  -9.72100 15.06600 40.11900
C  -10.03800 13.72800 39.98500
C  -8.83300 12.96000 39.97600
C  -7.83500 13.90200 40.15800
C  -8.40900 15.20000 40.23300
C  -8.63600 11.54400 39.97300
C  -6.41300 14.10100 40.25800
O  -5.55000 13.29300 40.37700
C  -6.20400 15.62500 40.44500
C  -5.51300 15.71800 41.76800
O  -5.73100 15.02900 42.74100
O  -4.67700 16.75700 41.76000
C  -4.05300 16.99400 43.04900
H  -10.20500 21.19300 40.37500
H  -15.37600 17.21700 39.34600
H  -11.51700 12.21300 39.92300
H  -6.14200 18.68900 40.86600
H  -7.86500 20.90700 40.23800
H  -8.66100 20.31600 42.81000
H  -7.26000 21.27900 42.24800
H  -7.05400 19.62800 42.80800
H  -6.60600 20.16700 38.62500
H  -7.17000 18.62000 38.14500
H  -4.52200 18.12100 39.27100
H  -4.47300 19.62800 38.51700
H  -13.08200 22.74400 39.79400
H  -13.03700 22.10100 38.12200
H  -11.51600 22.23600 39.06100
H  -17.55600 19.86900 38.87200
H  -16.62800 18.67400 39.64400
H  -16.61800 18.92300 37.79800
H  -15.24000 14.64000 38.46400
H  -13.98600 12.86800 40.64000
H  -16.06700 13.84000 40.97700
H  -16.97500 14.69900 39.76600
H  -16.09400 15.67000 40.97900
H  -13.30600 12.58600 37.72800
H  -14.83500 12.79500 38.02900
H  -13.50400 10.19700 38.32700
H  -15.14000 10.65900 38.86300
H  -13.83200 10.74500 40.00400
H  -7.89900 11.20900 40.70200
H  -8.32500 11.17200 38.99700
H  -9.53400 11.12400 40.42600
H  -5.49600 16.06600 39.74400
H  -3.83500 16.06000 43.56700
H  -4.71000 17.55200 43.71600
H  -3.13900 17.53200 42.79500
Mg -4.65400 25.79100 25.79500
C  -3.76200 27.62500 28.64600
C  -6.12900 23.44300 27.61900
C  -5.18100 24.03400 22.99500
C  -2.69100 28.05600 23.90300
N  -4.76100 25.56000 27.90500
C  -4.51900 26.47900 28.93300
C  -5.00700 25.96700 30.33100
C  -5.64100 24.62400 29.90600
C  -5.52700 24.51800 28.33700
C  -4.99200 23.39800 30.54100
C  -6.06300 27.01000 30.96200
C  -6.40500 26.65600 32.44500
H  -5.73900 25.43800 33.13600
N  -5.59800 23.99000 25.40300
C  -6.27300 23.30800 26.23400
C  -7.09500 22.32100 25.59500
C  -6.72200 22.34200 24.20600
C  -5.81600 23.54500 24.15700
C  -8.07100 21.47000 26.43900
C  -7.19000 21.60500 23.06800
O  -6.75500 21.61600 21.91200
C  -8.33600 20.63800 23.30400
N  -4.11700 26.04700 23.64300
C  -4.35100 25.14300 22.76600
C  -3.61300 25.42400 21.45000
C  -2.86100 26.83300 21.62000
C  -3.26500 27.04800 23.15700
C  -2.64500 24.23300 20.94500
C  -3.48700 27.97300 20.72900
C  -4.93500 28.44400 21.07500
N  -3.48500 27.47900 26.13900
C  -2.71000 28.26200 25.25500
C  -2.06400 29.24200 26.04000
C  -2.48100 29.08000 27.35100
C  -3.30900 27.98200 27.40300
C  -1.21400 30.39000 25.55100
C  -2.34300 29.62300 28.65300
O  -1.61200 30.55100 29.08100
C  -3.13400 28.71100 29.59500
C  -2.21100 28.03500 30.60200
O  -1.06600 27.69100 30.41800
O  -2.80500 27.75500 31.83100
C  -2.08300 26.90400 32.83700
H  -6.64000 22.79700 28.33700
H  -5.27200 23.38200 22.12400
H  -2.09200 28.63100 23.19400
H  -4.17400 25.71200 30.98600
H  -6.69100 24.53300 30.18400
H  -5.78700 22.84500 31.04100
H  -4.13500 23.50700 31.20500
H  -4.66400 22.63400 29.83700
H  -6.87200 27.07500 30.23500
H  -5.64500 28.01600 30.93200
H  -7.45200 26.36700 32.34800
H  -6.38700 27.49000 33.14700
H  -7.96100 20.41700 26.18000
H  -9.11600 21.77600 26.39700
H  -7.84600 21.46400 27.50500
H  -8.63600 20.25500 22.32900
H  -9.19700 21.13600 23.75000
H  -7.93000 19.88000 23.97400
H  -4.34000 25.64600 20.66900
H  -1.77800 26.77900 21.51200
H  -1.61400 24.56200 21.07500
H  -2.92500 23.98000 19.92300
H  -2.91500 23.39800 21.59200
H  -3.38300 27.69000 19.68200
H  -2.86800 28.86600 20.81400
H  -5.36000 28.39300 20.07300
H  -4.83900 29.42700 21.53700
H  -5.38700 27.77400 21.80600
H  -0.67500 30.19100 24.62500
H  -0.43500 30.56900 26.29200
H  -1.70300 31.35300 25.40100
H  -3.91600 29.30400 30.07000
H  -1.01500 27.08800 32.95100
H  -2.18900 25.91300 32.39700
H  -2.65700 27.01400 33.75700

