158

Mg 25.67500 1.32800 29.62500
C  27.65700 0.95900 32.53000
C  22.91100 1.41900 31.70100
C  23.81900 1.38400 26.85000
C  28.60800 0.91000 27.67500
N  25.33000 0.99600 31.90300
C  26.29200 1.03100 32.87700
C  25.64100 1.28400 34.31800
C  24.05400 1.20800 33.91700
C  24.08800 1.23900 32.41300
C  23.31900 -0.07000 34.37600
C  26.08900 2.60400 35.05300
C  26.38800 2.35500 36.52400
H  25.68200 3.22900 37.57200
N  23.66700 1.32100 29.31000
C  22.68500 1.45900 30.25500
C  21.46700 1.73800 29.59500
C  21.73300 1.85800 28.19600
C  23.12800 1.47600 28.08600
C  20.23000 1.97400 30.38400
C  20.80200 2.12200 27.06800
O  21.01900 1.75900 25.88300
C  19.43300 2.77000 27.44200
N  26.17500 1.11300 27.62000
C  25.18900 1.23900 26.61600
C  25.78600 1.10400 25.23700
C  27.37200 1.06000 25.48300
C  27.43000 0.98300 27.00800
C  25.35900 -0.17900 24.43800
C  27.97400 2.36700 24.82400
C  28.63600 2.23600 23.42400
N  27.67600 1.02600 29.92400
C  28.77400 0.89200 29.03900
C  29.95200 0.53200 29.79700
C  29.57800 0.59100 31.15800
C  28.18400 0.97000 31.20600
C  31.14400 -0.03400 29.11900
C  30.09100 0.35300 32.52400
O  31.21600 0.04400 32.90600
C  28.81200 0.70500 33.47000
C  28.65600 -0.39300 34.45600
O  28.26500 -1.53300 34.23000
O  28.90500 0.05800 35.75100
C  28.72100 -0.88000 36.90500
H  22.08600 1.66900 32.37100
H  23.24700 1.45500 25.92200
H  29.52100 0.87800 27.07600
H  26.02800 0.42800 34.87100
H  23.48000 2.02900 34.34600
H  22.41200 0.30200 34.85200
H  23.89800 -0.59800 35.13300
H  23.00900 -0.75600 33.58700
H  25.25100 3.29800 35.00200
H  26.90600 3.08200 34.51400
H  27.47400 2.26500 36.54400
H  25.96700 1.37400 36.74400
H  19.40000 1.36000 30.03200
H  19.97700 3.03400 30.35300
H  20.28200 1.75900 31.45100
H  18.59200 2.08100 27.51900
H  19.21900 3.49500 26.65700
H  19.49000 3.40900 28.32300
H  25.36300 1.96800 24.72600
H  27.97200 0.25300 25.06200
H  26.26000 -0.73600 24.18000
H  24.81900 0.24500 23.59200
H  24.75900 -0.75700 25.14100
H  28.76000 2.79800 25.44500
H  27.15200 3.08200 24.86400
H  28.15600 1.34400 23.02000
H  29.72300 2.15700 23.41000
H  28.42200 3.05400 22.73600
H  31.43400 -0.92000 29.68400
H  32.04200 0.58100 29.05600
H  30.91900 -0.44200 28.13400
H  29.06800 1.57600 34.07400
H  28.10600 -0.42900 37.68400
H  29.68200 -1.08700 37.37500
H  28.28800 -1.82500 36.57700
Mg 50.33300 46.15400 42.10300
C  47.20500 47.30400 40.94400
C  49.40700 42.91800 41.02300
C  53.53100 45.22800 42.35700
C  51.24200 49.48300 42.90300
N  48.47400 45.31400 41.13600
C  47.31100 45.90000 40.80500
C  46.36800 44.95700 40.15200
C  46.95800 43.61400 40.54800
C  48.42500 43.93400 40.90200
C  46.13300 42.78100 41.63900
C  46.38500 45.24200 38.58400
C  45.01500 45.29000 37.83600
H  44.71900 44.27500 36.67100
N  51.32000 44.30000 41.77800
C  50.76000 43.10100 41.40000
C  51.81800 42.05900 41.39900
C  53.01800 42.70100 41.76500
C  52.67300 44.12100 42.02600
C  51.56900 40.67500 40.93200
C  54.37500 42.08800 41.89900
O  54.56000 41.01400 41.40900
C  55.57300 42.70700 42.60400
N  52.17900 47.22900 42.43600
C  53.32200 46.61500 42.57700
C  54.43600 47.58300 42.95300
C  53.67200 48.89900 43.37300
C  52.23500 48.51800 42.83600
C  55.46000 46.99800 43.94400
C  54.23400 50.26700 42.86300
C  54.22500 51.44100 43.95700
N  49.40100 48.04700 42.06200
C  49.90500 49.30100 42.43300
C  48.86200 50.25100 42.21900
C  47.81000 49.57400 41.56200
C  48.15800 48.19800 41.53700
C  48.98800 51.71700 42.42000
C  46.50200 49.73300 40.88100
O  45.73200 50.68000 40.63300
C  46.11600 48.31800 40.45900
C  44.77700 48.01000 41.12500
O  44.54300 47.96400 42.28900
O  43.80800 48.00900 40.19400
C  42.45600 48.28200 40.59900
H  49.22600 41.89500 40.68700
H  54.54400 44.83300 42.25400
H  51.66400 50.40300 43.31300
H  45.33100 45.12500 40.44100
H  46.97200 43.08500 39.59500
H  45.59800 41.94800 41.18500
H  45.33400 43.32200 42.14700
H  46.74000 42.38900 42.45500
H  47.02100 44.59400 37.98100
H  46.92200 46.14900 38.30500
H  44.78700 46.28200 37.44500
H  44.31100 45.07700 38.64000
H  52.08700 40.52700 39.98500
H  50.51700 40.45000 40.75300
H  51.98900 39.95600 41.63500
H  55.18500 43.19800 43.49600
H  56.08600 43.36400 41.90200
H  56.23700 41.98100 43.07100
H  54.89800 47.81400 41.99300
H  53.64100 48.87100 44.46200
H  55.81600 47.81700 44.56800
H  56.32100 46.62500 43.38900
H  54.96300 46.22700 44.53300
H  53.69100 50.48700 41.94300
H  55.28600 50.04700 42.68000
H  53.45900 52.11500 43.57500
H  55.24700 51.78400 44.12200
H  53.93300 51.17400 44.97300
H  47.99000 52.14800 42.33600
H  49.67600 52.08100 41.65700
H  49.39700 51.82100 43.42500
H  46.10300 48.33600 39.37000
H  41.73600 47.55100 40.23300
H  42.11400 49.29800 40.40200
H  42.38000 48.30800 41.68600

