158

Mg 0.51000 -1.62700 43.16200
C  3.75600 -0.97000 42.22500
C  -0.42900 1.27400 41.45700
C  -2.74700 -2.54900 43.31900
C  1.51400 -4.74800 44.36700
N  1.54600 -0.00500 41.94600
C  2.92600 0.00800 41.75600
C  3.30900 1.20900 40.93600
C  2.01900 2.01200 40.87100
C  0.95500 1.09600 41.52600
C  2.14100 3.44100 41.44100
C  3.91600 0.75500 39.56100
C  5.17700 1.42400 39.11800
H  5.70400 1.21300 37.69700
N  -1.32800 -0.73900 42.55000
C  -1.50600 0.44100 41.86600
C  -2.91500 0.74100 41.74900
C  -3.62600 -0.30600 42.35600
C  -2.57400 -1.32900 42.69300
C  -3.38800 2.10000 41.23400
C  -5.17200 -0.33300 42.55800
O  -5.87900 0.58800 42.21300
C  -5.87400 -1.43800 43.23800
N  -0.40300 -3.39000 43.51600
C  -1.72700 -3.52900 43.65900
C  -2.19900 -4.88200 44.05200
C  -0.87600 -5.59200 44.40600
C  0.17900 -4.50300 44.10100
C  -3.29700 -5.05900 45.22900
C  -0.66900 -6.94900 43.72800
C  0.04000 -8.06300 44.60100
N  2.31600 -2.58500 43.43700
C  2.59000 -3.88600 43.97600
C  4.06200 -4.11300 43.90000
C  4.57600 -2.96300 43.22500
C  3.41200 -2.10800 42.94700
C  4.86600 -5.30400 44.28800
C  5.71700 -2.34600 42.76300
O  6.91300 -2.67000 42.81500
C  5.26400 -1.05400 42.08700
C  6.15100 -0.02400 42.67400
O  7.24300 0.29200 42.25900
O  5.52200 0.60600 43.71600
C  6.25300 1.57000 44.48400
H  -0.67800 2.19400 40.92600
H  -3.75600 -2.89400 43.55000
H  1.78700 -5.75600 44.68500
H  4.10400 1.73400 41.46600
H  1.81500 2.24000 39.82500
H  1.45200 3.36300 42.28100
H  1.67800 4.15700 40.76100
H  3.16400 3.68500 41.72600
H  3.20700 1.08300 38.80000
H  3.83700 -0.32500 39.43800
H  5.91900 1.21300 39.88800
H  4.95800 2.48300 39.25400
H  -4.46500 2.20500 41.10800
H  -2.94300 2.39200 40.28200
H  -3.15800 2.82000 42.02000
H  -6.92600 -1.24500 43.44400
H  -5.38000 -1.60000 44.19700
H  -5.91400 -2.40500 42.73700
H  -2.63700 -5.46500 43.24200
H  -0.85400 -5.74200 45.48500
H  -4.12500 -5.70200 44.93000
H  -3.49900 -4.04600 45.57600
H  -2.95500 -5.58000 46.12400
H  -0.18400 -6.79600 42.76400
H  -1.65800 -7.40000 43.64200
H  0.96200 -8.41400 44.13800
H  -0.61100 -8.85700 44.96700
H  0.45800 -7.54800 45.46500
H  5.05300 -5.95000 43.42900
H  4.18600 -5.88000 44.91600
H  5.73000 -5.01400 44.88600
H  5.61500 -1.20000 41.06500
H  6.86100 1.13400 45.27700
H  5.48200 2.18000 44.95600
H  6.69900 2.40000 43.93600
Mg 35.75000 48.96500 25.76000
C  36.29900 47.01500 28.67700
C  34.44500 51.40600 27.73800
C  34.65700 50.49700 22.96500
C  36.75200 46.24800 23.94500
N  35.40000 49.17200 28.01600
C  35.74800 48.24800 29.02400
C  35.45600 48.82500 30.45800
C  34.73400 50.20000 30.08900
C  34.87800 50.29200 28.52600
C  33.26100 50.27700 30.57300
C  36.74300 48.91900 31.31000
C  36.79800 48.24200 32.62400
H  37.04100 49.21500 33.73200
N  34.83000 50.86800 25.36200
C  34.47300 51.72000 26.33000
C  33.93300 52.88800 25.64300
C  33.85900 52.68200 24.25600
C  34.42700 51.29600 24.09200
C  33.33400 54.06800 26.43700
C  33.22400 53.53300 23.18000
O  33.20200 53.16000 21.99400
C  32.76300 54.92700 23.57600
N  35.77000 48.50700 23.75100
C  35.30700 49.28100 22.79700
C  35.56200 48.73600 21.41900
C  36.42600 47.41600 21.69800
C  36.38000 47.39900 23.28200
C  34.19600 48.38100 20.79800
C  37.98300 47.50700 21.16900
C  38.54500 46.36700 20.46000
N  36.46600 47.03400 26.16300
C  36.80300 46.02700 25.31900
C  37.15100 44.93700 26.08200
C  36.98000 45.23800 27.43700
C  36.57100 46.53100 27.40100
C  37.52800 43.59700 25.50600
C  37.03700 44.71600 28.80700
O  37.33600 43.65000 29.29400
C  36.50000 45.83900 29.62900
C  35.20100 45.29600 30.36300
O  34.05400 45.25400 29.94800
O  35.59500 45.19000 31.68400
C  34.63100 44.64200 32.62400
H  34.09000 52.24100 28.34400
H  34.47400 51.05700 22.04600
H  37.16200 45.43300 23.34400
H  34.84200 48.05800 30.93000
H  35.36000 50.99200 30.50000
H  33.12900 49.47800 31.30300
H  32.58700 50.07900 29.73900
H  33.12600 51.20000 31.13600
H  36.96700 49.98000 31.41800
H  37.52300 48.49100 30.68000
H  37.52800 47.43300 32.65700
H  35.89600 47.64800 32.76400
H  33.81100 55.04600 26.37200
H  33.26900 53.86400 27.50600
H  32.32500 54.17100 26.03900
H  33.53300 55.30400 24.24900
H  31.84200 54.91000 24.15800
H  32.53600 55.43200 22.63700
H  36.08800 49.51200 20.86300
H  35.94900 46.51700 21.30800
H  33.29200 48.43000 21.40600
H  34.22900 47.42500 20.27500
H  34.01500 49.04700 19.95400
H  38.60100 47.79900 22.01800
H  38.05600 48.44100 20.61200
H  37.85500 45.54400 20.26900
H  39.32900 45.97600 21.10800
H  38.88700 46.69600 19.47800
H  37.56800 42.82500 26.27400
H  38.53300 43.62000 25.08400
H  36.87400 43.29500 24.68700
H  37.18800 46.14200 30.41800
H  34.01300 45.43600 33.04400
H  35.10900 44.19900 33.49700
H  33.89800 43.99700 32.13800

