158

Mg 53.77000 24.18300 44.65400
C  51.22000 26.38400 43.75900
C  51.97500 21.61900 43.36600
C  56.57200 22.26600 44.73800
C  55.59100 26.90400 45.77800
N  51.75100 23.98700 43.91900
C  50.97500 25.01500 43.46600
C  49.76600 24.37400 42.62300
C  49.77000 22.87700 43.06800
C  51.23300 22.78200 43.44800
C  48.83600 22.52800 44.18600
C  50.05700 24.63000 41.12000
C  51.43000 24.73800 40.56400
H  52.31600 23.45900 40.42300
N  54.19200 22.12400 44.20300
C  53.29200 21.28400 43.69400
C  53.92500 20.01100 43.38800
C  55.26500 20.10000 43.78100
C  55.38700 21.51900 44.33600
C  53.24400 18.83000 42.84500
C  56.32400 19.06100 43.76400
O  56.08400 18.00700 43.24500
C  57.66400 19.28300 44.45600
N  55.94800 24.59100 44.92800
C  56.78200 23.54700 45.13100
C  58.08300 24.04700 45.76600
C  57.74300 25.53300 46.00100
C  56.31800 25.74400 45.52600
C  58.62200 23.34400 47.06100
C  58.71600 26.54000 45.31300
C  58.55700 26.83700 43.77700
N  53.46900 26.17100 44.94200
C  54.25700 27.13500 45.47000
C  53.57300 28.46700 45.45700
C  52.38200 28.25200 44.76800
C  52.37400 26.80800 44.43800
C  54.19700 29.76700 45.83200
C  51.21400 28.89200 44.20900
O  50.76500 30.01000 44.29800
C  50.45400 27.70500 43.54100
C  50.30600 28.10600 42.09800
O  51.31600 28.40500 41.39300
O  49.01200 27.99600 41.68500
C  48.83200 28.50500 40.36800
H  51.54500 20.77300 42.82700
H  57.51900 21.72300 44.73900
H  56.26300 27.63500 46.23200
H  48.84900 24.95200 42.74100
H  49.64000 22.20800 42.21700
H  48.24200 23.39300 44.48000
H  49.42400 22.23100 45.05400
H  48.20000 21.69600 43.88200
H  49.31100 25.36000 40.80500
H  49.71700 23.77100 40.54200
H  51.94900 25.48700 41.16100
H  51.23700 25.28600 39.64200
H  53.82100 18.37600 42.04000
H  52.21300 19.01400 42.54200
H  53.20800 18.15100 43.69700
H  58.33100 19.87200 43.82600
H  58.12800 18.35300 44.78600
H  57.52500 19.73500 45.43800
H  58.81400 23.99900 44.95900
H  57.72700 25.75300 47.06800
H  59.61700 23.02500 46.75100
H  58.08000 22.41300 47.22600
H  58.79000 23.93700 47.96000
H  59.75900 26.26400 45.47200
H  58.61500 27.51800 45.78300
H  57.88300 26.07000 43.39700
H  59.52200 26.65800 43.30400
H  58.15200 27.84400 43.67500
H  53.87100 30.56800 45.16900
H  55.26200 29.60700 45.66400
H  54.05100 30.07400 46.86800
H  49.42700 27.68700 43.90500
H  49.64500 28.27900 39.67800
H  48.94700 29.58300 40.48000
H  47.81700 28.38900 39.98800
Mg 29.76800 57.70100 40.71300
C  27.16100 55.46600 39.83800
C  31.98900 55.29100 39.48100
C  32.26200 60.02300 40.77800
C  27.48000 60.12500 41.43600
N  29.55300 55.63400 39.69000
C  28.44400 54.90100 39.59000
C  28.70600 53.46200 38.99600
C  30.29000 53.41200 39.06900
C  30.69700 54.87100 39.43800
C  30.89500 52.40400 40.06500
C  28.05400 53.06400 37.73000
C  27.66700 54.17100 36.67200
H  28.38300 54.11800 35.25000
N  31.85300 57.62800 40.22300
C  32.57400 56.53900 39.77500
C  33.90100 56.84400 39.59300
C  33.99000 58.26300 39.91900
C  32.66800 58.72900 40.36800
C  34.92200 55.86800 39.19400
C  35.30500 59.09600 39.85700
O  36.34000 58.69700 39.38100
C  35.32500 60.42200 40.44200
N  29.86700 59.80000 41.16300
C  30.97500 60.45500 41.14000
C  30.81400 61.95600 41.51000
C  29.31300 61.97000 42.06500
C  28.82400 60.59400 41.51300
C  31.73100 62.47500 42.61500
C  28.40600 63.22100 41.69600
C  28.20900 64.16400 42.83700
N  27.76200 57.84000 40.74900
C  26.95600 58.88900 41.11100
C  25.59500 58.50700 41.07800
C  25.63300 57.21300 40.64300
C  26.96500 56.82400 40.37600
C  24.35700 59.32800 41.32200
C  24.84000 55.99400 40.27500
O  23.65900 55.83000 40.24700
C  25.82500 54.84300 39.72400
C  25.78400 53.65900 40.57300
O  25.78300 53.68700 41.80600
O  25.70000 52.57900 39.77100
C  25.91600 51.27000 40.43500
H  32.66900 54.47100 39.24200
H  33.06300 60.76400 40.73100
H  26.75400 60.88100 41.74200
H  28.51900 52.70100 39.75500
H  30.79000 53.13400 38.14100
H  30.21200 51.58500 40.29100
H  30.93900 52.76200 41.09400
H  31.79000 51.90400 39.69700
H  27.10500 52.56600 37.93100
H  28.75000 52.41600 37.19800
H  27.82000 55.15100 37.12400
H  26.61600 53.95600 36.47800
H  35.89800 56.31300 39.00000
H  34.59500 55.26900 38.34500
H  35.17600 55.17500 39.99600
H  34.83400 61.15700 39.80400
H  36.37300 60.71400 40.37400
H  35.13500 60.62000 41.49700
H  30.94300 62.48300 40.56500
H  29.28400 61.90100 43.15300
H  32.63400 62.94300 42.22400
H  32.08900 61.61500 43.18100
H  31.18800 63.11400 43.31200
H  27.51900 62.99000 41.10700
H  29.11400 63.83200 41.13600
H  28.69900 65.12900 42.70300
H  28.52100 63.77500 43.80700
H  27.14700 64.36500 42.98100
H  24.43700 59.57500 42.38100
H  23.43800 58.75900 41.18200
H  24.23400 60.21900 40.70600
H  25.45300 54.62900 38.72200
H  26.02700 50.47300 39.70000
H  25.05400 50.92500 41.00700
H  26.76100 51.39000 41.11400

