158

Mg 28.86100 58.21600 41.02700
C  26.14900 56.24300 40.19700
C  30.96700 55.85400 39.37200
C  31.44500 60.42400 41.18100
C  26.70600 60.75100 42.24700
N  28.62000 56.29800 40.02800
C  27.39100 55.69700 39.77600
C  27.54600 54.49100 38.80400
C  29.09400 54.18600 38.94400
C  29.61800 55.56700 39.53200
C  29.46400 53.04600 39.87700
C  27.18700 54.98100 37.40400
C  26.10900 54.19800 36.52800
H  26.26100 54.19300 34.97500
N  31.04000 58.09100 40.50100
C  31.66700 57.08200 39.82500
C  33.02600 57.47200 39.63900
C  33.27600 58.75800 40.32400
C  31.89000 59.17100 40.70200
C  34.10300 56.52200 39.08000
C  34.60800 59.49500 40.53100
O  35.63400 59.10100 40.06100
C  34.74500 60.78500 41.36300
N  29.01200 60.31400 41.67100
C  30.20000 60.96300 41.74800
C  29.94200 62.43600 42.09900
C  28.67600 62.30200 42.99100
C  28.03100 61.07800 42.26800
C  31.13900 63.14100 42.82000
C  27.73500 63.62700 43.01000
C  27.31100 64.14900 44.36200
N  26.86500 58.50400 41.17000
C  26.16000 59.54300 41.70700
C  24.79800 59.14700 41.79300
C  24.71100 57.91300 41.08900
C  25.98600 57.59900 40.71700
C  23.68000 59.87100 42.56500
C  23.82400 56.81800 40.71200
O  22.64300 56.68300 40.90900
C  24.74200 55.71200 40.05400
C  24.51200 54.40500 40.72100
O  24.40700 54.25900 41.94000
O  24.43400 53.34600 39.83300
C  24.29400 51.93800 40.29800
H  31.56500 55.13900 38.80300
H  32.15000 61.24400 41.03100
H  25.99300 61.39400 42.76700
H  27.01700 53.56200 39.01800
H  29.59300 54.08700 37.98000
H  30.11300 53.50800 40.62100
H  30.16000 52.34900 39.40900
H  28.61500 52.56000 40.35800
H  28.06600 55.02800 36.76100
H  26.80000 55.99900 37.39900
H  25.05100 54.35000 36.74300
H  26.17600 53.16100 36.85500
H  34.98800 56.94800 38.60700
H  33.60000 55.88100 38.35600
H  34.40500 55.92000 39.93600
H  35.74200 61.02900 41.72900
H  34.04800 60.78600 42.20100
H  34.56300 61.63100 40.70000
H  29.75100 62.99800 41.18500
H  28.94700 62.05600 44.01800
H  31.58200 63.99300 42.30300
H  31.83400 62.33500 43.05500
H  30.71200 63.54600 43.73700
H  26.85400 63.45700 42.39200
H  28.28600 64.39100 42.46100
H  27.83500 63.55200 45.10900
H  26.23300 64.06400 44.50000
H  27.63800 65.15800 44.61100
H  24.09600 60.52800 43.32900
H  22.89200 59.23000 42.96000
H  23.15100 60.48500 41.83600
H  24.52300 55.63300 38.98900
H  23.65000 51.30000 39.69300
H  24.02800 51.81500 41.34800
H  25.33600 51.64700 40.15900
Mg 8.12600 48.19300 27.80500
C  6.05700 47.85700 30.64700
C  10.78800 48.41900 29.99400
C  10.07500 49.11400 25.27100
C  5.30700 49.12000 26.06900
N  8.42700 48.10100 30.08800
C  7.39500 48.03300 31.06000
C  7.97300 48.04700 32.47700
C  9.56100 48.38000 32.25200
C  9.62300 48.32400 30.71700
C  10.01800 49.73800 32.72300
C  7.73300 46.65400 33.30200
C  8.63900 46.40000 34.55000
H  8.11200 45.54400 35.70200
N  10.19800 48.44100 27.56100
C  11.09700 48.49000 28.58100
C  12.46200 48.44200 28.05500
C  12.32500 48.67300 26.66400
C  10.78100 48.72700 26.40500
C  13.69900 48.30700 28.86300
C  13.37100 48.84400 25.54300
O  13.07000 49.21000 24.40100
C  14.78700 48.68700 25.91400
N  7.76900 49.20700 26.00100
C  8.75900 49.43700 25.10800
C  8.21100 50.24100 23.88500
C  6.62500 50.05900 24.07300
C  6.54000 49.45200 25.48400
C  8.61900 51.76700 23.86400
C  5.86000 49.13000 23.05900
C  4.54200 49.62700 22.48700
N  6.07500 48.24000 28.20900
C  5.05100 48.60000 27.39100
C  3.81000 48.24900 27.92200
C  4.16000 47.91200 29.24800
C  5.51000 48.05500 29.41100
C  2.45900 48.30500 27.20200
C  3.61900 47.58900 30.52200
O  2.49400 47.29700 30.89900
C  4.84900 47.45500 31.49600
C  4.83200 46.01800 31.95900
O  5.09200 45.01800 31.33500
O  4.40500 46.00800 33.27300
C  4.17100 44.65200 33.86900
H  11.69500 48.56700 30.58500
H  10.61900 49.50500 24.40900
H  4.42100 49.46100 25.53000
H  7.51100 48.82700 33.08200
H  10.24400 47.64300 32.67600
H  9.23300 50.18700 33.33200
H  10.24300 50.46900 31.94500
H  10.93800 49.60200 33.29100
H  7.79000 45.75300 32.69100
H  6.79000 46.82400 33.82100
H  8.99800 47.35200 34.94200
H  9.46200 45.87900 34.06100
H  14.31700 47.49200 28.48500
H  13.42200 48.10500 29.89800
H  14.26000 49.24100 28.90400
H  15.18100 49.52200 26.49300
H  15.33300 48.63800 24.97200
H  14.84300 47.74600 26.46200
H  8.66200 49.77200 23.01000
H  6.31400 51.10400 24.08100
H  9.29000 51.99300 24.69200
H  7.80600 52.48700 23.77600
H  9.18800 52.02800 22.97100
H  5.66700 48.22600 23.63500
H  6.50500 48.81800 22.23700
H  3.89300 48.78400 22.72600
H  4.65500 49.74800 21.41000
H  4.25800 50.57700 22.93900
H  2.39100 49.31800 26.80400
H  1.76500 48.21800 28.03800
H  2.42600 47.58300 26.38600
H  4.80700 48.17700 32.31100
H  3.49500 44.75600 34.71800
H  5.06200 44.09700 34.16000
H  3.69800 43.99000 33.14400

