158

Mg 35.49200 1.54900 29.58900
C  33.57700 3.03600 32.09400
C  38.24400 2.02000 31.63800
C  37.43400 0.75200 26.98600
C  32.74700 1.95000 27.47900
N  35.79300 2.22900 31.68900
C  34.82000 2.65500 32.56600
C  35.34900 2.88700 34.00500
C  36.90300 2.50800 33.80800
C  37.01500 2.29100 32.27100
C  37.93300 3.58900 34.34000
C  34.60800 1.99400 35.09900
C  34.06900 2.73400 36.30800
H  34.85500 3.97100 36.73700
N  37.50900 1.17800 29.36900
C  38.45500 1.45000 30.35800
C  39.80800 1.11500 29.79700
C  39.59000 0.68000 28.45200
C  38.15400 0.96700 28.22900
C  41.16000 1.13700 30.49300
C  40.58800 0.00400 27.44900
O  40.13900 -0.38900 26.31000
C  42.12500 -0.01000 27.65200
N  35.17000 1.42400 27.51200
C  36.08500 0.86400 26.66300
C  35.51300 0.76300 25.25300
C  33.93700 0.86300 25.52100
C  33.95400 1.39600 26.92400
C  35.98800 1.88100 24.17000
C  33.20400 -0.53700 25.39400
C  32.17000 -0.73500 24.23000
N  33.60800 2.42600 29.61600
C  32.61300 2.51600 28.71500
C  31.38400 3.18300 29.15200
C  31.76200 3.33900 30.50900
C  33.07000 2.90000 30.74700
C  30.13200 3.49300 28.34800
C  31.24900 3.92300 31.69900
O  30.17300 4.42100 31.86900
C  32.30500 3.60000 32.77000
C  32.54200 4.90200 33.47500
O  33.39000 5.66800 33.22300
O  31.52200 5.12600 34.35300
C  31.51400 6.39600 35.09600
H  39.14100 2.07900 32.25800
H  37.97300 0.27100 26.16700
H  31.92000 1.85600 26.77100
H  35.31000 3.95100 34.23900
H  37.18500 1.57100 34.28900
H  37.29600 4.37500 34.74600
H  38.52000 4.00200 33.52000
H  38.58000 3.09400 35.06400
H  35.16100 1.12500 35.45700
H  33.70600 1.58100 34.64800
H  33.90000 2.05400 37.14300
H  33.13300 3.17600 35.96700
H  41.80000 2.01000 30.36800
H  41.62900 0.17100 30.30400
H  41.04100 1.08700 31.57500
H  42.69900 0.33500 26.79200
H  42.47400 -0.97700 28.01400
H  42.42700 0.78500 28.33500
H  35.76400 -0.23300 24.88900
H  33.45200 1.58100 24.86000
H  35.24400 2.60600 23.84100
H  36.34000 1.37500 23.27200
H  36.85200 2.35200 24.63800
H  32.71400 -0.70500 26.35400
H  34.01300 -1.24900 25.23300
H  32.43200 -1.52700 23.52900
H  31.99900 0.13200 23.59100
H  31.19800 -0.97400 24.66100
H  30.39700 4.23200 27.59300
H  29.23600 3.72000 28.92500
H  29.86600 2.64700 27.71400
H  31.73200 2.91200 33.39100
H  32.35100 7.04400 34.83600
H  31.70800 6.23300 36.15600
H  30.63600 7.03500 35.00800
Mg -12.32300 37.99800 41.91500
C  -10.23300 35.40700 40.83300
C  -10.28000 40.21000 40.15200
C  -14.52800 40.41600 42.50500
C  -14.24700 35.69700 43.44200
N  -10.59400 37.73800 40.58100
C  -9.88900 36.61300 40.29400
C  -8.83800 36.86100 39.19400
C  -8.71200 38.43300 39.33900
C  -10.02200 38.87000 40.03900
C  -7.44200 38.84700 40.21300
C  -9.03200 36.23500 37.76900
C  -7.78800 35.47900 37.17200
H  -6.78600 36.37600 36.30500
N  -12.34400 40.12600 41.50000
C  -11.41300 40.76800 40.81600
C  -11.84800 42.16800 40.81200
C  -13.16400 42.30400 41.44800
C  -13.39000 40.91000 41.88800
C  -11.02900 43.14800 40.16700
C  -13.94200 43.54800 41.73400
O  -13.51800 44.66000 41.44000
C  -15.30800 43.54400 42.34900
N  -14.14100 38.05400 42.69100
C  -14.89200 39.14600 42.88500
C  -16.21100 38.80500 43.72600
C  -16.12800 37.24700 43.94200
C  -14.77700 36.98500 43.29900
C  -16.19100 39.64400 44.94000
C  -17.21300 36.39200 43.26900
C  -17.91500 35.33600 44.09200
N  -12.32400 35.90600 42.06900
C  -13.07800 35.13500 42.93000
C  -12.53600 33.76800 43.09600
C  -11.32600 33.80600 42.32200
C  -11.31800 35.10200 41.67900
C  -12.99700 32.64900 43.99600
C  -10.15500 33.17500 41.81800
O  -9.73400 32.03900 42.01700
C  -9.55300 34.07800 40.65400
C  -8.03000 34.14600 40.77100
O  -7.24200 34.79600 41.46200
O  -7.57000 33.17300 39.90800
C  -6.11900 33.07600 39.83200
H  -9.58200 40.87300 39.63700
H  -15.32200 41.15000 42.65400
H  -14.81400 34.91200 43.94600
H  -7.88000 36.49500 39.56300
H  -8.67000 38.93800 38.37400
H  -6.81200 38.05200 40.61300
H  -7.82300 39.39200 41.07600
H  -6.81500 39.55200 39.66700
H  -9.26100 36.93300 36.96300
H  -9.78500 35.44900 37.81400
H  -8.14200 34.64700 36.56300
H  -7.24100 35.01200 37.99100
H  -11.66200 43.98600 39.87600
H  -10.48000 42.86700 39.26800
H  -10.29700 43.40000 40.93400
H  -15.97600 42.91200 41.76300
H  -15.66400 44.56000 42.52300
H  -15.26400 43.09400 43.34000
H  -17.09500 39.08000 43.15100
H  -16.07200 37.05700 45.01300
H  -15.13000 39.75300 45.16900
H  -16.60100 39.05900 45.76300
H  -16.73200 40.58900 44.89600
H  -16.74200 35.80900 42.47700
H  -17.88900 37.08800 42.77300
H  -17.96100 35.52200 45.16500
H  -17.61700 34.28900 44.03000
H  -18.91000 35.25700 43.65500
H  -12.36200 31.77100 43.87500
H  -14.03600 32.39800 43.78400
H  -13.11400 32.98200 45.02700
H  -9.95400 33.66500 39.72900
H  -5.69800 32.67400 40.75400
H  -5.74500 34.08400 39.65300
H  -5.87300 32.29100 39.11700

