158

Mg 7.36100 3.21400 28.17600
C  8.80800 1.77600 31.12500
C  5.38500 5.07000 30.11800
C  6.02600 4.36300 25.33200
C  9.02000 0.75500 26.38000
N  7.08100 3.38500 30.40900
C  7.84000 2.76700 31.38500
C  7.55600 3.40100 32.76800
C  6.41300 4.43000 32.38700
C  6.25000 4.35900 30.91200
C  5.17100 4.28200 33.28500
C  8.84200 4.00200 33.27700
C  8.76200 5.08600 34.40900
H  9.36600 4.81200 35.76200
N  5.90700 4.61600 27.78200
C  5.17000 5.17200 28.72600
C  4.20700 6.03700 28.05100
C  4.47100 5.88900 26.61600
C  5.51400 4.94300 26.51400
C  3.25400 6.89500 28.78700
C  3.82400 6.56000 25.47100
O  4.11100 6.41300 24.31000
C  2.81500 7.70700 25.75700
N  7.35800 2.61400 26.22100
C  6.84800 3.32700 25.15700
C  7.22600 2.84000 23.80800
C  8.07800 1.62100 24.14600
C  8.10200 1.58100 25.71000
C  6.09000 2.67800 22.70500
C  9.56400 1.54900 23.55400
C  10.61200 2.32900 24.30800
N  8.72100 1.62200 28.59500
C  9.33100 0.77000 27.72400
C  10.24900 -0.10200 28.40000
C  10.09100 0.22400 29.79800
C  9.08700 1.32100 29.84500
C  11.12900 -1.14200 27.93700
C  10.48500 -0.07300 31.16300
O  11.35000 -0.79600 31.59100
C  9.72500 0.99400 32.05500
C  9.02900 0.28100 33.15300
O  7.95900 -0.32500 33.01300
O  9.79000 0.23900 34.31400
C  9.29300 -0.49200 35.53700
H  4.74500 5.66600 30.77200
H  5.73100 4.85400 24.40200
H  9.52500 -0.06100 25.85800
H  7.23800 2.66000 33.50100
H  6.71800 5.45300 32.61000
H  4.69500 5.22800 33.54100
H  5.46200 3.80700 34.22200
H  4.44600 3.59000 32.85600
H  9.36700 4.52400 32.47800
H  9.57100 3.30200 33.68600
H  7.69400 5.16800 34.60900
H  9.09400 6.05300 34.03200
H  3.10600 6.59300 29.82400
H  2.26800 6.77800 28.33800
H  3.47700 7.95900 28.70800
H  1.85200 7.20200 25.82700
H  2.91200 8.36700 24.89400
H  3.10100 8.30800 26.62100
H  7.88100 3.65400 23.49700
H  7.57800 0.76700 23.68900
H  5.14100 2.68100 23.24100
H  6.10200 1.70700 22.21000
H  6.17900 3.47800 21.97100
H  9.61600 1.81200 22.49800
H  9.93300 0.52700 23.63800
H  10.21400 3.08600 24.98300
H  11.23300 2.77200 23.52900
H  11.20700 1.68800 24.95900
H  11.70100 -0.81600 27.06900
H  10.53200 -2.04200 27.78900
H  11.83100 -1.33900 28.74800
H  10.40100 1.66600 32.58500
H  10.06900 -1.12500 35.96700
H  8.46200 -1.18700 35.41900
H  9.12400 0.33500 36.22700
Mg -1.79000 33.43000 26.93100
C  -3.58700 31.71200 29.34500
C  -0.55900 35.48700 29.32800
C  -0.54000 35.32000 24.48500
C  -3.45100 31.49600 24.38100
N  -2.10000 33.67300 28.99800
C  -2.82500 32.74800 29.87800
C  -2.59100 33.10700 31.36100
C  -1.70100 34.35600 31.29100
C  -1.46300 34.54600 29.74000
C  -2.28300 35.55400 32.08700
C  -2.04000 31.90300 32.25100
C  -2.94700 31.57400 33.49100
H  -2.16900 31.44800 34.80500
N  -0.56600 35.18700 26.92700
C  -0.10600 35.79400 27.99900
C  0.87000 36.82200 27.49400
C  0.77400 36.87000 26.05000
C  -0.16700 35.80700 25.75600
C  1.73900 37.57200 28.43500
C  1.52400 37.74400 25.10100
O  1.45400 37.66000 23.88000
C  2.29300 38.80700 25.61200
N  -2.01600 33.45800 24.68400
C  -1.33000 34.33600 23.96900
C  -1.54600 34.14800 22.47300
C  -2.39700 32.84700 22.41500
C  -2.60600 32.50600 23.92900
C  -2.02500 35.42600 21.66000
C  -1.78600 31.64000 21.69100
C  -0.85800 30.71800 22.48400
N  -3.17700 31.94800 26.77400
C  -3.80200 31.22400 25.70500
C  -4.77800 30.32400 26.22400
C  -4.73100 30.45500 27.63300
C  -3.73200 31.48000 27.90700
C  -5.54600 29.28400 25.37400
C  -5.26200 29.93900 28.92900
O  -6.01200 28.94200 29.12100
C  -4.53500 30.77500 29.98800
C  -5.44300 31.47900 30.92600
O  -5.83600 32.62900 30.92700
O  -5.86100 30.53200 31.86300
C  -6.68000 31.15300 32.90300
H  -0.03400 36.12600 30.04000
H  0.01900 35.82900 23.69800
H  -4.07700 30.94200 23.67900
H  -3.61700 33.21900 31.71100
H  -0.80400 34.14000 31.87200
H  -2.51700 36.39200 31.43100
H  -1.61900 35.94200 32.86000
H  -3.26600 35.32500 32.50000
H  -1.05700 32.08600 32.68500
H  -1.93100 30.99600 31.65600
H  -3.53300 30.67300 33.30600
H  -3.55900 32.43200 33.76700
H  1.34000 38.58400 28.49700
H  2.78900 37.40900 28.19000
H  1.62300 37.19400 29.45100
H  2.77700 39.37200 24.81500
H  3.09800 38.38000 26.20900
H  1.67900 39.49100 26.19700
H  -0.58200 33.91100 22.02400
H  -3.40000 33.09400 22.06700
H  -2.10000 36.23600 22.38500
H  -2.96400 35.31000 21.11800
H  -1.17900 35.75300 21.05500
H  -1.11600 31.98600 20.90400
H  -2.49500 31.05600 21.10300
H  -0.64400 31.09600 23.48400
H  0.03300 30.60400 21.86500
H  -1.32800 29.74300 22.61200
H  -4.84600 28.98700 24.59300
H  -6.50000 29.62100 24.96800
H  -5.77200 28.35100 25.88900
H  -4.00100 30.04900 30.60100
H  -6.22900 32.04500 33.33700
H  -6.89400 30.42600 33.68700
H  -7.63300 31.40100 32.43500

