158

Mg -1.71600 17.08000 25.99900
C  -2.50500 14.89900 28.70300
C  -2.67700 19.63300 28.08100
C  -1.40200 18.97400 23.31200
C  -1.46700 14.20700 23.99100
N  -2.51400 17.20300 28.15800
C  -2.69400 16.17700 29.02300
C  -3.09100 16.67300 30.38700
C  -3.41000 18.23900 30.18100
C  -2.89600 18.36700 28.66900
C  -4.87200 18.74700 30.38400
C  -2.08700 16.36800 31.60300
C  -2.08300 17.29300 32.81300
H  -2.42200 16.61900 34.10600
N  -1.85600 19.12000 25.79000
C  -2.21500 20.07800 26.73600
C  -2.04700 21.31700 26.16000
C  -1.62600 21.18500 24.81600
C  -1.58300 19.69600 24.54200
C  -2.47300 22.50000 26.95100
C  -1.36100 22.19800 23.82800
O  -1.14500 21.95800 22.61200
C  -1.41500 23.65900 24.20100
N  -1.52200 16.69700 23.93700
C  -1.40600 17.63400 22.96800
C  -1.04700 17.10900 21.57200
C  -0.88300 15.61800 21.99700
C  -1.27300 15.49100 23.45500
C  -2.11900 17.47800 20.41600
C  0.50900 14.96800 21.80800
C  1.73200 15.79800 22.31000
N  -1.88400 14.96300 26.29100
C  -1.80200 13.88900 25.33700
C  -2.00300 12.62000 26.04700
C  -2.23100 12.99800 27.38100
C  -2.13400 14.38100 27.44000
C  -2.00100 11.30800 25.38900
C  -2.56500 12.36900 28.60400
O  -2.59700 11.20200 28.88600
C  -2.65100 13.63000 29.53600
C  -1.70900 13.32400 30.70400
O  -0.54800 13.61200 30.85100
O  -2.42500 12.78300 31.73900
C  -1.74700 12.43200 33.00000
H  -2.82000 20.35500 28.88800
H  -1.29500 19.57700 22.40800
H  -1.38400 13.32600 23.35000
H  -3.99700 16.13700 30.67400
H  -2.85000 19.02900 30.68100
H  -5.36400 18.87000 29.41900
H  -4.84200 19.74100 30.83000
H  -5.43300 18.16400 31.11400
H  -1.09100 16.29300 31.16600
H  -2.32100 15.35900 31.94000
H  -2.77200 18.13200 32.71100
H  -1.10600 17.73300 33.01600
H  -1.68200 23.21600 27.17400
H  -2.82900 22.23200 27.94600
H  -3.27600 23.03800 26.44700
H  -0.63500 23.83100 24.94300
H  -2.35700 23.96100 24.66000
H  -1.35300 24.20800 23.26200
H  -0.09800 17.60200 21.36000
H  -1.62500 15.14800 21.35200
H  -1.70300 18.30700 19.84500
H  -3.04500 17.76600 20.91500
H  -2.10000 16.63600 19.72400
H  0.68900 14.91400 20.73400
H  0.44900 13.94300 22.17500
H  2.37900 15.16700 22.91900
H  1.50400 16.64400 22.95800
H  2.27500 16.10600 21.41600
H  -1.87700 10.55900 26.17100
H  -1.22400 11.16400 24.63800
H  -2.92400 11.23500 24.81400
H  -3.62000 13.62000 30.03500
H  -0.93600 11.78700 32.66200
H  -2.47100 11.97100 33.67200
H  -1.33200 13.39600 33.29400
Mg 17.01700 52.24100 25.23100
C  18.87600 51.03300 28.08200
C  14.66600 53.26000 27.40900
C  15.29100 53.06600 22.58800
C  19.57300 50.90200 23.20700
N  16.94500 52.29900 27.47300
C  17.81500 51.85600 28.42300
C  17.33600 52.11400 29.84400
C  15.87600 52.71700 29.65000
C  15.81100 52.69800 28.12300
C  14.83800 51.88600 30.38400
C  18.34800 53.06900 30.64300
C  18.79700 52.62100 32.12200
H  17.85500 51.78100 32.95100
N  15.25100 53.06300 25.00500
C  14.40900 53.38100 26.03400
C  13.19600 53.96900 25.46800
C  13.27600 53.79700 24.06400
C  14.67300 53.29600 23.81500
C  12.06200 54.57400 26.27400
C  12.20100 54.08800 23.03000
O  12.38000 53.77700 21.81400
C  10.80800 54.58300 23.43600
N  17.29500 51.78500 23.21500
C  16.47100 52.33700 22.26900
C  16.87400 52.03100 20.79900
C  18.25500 51.44200 21.07700
C  18.38700 51.42400 22.58900
C  15.95500 50.99600 20.17100
C  19.31500 52.27500 20.42200
C  20.60200 51.65800 20.06500
N  18.74600 51.09100 25.49300
C  19.68300 50.59000 24.56700
C  20.72500 49.92800 25.27400
C  20.47300 50.07500 26.64900
C  19.23000 50.72500 26.73000
C  21.95500 49.45100 24.55600
C  21.00900 49.71200 27.97400
O  22.05900 49.11300 28.32400
C  19.91600 50.29400 28.96200
C  19.31400 49.12200 29.60200
O  19.01900 48.11400 29.06400
O  19.22800 49.25400 30.97800
C  18.77900 48.13400 31.77200
H  13.83500 53.54500 28.05800
H  14.71300 53.20400 21.67100
H  20.33400 50.40000 22.60700
H  17.26900 51.16500 30.37700
H  15.73600 53.70600 30.08500
H  14.07300 52.51900 30.83500
H  15.16600 51.27000 31.22100
H  14.20100 51.27300 29.74600
H  17.82000 54.02100 30.70400
H  19.28100 53.02700 30.08200
H  19.01000 53.46900 32.77400
H  19.59600 51.89600 31.96800
H  12.12400 55.62700 25.99900
H  12.16400 54.45000 27.35200
H  11.13800 54.04600 26.03700
H  10.93700 55.45200 24.08300
H  10.31800 53.79800 24.01300
H  10.28800 54.76700 22.49600
H  16.79900 52.87900 20.11700
H  18.28700 50.40000 20.75800
H  15.38900 50.46200 20.93400
H  16.44200 50.26900 19.52200
H  15.18600 51.47700 19.56700
H  19.46000 53.04800 21.17600
H  18.87700 52.75900 19.54900
H  20.62800 51.48500 18.99000
H  20.60500 50.63200 20.43500
H  21.43600 52.24800 20.44600
H  22.79300 49.25600 25.22500
H  22.36600 50.13200 23.81100
H  21.83700 48.48800 24.05900
H  20.26000 50.87100 29.82100
H  17.81600 47.69500 31.51400
H  18.79200 48.40700 32.82700
H  19.45100 47.27500 31.79900

