158

Mg 15.94200 -2.22500 28.64200
C  15.02900 0.18000 31.05900
C  17.97900 -3.77900 31.00000
C  17.49000 -4.07800 26.23800
C  14.48100 -0.24100 26.23800
N  16.61400 -1.68600 30.80100
C  16.03500 -0.75700 31.54700
C  16.61100 -1.02400 32.94600
C  17.64400 -2.19200 32.86100
C  17.40600 -2.63100 31.46600
C  19.10400 -1.63500 33.22600
C  15.55600 -1.20100 34.01000
C  15.61500 -0.18400 35.15000
H  16.90300 0.52100 35.55500
N  17.33700 -3.83500 28.66800
C  17.88800 -4.46000 29.74900
C  18.63700 -5.63800 29.31800
C  18.55200 -5.67600 27.85700
C  17.76600 -4.50700 27.51200
C  19.57500 -6.40200 30.20500
C  19.14200 -6.66500 26.91400
O  19.03000 -6.56500 25.73200
C  19.93000 -7.84900 27.45200
N  16.19500 -2.04200 26.62000
C  16.80800 -2.94600 25.81700
C  16.58100 -2.61600 24.31300
C  15.44500 -1.61300 24.37600
C  15.36600 -1.28200 25.85900
C  17.88900 -2.00600 23.68200
C  14.04800 -2.09300 23.91600
C  13.23900 -1.17200 22.98000
N  14.87000 -0.50400 28.58800
C  14.36300 0.22800 27.53200
C  13.53300 1.26600 28.06400
C  13.80800 1.27000 29.43000
C  14.67600 0.27600 29.70800
C  12.64000 2.21900 27.32700
C  13.41500 1.98900 30.64600
O  12.67400 2.98200 30.78400
C  14.23600 1.31800 31.78900
C  15.05500 2.43900 32.30900
O  16.13700 2.77500 31.88700
O  14.30100 3.05500 33.32300
C  14.87200 4.22800 33.93100
H  18.58200 -4.30500 31.74300
H  17.97300 -4.52700 25.36700
H  13.82900 0.15800 25.45800
H  17.10800 -0.08400 33.18500
H  17.54500 -3.03600 33.54400
H  19.05400 -0.89300 34.02300
H  19.53700 -1.18100 32.33500
H  19.88800 -2.34100 33.50100
H  15.76200 -2.23400 34.29000
H  14.57300 -1.25900 33.54300
H  15.31900 -0.77600 36.01600
H  14.90500 0.62800 34.99000
H  20.61500 -6.15400 29.99300
H  19.36700 -7.46300 30.06600
H  19.33200 -6.32600 31.26500
H  19.35900 -8.38100 28.21300
H  20.90800 -7.54600 27.82600
H  20.14200 -8.60600 26.69700
H  16.24700 -3.45100 23.69800
H  15.63400 -0.74400 23.74500
H  18.10800 -1.03100 24.11900
H  17.57800 -1.89300 22.64400
H  18.82500 -2.56100 23.62000
H  13.40300 -2.37700 24.74700
H  14.18400 -3.01400 23.34900
H  12.20600 -1.50900 23.06100
H  13.74000 -1.22200 22.01300
H  13.36800 -0.11200 23.19800
H  12.61400 1.93100 26.27600
H  13.11800 3.18100 27.14700
H  11.68200 2.35200 27.83100
H  13.66800 0.84300 32.58900
H  14.25700 4.57400 34.76200
H  15.23000 5.08300 33.35700
H  15.73700 3.78200 34.42200
Mg 47.76400 25.39600 28.45300
C  48.96300 27.42000 31.17500
C  46.54300 23.18500 30.94100
C  46.88500 23.20300 26.10700
C  49.62300 27.27700 26.36800
N  47.71200 25.38900 30.81600
C  48.24400 26.34600 31.67200
C  47.94300 25.98900 33.12600
C  47.14400 24.66900 33.02800
C  47.09900 24.39600 31.51000
C  47.65400 23.50300 33.90100
C  47.34700 27.24100 33.88900
C  47.82900 27.46600 35.41200
H  46.74800 27.58200 36.48200
N  46.74600 23.47900 28.53700
C  46.39100 22.75200 29.62600
C  45.52700 21.57700 29.16300
C  45.53200 21.58900 27.73100
C  46.39100 22.82300 27.41400
C  44.80600 20.60100 30.08800
C  44.89100 20.72700 26.70400
O  45.09600 20.86800 25.53200
C  44.02700 19.48900 27.02700
N  48.12800 25.28700 26.45100
C  47.58600 24.30900 25.65900
C  48.15400 24.43500 24.24600
C  49.06600 25.64800 24.40000
C  48.85000 26.21700 25.79200
C  48.91800 23.15700 23.91600
C  48.89100 26.69200 23.25400
C  48.79200 26.09000 21.84800
N  48.91900 27.07800 28.62700
C  49.69100 27.69900 27.69800
C  50.38100 28.81000 28.33100
C  50.16100 28.69400 29.65400
C  49.18400 27.70900 29.81800
C  51.47600 29.70200 27.60000
C  50.55000 29.23500 30.93100
O  51.40900 30.04500 31.25700
C  49.67000 28.49500 32.01100
C  50.55500 27.86900 33.09900
O  51.06600 26.71200 33.12000
O  50.85900 28.84800 33.98300
C  51.90900 28.54700 34.96200
H  46.23000 22.45400 31.68900
H  46.56900 22.53400 25.30400
H  50.22500 27.83800 25.65000
H  48.91900 25.77100 33.55900
H  46.12300 24.93600 33.30300
H  46.78600 23.16400 34.46600
H  48.48300 23.77000 34.55500
H  47.88300 22.55100 33.42200
H  46.28000 27.01700 33.91000
H  47.31700 28.19600 33.36500
H  48.34700 28.40600 35.60400
H  48.53400 26.65000 35.57000
H  44.82200 20.89200 31.13800
H  45.31700 19.65300 29.92000
H  43.79900 20.41500 29.71600
H  43.17000 19.95100 27.51700
H  44.49700 18.84500 27.77000
H  43.71100 18.91100 26.15900
H  47.33500 24.60900 23.54800
H  50.08300 25.26000 24.46800
H  49.15000 22.72900 24.89100
H  49.78400 23.47400 23.33500
H  48.36500 22.45600 23.29100
H  49.70300 27.39500 23.43800
H  47.97400 27.24100 23.46600
H  49.67100 26.39100 21.27700
H  47.94500 26.54800 21.33800
H  48.76200 25.00300 21.91700
H  52.21200 28.99800 27.21300
H  51.86300 30.44300 28.29900
H  50.97100 30.26200 26.81300
H  48.98500 29.23900 32.41700
H  52.83100 28.25500 34.45900
H  51.63500 27.93900 35.82400
H  52.27400 29.43100 35.48500

