158

Mg -2.54000 17.50600 27.27500
C  -2.87600 15.04300 29.84200
C  -3.42800 19.88900 29.48600
C  -2.38000 19.73300 24.76800
C  -2.36600 14.92500 24.96700
N  -2.93800 17.48100 29.40200
C  -2.91800 16.40900 30.27500
C  -3.05800 16.83200 31.78300
C  -3.48100 18.35700 31.53400
C  -3.33700 18.58500 30.01800
C  -4.96400 18.85200 32.00500
C  -1.84200 16.49700 32.70500
C  -1.37700 17.48600 33.79100
H  -1.11200 16.81500 35.15200
N  -2.79200 19.59100 27.18500
C  -3.15100 20.36100 28.18800
C  -3.01600 21.74500 27.71300
C  -2.47900 21.69500 26.43800
C  -2.56400 20.30400 26.07200
C  -3.32900 22.95500 28.71500
C  -2.03400 22.81000 25.41400
O  -1.63300 22.58000 24.30100
C  -1.97200 24.19100 25.96200
N  -2.54600 17.30800 25.19200
C  -2.45700 18.40100 24.39900
C  -2.26100 18.00300 22.88800
C  -1.95100 16.48700 22.97200
C  -2.26100 16.21500 24.44600
C  -3.53200 18.42300 22.06800
C  -0.49400 16.12000 22.65600
C  0.65300 16.70200 23.45300
N  -2.63200 15.44900 27.26300
C  -2.62000 14.52400 26.23600
C  -2.78100 13.18000 26.78100
C  -2.85300 13.34600 28.16200
C  -2.79400 14.75800 28.41100
C  -2.71400 11.85000 26.10800
C  -2.91500 12.59300 29.40400
O  -2.87400 11.40400 29.69500
C  -3.01100 13.72000 30.53400
C  -2.05600 13.46900 31.55300
O  -0.86100 13.85300 31.52100
O  -2.61700 12.70600 32.49500
C  -1.70200 12.21100 33.54800
H  -3.73700 20.62400 30.23300
H  -2.25900 20.39200 23.90500
H  -2.19900 14.13700 24.23000
H  -3.99400 16.52500 32.24800
H  -2.69700 19.00500 31.92500
H  -4.61100 19.60400 32.71200
H  -5.52700 18.15800 32.63000
H  -5.56800 19.24900 31.18900
H  -0.93900 16.31200 32.12400
H  -2.03100 15.59500 33.28800
H  -2.17000 18.23000 33.85600
H  -0.43400 17.94800 33.49700
H  -3.96000 22.59000 29.52500
H  -3.88300 23.72300 28.17500
H  -2.46700 23.43300 29.18000
H  -1.01200 24.35500 26.45100
H  -2.80500 24.46200 26.61200
H  -1.91100 24.90800 25.14400
H  -1.37800 18.52500 22.51900
H  -2.64800 16.01400 22.28000
H  -3.48800 19.45100 21.70600
H  -4.42100 18.45400 22.69700
H  -3.74800 17.75200 21.23700
H  -0.39700 16.07100 21.57100
H  -0.46600 15.07600 22.96700
H  1.19400 15.87500 23.91200
H  0.24400 17.40900 24.17400
H  1.31400 17.23600 22.77000
H  -2.31800 11.83700 25.09200
H  -3.67800 11.34100 26.08100
H  -1.95500 11.27600 26.64000
H  -4.03200 13.59000 30.89400
H  -0.85700 11.62700 33.18200
H  -2.24300 11.60100 34.27100
H  -1.20800 12.97400 34.15100
Mg 48.27600 25.21700 28.30300
C  49.21300 27.45100 30.86800
C  47.55600 22.93700 30.66500
C  47.62600 23.13100 25.76800
C  49.18900 27.79300 25.90900
N  48.50800 25.22900 30.57900
C  48.69500 26.27600 31.39500
C  48.40200 25.92700 32.85800
C  47.97700 24.45100 32.75600
C  48.02400 24.14100 31.24000
C  48.99200 23.49000 33.56900
C  47.42500 26.96100 33.43000
C  47.86200 27.60100 34.76900
H  47.04100 27.54500 35.99900
N  47.65400 23.30500 28.22500
C  47.34400 22.55000 29.32100
C  46.75900 21.28100 28.88800
C  46.88200 21.23600 27.45900
C  47.45400 22.61500 27.13900
C  46.28600 20.24300 29.75400
C  46.56400 20.10200 26.45300
O  46.68700 20.23200 25.29400
C  45.92400 18.86400 26.98000
N  48.43800 25.42400 26.17500
C  48.00400 24.37900 25.30500
C  48.13700 24.81900 23.84400
C  48.41100 26.38500 23.93600
C  48.68000 26.58800 25.43800
C  49.22800 23.97900 23.07000
C  47.30700 27.18300 23.42200
C  46.00600 27.25000 24.28200
N  49.22600 27.07300 28.34000
C  49.50700 28.01600 27.30600
C  50.05900 29.21700 27.86900
C  49.91900 29.05800 29.23900
C  49.42500 27.73800 29.49600
C  50.57600 30.43600 27.16100
C  50.06500 29.72000 30.51300
O  50.50800 30.84000 30.76600
C  49.68400 28.73000 31.57900
C  50.87300 28.36600 32.49600
O  51.54200 27.37400 32.36300
O  50.85800 29.16600 33.58400
C  51.91300 29.01200 34.61200
H  47.36400 22.33200 31.55300
H  47.33400 22.49400 24.93000
H  49.34200 28.51100 25.10000
H  49.36200 26.06100 33.35700
H  46.93200 24.36400 33.05300
H  49.81300 23.03700 33.01300
H  48.53500 22.59500 33.99200
H  49.26700 24.04700 34.46400
H  46.47700 26.42400 33.46200
H  47.19800 27.82000 32.79900
H  47.91700 28.64200 34.44900
H  48.84400 27.21800 35.04700
H  46.87900 19.33000 29.80300
H  45.24500 20.07600 29.47500
H  46.32100 20.66500 30.75800
H  46.64000 18.09600 27.27300
H  45.39400 18.42800 26.13300
H  45.12400 18.98200 27.71100
H  47.10400 24.60500 23.56900
H  49.37100 26.64300 23.48900
H  50.07100 24.59800 22.76200
H  48.79400 23.63000 22.13300
H  49.63000 23.17500 23.68700
H  47.01200 26.71500 22.48200
H  47.63900 28.21900 23.35600
H  46.19800 27.16300 25.35100
H  45.32000 26.47700 23.93600
H  45.55000 28.21300 24.05300
H  50.06300 30.56400 26.20800
H  51.63700 30.29000 26.95700
H  50.35800 31.34900 27.71500
H  48.79400 29.04100 32.12600
H  52.63700 28.26900 34.27700
H  51.49600 28.70000 35.57000
H  52.22300 30.03000 34.84700

