158

Mg 48.29000 16.32100 28.19900
C  46.09700 16.04000 30.94500
C  50.42900 18.18600 30.20900
C  50.23000 16.53100 25.68900
C  45.57800 15.24600 26.12100
N  48.21000 17.03400 30.29900
C  47.29400 16.75300 31.24500
C  47.67300 17.35200 32.63500
C  48.89600 18.23100 32.30100
C  49.21500 17.81200 30.85000
C  48.76000 19.73800 32.47900
C  48.03100 16.17400 33.63100
C  47.58900 16.35500 35.01900
H  47.67300 17.81600 35.61100
N  50.13700 17.10100 28.01400
C  50.94200 17.73700 28.93700
C  52.22500 18.01500 28.34500
C  52.15400 17.52000 27.03800
C  50.80600 17.05700 26.81300
C  53.36800 18.48200 29.23400
C  53.28900 17.49700 25.95800
O  53.10900 16.94000 24.91600
C  54.64700 18.23700 26.05500
N  47.89500 16.11600 26.15800
C  48.97400 16.06400 25.34400
C  48.69100 15.33100 23.96400
C  47.10200 15.10200 24.08100
C  46.81600 15.53000 25.52900
C  49.10100 15.95200 22.55800
C  46.53300 13.67100 23.73300
C  46.79100 12.60500 24.73200
N  46.21800 15.76800 28.42700
C  45.28100 15.28500 27.49500
C  44.09700 14.82700 28.19000
C  44.37600 15.13700 29.52900
C  45.66300 15.73600 29.62600
C  42.80300 14.23800 27.69700
C  43.78200 15.15400 30.85200
O  42.63400 14.86600 31.22100
C  44.85500 15.78700 31.86400
C  44.28700 17.08300 32.32900
O  44.20800 18.10500 31.68700
O  43.94500 16.87900 33.67900
C  43.12700 18.02700 34.18500
H  51.05300 18.90100 30.74900
H  50.77400 16.45300 24.74600
H  44.85900 14.88900 25.38200
H  46.79100 17.86200 33.02200
H  49.77300 17.99600 32.90400
H  48.97500 20.29500 31.56800
H  49.41900 20.07300 33.28000
H  47.72100 19.95600 32.72900
H  49.06800 15.83900 33.60500
H  47.42200 15.33400 33.29700
H  48.20900 15.65000 35.57300
H  46.54600 16.04100 35.02100
H  53.79600 19.41800 28.87500
H  54.26400 17.87400 29.10700
H  53.08200 18.61900 30.27700
H  55.40300 17.75600 25.43400
H  55.15500 18.15600 27.01500
H  54.45900 19.28200 25.80700
H  49.08600 14.31500 23.98600
H  46.57400 15.80700 23.43900
H  48.23700 16.06800 21.90400
H  49.85500 15.32600 22.08100
H  49.55400 16.93300 22.69900
H  46.90000 13.32000 22.76900
H  45.47000 13.79900 23.52900
H  47.37200 11.76200 24.35700
H  45.90700 12.17300 25.20100
H  47.40000 12.95700 25.56500
H  42.27400 13.71000 28.49100
H  43.05400 13.49600 26.93900
H  42.01700 14.85100 27.25600
H  44.98800 15.04900 32.65600
H  42.76700 18.68600 33.39500
H  43.72800 18.57800 34.90900
H  42.21300 17.83000 34.74600
Mg 0.43200 44.08300 25.98200
C  2.70600 44.11700 28.68300
C  -2.04500 43.25700 28.18000
C  -1.59200 43.38800 23.34600
C  3.14100 44.22700 23.86800
N  0.39200 43.81800 28.24000
C  1.39600 43.87900 29.15600
C  0.92100 43.78600 30.55300
C  -0.55200 43.21300 30.32800
C  -0.76500 43.54400 28.80100
C  -0.71900 41.74100 30.59000
C  0.94600 45.15900 31.32400
C  0.98300 44.98000 32.88900
H  0.30600 43.80700 33.63200
N  -1.57900 43.54500 25.77800
C  -2.45600 43.26200 26.78900
C  -3.73700 42.94000 26.22400
C  -3.65900 43.10800 24.85000
C  -2.23900 43.46000 24.56000
C  -4.89600 42.60200 27.09400
C  -4.77900 43.18700 23.77500
O  -4.54100 43.45600 22.62300
C  -6.17100 42.91400 24.20000
N  0.72000 43.71700 23.95300
C  -0.26800 43.51100 23.07800
C  0.29800 43.40000 21.62100
C  1.64400 44.15300 21.78200
C  1.89500 44.00100 23.30100
C  0.43200 41.91200 21.26500
C  1.62600 45.63400 21.21700
C  2.85000 46.07000 20.38100
N  2.52300 44.24700 26.17400
C  3.55200 44.25400 25.22400
C  4.83900 44.44400 25.80800
C  4.52500 44.33400 27.13700
C  3.16500 44.24600 27.36600
C  6.21400 44.71100 25.02900
C  5.12600 44.22500 28.48400
O  6.28000 44.03500 28.83300
C  3.96100 44.22200 29.50000
C  4.23100 43.04100 30.38600
O  4.04900 41.87200 30.16600
O  4.66700 43.51700 31.62100
C  4.97800 42.45800 32.60100
H  -2.88000 43.01500 28.84100
H  -2.34000 43.33100 22.55200
H  3.91800 44.48500 23.14500
H  1.54000 43.05900 31.07900
H  -1.33100 43.72800 30.89100
H  -1.73200 41.34600 30.66800
H  -0.13800 41.43300 31.45900
H  -0.29800 41.24200 29.71700
H  0.11400 45.79700 31.02600
H  1.78300 45.76600 30.97800
H  0.63600 45.92600 33.30600
H  2.04300 45.11000 33.11000
H  -5.70300 41.98500 26.70000
H  -5.24200 43.54600 27.51600
H  -4.51000 41.99900 27.91600
H  -6.37300 41.96000 24.68600
H  -6.76400 42.83600 23.28900
H  -6.50900 43.68500 24.89200
H  -0.44900 43.94200 21.04000
H  2.40400 43.63400 21.19700
H  -0.07200 41.64500 20.33600
H  -0.06100 41.21200 21.93900
H  1.47300 41.60000 21.18200
H  1.47200 46.38000 21.99600
H  0.66700 45.72500 20.70800
H  3.30400 46.92100 20.88900
H  2.59000 46.59000 19.45900
H  3.62000 45.34000 20.13200
H  6.66200 45.58800 25.49700
H  5.98800 44.88900 23.97800
H  6.87100 43.85100 25.15800
H  4.08400 45.09700 30.13900
H  5.58100 41.69300 32.11300
H  4.14900 41.97400 33.11700
H  5.71400 42.93700 33.24700

