158

Mg 50.00400 46.79100 42.22000
C  46.57800 47.13500 41.63600
C  49.88100 43.91500 40.27400
C  53.27200 46.82400 42.14200
C  49.91100 50.15200 43.26100
N  48.37500 45.73000 41.00100
C  47.10100 46.02500 40.99100
C  46.35800 45.20900 39.87900
C  47.44900 44.10800 39.47600
C  48.65000 44.64900 40.27700
C  47.05400 42.67000 39.85200
C  45.96000 46.21700 38.65700
C  44.53600 45.90600 38.16300
H  44.32500 45.70800 36.71500
N  51.40900 45.37900 41.38900
C  51.13500 44.25000 40.77400
C  52.40300 43.59400 40.63400
C  53.44200 44.46600 40.96400
C  52.71500 45.59200 41.58000
C  52.54700 42.23600 40.05100
C  54.89500 44.29200 40.70200
O  55.36200 43.34700 40.07400
C  55.90500 45.36000 41.00300
N  51.43900 48.38300 42.57900
C  52.75900 48.03400 42.55000
C  53.60000 49.17800 43.09000
C  52.45900 50.32100 43.38600
C  51.17900 49.55700 43.13500
C  54.43000 48.84600 44.41600
C  52.68400 51.62400 42.53500
C  52.20200 52.85500 43.33400
N  48.54700 48.27700 42.56800
C  48.68800 49.51400 43.05000
C  47.40100 50.17200 43.23800
C  46.48900 49.23500 42.67900
C  47.26700 48.09900 42.31500
C  47.11900 51.54700 43.76900
C  45.08200 48.91700 42.32300
O  44.05900 49.56900 42.38700
C  45.08100 47.46900 41.70900
C  44.46700 46.57200 42.62800
O  44.89400 46.25600 43.72400
O  43.32500 46.09300 42.06300
C  42.94000 44.82800 42.64500
H  49.71600 43.01500 39.67800
H  54.35100 46.85000 42.30700
H  49.94600 51.20400 43.55300
H  45.54100 44.63600 40.31700
H  47.74900 44.18900 38.43100
H  45.96800 42.57900 39.85000
H  47.40000 42.37600 40.84300
H  47.45000 42.11200 39.00300
H  46.70400 46.04700 37.87900
H  45.95400 47.26900 38.94400
H  43.84100 46.72000 38.37100
H  44.10000 45.06000 38.69300
H  53.27000 42.33400 39.24100
H  51.55300 41.88000 39.78400
H  53.03200 41.68600 40.85700
H  55.59600 46.34100 40.64300
H  56.84600 45.11800 40.50900
H  56.04400 45.42400 42.08200
H  54.29500 49.43100 42.29000
H  52.41700 50.62700 44.43100
H  55.48200 49.11200 44.30800
H  54.30400 47.87300 44.88900
H  54.11400 49.51600 45.21500
H  52.12600 51.34200 41.64200
H  53.74600 51.83400 42.41200
H  51.38300 53.32500 42.79000
H  52.99500 53.59200 43.46400
H  51.83200 52.65300 44.33900
H  46.07000 51.72100 44.00900
H  47.42600 52.24200 42.98800
H  47.80900 51.71800 44.59500
H  44.57500 47.51900 40.74500
H  41.91300 44.82200 43.01200
H  43.63200 44.32700 43.32200
H  43.03600 44.13500 41.80900
Mg 9.99500 47.15500 25.88200
C  7.44400 47.45300 28.41700
C  12.19400 48.28700 28.24800
C  12.25100 47.04400 23.38400
C  7.41300 46.61000 23.46800
N  9.79700 47.94600 28.11200
C  8.72100 47.80000 28.93200
C  9.20000 47.77700 30.46200
C  10.64400 48.43100 30.30900
C  10.90400 48.19400 28.81100
C  10.76800 49.94000 30.62500
C  9.26000 46.30200 31.02100
C  8.76700 46.03400 32.40700
H  9.86800 45.67000 33.39400
N  11.95300 47.66800 25.81800
C  12.64300 48.07400 26.86400
C  14.01000 48.23400 26.40900
C  14.10400 47.98400 24.96900
C  12.72800 47.48400 24.67800
C  15.12400 48.61300 27.42100
C  15.27900 48.08900 23.94100
O  15.24200 47.93600 22.73800
C  16.62800 48.47800 24.52400
N  9.84400 46.77600 23.77700
C  10.93600 46.73800 23.00300
C  10.61400 46.27000 21.54500
C  9.06800 46.09900 21.53600
C  8.71200 46.54700 23.04000
C  11.07900 47.27400 20.44800
C  8.57100 44.63900 21.02800
C  8.16000 44.47100 19.55000
N  7.91400 47.12100 25.84100
C  7.04400 46.81300 24.77100
C  5.61600 46.84800 25.30600
C  5.76600 47.01100 26.71500
C  7.14800 47.24900 27.01200
C  4.33200 46.70700 24.50300
C  5.02500 47.04800 27.95800
O  3.86000 46.82000 28.14300
C  6.06600 47.41700 29.09800
C  5.85600 46.49400 30.23200
O  5.79900 45.23900 30.22800
O  5.66600 47.26000 31.35000
C  5.13200 46.71600 32.59700
H  12.90300 48.71200 28.96100
H  13.01300 47.10700 22.60400
H  6.69300 46.55800 22.64900
H  8.39800 48.29500 30.98900
H  11.35000 47.76700 30.80800
H  11.40700 50.15400 31.48200
H  9.75000 50.21900 30.89800
H  11.17400 50.40800 29.72800
H  10.30000 45.98300 30.94500
H  8.68400 45.64800 30.36700
H  8.10400 45.16900 32.39200
H  8.24500 46.91100 32.79000
H  15.90300 47.87800 27.22200
H  14.74600 48.49700 28.43700
H  15.45800 49.64200 27.29000
H  16.57200 49.29700 25.24100
H  17.29500 48.61800 23.67400
H  16.96200 47.57300 25.03200
H  11.04200 45.29700 21.30600
H  8.60200 46.84300 20.89000
H  11.45600 48.22200 20.83100
H  10.42700 47.45200 19.59300
H  11.92900 46.73300 20.03100
H  7.73900 44.25000 21.61600
H  9.40300 43.98500 21.29100
H  7.34300 45.17600 19.39800
H  7.82700 43.45500 19.33900
H  8.96300 44.77500 18.87900
H  3.83900 45.74600 24.64500
H  4.65000 46.85500 23.47000
H  3.55300 47.37900 24.86500
H  5.78000 48.43000 29.38200
H  5.14400 45.63400 32.72900
H  4.17700 47.18400 32.83700
H  5.87200 47.03500 33.33100

