158

Mg 7.88900 2.41500 27.28400
C  9.22700 0.77700 30.03700
C  6.20800 4.58000 29.08900
C  6.35000 3.45400 24.43400
C  9.29400 -0.32700 25.30500
N  7.74200 2.60300 29.27100
C  8.42700 1.94500 30.28200
C  8.19100 2.62200 31.62500
C  6.98300 3.62800 31.34700
C  7.04800 3.65600 29.80600
C  5.55800 3.09600 31.83300
C  9.50900 3.30700 32.13700
C  9.29100 4.22300 33.42400
H  10.25600 3.99100 34.56500
N  6.54400 3.90800 26.82100
C  6.04500 4.79100 27.74100
C  5.18700 5.71800 27.09600
C  5.19800 5.46800 25.67200
C  6.02700 4.27700 25.53100
C  4.47000 6.84500 27.90800
C  4.41600 6.18500 24.54700
O  4.57100 5.89600 23.36300
C  3.56100 7.30200 24.92200
N  7.96300 1.66500 25.17200
C  7.18400 2.27100 24.29000
C  7.16000 1.49600 22.99100
C  8.28300 0.43100 23.12900
C  8.50400 0.57000 24.58800
C  5.82000 0.91400 22.62700
C  9.65200 0.84800 22.43500
C  10.52100 -0.31600 21.90200
N  9.09600 0.57600 27.58800
C  9.61200 -0.37000 26.71000
C  10.32200 -1.30500 27.47300
C  10.31500 -0.82600 28.76700
C  9.45000 0.24900 28.78400
C  11.13000 -2.43100 27.00200
C  10.83900 -1.07200 30.07300
O  11.70700 -1.81900 30.44200
C  10.14200 -0.03400 31.00600
C  9.37500 -0.68200 32.10800
O  8.49300 -1.58100 32.02800
O  9.93500 -0.24200 33.27500
C  9.47300 -0.77500 34.58700
H  5.60500 5.26700 29.68600
H  5.95000 3.81100 23.48300
H  9.69400 -1.15300 24.71300
H  7.94400 1.94300 32.44100
H  7.21400 4.63500 31.69600
H  5.07500 2.48000 31.07400
H  4.88100 3.88400 32.16400
H  5.71600 2.50700 32.73700
H  9.85000 3.84300 31.25200
H  10.17700 2.53000 32.50900
H  8.40600 3.79700 33.89800
H  9.18000 5.29400 33.25500
H  3.41800 6.57700 28.01200
H  4.63500 7.75600 27.33300
H  4.95000 7.00900 28.87300
H  4.27000 8.07800 25.20800
H  2.93600 7.09600 25.79100
H  2.86800 7.62500 24.14500
H  7.39200 2.21500 22.20500
H  7.91900 -0.58400 22.97400
H  5.17700 0.91200 23.50800
H  5.75000 -0.10400 22.24600
H  5.35700 1.56900 21.88900
H  10.27300 1.44400 23.10300
H  9.52100 1.56700 21.62600
H  10.97800 -0.13500 20.92900
H  9.89900 -1.21000 21.86800
H  11.21100 -0.52600 22.71900
H  10.55300 -3.18700 26.47000
H  11.66500 -2.80600 27.87300
H  11.78000 -2.04100 26.21900
H  10.98000 0.57700 31.34200
H  9.17700 0.09100 35.18000
H  10.29800 -1.26900 35.10000
H  8.66500 -1.50500 34.62800
Mg -4.43200 24.43200 25.64000
C  -3.48600 26.15500 28.63900
C  -6.59600 22.58700 27.36000
C  -5.09600 22.79300 22.74900
C  -2.05100 26.45100 23.87500
N  -4.88300 24.42800 27.79900
C  -4.50900 25.18300 28.90000
C  -5.29100 24.77800 30.15200
C  -6.06400 23.45700 29.65400
C  -5.85400 23.50700 28.15600
C  -5.65000 22.14400 30.38900
C  -6.21700 25.87800 30.70500
C  -6.13500 26.03400 32.27400
H  -5.81500 24.79000 33.08800
N  -5.69200 22.98600 25.11900
C  -6.55800 22.38400 25.95600
C  -7.35900 21.34800 25.20200
C  -6.81400 21.43800 23.88400
C  -5.76800 22.39400 23.86400
C  -8.51500 20.50900 25.81900
C  -7.23500 20.57500 22.71100
O  -6.78200 20.68200 21.56300
C  -8.00800 19.31700 22.89900
N  -3.85200 24.69800 23.60900
C  -4.14800 23.76800 22.69900
C  -3.29100 23.98700 21.33500
C  -2.50700 25.30500 21.70000
C  -2.88400 25.59800 23.11100
C  -2.54600 22.69000 20.91600
C  -2.71500 26.47200 20.68200
C  -1.45800 26.83900 19.94300
N  -2.93800 25.94000 26.07300
C  -2.08700 26.63800 25.28400
C  -1.31500 27.57400 26.13100
C  -1.79600 27.36600 27.42800
C  -2.85400 26.40200 27.35600
C  -0.30600 28.51100 25.53700
C  -1.79400 27.92500 28.81800
O  -1.21600 28.93800 29.28200
C  -2.88800 27.04400 29.68600
C  -2.23200 26.40200 30.82300
O  -1.45700 25.46400 30.70100
O  -2.52600 27.05800 31.95500
C  -1.90400 26.50000 33.20300
H  -7.26500 21.97900 27.97200
H  -5.08200 22.32200 21.76400
H  -1.25200 27.02300 23.39700
H  -4.58500 24.37900 30.88000
H  -7.14300 23.40300 29.79800
H  -5.09100 21.53800 29.67600
H  -6.54900 21.56900 30.61100
H  -5.16500 22.41900 31.32600
H  -7.18900 25.86600 30.21300
H  -5.73600 26.81200 30.41500
H  -7.11700 26.38100 32.59300
H  -5.43600 26.81100 32.58500
H  -8.28700 19.45600 25.98000
H  -9.41100 20.63900 25.21200
H  -8.68500 20.88100 26.82900
H  -7.99200 18.72100 21.98600
H  -9.04400 19.58600 23.10400
H  -7.64500 18.80100 23.78800
H  -3.93900 24.20900 20.48700
H  -1.46100 25.01000 21.61100
H  -2.69100 22.55600 19.84400
H  -2.90900 21.85500 21.51500
H  -1.50400 22.65700 21.23500
H  -3.06000 27.34200 21.24100
H  -3.47100 26.24900 19.92800
H  -0.64100 26.11700 19.94300
H  -1.17700 27.83400 20.28700
H  -1.90700 26.95000 18.95600
H  -0.79200 29.47600 25.39500
H  -0.10200 28.39100 24.47300
H  0.64200 28.55700 26.07400
H  -3.65300 27.70600 30.09200
H  -0.82500 26.40700 33.08500
H  -2.32900 25.57200 33.58600
H  -2.16000 27.15100 34.03900

