158

Mg 0.50500 7.74500 25.81400
C  1.51100 9.82000 28.56300
C  0.67700 5.01200 27.91400
C  0.55300 5.64600 23.21300
C  1.30800 10.34100 23.60400
N  1.05600 7.52000 27.90600
C  1.38300 8.43000 28.85300
C  1.24000 7.81900 30.26600
C  1.32100 6.29500 29.97200
C  0.97300 6.26700 28.53300
C  2.65700 5.49500 30.23100
C  -0.06000 8.30000 30.95400
C  0.09400 8.56500 32.47900
H  1.30500 7.94600 33.21200
N  0.35300 5.63300 25.62000
C  0.39200 4.67900 26.58700
C  0.13200 3.40000 25.97900
C  0.06800 3.62100 24.60000
C  0.37200 4.98000 24.39100
C  -0.05300 2.10200 26.75500
C  -0.26800 2.73200 23.35200
O  -0.62500 3.13900 22.21300
C  -0.24100 1.33500 23.62600
N  0.70100 7.97200 23.65200
C  0.70300 6.92100 22.82500
C  0.89200 7.34200 21.33600
C  1.07000 8.86300 21.45900
C  0.99700 9.09800 23.00900
C  2.01300 6.56100 20.58900
C  0.32000 9.80500 20.45700
C  -1.16000 10.06700 20.64900
N  1.10300 9.74500 26.00500
C  1.35400 10.66600 24.99200
C  1.75300 11.87100 25.66100
C  1.75400 11.57900 27.05100
C  1.42800 10.28500 27.20300
C  2.17800 13.18900 25.11800
C  2.09200 12.14500 28.40700
O  2.59600 13.20100 28.69400
C  1.74200 11.03100 29.42300
C  2.85800 10.95500 30.41000
O  3.95000 10.46100 30.31600
O  2.49900 11.51900 31.52700
C  3.31800 11.51700 32.75400
H  0.69400 4.10800 28.52600
H  0.78700 4.96300 22.39400
H  1.77900 11.03700 22.90600
H  2.19400 8.13100 30.69200
H  0.55100 5.74800 30.51600
H  3.34200 6.08400 30.84100
H  3.00200 5.20000 29.24000
H  2.31900 4.56500 30.68900
H  -0.82800 7.52700 30.98300
H  -0.51700 9.18800 30.51500
H  -0.75800 8.12400 32.99600
H  -0.08000 9.63100 32.62900
H  0.82000 1.52200 26.45300
H  -0.92600 1.55500 26.40000
H  -0.00700 2.27600 27.83000
H  0.72000 1.04800 24.05300
H  -0.37100 0.85800 22.65500
H  -1.08300 0.95900 24.20600
H  -0.00700 7.21600 20.73300
H  2.12900 9.06900 21.30500
H  2.45700 7.23400 19.85500
H  1.67500 5.77000 19.91900
H  2.67600 6.11600 21.33100
H  0.56100 9.59000 19.41600
H  0.80400 10.74800 20.71000
H  -1.74100 9.71300 19.79800
H  -1.37800 11.08200 20.98300
H  -1.46500 9.41500 21.46700
H  1.70800 13.45500 24.17100
H  3.25800 13.30900 25.02800
H  1.77700 13.89000 25.85100
H  0.81800 11.36100 29.89800
H  3.75000 12.51800 32.73500
H  4.11100 10.77000 32.78300
H  2.67900 11.50200 33.63700
Mg 9.70200 47.77700 28.14700
C  7.91000 47.37800 31.20400
C  12.46700 48.42500 29.99400
C  11.21800 48.96900 25.34500
C  6.55900 48.02900 26.45100
N  10.14800 47.70600 30.38200
C  9.28600 47.55500 31.44100
C  10.04500 47.60400 32.76900
C  11.46500 48.06200 32.39800
C  11.38400 48.03000 30.81700
C  11.94400 49.42200 32.97900
C  9.86800 46.28100 33.59900
C  11.01600 45.92000 34.57200
H  10.69900 45.16900 35.91400
N  11.63000 48.24600 27.66000
C  12.61200 48.46000 28.57200
C  13.82400 48.68400 27.81100
C  13.52400 48.82000 26.45400
C  12.03200 48.70400 26.43100
C  15.16400 49.01100 28.51900
C  14.43700 49.21000 25.20200
O  14.08200 49.50700 24.05400
C  15.89000 49.21000 25.48000
N  8.99300 48.39200 26.08400
C  9.80400 48.75300 25.07400
C  9.03800 49.10200 23.75800
C  7.64000 48.75000 24.22600
C  7.66700 48.30900 25.66300
C  9.09300 50.52800 23.31800
C  6.87600 47.73700 23.32800
C  6.33200 48.32500 21.99100
N  7.63700 47.55100 28.62400
C  6.45800 47.68400 27.84700
C  5.30300 47.59100 28.68600
C  5.86000 47.35300 29.94900
C  7.23800 47.48500 29.93600
C  3.91600 47.78400 28.31300
C  5.51900 47.20500 31.37200
O  4.43900 47.13100 31.85200
C  6.80600 47.07100 32.16900
C  6.81900 45.65400 32.54200
O  7.18300 44.73200 31.88100
O  6.31700 45.58000 33.79800
C  6.23600 44.27700 34.40700
H  13.33700 48.51300 30.64800
H  11.62300 49.35000 24.40500
H  5.54900 48.16700 26.05900
H  9.49900 48.32600 33.37600
H  12.20700 47.30400 32.65200
H  11.23100 49.87500 33.66800
H  12.01800 50.23400 32.25600
H  12.86800 49.23100 33.52400
H  9.72700 45.51900 32.83300
H  8.95600 46.27900 34.19600
H  11.40500 46.89500 34.86500
H  11.70300 45.31200 33.98400
H  15.45500 50.01700 28.21700
H  15.96100 48.27900 28.39000
H  14.92800 49.06400 29.58200
H  16.26400 49.10500 24.46200
H  16.20600 48.33000 26.04100
H  15.95100 50.14300 26.04000
H  9.50100 48.44600 23.02100
H  7.00300 49.63500 24.23500
H  8.18600 50.89900 22.84000
H  9.87200 50.35800 22.57400
H  9.49400 51.18700 24.08800
H  5.98900 47.37000 23.84300
H  7.55800 46.93900 23.03200
H  6.83300 47.65200 21.29600
H  6.67900 49.35700 21.94500
H  5.25600 48.16300 21.91800
H  3.23600 47.50600 29.11800
H  3.77100 47.29600 27.34900
H  3.71100 48.83600 28.11400
H  6.78500 47.70900 33.05200
H  5.51000 43.75100 33.78700
H  5.79900 44.33100 35.40400
H  7.20300 43.77900 34.47000

