158

Mg 47.72600 25.68400 28.96000
C  48.53800 27.81800 31.60600
C  46.28800 23.56400 31.28700
C  47.35600 23.30400 26.65800
C  49.67100 27.64600 26.80300
N  47.41300 25.74200 31.15400
C  47.83200 26.70400 32.03100
C  47.22200 26.61700 33.37600
C  46.64600 25.15700 33.35700
C  46.71500 24.75900 31.82400
C  47.24500 24.10500 34.34500
C  46.15100 27.71400 33.76300
C  46.23200 28.30900 35.15800
H  46.70900 27.51900 36.35600
N  46.85700 23.75800 28.95000
C  46.19300 23.11600 29.97200
C  45.66000 21.86600 29.52100
C  46.03400 21.70500 28.21300
C  46.76700 22.92900 27.86500
C  44.85400 20.90800 30.41300
C  45.69200 20.60700 27.22900
O  45.98300 20.66500 26.04600
C  44.89500 19.39000 27.65200
N  48.42600 25.49200 27.11100
C  48.03200 24.42900 26.34000
C  48.62700 24.51800 24.90800
C  49.17600 26.00500 24.87500
C  49.12100 26.41500 26.35000
C  49.67600 23.43500 24.67000
C  48.49100 27.05600 23.93100
C  49.45100 28.11800 23.35300
N  48.83700 27.46200 29.08100
C  49.59600 28.15500 28.16400
C  50.11100 29.37600 28.76700
C  49.69200 29.27900 30.11900
C  49.02000 28.02600 30.24600
C  50.77800 30.45200 27.95600
C  49.80100 29.97900 31.35900
O  50.31400 31.03500 31.62200
C  49.12400 29.08300 32.32800
C  50.14800 28.76300 33.44600
O  51.01600 27.91100 33.33800
O  49.86000 29.41600 34.58200
C  50.81800 29.39400 35.71600
H  45.71100 22.98900 32.01500
H  47.06900 22.63600 25.84300
H  50.22200 28.19600 26.03800
H  48.11800 26.50500 33.98600
H  45.61600 25.13300 33.71400
H  47.85000 24.68600 35.04100
H  47.91600 23.42600 33.82000
H  46.45800 23.57000 34.87700
H  45.10000 27.42600 33.73700
H  46.24800 28.56800 33.09300
H  45.21800 28.64700 35.37300
H  46.70700 29.29000 35.12300
H  45.36000 19.94400 30.36300
H  43.83500 20.79000 30.04400
H  44.93500 21.23000 31.45200
H  45.44400 18.94100 28.48000
H  44.76800 18.71700 26.80400
H  43.89800 19.73600 27.92700
H  47.81000 24.43800 24.19000
H  50.23500 26.03700 24.62100
H  49.62400 23.28700 23.59200
H  49.30300 22.52300 25.13600
H  50.63300 23.64300 25.15000
H  47.78600 27.57800 24.57800
H  48.01800 26.51800 23.10900
H  49.08900 29.11500 23.60300
H  49.45200 28.12600 22.26300
H  50.51200 27.95300 23.54100
H  50.75600 30.27000 26.88200
H  51.81100 30.66400 28.23200
H  50.26700 31.40000 28.12100
H  48.32900 29.66400 32.79600
H  50.48900 28.77800 36.55200
H  50.85000 30.41700 36.09100
H  51.79600 29.07500 35.35300
Mg 49.42400 45.37600 43.00000
C  45.88000 45.47300 42.44700
C  49.28200 42.03500 42.13000
C  52.64700 45.42500 42.77400
C  49.22100 48.87800 43.46300
N  47.79000 43.94900 42.38100
C  46.42700 44.11900 42.27200
C  45.69100 42.86800 42.07600
C  46.77700 41.77100 42.44700
C  48.06600 42.63500 42.29400
C  46.66200 41.05500 43.77900
C  44.97400 42.57500 40.78200
C  45.30600 43.39100 39.48400
H  45.09600 42.74900 38.07800
N  50.85800 43.91300 42.52900
C  50.60000 42.60100 42.26500
C  51.88900 41.90900 42.26100
C  52.85200 42.89700 42.20400
C  52.14800 44.16000 42.49700
C  52.03500 40.40500 42.16400
C  54.27400 42.68300 41.96800
O  54.70500 41.64300 41.58900
C  55.36200 43.67200 42.12700
N  50.70200 46.93800 43.10500
C  52.04400 46.71300 42.95400
C  52.87000 48.03400 42.95500
C  51.67300 49.11800 43.15000
C  50.46500 48.25900 43.34700
C  53.92600 48.17900 44.14900
C  51.51900 50.11700 41.95000
C  52.40700 51.38600 41.99600
N  47.89400 46.91400 43.07900
C  47.97600 48.31500 43.24000
C  46.67500 48.91000 43.11100
C  45.82600 47.85500 42.80800
C  46.60900 46.63200 42.82300
C  46.39800 50.33500 43.13200
C  44.49200 47.52700 42.36600
O  43.56100 48.24600 42.19200
C  44.49400 46.04900 42.03400
C  43.32300 45.46100 42.71100
O  42.49600 44.67400 42.29000
O  43.33400 45.93900 44.03200
C  42.10500 45.71300 44.83400
H  49.17700 40.95100 42.05300
H  53.72900 45.56300 42.82900
H  49.16000 49.95100 43.65800
H  44.91800 42.83400 42.84300
H  46.80400 40.97400 41.70400
H  46.74800 39.98200 43.60800
H  45.74600 41.21900 44.34600
H  47.46600 41.37500 44.44200
H  43.94400 42.74700 41.09100
H  45.08000 41.52100 40.52400
H  46.36700 43.62300 39.57500
H  44.73700 44.32000 39.44000
H  53.08100 40.09800 42.17600
H  51.68800 39.99500 41.21500
H  51.58400 39.98300 43.06100
H  55.28000 44.46900 41.38700
H  56.35300 43.22600 42.20500
H  55.22500 44.30200 43.00600
H  53.27600 48.32800 41.98700
H  51.91500 49.72600 44.02200
H  54.39800 49.15700 44.04800
H  54.69100 47.40700 44.07000
H  53.48700 48.18300 45.14700
H  50.48200 50.41500 41.79500
H  51.62900 49.61000 40.99200
H  52.86800 51.42600 41.00900
H  53.19600 51.40100 42.74800
H  51.73600 52.24000 42.08800
H  47.12500 50.94100 42.59200
H  46.44600 50.60400 44.18800
H  45.37600 50.50800 42.79600
H  44.42700 45.83900 40.96700
H  42.31800 46.04400 45.85000
H  41.63000 44.73200 44.85800
H  41.35600 46.31200 44.31600

