158

Mg 40.24400 10.14800 29.32700
C  42.20800 11.35500 31.96400
C  37.85500 9.18000 31.71300
C  38.32400 8.83900 26.83500
C  42.69500 10.74000 27.02300
N  40.10900 10.12800 31.59400
C  41.01600 10.77500 32.47200
C  40.52600 10.71700 33.90100
C  39.26300 9.74300 33.77900
C  39.03200 9.67800 32.27200
C  39.55300 8.28400 34.34700
C  40.31500 12.15400 34.50000
C  39.65000 12.14300 35.91900
H  40.57700 12.41900 37.13500
N  38.43800 9.05800 29.32900
C  37.61400 8.75400 30.43200
C  36.43100 7.99200 30.02200
C  36.55000 7.96000 28.57800
C  37.80500 8.63600 28.17700
C  35.35100 7.49200 30.96000
C  35.52800 7.41300 27.58100
O  35.69800 7.31200 26.41500
C  34.15200 7.03700 28.12700
N  40.54500 9.72900 27.28800
C  39.50400 9.34500 26.45600
C  39.92900 9.26400 24.95800
C  41.37000 9.79300 25.03800
C  41.59300 10.10800 26.49700
C  39.83000 7.83100 24.43500
C  41.64000 10.95400 24.00400
C  41.48900 12.36200 24.45800
N  42.03100 11.04700 29.44900
C  42.93100 11.16700 28.40300
C  44.24000 11.65800 28.94100
C  43.98800 11.85100 30.37400
C  42.61900 11.39100 30.58100
C  45.46100 11.97100 28.12100
C  44.46100 12.31200 31.65900
O  45.51700 12.82400 32.01600
C  43.36000 11.99800 32.71200
C  43.84500 11.00000 33.70100
O  44.11500 9.82200 33.46800
O  44.04900 11.64800 34.95900
C  44.53000 10.73900 36.03400
H  37.15000 8.94700 32.51400
H  37.67000 8.59400 25.99600
H  43.51500 10.82000 26.30700
H  41.34400 10.19500 34.39900
H  38.38800 10.13600 34.29700
H  38.79900 8.16400 35.12500
H  40.50400 8.25900 34.87800
H  39.62500 7.49900 33.59400
H  39.68100 12.78600 33.87800
H  41.27500 12.66300 34.59600
H  39.23700 11.14800 36.08600
H  38.94600 12.97400 35.87400
H  34.42600 8.06800 30.95100
H  35.82800 7.49800 31.94000
H  34.95100 6.50100 30.74600
H  34.10800 6.16500 28.78000
H  33.58400 6.60400 27.30400
H  33.78200 7.99500 28.49300
H  39.24600 9.99600 24.52700
H  42.17000 9.08400 24.82700
H  39.32100 7.12600 25.09300
H  40.82600 7.39200 24.37000
H  39.40700 7.81400 23.43100
H  41.00800 10.72600 23.14600
H  42.63900 10.88900 23.57300
H  41.26000 12.54200 25.50900
H  40.66000 12.88700 23.98300
H  42.44200 12.85100 24.25700
H  45.35500 11.24000 27.32000
H  46.34700 12.00900 28.75500
H  45.47600 12.98300 27.71600
H  43.11400 12.93100 33.21900
H  45.40400 10.18600 35.69000
H  43.73700 10.06000 36.34600
H  44.89000 11.33200 36.87500
Mg 42.96600 41.77200 26.71800
C  42.09100 44.00400 29.18300
C  44.15600 39.62700 29.12100
C  44.17500 39.76100 24.27700
C  42.26600 44.34100 24.39400
N  43.17500 41.86600 28.95200
C  42.47100 42.76200 29.70700
C  42.38300 42.33600 31.21000
C  43.15900 40.95400 31.15500
C  43.60800 40.81000 29.67100
C  44.34000 40.74000 32.16100
C  40.92900 42.41700 31.82700
C  40.60300 41.59000 33.04400
H  40.10700 42.19200 34.38200
N  43.95800 39.91000 26.70000
C  44.37400 39.23300 27.80400
C  45.09800 38.00000 27.41900
C  44.81900 37.87800 26.00100
C  44.26400 39.22400 25.58300
C  45.83700 37.04300 28.40700
C  45.01700 36.81400 24.97400
O  44.68700 36.96600 23.82900
C  45.49800 35.41400 25.48100
N  43.26400 42.02900 24.70100
C  43.70600 41.00700 23.90100
C  43.66000 41.39900 22.48800
C  42.86300 42.72300 22.52000
C  42.73000 43.07900 23.96500
C  45.10200 41.43500 21.90900
C  41.45900 42.75100 21.77100
C  40.50000 41.66700 22.05100
N  42.47000 43.80400 26.73600
C  42.12100 44.70000 25.76900
C  41.57300 45.90700 26.22200
C  41.52900 45.66900 27.60800
C  42.12100 44.40500 27.85900
C  41.19800 47.15400 25.39700
C  41.18900 46.30200 28.86300
O  40.67500 47.37400 29.13000
C  41.60700 45.27800 29.93100
C  42.48000 45.95000 30.93700
O  43.56600 46.48000 30.68000
O  42.02800 45.91200 32.18400
C  42.86700 46.09000 33.38900
H  44.34400 38.86600 29.88100
H  44.51300 39.17400 23.42000
H  42.04800 45.08600 23.62600
H  42.95900 43.10200 31.72900
H  42.46900 40.16300 31.44600
H  45.38000 40.59600 31.86900
H  44.26100 39.91700 32.87100
H  44.40800 41.68500 32.69900
H  40.23300 42.18900 31.01900
H  40.84900 43.46200 32.12700
H  41.38300 40.90300 33.37200
H  39.78400 40.97800 32.66700
H  45.19500 36.17600 28.56600
H  46.12000 37.55000 29.32900
H  46.78600 36.74200 27.96500
H  45.33700 34.62200 24.75000
H  44.96300 35.30400 26.42500
H  46.57800 35.53200 25.57100
H  43.11300 40.67900 21.87900
H  43.43800 43.45300 21.95000
H  45.47800 42.43600 22.12000
H  44.95700 41.19400 20.85500
H  45.77100 40.72500 22.39400
H  41.79800 42.63300 20.74200
H  41.04800 43.75600 21.85800
H  40.93500 40.99800 22.79400
H  40.26800 41.10700 21.14600
H  39.53700 41.99500 22.44400
H  42.01300 47.81400 25.10300
H  40.53200 47.70300 26.06200
H  40.58300 46.87900 24.54000
H  40.75400 45.02700 30.56100
H  43.95600 46.10500 33.36100
H  42.59800 45.29200 34.08100
H  42.52700 47.05300 33.77100

