158

Mg 8.68800 3.09800 27.43600
C  9.94100 1.65500 30.43300
C  6.99500 5.43200 29.28400
C  7.47800 4.41300 24.63200
C  10.43400 0.58600 25.66000
N  8.42000 3.41000 29.64900
C  9.00900 2.68700 30.66200
C  8.56500 3.26000 32.02200
C  7.63800 4.54300 31.65700
C  7.68600 4.48200 30.10100
C  6.18500 4.40700 32.23400
C  9.77900 3.62400 32.92200
C  9.42900 4.51700 34.07200
H  10.20000 4.31400 35.39200
N  7.39400 4.73900 27.01500
C  6.87100 5.62000 27.90400
C  5.98700 6.59700 27.21500
C  6.25300 6.32700 25.82300
C  7.07300 5.10200 25.78800
C  5.18900 7.68900 27.96400
C  5.83400 7.15400 24.64900
O  6.07400 6.81300 23.50500
C  5.22000 8.57600 24.91100
N  8.73800 2.43300 25.42700
C  8.21800 3.20600 24.48300
C  8.65500 2.73400 23.08700
C  9.79700 1.76300 23.48200
C  9.61100 1.52400 24.94800
C  7.50700 2.10000 22.24900
C  11.24500 2.13700 23.11100
C  12.19800 1.01000 22.55900
N  9.89100 1.36400 27.91400
C  10.52200 0.46500 27.06200
C  11.35100 -0.41000 27.87300
C  11.17400 -0.02100 29.23500
C  10.21300 0.99900 29.19000
C  12.15200 -1.58100 27.39600
C  11.61400 -0.17700 30.65400
O  12.44900 -0.84900 31.21600
C  10.76900 0.87300 31.43300
C  10.01100 0.22100 32.56300
O  8.98700 -0.39800 32.40000
O  10.71100 0.34300 33.70300
C  10.15400 -0.23700 34.93700
H  6.61100 6.28700 29.84400
H  7.13100 4.87600 23.70600
H  11.06800 -0.03600 25.02400
H  7.94300 2.48800 32.47500
H  8.08900 5.50000 31.91800
H  5.87200 3.55400 32.83600
H  5.43900 4.37100 31.44100
H  6.04600 5.24200 32.92100
H  10.55000 4.15500 32.36300
H  10.36200 2.78900 33.30900
H  8.37000 4.44300 34.31800
H  9.66100 5.48600 33.63000
H  5.75100 8.61000 28.11700
H  4.99500 7.32600 28.97400
H  4.31400 7.99600 27.39100
H  5.10100 9.22700 24.04500
H  5.88000 9.06000 25.63100
H  4.24200 8.41600 25.36400
H  8.98300 3.62000 22.54200
H  9.61100 0.76200 23.09300
H  6.53700 2.30300 22.70400
H  7.68000 1.04100 22.05700
H  7.46500 2.62500 21.29400
H  11.77000 2.49300 23.99700
H  11.16000 3.03300 22.49600
H  11.63200 0.08400 22.46100
H  13.00400 0.85100 23.27600
H  12.55800 1.39900 21.60700
H  12.77400 -1.20500 26.58400
H  11.57400 -2.44000 27.05600
H  12.70400 -1.77000 28.31700
H  11.52100 1.59200 31.75900
H  10.94400 -0.20500 35.68900
H  9.94100 -1.29700 34.80200
H  9.29100 0.27600 35.36100
Mg -2.35400 34.80200 26.60700
C  -3.55000 33.07900 29.26200
C  -0.91800 37.17800 28.75600
C  -1.39200 36.66000 23.95100
C  -4.31600 32.86600 24.42700
N  -2.25900 35.07300 28.73000
C  -2.73900 34.16500 29.65200
C  -2.29900 34.46600 31.10400
C  -1.47800 35.80700 30.83200
C  -1.53200 36.06700 29.31700
C  -1.85400 37.10000 31.64200
C  -1.53100 33.28300 31.76700
C  -2.05400 32.61200 33.05700
H  -1.18700 32.84000 34.33600
N  -1.30300 36.65500 26.38800
C  -0.72600 37.40200 27.38600
C  0.21200 38.28900 26.74100
C  0.19000 38.04300 25.40500
C  -0.89500 37.07500 25.17900
C  0.89800 39.44000 27.58400
C  1.05300 38.59300 24.31100
O  0.86000 38.39300 23.13200
C  2.26900 39.36800 24.59500
N  -3.05700 34.89300 24.53400
C  -2.39400 35.76400 23.68500
C  -2.86500 35.58100 22.26400
C  -3.78100 34.28000 22.39000
C  -3.78000 34.00700 23.87700
C  -3.60000 36.81700 21.63300
C  -3.00100 33.17400 21.63400
C  -1.56100 32.81800 22.09000
N  -3.60600 33.22600 26.77000
C  -4.26100 32.46300 25.75200
C  -4.81600 31.27900 26.45400
C  -4.61800 31.54500 27.83100
C  -3.85000 32.69400 27.99500
C  -5.49100 30.11700 25.80900
C  -4.89200 31.03300 29.18000
O  -5.49000 30.03600 29.61800
C  -4.20600 32.02900 30.13200
C  -5.32900 32.61300 30.93600
O  -5.95100 33.61700 30.67900
O  -5.49500 31.84900 32.08100
C  -6.64200 32.24500 32.94300
H  -0.42400 37.87200 29.44000
H  -1.02600 37.31100 23.15400
H  -4.73400 32.12100 23.74600
H  -3.14600 34.61400 31.77300
H  -0.41800 35.58100 30.94900
H  -1.07000 37.56700 32.23900
H  -2.73200 36.95300 32.27000
H  -2.23100 37.82300 30.91900
H  -0.51400 33.58200 32.02200
H  -1.40300 32.52400 30.99400
H  -2.20400 31.55000 32.86600
H  -3.07700 32.94500 33.23400
H  0.37500 39.61500 28.52400
H  0.77400 40.37200 27.03300
H  1.93700 39.28800 27.87400
H  2.66600 39.83000 23.69100
H  3.00000 38.71300 25.06900
H  1.89300 40.07200 25.33800
H  -1.94800 35.41600 21.69900
H  -4.78400 34.47100 22.00900
H  -3.24900 36.88700 20.60300
H  -3.42300 37.71400 22.22700
H  -4.68500 36.82100 21.52900
H  -3.00900 33.32800 20.55500
H  -3.57800 32.25400 21.53800
H  -1.27800 33.20900 23.06700
H  -0.83500 33.22700 21.38700
H  -1.52100 31.72900 22.10500
H  -5.05200 29.81500 24.85800
H  -6.49700 30.41300 25.51100
H  -5.53300 29.30100 26.53000
H  -3.54300 31.44900 30.77400
H  -7.41700 32.72900 32.34900
H  -6.25400 32.75600 33.82500
H  -7.04900 31.35600 33.42400

