158

Mg 36.02300 49.65000 25.37700
C  36.23900 47.49200 28.22600
C  34.38800 51.83600 27.20000
C  35.39200 51.34700 22.50000
C  37.35600 47.02200 23.55200
N  35.36900 49.64300 27.48800
C  35.65100 48.73600 28.47700
C  35.39000 49.39400 29.77400
C  34.77300 50.80700 29.46000
C  34.88500 50.79900 27.96600
C  33.28700 51.03300 29.94100
C  36.60500 49.54100 30.70400
C  36.58400 48.72300 31.99900
H  35.27800 48.68400 32.76400
N  35.05100 51.32000 24.93000
C  34.48500 52.16800 25.84200
C  34.11600 53.50300 25.17600
C  34.40400 53.32600 23.79600
C  35.01800 51.94600 23.69700
C  33.57300 54.59000 26.00800
C  33.95000 54.24800 22.65500
O  34.28400 54.12500 21.48800
C  33.10200 55.38100 23.01700
N  36.27200 49.22500 23.32300
C  35.96000 50.05800 22.28400
C  36.33200 49.37100 20.97100
C  37.25000 48.10300 21.38800
C  37.04700 48.14600 22.85600
C  35.10300 48.85600 20.19900
C  38.80200 48.27400 20.98900
C  39.52300 46.95900 20.88300
N  36.65900 47.68300 25.73700
C  37.14400 46.75900 24.85100
C  37.37800 45.49600 25.54900
C  37.11200 45.75700 26.85500
C  36.57900 47.08100 26.97300
C  37.97100 44.22500 24.88500
C  37.07700 45.19900 28.20100
O  37.48900 44.12600 28.62600
C  36.42200 46.27600 29.14200
C  35.17400 45.65500 29.80300
O  34.10100 45.50700 29.26700
O  35.41500 45.36500 31.10600
C  34.37100 44.74800 31.94100
H  33.88100 52.56300 27.83900
H  35.16400 51.94500 21.61500
H  37.64300 46.20900 22.88200
H  34.65300 48.73600 30.23500
H  35.35400 51.57800 29.96600
H  33.38900 51.89500 30.59900
H  32.86700 50.16800 30.45400
H  32.71300 51.35000 29.07000
H  36.72600 50.54400 31.11500
H  37.48700 49.20400 30.16000
H  37.32500 49.12200 32.69100
H  36.88800 47.69900 31.78300
H  32.50700 54.37100 26.06000
H  33.72800 55.61900 25.68300
H  33.89500 54.49100 27.04500
H  32.21500 55.13900 23.60200
H  32.71700 55.79100 22.08400
H  33.66300 56.05700 23.66300
H  36.82800 50.16000 20.40500
H  36.82300 47.16300 21.03800
H  34.42300 48.50500 20.97600
H  35.36200 47.95000 19.65000
H  34.84100 49.65200 19.50200
H  39.24100 49.09300 21.56000
H  38.77500 48.63300 19.96000
H  40.13700 46.82900 21.77400
H  40.10800 46.86900 19.96800
H  38.77800 46.16700 20.81600
H  37.67500 44.14600 23.83900
H  37.69900 43.41200 25.55800
H  39.04200 44.42500 24.84500
H  37.15500 46.53500 29.90600
H  33.52400 44.21700 31.50600
H  34.04200 45.59400 32.54500
H  34.78800 44.09700 32.70900
Mg -11.12100 16.50600 42.06500
C  -8.23600 14.54100 41.69900
C  -9.46900 18.89800 40.33300
C  -14.09900 18.03400 41.70800
C  -12.74400 13.53300 43.17400
N  -9.15300 16.63600 41.01300
C  -8.14000 15.74700 41.03700
C  -6.94600 16.20200 40.22200
C  -7.26900 17.69700 40.01700
C  -8.71800 17.78100 40.50800
C  -6.28100 18.69500 40.62400
C  -6.73600 15.36400 38.94200
C  -5.43500 14.54300 38.90900
H  -4.54900 14.78500 37.64500
N  -11.60800 18.30700 41.27900
C  -10.76600 19.22100 40.66200
C  -11.49400 20.51700 40.38000
C  -12.83000 20.23700 40.69800
C  -12.92900 18.82200 41.22700
C  -10.83100 21.62900 39.68400
C  -14.00600 21.13300 40.39000
O  -13.85600 22.29300 39.92400
C  -15.40800 20.65600 40.60500
N  -13.15200 15.79000 42.34800
C  -14.17600 16.66100 42.11800
C  -15.57400 15.94400 42.34500
C  -15.18700 14.69700 43.22000
C  -13.59100 14.62500 42.91200
C  -16.67400 16.88400 42.91600
C  -16.04800 13.44000 43.06900
C  -16.69400 12.88700 44.31900
N  -10.64600 14.41900 42.47100
C  -11.40000 13.39100 42.88600
C  -10.48400 12.25700 43.14800
C  -9.23000 12.71300 42.66100
C  -9.40500 14.00200 42.28300
C  -10.87900 10.93800 43.76100
C  -7.91400 12.22600 42.43100
O  -7.43300 11.10500 42.56800
C  -7.19400 13.40400 41.74600
C  -6.08100 13.83600 42.71600
O  -6.21600 14.17800 43.89800
O  -4.87400 13.76200 42.07300
C  -3.73200 14.12100 42.92800
H  -8.89600 19.67600 39.82500
H  -15.08100 18.51000 41.66600
H  -13.05800 12.60000 43.64600
H  -6.15300 16.11500 40.96400
H  -7.28900 17.92400 38.95100
H  -5.49600 18.15100 41.14900
H  -6.70700 19.41900 41.31900
H  -5.81900 19.23100 39.79500
H  -6.73800 16.09600 38.13400
H  -7.57300 14.68500 38.78100
H  -5.73700 13.49800 38.84300
H  -4.81000 14.82200 39.75700
H  -9.79000 21.66600 40.00500
H  -11.16200 22.65000 39.87600
H  -10.85600 21.53800 38.59800
H  -16.16800 21.30700 40.17500
H  -15.62200 20.60400 41.67300
H  -15.50300 19.69700 40.09600
H  -15.84700 15.58000 41.35500
H  -15.25600 15.01300 44.26100
H  -16.37100 17.48300 43.77500
H  -17.53600 16.40400 43.38000
H  -16.98800 17.54900 42.11200
H  -15.52600 12.56400 42.68200
H  -16.88000 13.59700 42.38400
H  -16.42100 11.83700 44.41700
H  -17.77300 13.02300 44.25300
H  -16.35100 13.41100 45.21200
H  -10.43400 11.08200 44.74500
H  -10.31100 10.25000 43.13400
H  -11.94600 10.72200 43.70100
H  -6.85500 13.06800 40.76600
H  -2.87400 14.25400 42.26900
H  -3.46500 13.37700 43.67800
H  -4.05500 15.06100 43.37600

