158

Mg 16.23200 -1.62000 26.80100
C  15.06700 0.19600 29.65600
C  18.18500 -3.48600 28.97500
C  17.46900 -3.14000 24.17000
C  14.43400 0.65600 24.73500
N  16.78400 -1.47200 29.00100
C  16.08800 -0.73400 29.97100
C  16.57300 -1.12700 31.39100
C  17.72800 -2.15400 31.09500
C  17.54900 -2.38900 29.56600
C  19.22000 -1.76500 31.43200
C  15.41500 -1.69000 32.27100
C  15.10700 -0.99800 33.60900
H  16.23300 -0.24100 34.33600
N  17.61400 -3.04400 26.61900
C  18.19400 -3.84200 27.62700
C  18.97700 -4.87900 27.05500
C  18.84200 -4.74100 25.63900
C  17.94000 -3.67300 25.41300
C  19.74400 -5.96000 27.82700
C  19.36600 -5.69800 24.57900
O  19.03000 -5.56500 23.41100
C  20.15500 -6.95100 24.93100
N  16.02700 -1.20000 24.57900
C  16.58900 -2.04900 23.76900
C  16.06600 -1.69100 22.38700
C  14.97700 -0.53700 22.50200
C  15.16400 -0.33000 24.05900
C  17.19500 -1.35400 21.45700
C  13.56800 -0.89800 22.10800
C  12.83700 0.09600 21.25000
N  15.00900 0.06300 27.06400
C  14.28300 0.82000 26.12100
C  13.52600 1.79300 26.85600
C  13.65700 1.54400 28.26100
C  14.68100 0.53000 28.34400
C  12.61000 2.81500 26.21400
C  13.21200 1.96500 29.62100
O  12.40900 2.83000 29.93800
C  14.10600 1.04900 30.59400
C  14.92300 2.10900 31.34100
O  15.95800 2.63600 30.94900
O  14.31200 2.31200 32.53700
C  14.79500 3.50000 33.32000
H  18.72500 -4.08800 29.70900
H  17.80100 -3.49700 23.19300
H  13.79400 1.29900 24.12800
H  16.88100 -0.21800 31.90800
H  17.56400 -3.10000 31.61100
H  19.72900 -2.45000 32.10900
H  19.25100 -0.87600 32.06300
H  19.78100 -1.64900 30.50500
H  15.58700 -2.75000 32.45700
H  14.50600 -1.65100 31.67200
H  14.81500 -1.82600 34.25500
H  14.35200 -0.22800 33.45300
H  20.75500 -6.23700 27.53200
H  19.22700 -6.90400 27.65600
H  19.66700 -5.60100 28.85300
H  20.45900 -7.46800 24.02100
H  19.47400 -7.66400 25.39800
H  21.10100 -6.69100 25.40600
H  15.64100 -2.59100 21.94200
H  15.33900 0.33200 21.95500
H  17.32100 -0.30300 21.19500
H  17.23200 -1.99600 20.57700
H  18.14900 -1.55100 21.94600
H  13.15800 -0.77200 23.11000
H  13.44700 -1.88400 21.66100
H  13.55300 0.60700 20.60500
H  12.34200 0.72200 21.99200
H  12.08600 -0.45600 20.68500
H  12.37400 3.59600 26.93500
H  11.68100 2.41700 25.80700
H  13.12100 3.28500 25.37400
H  13.48100 0.58100 31.35500
H  14.48800 4.49300 32.99400
H  15.88300 3.43800 33.34400
H  14.58300 3.32600 34.37500
Mg 47.02800 16.55500 28.92100
C  44.94100 15.84300 31.75300
C  49.19700 18.21700 31.03100
C  48.60700 17.61500 26.23900
C  44.57200 15.12900 26.90500
N  47.00700 16.92300 31.16000
C  46.10700 16.48500 32.10100
C  46.58700 16.88600 33.52900
C  47.80700 17.79300 33.21400
C  48.05700 17.63600 31.71400
C  47.67400 19.25900 33.48700
C  46.92200 15.63700 34.28700
C  47.60800 15.87500 35.63000
H  47.34600 17.06100 36.47300
N  48.66200 17.69500 28.62500
C  49.49100 18.17900 29.62200
C  50.63900 18.81000 29.04100
C  50.42300 18.78600 27.64600
C  49.22200 17.99900 27.43100
C  51.84400 19.31000 29.81200
C  51.31300 19.32000 26.56600
O  50.99600 19.25200 25.36500
C  52.61900 19.99300 26.87400
N  46.78100 16.26800 26.86100
C  47.56000 16.82900 25.90900
C  47.16200 16.38500 24.48000
C  45.82100 15.60500 24.75400
C  45.70100 15.58700 26.28400
C  47.04600 17.63800 23.53000
C  45.64700 14.18400 24.05000
C  45.88200 12.88600 24.84200
N  45.17400 15.61500 29.24000
C  44.30400 15.08000 28.27600
C  43.18200 14.55100 28.95200
C  43.35100 14.83800 30.35400
C  44.61200 15.47400 30.45700
C  41.92400 14.08200 28.29700
C  42.72500 14.86300 31.61200
O  41.64500 14.56400 32.02700
C  43.79700 15.38800 32.56600
C  43.22800 16.61400 33.31300
O  42.89600 17.64400 32.76700
O  43.01600 16.43000 34.64700
C  42.58600 17.60400 35.35700
H  49.87000 18.72700 31.72300
H  49.20300 17.82200 25.34700
H  43.93100 14.57100 26.22000
H  45.82800 17.49300 34.02300
H  48.65200 17.45500 33.81400
H  48.20500 19.47300 34.41500
H  46.64200 19.55700 33.67600
H  48.16000 19.82500 32.69300
H  47.58800 14.97700 33.73000
H  45.96500 15.15200 34.47900
H  48.68900 15.75200 35.56000
H  47.20900 15.15200 36.34100
H  52.05300 20.32000 29.46200
H  52.69100 18.69900 29.50100
H  51.69900 19.36800 30.89100
H  53.09900 20.25800 25.93200
H  53.29200 19.29400 27.37100
H  52.43100 20.94800 27.36400
H  47.92700 15.76300 24.01600
H  44.95800 16.21300 24.48400
H  47.71700 17.56400 22.67500
H  47.38300 18.52100 24.07300
H  46.02900 17.75900 23.15700
H  46.30600 14.02300 23.19600
H  44.61800 14.30000 23.71000
H  46.10000 13.13200 25.88100
H  46.74200 12.29800 24.51900
H  45.04900 12.18700 24.76400
H  41.69800 14.54100 27.33500
H  41.15000 14.34900 29.01700
H  41.92800 12.99400 28.21900
H  44.04000 14.60100 33.28000
H  41.67600 17.94100 34.86100
H  43.32400 18.40500 35.38400
H  42.44700 17.29300 36.39200

