158

Mg 6.42200 53.97400 41.36100
C  5.70000 50.58600 41.22000
C  9.63400 53.18900 40.46700
C  6.71500 57.23300 40.48200
C  3.06500 54.56900 41.82900
N  7.51700 52.04900 40.72500
C  7.04300 50.76000 40.82200
C  8.14900 49.75500 40.65100
C  9.42400 50.66300 40.68500
C  8.81600 52.08500 40.58700
C  10.18500 50.55000 41.96600
C  8.01600 49.02800 39.28000
C  7.76200 49.89100 38.00100
H  6.72100 49.27100 37.01300
N  7.98700 55.06900 40.54800
C  9.28000 54.58800 40.32300
C  10.11600 55.67400 39.97100
C  9.27200 56.81000 39.89700
C  7.89700 56.40200 40.34600
C  11.63300 55.64200 39.82500
C  9.70200 58.14300 39.54300
O  10.81300 58.25100 38.99200
C  8.96900 59.44800 39.81400
N  5.03300 55.61400 40.94900
C  5.41500 56.91200 40.74700
C  4.30000 57.91600 40.97100
C  3.06800 57.06700 41.40700
C  3.69400 55.62000 41.31000
C  4.48900 59.14800 41.78700
C  1.78800 57.25900 40.55200
C  0.63800 58.10000 41.11900
N  4.78800 52.85800 41.54600
C  3.52600 53.22300 41.85800
C  2.71400 52.10200 42.23400
C  3.54000 51.03200 41.91600
C  4.75700 51.54600 41.54700
C  1.24400 51.99300 42.61800
C  3.56600 49.64600 41.92000
O  2.81200 48.74500 42.23400
C  4.97200 49.26400 41.35700
C  4.69300 48.65800 40.05100
O  4.25800 49.24300 39.01200
O  5.00100 47.33700 40.11200
C  4.54100 46.52600 38.93300
H  10.68400 52.97200 40.26000
H  6.70600 58.30600 40.28000
H  2.01500 54.61400 42.12700
H  8.25400 49.01900 41.44900
H  10.09500 50.56600 39.83200
H  10.22600 51.58100 42.31900
H  11.23500 50.29400 41.82700
H  9.67200 49.96100 42.72600
H  7.28400 48.22100 39.25000
H  9.00800 48.59900 39.13900
H  8.64500 49.76200 37.37500
H  7.74000 50.97100 38.14300
H  12.02700 56.52700 40.32500
H  12.01000 55.55900 38.80600
H  12.01700 54.78500 40.38000
H  8.22600 59.59300 39.03000
H  9.69500 60.24300 39.64100
H  8.67600 59.56900 40.85600
H  4.13800 58.28600 39.95900
H  2.74000 57.18600 42.44000
H  4.48300 60.06100 41.19100
H  5.42500 59.08200 42.34200
H  3.69300 59.19800 42.53100
H  1.44500 56.24700 40.33600
H  2.08500 57.68700 39.59500
H  0.61500 59.11800 40.73000
H  0.63400 58.18700 42.20500
H  -0.31800 57.61900 40.91000
H  0.60200 51.41600 41.95400
H  0.84500 53.00500 42.54400
H  1.18500 51.46600 43.57000
H  5.43000 48.51200 42.00000
H  4.47000 47.08100 37.99800
H  3.53300 46.16700 39.14200
H  5.24400 45.71900 38.73100
Mg -11.07400 17.45200 42.84300
C  -7.72200 17.72200 43.26400
C  -11.37900 20.98400 42.72100
C  -14.28100 17.26600 41.55700
C  -10.56700 14.03000 42.18700
N  -9.69600 19.13500 43.04300
C  -8.34200 18.99100 43.21800
C  -7.74000 20.40700 43.20100
C  -8.96900 21.33000 43.39400
C  -10.12300 20.51700 43.05300
C  -9.16400 21.89800 44.87500
C  -7.04600 20.66800 41.83700
C  -5.64200 21.24600 41.76600
H  -4.60100 20.32800 40.96100
N  -12.66000 18.93400 42.37800
C  -12.50500 20.26100 42.33200
C  -13.79900 20.87100 42.05300
C  -14.73500 19.79200 41.82900
C  -13.88800 18.60600 41.85500
C  -14.07900 22.35500 41.99100
C  -16.22200 19.91900 41.51500
O  -16.71400 21.01300 41.34900
C  -17.14800 18.76800 41.35700
N  -12.19200 15.95200 41.72200
C  -13.57700 16.04000 41.49700
C  -14.20600 14.64800 41.35700
C  -13.02000 13.69200 41.69600
C  -11.86000 14.55300 41.85000
C  -15.42400 14.51400 42.27000
C  -12.73200 12.52900 40.64600
C  -12.07200 13.09100 39.35700
N  -9.52700 16.07300 42.80500
C  -9.42100 14.72800 42.54700
C  -8.11900 14.24600 42.87000
C  -7.35600 15.38800 43.17800
C  -8.29500 16.46500 43.05900
C  -7.61400 12.85500 42.73700
C  -6.06500 15.87900 43.51400
O  -4.94500 15.38900 43.50500
C  -6.23400 17.43900 43.51300
C  -5.64100 18.06900 44.71500
O  -6.20300 18.26500 45.82100
O  -4.40900 18.63900 44.39800
C  -3.73700 19.33600 45.58500
H  -11.48200 22.05700 42.89700
H  -15.31900 17.02600 41.31800
H  -10.48900 12.94200 42.13300
H  -6.90500 20.59000 43.87800
H  -9.00000 22.17000 42.70000
H  -8.94000 22.96200 44.94700
H  -8.41000 21.42400 45.50200
H  -10.16400 21.79900 45.29700
H  -7.69800 21.20400 41.14700
H  -7.01500 19.69900 41.33900
H  -5.27900 21.52600 42.75500
H  -5.59600 22.10500 41.09800
H  -14.48500 22.72700 41.05000
H  -13.27100 23.00100 42.33600
H  -14.79200 22.56000 42.79000
H  -18.15500 19.18300 41.37200
H  -17.04400 18.10100 42.21300
H  -16.92200 18.38400 40.36200
H  -14.53300 14.63000 40.31700
H  -13.15200 13.24700 42.68200
H  -15.32300 14.93500 43.27000
H  -15.43900 13.42700 42.35000
H  -16.30200 14.91600 41.76400
H  -13.71000 12.14800 40.35400
H  -12.20800 11.67800 41.08000
H  -12.75900 13.15700 38.51400
H  -11.26000 12.48500 38.95400
H  -11.73800 14.12500 39.44900
H  -6.66600 12.69400 43.25000
H  -7.45400 12.59100 41.69100
H  -8.41400 12.28400 43.20800
H  -5.64600 17.76100 42.65400
H  -2.87000 19.93600 45.30900
H  -3.55200 18.67200 46.42900
H  -4.46600 20.01100 46.03200

