158

Mg 2.31500 -0.74400 43.42500
C  5.57300 0.28300 42.97700
C  1.37300 2.05700 41.51500
C  -0.91500 -1.85000 43.49300
C  3.38500 -3.76800 44.59300
N  3.32700 0.97000 42.27600
C  4.66300 1.13200 42.31100
C  5.08900 2.23900 41.41000
C  3.77900 2.97300 41.05300
C  2.75400 1.94900 41.64100
C  3.68400 4.40800 41.66300
C  5.91200 1.67600 40.15600
C  6.91000 2.72100 39.61900
H  6.62600 3.06100 38.15500
N  0.53700 0.05500 42.89000
C  0.35100 1.20100 42.01900
C  -1.09500 1.25800 41.76200
C  -1.76000 0.26300 42.47700
C  -0.71200 -0.56900 42.99800
C  -1.73200 2.31300 40.96100
C  -3.33200 0.13600 42.53200
O  -4.09800 0.94100 41.94400
C  -3.86200 -0.93200 43.26700
N  1.38500 -2.67500 43.80000
C  0.04700 -2.83700 43.93000
C  -0.31100 -4.29500 44.28000
C  1.06600 -4.83200 44.86800
C  2.02400 -3.67200 44.43600
C  -1.51600 -4.45200 45.30400
C  1.49900 -6.23600 44.36700
C  1.63200 -6.45300 42.86500
N  4.07300 -1.55200 43.86400
C  4.39200 -2.84300 44.38400
C  5.79400 -2.94700 44.54200
C  6.33600 -1.74900 44.00400
C  5.22100 -0.92300 43.66300
C  6.60800 -4.20100 44.85000
C  7.55400 -1.06800 43.66600
O  8.70700 -1.41900 43.67300
C  7.09200 0.26300 42.97800
C  7.56900 1.33900 43.81200
O  7.56500 1.38600 45.03800
O  8.13600 2.36000 43.05600
C  8.80900 3.48100 43.81000
H  0.99200 2.97900 41.07000
H  -1.90200 -2.29600 43.63300
H  3.68400 -4.75300 44.95700
H  5.83500 2.81900 41.95400
H  3.67900 2.97500 39.96700
H  4.62000 4.63400 42.17400
H  2.75500 4.48700 42.22700
H  3.53400 5.04500 40.79100
H  5.16300 1.52600 39.37800
H  6.37400 0.69800 40.29200
H  7.88300 2.33900 39.93100
H  6.66300 3.62300 40.17700
H  -2.10500 1.89700 40.02500
H  -0.98300 3.07200 40.73600
H  -2.50000 2.91000 41.45300
H  -4.94800 -0.87300 43.33700
H  -3.33200 -0.97000 44.21800
H  -3.71900 -1.83600 42.67400
H  -0.50100 -4.92300 43.40900
H  0.96100 -4.92200 45.94900
H  -2.28900 -5.03500 44.80300
H  -1.87400 -3.47400 45.62700
H  -1.11900 -5.00900 46.15300
H  0.80900 -6.97900 44.76800
H  2.41100 -6.45400 44.92300
H  2.70200 -6.55200 42.68100
H  1.20400 -5.64800 42.26700
H  1.09000 -7.34100 42.54100
H  5.97300 -4.87800 45.42100
H  7.45900 -3.96700 45.49100
H  6.93400 -4.71900 43.94800
H  7.50700 0.26100 41.97000
H  8.45100 4.45700 43.48500
H  9.87300 3.39300 43.58700
H  8.68600 3.38900 44.89000
Mg 54.35100 23.73700 44.94800
C  51.90300 26.05100 43.79700
C  52.33900 21.19700 43.65200
C  56.87400 21.64400 45.46100
C  56.23200 26.59500 45.78100
N  52.42500 23.63700 43.76100
C  51.73900 24.72800 43.27000
C  50.70100 24.24100 42.28300
C  50.44200 22.77300 42.75400
C  51.78400 22.46900 43.38900
C  49.27200 22.57100 43.71800
C  51.27900 24.28500 40.85100
C  50.54800 25.15600 39.80800
H  51.42600 25.71400 38.62000
N  54.52400 21.68200 44.66900
C  53.58200 20.79100 44.21300
C  54.10600 19.48400 44.26800
C  55.38900 19.51900 44.86100
C  55.67200 20.95100 45.01900
C  53.42700 18.28400 43.60000
C  56.24600 18.35100 45.38800
O  55.81700 17.23800 45.27100
C  57.56700 18.52700 46.19300
N  56.31700 24.09400 45.28200
C  57.15200 23.05300 45.53400
C  58.58800 23.63900 45.94000
C  58.32300 25.18600 45.88800
C  56.85300 25.30600 45.69800
C  59.09500 23.17600 47.34500
C  59.12800 25.86800 44.76900
C  59.81400 27.19000 45.23900
N  54.05300 25.88300 44.99700
C  54.85900 26.84100 45.45500
C  54.10500 28.05800 45.68100
C  52.89800 27.82100 45.00500
C  52.92900 26.45900 44.56000
C  54.61000 29.23800 46.62900
C  51.66300 28.41600 44.56100
O  51.10200 29.49000 44.74300
C  50.94900 27.29400 43.78200
C  50.58200 27.84800 42.39500
O  51.38000 27.90300 41.47500
O  49.30600 28.18800 42.27600
C  48.79000 28.93800 41.09600
H  51.58800 20.44000 43.41400
H  57.76600 21.04400 45.65400
H  56.90500 27.43800 45.94700
H  49.85600 24.91800 42.41400
H  50.30600 22.10100 41.90600
H  48.56200 21.78000 43.47800
H  48.76400 23.53500 43.73700
H  49.65000 22.40000 44.72600
H  51.14900 23.30100 40.40200
H  52.34600 24.50600 40.82100
H  50.10000 25.92000 40.44300
H  49.80000 24.46200 39.42500
H  52.91100 18.56300 42.68200
H  52.69200 17.84300 44.27300
H  54.18800 17.54600 43.34700
H  57.41800 19.18700 47.04800
H  58.36100 18.93600 45.56900
H  57.83000 17.52700 46.53700
H  59.36000 23.30000 45.24900
H  58.51600 25.61100 46.87300
H  58.78700 22.13600 47.45100
H  58.68800 23.78500 48.15300
H  60.18000 23.27300 47.37900
H  58.52300 26.13700 43.90200
H  59.84300 25.20000 44.28900
H  59.22100 28.05000 44.92600
H  60.76600 27.31500 44.72200
H  59.94700 27.15400 46.32100
H  55.68500 29.40600 46.56900
H  54.37800 28.92100 47.64600
H  54.13500 30.19100 46.39800
H  50.03100 26.94200 44.25200
H  49.28600 29.88500 40.88300
H  47.70900 29.07800 41.09900
H  49.02100 28.47500 40.13600

