158

Mg 9.06300 3.84600 27.64200
C  10.14300 2.10500 30.51800
C  6.68500 5.47100 29.61400
C  7.85400 5.23100 24.80400
C  10.98000 1.55400 25.76400
N  8.42700 3.65800 29.77900
C  9.15800 3.06400 30.85400
C  8.67400 3.49200 32.20800
C  7.58300 4.56100 31.87800
C  7.55900 4.56100 30.32700
C  6.12900 4.19000 32.44100
C  9.69700 4.04100 33.16000
C  9.31600 5.09500 34.16600
H  10.03000 5.06000 35.57300
N  7.51100 5.24400 27.26100
C  6.62000 5.76700 28.21000
C  5.79200 6.75200 27.53900
C  6.17200 6.67600 26.12100
C  7.26900 5.75800 25.99800
C  4.73700 7.51600 28.26900
C  5.64600 7.46700 24.94200
O  5.95100 7.23300 23.77100
C  4.76600 8.53400 25.30300
N  9.38600 3.39500 25.61200
C  8.75400 4.16500 24.63600
C  9.13600 3.75500 23.17100
C  10.16400 2.56800 23.49200
C  10.17900 2.47200 25.02700
C  8.00200 3.46500 22.15200
C  11.50800 2.76500 22.88200
C  11.75300 1.87400 21.69400
N  10.35200 2.22100 28.01000
C  11.13800 1.40300 27.14000
C  11.95500 0.47300 27.83200
C  11.60300 0.69500 29.21600
C  10.64000 1.78500 29.23800
C  12.92500 -0.54100 27.13600
C  11.90600 0.35200 30.62500
O  12.76300 -0.37300 31.05900
C  10.88300 1.26300 31.47400
C  9.99700 0.50400 32.33200
O  8.98200 -0.10800 31.98400
O  10.40800 0.58900 33.63400
C  9.60600 -0.05800 34.67300
H  6.18000 6.20500 30.24600
H  7.58600 5.70100 23.85500
H  11.56100 0.92700 25.08400
H  8.27500 2.57800 32.64700
H  7.80800 5.58900 32.16500
H  6.14600 3.50600 33.29000
H  5.50200 3.88900 31.60200
H  5.75600 5.12300 32.86300
H  10.59300 4.25200 32.57600
H  9.90600 3.22800 33.85400
H  8.25400 5.05900 34.40800
H  9.67300 5.97500 33.63100
H  3.76100 7.57000 27.78600
H  5.16300 8.50700 28.42600
H  4.49700 7.07500 29.23600
H  4.65100 9.10100 24.37900
H  5.28300 9.05500 26.10900
H  3.78000 8.31700 25.71300
H  9.61100 4.65800 22.78700
H  9.77200 1.59200 23.20300
H  7.61200 4.36800 21.68300
H  7.13400 2.87400 22.44300
H  8.52900 2.99000 21.32400
H  12.26400 2.79500 23.66600
H  11.51400 3.80200 22.54700
H  11.06400 1.02900 21.66100
H  12.77400 1.57100 21.46300
H  11.46300 2.48700 20.84000
H  13.02100 -0.39500 26.06000
H  12.65400 -1.57300 27.35900
H  13.84300 -0.50900 27.72200
H  11.51300 1.96400 32.02100
H  10.08400 -0.98800 34.98400
H  8.62400 -0.33400 34.28800
H  9.41200 0.63900 35.48800
Mg 35.62500 49.11300 26.11400
C  35.91400 47.15900 29.00300
C  34.59500 51.70000 28.03700
C  34.93900 50.63800 23.35000
C  36.35400 46.17000 24.30500
N  34.95000 49.26800 28.19600
C  35.30500 48.42400 29.24100
C  35.29400 49.16400 30.55900
C  34.42600 50.41300 30.18900
C  34.69700 50.45500 28.72200
C  32.93600 50.32500 30.57700
C  36.71500 49.42300 31.20600
C  36.70300 49.48900 32.76200
H  35.40500 49.58100 33.55500
N  34.94800 50.99900 25.72800
C  34.62500 51.95000 26.66900
C  34.39200 53.22100 25.99500
C  34.47700 52.90300 24.54900
C  34.80200 51.48400 24.45500
C  34.35000 54.53800 26.80100
C  34.32600 53.85000 23.33000
O  34.39600 53.40000 22.19600
C  34.14500 55.30100 23.58300
N  35.76300 48.43400 24.05700
C  35.35600 49.31200 23.14300
C  35.39400 48.68100 21.76600
C  36.02300 47.29400 21.97700
C  36.11200 47.28500 23.52600
C  33.93900 48.57800 21.15900
C  37.40000 47.02300 21.19100
C  38.66500 47.46500 21.88300
N  36.12300 47.07100 26.51700
C  36.41700 46.05800 25.67500
C  36.94500 44.88800 26.40400
C  36.80400 45.29400 27.80500
C  36.26100 46.62300 27.78500
C  37.30600 43.55700 25.79300
C  36.99400 44.83700 29.20100
O  37.42500 43.83900 29.67600
C  36.50500 46.10500 29.97500
C  35.55700 45.63600 31.00500
O  34.40800 45.41200 30.73700
O  36.03400 45.58200 32.29900
C  35.04900 45.32400 33.37200
H  34.51800 52.58900 28.66700
H  34.87100 51.23300 22.43700
H  36.48800 45.23400 23.75800
H  34.74000 48.59600 31.30700
H  34.83100 51.34700 30.57800
H  32.59900 49.29600 30.45500
H  32.29700 51.00700 30.01700
H  32.91300 50.57900 31.63700
H  37.10500 50.29800 30.68600
H  37.34500 48.68000 30.71700
H  37.35600 50.25900 33.17400
H  37.10300 48.49500 32.96200
H  33.32700 54.68400 27.14800
H  34.69200 55.40300 26.23300
H  34.88800 54.41700 27.74100
H  33.99300 55.71900 22.58800
H  35.05600 55.66000 24.06000
H  33.23600 55.40000 24.17600
H  35.87300 49.34800 21.05000
H  35.39500 46.45400 21.68100
H  33.34300 49.33400 21.67000
H  33.41400 47.69800 21.53100
H  33.87400 48.79000 20.09200
H  37.47600 47.37800 20.16300
H  37.43000 45.93500 21.13800
H  39.52100 47.67600 21.24200
H  38.92800 46.64700 22.55400
H  38.50600 48.30600 22.55700
H  37.24500 43.43000 24.71200
H  36.69000 42.86500 26.36800
H  38.33800 43.44200 26.12200
H  37.38200 46.47500 30.50500
H  35.67800 45.13100 34.24200
H  34.29000 44.54800 33.27500
H  34.50700 46.26600 33.44300

