158

Mg -2.15800 17.10500 26.37300
C  -2.70900 14.67900 29.00700
C  -2.61200 19.69100 28.61500
C  -2.13600 19.22500 23.90900
C  -1.87800 14.44900 24.25100
N  -2.77600 17.14600 28.49900
C  -2.77000 16.04700 29.37000
C  -2.76500 16.54000 30.82500
C  -2.92400 18.16200 30.71200
C  -2.72400 18.38000 29.16400
C  -4.17900 18.75800 31.25900
C  -1.53500 16.04300 31.65400
C  -0.87900 16.96300 32.77400
H  -0.64500 16.32500 34.17100
N  -2.28600 19.11700 26.29400
C  -2.45700 20.04700 27.31800
C  -2.47000 21.38800 26.78600
C  -2.39900 21.25800 25.38100
C  -2.31900 19.86200 25.10800
C  -2.61500 22.54200 27.80500
C  -2.33400 22.36000 24.34500
O  -2.49800 22.20600 23.18100
C  -2.22900 23.84000 24.89400
N  -2.01900 16.95200 24.40900
C  -1.94000 17.92200 23.53800
C  -1.81100 17.46500 22.06100
C  -1.74500 15.95800 22.19200
C  -1.85500 15.73600 23.71600
C  -2.97500 17.97700 21.17600
C  -0.47200 15.41900 21.56000
C  0.85000 15.54800 22.32500
N  -2.23000 14.99400 26.52900
C  -2.10100 14.05800 25.54500
C  -2.15200 12.75300 26.06900
C  -2.45600 12.93400 27.48200
C  -2.52500 14.33900 27.68100
C  -2.00600 11.41800 25.26200
C  -2.67100 12.28400 28.78300
O  -2.68900 11.05400 29.05500
C  -2.77800 13.41300 29.81700
C  -1.69900 13.02300 30.73700
O  -0.50900 13.30900 30.63200
O  -2.30500 12.31800 31.75000
C  -1.34500 12.09500 32.83800
H  -2.63300 20.43400 29.41500
H  -2.02800 19.96600 23.11500
H  -1.60200 13.57800 23.65300
H  -3.65100 16.07500 31.25500
H  -2.15600 18.71600 31.25100
H  -4.83400 18.89400 30.39800
H  -3.92800 19.68600 31.77100
H  -4.70800 18.05600 31.90400
H  -0.73500 15.77800 30.96300
H  -1.88100 15.19500 32.24600
H  -1.56800 17.79500 32.91800
H  0.01200 17.41000 32.33500
H  -1.80900 23.26000 27.65200
H  -2.85500 22.27500 28.83400
H  -3.47500 23.01500 27.33100
H  -3.07500 23.98300 25.56700
H  -2.28400 24.48300 24.01600
H  -1.24800 23.98500 25.34700
H  -0.81000 17.75200 21.73800
H  -2.59300 15.48700 21.69500
H  -3.47200 17.20000 20.59500
H  -2.70500 18.77000 20.47900
H  -3.72500 18.29500 21.89900
H  -0.26100 15.84500 20.58000
H  -0.61700 14.34300 21.46900
H  0.74600 16.08400 23.26900
H  1.59900 15.89300 21.61300
H  1.25900 14.58400 22.62700
H  -1.43100 11.64500 24.36400
H  -3.01200 11.01700 25.14300
H  -1.36100 10.78800 25.87400
H  -3.77800 13.30700 30.23700
H  -0.48600 11.48000 32.57000
H  -1.93400 11.73000 33.68000
H  -1.03000 13.00600 33.34700
Mg 53.91300 24.21800 44.10500
C  51.16500 26.45200 43.27500
C  51.98500 21.84800 42.50000
C  56.41200 22.25400 44.50700
C  55.79300 26.99900 44.81600
N  51.94500 24.26100 42.74100
C  50.98800 25.23800 42.66100
C  49.75100 24.67200 41.89200
C  49.88500 23.11800 42.20900
C  51.35300 23.07300 42.46200
C  49.02800 22.58600 43.38100
C  49.69800 24.97700 40.34800
C  50.97700 25.30400 39.56400
H  50.76800 25.66900 38.07900
N  54.15000 22.27100 43.62900
C  53.23700 21.43500 43.07300
C  53.80800 20.06000 43.16300
C  55.03600 20.20000 43.89400
C  55.27300 21.61100 44.01600
C  53.09700 18.78500 42.54500
C  55.88000 19.01000 44.45000
O  55.44600 17.89000 44.29300
C  57.17300 19.25800 45.30100
N  55.80600 24.56600 44.52300
C  56.76900 23.58900 44.65800
C  58.15400 24.08700 44.90400
C  57.86800 25.62400 45.05400
C  56.39800 25.76800 44.74800
C  58.96300 23.42500 46.03600
C  58.86200 26.62000 44.43600
C  58.51300 27.05700 42.96400
N  53.62500 26.38100 44.08600
C  54.46200 27.27300 44.57100
C  53.75400 28.57600 44.67900
C  52.46500 28.31300 44.11800
C  52.42200 26.94000 43.85600
C  54.19700 29.91300 45.23000
C  51.17400 28.88500 43.78300
O  50.75700 30.00200 44.03000
C  50.28000 27.67900 43.26000
C  49.91000 28.01700 41.87900
O  50.70700 28.34400 41.03500
O  48.58900 28.24500 41.86000
C  48.16400 29.16200 40.76000
H  51.40800 21.04200 42.04300
H  57.20100 21.56800 44.82200
H  56.33100 27.87900 45.17300
H  48.88100 25.12500 42.36700
H  49.70000 22.52600 41.31200
H  48.35300 23.36500 43.73400
H  49.69100 22.26200 44.18400
H  48.53300 21.65500 43.10600
H  49.04200 25.84700 40.29200
H  49.33200 24.26600 39.60700
H  51.67200 24.47800 39.71500
H  51.52900 26.08000 40.09500
H  52.18200 18.85700 41.95700
H  52.77100 18.17100 43.38500
H  53.87200 18.25500 41.99100
H  57.62700 18.31400 45.60300
H  56.99400 19.86300 46.19000
H  58.02000 19.61400 44.71400
H  58.63800 23.99100 43.93200
H  57.84000 26.04600 46.05900
H  58.49100 22.56100 46.50400
H  58.98500 24.16200 46.83900
H  59.94800 23.19300 45.63300
H  59.84000 26.13800 44.44500
H  59.05600 27.54200 44.98400
H  57.85600 27.90600 42.77400
H  58.20100 26.18400 42.39200
H  59.48300 27.24800 42.50700
H  55.28300 29.93600 45.32000
H  53.80000 29.97300 46.24300
H  53.89400 30.78800 44.65500
H  49.41300 27.48200 43.89100
H  48.86800 29.99100 40.67900
H  47.25500 29.67700 41.07200
H  48.00400 28.77300 39.75500

