158

Mg -2.97700 17.63500 26.72900
C  -3.32500 15.31500 29.47900
C  -3.56900 20.14000 28.97700
C  -3.25100 19.75900 24.16800
C  -3.14600 14.88700 24.67500
N  -3.46900 17.69300 29.02000
C  -3.45700 16.62400 29.92100
C  -3.60800 17.12100 31.39500
C  -3.80200 18.66200 31.15200
C  -3.69900 18.87100 29.58900
C  -5.10000 19.18000 31.77700
C  -2.36400 16.79600 32.31500
C  -2.35200 17.64500 33.59100
H  -1.89500 16.95700 34.90300
N  -3.21000 19.66600 26.64100
C  -3.30300 20.52400 27.64500
C  -2.94800 21.84400 27.10600
C  -2.82400 21.78600 25.69000
C  -3.15300 20.41900 25.44200
C  -2.89100 23.07600 28.02200
C  -2.44200 22.88700 24.73600
O  -2.30700 22.65400 23.53800
C  -2.32200 24.30800 25.16000
N  -3.39100 17.34500 24.71400
C  -3.35600 18.36000 23.86700
C  -3.59800 17.90500 22.40000
C  -3.45900 16.29700 22.57900
C  -3.28100 16.14900 24.07800
C  -4.69100 18.58600 21.56100
C  -2.23600 15.75100 21.81900
C  -0.86600 16.31900 22.25600
N  -3.08100 15.54000 26.95900
C  -3.15400 14.57900 26.00500
C  -3.05400 13.25200 26.57400
C  -3.19200 13.52200 27.93700
C  -3.19800 14.92000 28.14000
C  -2.96100 11.97500 25.85400
C  -3.37600 12.83200 29.22500
O  -3.47200 11.68300 29.58100
C  -3.42300 14.01700 30.24600
C  -2.29900 13.77300 31.10600
O  -1.12900 14.02600 30.89800
O  -2.73100 13.08400 32.20800
C  -1.67900 12.77900 33.23100
H  -3.54400 20.96800 29.69000
H  -3.41400 20.41100 23.30700
H  -3.24100 13.98000 24.07300
H  -4.49400 16.63000 31.79800
H  -3.09600 19.36800 31.58900
H  -5.68900 19.64800 30.98800
H  -4.88200 19.92400 32.54300
H  -5.69300 18.42200 32.28800
H  -1.41700 16.76100 31.77900
H  -2.65400 15.83400 32.73700
H  -3.15700 18.36400 33.74600
H  -1.55300 18.34300 33.33800
H  -1.89900 23.52400 27.96300
H  -3.15600 22.90200 29.06500
H  -3.59000 23.88300 27.79900
H  -2.40500 24.92900 24.26800
H  -1.42100 24.31900 25.77400
H  -3.17500 24.57800 25.78200
H  -2.67600 18.24100 21.92600
H  -4.39900 15.83500 22.27800
H  -5.15800 17.98100 20.78400
H  -4.34900 19.54100 21.16100
H  -5.57600 18.79200 22.16300
H  -2.28700 15.86500 20.73700
H  -2.08000 14.69200 22.02600
H  -0.90900 17.13300 22.98000
H  -0.34000 16.61600 21.34900
H  -0.31500 15.52600 22.76300
H  -3.74200 12.02700 25.09500
H  -3.12400 11.17200 26.57200
H  -1.98900 11.91900 25.36400
H  -4.34800 13.95500 30.82000
H  -2.17100 11.90100 33.64900
H  -1.57600 13.65700 33.86800
H  -0.71600 12.46100 32.83100
Mg -5.70900 25.13900 26.34500
C  -4.39300 26.63000 29.28300
C  -7.52600 22.99300 28.17400
C  -7.07400 23.90500 23.56500
C  -3.71000 27.32500 24.53200
N  -5.90800 24.93700 28.49400
C  -5.34200 25.61400 29.53000
C  -5.95100 25.10300 30.93300
C  -6.51800 23.73400 30.49700
C  -6.64900 23.86600 28.96100
C  -5.53100 22.59700 30.92000
C  -7.06200 26.04600 31.49300
C  -7.56000 25.78400 32.89800
H  -6.68200 24.81700 33.83000
N  -7.20400 23.69800 25.86600
C  -7.78900 22.87600 26.79700
C  -8.75500 22.00100 26.12300
C  -8.56500 22.21000 24.72400
C  -7.57300 23.28400 24.62400
C  -9.74800 21.10600 26.87000
C  -9.26800 21.50700 23.57500
O  -8.93000 21.73900 22.41000
C  -10.42600 20.45300 23.79300
N  -5.42300 25.56700 24.37500
C  -6.13500 24.91600 23.33900
C  -5.62400 25.44200 21.95900
C  -4.72200 26.64200 22.33500
C  -4.63800 26.53800 23.84500
C  -4.93900 24.28900 21.09400
C  -5.24500 27.91300 21.78100
C  -5.16000 28.13700 20.20700
N  -4.18200 26.63700 26.77800
C  -3.43300 27.40100 25.89900
C  -2.37500 28.13200 26.68200
C  -2.79000 27.88100 28.03300
C  -3.89400 26.98700 28.04700
C  -1.40400 29.17000 26.17700
C  -2.61700 28.30400 29.43600
O  -1.88900 29.15400 29.89800
C  -3.64300 27.47100 30.26900
C  -2.88300 26.68700 31.29300
O  -2.46600 25.54700 31.20500
O  -2.87100 27.42400 32.52600
C  -2.06200 26.80200 33.53200
H  -8.06400 22.41700 28.93000
H  -7.50800 23.57500 22.61900
H  -3.00500 27.84700 23.88000
H  -5.15900 24.92900 31.66100
H  -7.42700 23.58400 31.07900
H  -4.47100 22.85100 30.90400
H  -5.68600 21.77800 30.21800
H  -5.75500 22.40500 31.96900
H  -7.83800 26.04400 30.72800
H  -6.66700 27.05800 31.41000
H  -8.55700 25.34400 32.88800
H  -7.57800 26.71600 33.46200
H  -9.56800 20.03400 26.78700
H  -10.80000 21.11100 26.58200
H  -9.71100 21.50700 27.88200
H  -10.75600 19.94700 22.88600
H  -11.31000 20.96700 24.17000
H  -10.11900 19.69600 24.51500
H  -6.52500 25.80000 21.46100
H  -3.72000 26.44000 21.95400
H  -5.39600 24.13500 20.11700
H  -5.24100 23.36600 21.58800
H  -3.86300 24.34900 20.93100
H  -4.60600 28.73700 22.09800
H  -6.25800 28.12200 22.12400
H  -4.90600 27.20500 19.70200
H  -4.52300 28.99500 19.99400
H  -6.15600 28.47200 19.91500
H  -1.97700 29.95700 25.68900
H  -0.57400 28.80000 25.57500
H  -0.78700 29.67800 26.91800
H  -4.42200 28.05800 30.75700
H  -2.50300 25.84300 33.80500
H  -2.04900 27.47600 34.38900
H  -1.03400 26.69000 33.19000

