158

Mg 35.46500 48.83100 25.13000
C  36.06700 46.94800 28.12300
C  34.46000 51.40200 27.26900
C  34.66000 50.67900 22.30400
C  36.34500 46.13600 23.23900
N  35.41900 49.13400 27.46900
C  35.67500 48.23200 28.48000
C  35.52000 48.89100 29.82100
C  34.66500 50.19200 29.44800
C  34.86800 50.30000 27.96100
C  33.18100 50.03200 29.80500
C  36.85500 49.09300 30.47600
C  36.87000 49.00900 32.06600
H  35.49100 48.83100 32.78500
N  34.71000 50.72500 24.78400
C  34.42600 51.60600 25.79200
C  34.04900 52.82100 25.17500
C  33.93900 52.63800 23.77000
C  34.51900 51.31300 23.57600
C  33.82700 54.10300 25.90200
C  33.30100 53.61500 22.76300
O  33.29000 53.40000 21.58500
C  32.76900 54.91000 23.15800
N  35.25700 48.44300 23.17200
C  35.03600 49.33000 22.16000
C  35.08200 48.72700 20.75900
C  35.75000 47.33000 21.01900
C  35.75600 47.26100 22.60000
C  33.69600 48.65300 20.08300
C  37.26800 47.19200 20.37100
C  38.44900 47.88800 21.15300
N  35.98700 46.91000 25.47300
C  36.40400 45.91900 24.62900
C  36.90300 44.79700 25.34700
C  36.71300 45.10700 26.72600
C  36.20200 46.42000 26.79200
C  37.31000 43.49400 24.80900
C  37.03600 44.70300 28.09500
O  37.70500 43.74600 28.55300
C  36.46200 45.83100 29.01400
C  35.25900 45.34300 29.72500
O  34.17300 45.05200 29.22700
O  35.60600 45.33400 31.09100
C  34.54900 44.93600 32.00300
H  34.09600 52.25400 27.84700
H  34.46200 51.32200 21.44400
H  36.74500 45.31400 22.64100
H  34.91600 48.15100 30.34600
H  35.03800 51.11900 29.88300
H  32.52000 50.09200 28.94100
H  32.87500 50.91100 30.37200
H  33.05500 49.09700 30.35100
H  37.12800 50.11300 30.20800
H  37.61200 48.41700 30.08000
H  37.33800 49.89400 32.49800
H  37.50900 48.18700 32.38900
H  34.27000 54.95500 25.38500
H  34.22500 54.11700 26.91600
H  32.75700 54.24200 26.05700
H  32.11900 54.91000 24.03300
H  32.14300 55.24300 22.33000
H  33.58600 55.60900 23.34100
H  35.67800 49.43100 20.17900
H  35.10300 46.58400 20.55700
H  33.47600 49.47700 19.40400
H  32.91600 48.45400 20.81700
H  33.63000 47.76700 19.45100
H  37.27500 47.53500 19.33600
H  37.46000 46.12400 20.47600
H  38.88900 48.53800 20.39600
H  39.20200 47.10600 21.24500
H  38.23600 48.30700 22.13700
H  36.74000 42.80500 25.43200
H  38.39900 43.47500 24.84600
H  36.89300 43.43900 23.80300
H  37.18300 46.14300 29.77000
H  34.99800 44.92900 32.99600
H  34.15000 43.95600 31.74300
H  33.85700 45.77400 31.91100
Mg -12.35500 15.80100 41.34900
C  -9.45900 13.85100 41.09300
C  -10.36800 18.52800 39.93800
C  -15.16200 17.48700 40.74200
C  -14.10500 13.08300 42.45500
N  -10.13900 16.11700 40.49800
C  -9.15500 15.14200 40.59200
C  -7.86700 15.71100 39.97000
C  -8.19300 17.26100 39.74500
C  -9.62900 17.36100 40.08000
C  -7.37900 18.31800 40.56600
C  -7.24100 14.92200 38.75800
C  -5.75600 14.87800 38.88000
H  -4.96500 15.58800 37.78400
N  -12.72300 17.75200 40.54500
C  -11.79900 18.71300 40.08400
C  -12.59200 19.84800 39.64000
C  -13.97000 19.60200 39.81700
C  -14.04500 18.19000 40.33300
C  -11.92200 21.17400 39.08100
C  -15.09200 20.60100 39.45700
O  -14.82700 21.62400 38.79800
C  -16.60900 20.37900 39.72200
N  -14.47300 15.25300 41.36000
C  -15.40200 16.27600 41.33100
C  -16.82000 15.78500 41.86800
C  -16.44200 14.37100 42.41400
C  -14.94100 14.18900 42.13800
C  -17.41800 16.75300 42.92400
C  -17.33000 13.18900 41.91400
C  -17.83200 12.20400 42.96100
N  -11.89500 13.85700 41.73400
C  -12.68800 12.86200 42.28600
C  -11.84400 11.68200 42.52900
C  -10.55500 12.06500 42.11700
C  -10.67000 13.41600 41.66400
C  -12.25600 10.34700 43.10900
C  -9.10700 11.65700 42.06200
O  -8.55200 10.61400 42.40000
C  -8.34400 12.86800 41.36100
C  -7.32900 13.40600 42.33300
O  -7.59100 13.92000 43.42700
O  -6.07200 13.42800 41.83300
C  -4.98100 14.09300 42.57400
H  -9.76100 19.38400 39.63600
H  -16.00100 18.18100 40.65300
H  -14.62400 12.28600 42.99300
H  -7.24400 15.71000 40.86400
H  -8.07800 17.42100 38.67200
H  -7.97200 19.12300 41.00100
H  -6.69200 18.78500 39.86100
H  -6.61600 17.94500 41.24900
H  -7.32100 15.48200 37.82600
H  -7.64400 13.91100 38.69200
H  -5.41100 13.84400 38.87600
H  -5.31700 15.39600 39.73200
H  -10.83400 21.15400 39.15600
H  -12.12100 22.00500 39.75900
H  -12.19300 21.46800 38.06700
H  -16.95100 19.59000 39.05200
H  -17.14600 21.30100 39.49800
H  -16.86900 20.07200 40.73500
H  -17.49600 15.74400 41.01400
H  -16.50500 14.45500 43.49900
H  -16.57100 17.39400 43.16700
H  -17.77600 16.41200 43.89600
H  -18.26000 17.29600 42.49600
H  -16.75700 12.57700 41.21700
H  -18.06400 13.68400 41.27900
H  -18.91300 12.17800 42.82300
H  -17.66700 12.57100 43.97400
H  -17.52000 11.20200 42.66400
H  -12.08200 10.35200 44.18500
H  -11.67000 9.58100 42.60100
H  -13.30400 10.06900 43.00200
H  -7.88400 12.51700 40.43700
H  -4.33900 13.38900 43.10400
H  -5.29800 14.95000 43.16800
H  -4.37000 14.54900 41.79400

