158

Mg 8.30100 3.01600 27.87600
C  9.84100 1.40100 30.66600
C  6.40100 4.73800 29.83500
C  6.89200 4.27700 25.07800
C  9.62300 0.40400 25.80700
N  8.29300 3.09300 29.95800
C  8.97200 2.45800 30.98800
C  8.61900 3.05100 32.33500
C  7.33500 3.96300 32.08100
C  7.29200 3.93500 30.48800
C  6.04300 3.45300 32.71100
C  9.82800 3.93700 32.93700
C  10.31500 3.51900 34.36400
H  10.51800 4.68400 35.44400
N  6.88300 4.42700 27.49200
C  6.19500 4.99900 28.47700
C  5.28000 6.00300 27.81500
C  5.51400 5.98000 26.42400
C  6.44300 4.88900 26.28100
C  4.23300 6.77100 28.57600
C  4.81600 6.73800 25.30700
O  4.87800 6.43300 24.09200
C  4.00900 8.02500 25.69700
N  8.30900 2.40000 25.79900
C  7.60900 3.13400 24.84000
C  7.81600 2.64300 23.45000
C  8.67400 1.37300 23.70100
C  8.87300 1.35800 25.15600
C  6.41400 2.31800 22.79200
C  9.97200 1.41400 22.86100
C  10.12800 0.25300 21.84600
N  9.68700 1.32700 28.11200
C  10.02700 0.35400 27.16700
C  10.84300 -0.70100 27.86800
C  10.86600 -0.28500 29.21900
C  10.07200 0.90200 29.32800
C  11.44100 -1.90100 27.19900
C  11.38700 -0.57300 30.63400
O  12.16800 -1.43700 31.04200
C  10.75800 0.60600 31.59700
C  10.08200 -0.23000 32.69000
O  9.32400 -1.10800 32.43800
O  10.50300 0.18500 33.86900
C  9.99200 -0.45200 35.02100
H  5.96900 5.51200 30.47100
H  6.58600 4.83600 24.19000
H  9.94200 -0.43200 25.18100
H  8.48000 2.25900 33.07100
H  7.53500 4.99800 32.35900
H  6.21900 2.69700 33.47600
H  5.38600 3.01000 31.96300
H  5.45900 4.22400 33.21400
H  9.51600 4.96600 33.11700
H  10.64400 4.12200 32.23800
H  11.34300 3.18700 34.22500
H  9.64500 2.73100 34.71100
H  4.19500 7.83500 28.34200
H  4.44200 6.81400 29.64500
H  3.26000 6.30200 28.43200
H  2.97200 7.88000 26.00300
H  3.89800 8.62000 24.79100
H  4.49500 8.65700 26.44000
H  8.21900 3.32900 22.70500
H  8.19900 0.41400 23.49800
H  5.73500 2.12000 23.62000
H  6.55700 1.51100 22.07300
H  6.00200 3.17000 22.25000
H  10.83500 1.47600 23.52400
H  10.01300 2.37200 22.34300
H  11.00600 -0.36000 22.04900
H  10.35800 0.72900 20.89300
H  9.17700 -0.27900 21.86200
H  11.75500 -1.75200 26.16600
H  10.74200 -2.73500 27.26700
H  12.28600 -2.22500 27.80600
H  11.54500 1.20500 32.05500
H  8.90600 -0.53300 34.98500
H  10.33900 0.06600 35.91500
H  10.27000 -1.50200 35.10700
Mg 24.63400 -5.23900 45.99400
C  26.61200 -3.02600 43.99900
C  22.06000 -4.67300 43.56900
C  23.04100 -7.87000 47.07900
C  27.57000 -6.30100 47.60800
N  24.41700 -4.03000 44.06300
C  25.31300 -3.12300 43.61100
C  24.74500 -2.39400 42.35700
C  23.22600 -2.73000 42.42600
C  23.22900 -3.91500 43.35800
C  22.16100 -1.66200 42.88400
C  25.40400 -2.81600 40.96300
C  25.63800 -1.60100 40.04000
H  25.77000 -1.92700 38.53400
N  22.73700 -6.08000 45.54100
C  21.75900 -5.57100 44.58200
C  20.55900 -6.35200 44.72800
C  20.81300 -7.27900 45.80800
C  22.26000 -7.14500 46.19200
C  19.38800 -6.14500 43.85700
C  19.85600 -8.31800 46.39100
O  18.70000 -8.24700 46.06400
C  20.16000 -9.33800 47.47100
N  25.26100 -6.90500 47.15600
C  24.37300 -7.84200 47.50200
C  25.05800 -8.95700 48.24500
C  26.32400 -8.22800 48.84600
C  26.44700 -7.07800 47.79500
C  24.19100 -9.59200 49.31000
C  27.60900 -9.06700 49.10700
C  28.26500 -9.08700 50.51700
N  26.57700 -4.69200 45.97900
C  27.67700 -5.20100 46.74000
C  28.83400 -4.48900 46.35100
C  28.47300 -3.58000 45.36100
C  27.08600 -3.79000 45.12400
C  30.13500 -4.79400 46.90700
C  28.95400 -2.50800 44.47400
O  30.07500 -2.00800 44.37900
C  27.71900 -2.11600 43.60000
C  27.33400 -0.69900 43.88100
O  26.65800 -0.37700 44.87200
O  27.83200 0.14600 42.97300
C  27.24700 1.42300 43.03500
H  21.26800 -4.42200 42.86000
H  22.64400 -8.79700 47.49700
H  28.54000 -6.46800 48.08100
H  24.82900 -1.32800 42.56700
H  22.88900 -3.09600 41.45700
H  21.82500 -1.16400 41.97400
H  22.74400 -0.99000 43.51300
H  21.43100 -2.16600 43.51700
H  24.82000 -3.64400 40.56400
H  26.38000 -3.24700 41.18700
H  26.54200 -1.10500 40.39400
H  24.80500 -0.91000 40.17100
H  18.54600 -6.77800 44.13200
H  19.67200 -6.42200 42.84100
H  18.99800 -5.12900 43.92500
H  19.26000 -9.93500 47.61700
H  20.51800 -8.87000 48.38800
H  20.95000 -9.99500 47.10800
H  25.44500 -9.67800 47.52600
H  26.03000 -7.76600 49.78800
H  23.91700 -10.53500 48.83500
H  23.36300 -8.93300 49.57000
H  24.72800 -9.74800 50.24600
H  28.39600 -8.79500 48.40400
H  27.27600 -10.07300 48.85100
H  29.25200 -9.54700 50.49600
H  27.60700 -9.59100 51.22400
H  28.44600 -8.06100 50.83900
H  30.15100 -4.47200 47.94800
H  30.81400 -4.25400 46.24800
H  30.39000 -5.85300 46.93400
H  27.96300 -2.19700 42.54100
H  26.16800 1.42000 42.88600
H  27.64200 2.00400 42.20100
H  27.47200 1.89900 43.99000

