158

Mg 1.59400 -2.95900 45.00900
C  4.93300 -2.07600 44.32900
C  0.66800 -0.43000 42.97300
C  -1.49600 -4.37300 44.89100
C  2.75500 -5.82000 46.81200
N  2.79900 -1.46100 43.75800
C  4.12700 -1.34000 43.55800
C  4.34300 -0.19200 42.47800
C  2.90000 0.44100 42.30700
C  2.05200 -0.51900 43.17700
C  2.75900 1.88900 42.79600
C  4.83900 -0.69400 41.18300
C  5.98600 0.13300 40.49500
H  5.50400 0.85100 39.19800
N  -0.19900 -2.46500 44.09800
C  -0.34400 -1.34400 43.35800
C  -1.74800 -1.25800 42.92100
C  -2.40400 -2.39300 43.45500
C  -1.39200 -3.15700 44.20200
C  -2.37700 -0.14500 42.10200
C  -3.87500 -2.66000 43.31200
O  -4.57900 -1.88400 42.70700
C  -4.52700 -3.89500 44.02400
N  0.65500 -4.75200 45.79500
C  -0.62100 -5.13300 45.65600
C  -0.88700 -6.54800 46.00000
C  0.45400 -6.92600 46.89800
C  1.36700 -5.72800 46.54300
C  -2.14600 -6.85600 46.83800
C  1.10600 -8.30800 46.43000
C  1.48900 -9.21200 47.66300
N  3.40700 -3.82100 45.53300
C  3.74800 -4.92500 46.22300
C  5.19200 -4.99500 46.43700
C  5.67500 -3.87600 45.75300
C  4.54700 -3.22000 45.21200
C  5.99600 -6.07200 47.09500
C  6.93300 -3.16400 45.32200
O  8.07600 -3.43400 45.58500
C  6.47700 -2.12800 44.27100
C  6.99000 -0.85700 44.70600
O  6.95300 -0.48700 45.88100
O  7.70900 -0.26100 43.72900
C  8.45200 0.94400 44.02300
H  0.25600 0.37400 42.35800
H  -2.42300 -4.92800 44.73100
H  3.13100 -6.66800 47.38700
H  5.05500 0.51700 42.90000
H  2.63400 0.26700 41.26500
H  2.17500 2.16200 43.67500
H  2.38000 2.48300 41.96500
H  3.73200 2.21500 43.16200
H  4.06900 -0.80800 40.42100
H  5.28000 -1.66300 41.41400
H  6.81700 -0.52000 40.22700
H  6.38100 0.91700 41.14100
H  -3.12000 0.43900 42.64600
H  -2.86900 -0.61800 41.25200
H  -1.65200 0.51400 41.62500
H  -4.17700 -4.83000 43.58700
H  -5.61600 -3.91400 44.08200
H  -4.19300 -3.98100 45.05800
H  -0.74200 -7.10300 45.07300
H  0.25500 -6.87900 47.96900
H  -2.64500 -7.72700 46.41200
H  -2.76900 -5.96200 46.85300
H  -1.79000 -7.03200 47.85300
H  2.03300 -8.14800 45.87800
H  0.43300 -8.88700 45.79800
H  2.55900 -9.12100 47.84800
H  1.38300 -10.28600 47.50800
H  0.86900 -8.95400 48.52100
H  5.93300 -6.96700 46.47700
H  5.73400 -6.32700 48.12200
H  7.04400 -5.78200 47.17200
H  6.78600 -2.36000 43.25200
H  7.80400 1.80800 43.87900
H  9.28200 1.03300 43.32300
H  8.77000 0.97600 45.06600
Mg 49.33500 46.75500 43.68000
C  46.07500 47.01500 42.63600
C  49.61100 43.92000 41.81000
C  52.47100 46.90700 44.48500
C  48.94300 50.07500 45.04300
N  47.96700 45.65400 42.30200
C  46.64600 45.84900 42.09900
C  45.98500 44.78200 41.16300
C  47.04300 43.68600 41.23300
C  48.31500 44.51600 41.76500
C  46.67200 42.55500 42.29200
C  45.78900 45.44700 39.73700
C  44.43400 45.10400 39.07600
H  44.31100 44.77900 37.57200
N  50.82600 45.52700 43.14300
C  50.77600 44.38500 42.42100
C  52.11700 43.80500 42.43700
C  52.94500 44.57200 43.22000
C  52.10000 45.78900 43.60500
C  52.41400 42.59400 41.47200
C  54.38000 44.23500 43.65000
O  54.89100 43.20700 43.27700
C  55.15700 44.99200 44.77900
N  50.56200 48.35900 44.54700
C  51.79800 48.05500 44.81500
C  52.51800 49.29700 45.53200
C  51.38700 50.42800 45.58300
C  50.22100 49.63400 44.98600
C  53.33900 49.10000 46.78100
C  51.55900 51.62300 44.63100
C  52.85700 52.45000 44.77800
N  47.84800 48.20300 43.91200
C  47.81900 49.50400 44.51400
C  46.51200 50.11800 44.33000
C  45.80800 49.17300 43.58400
C  46.67800 48.00100 43.41200
C  46.24900 51.47100 44.67800
C  44.54900 48.91700 42.97300
O  43.56600 49.62000 42.94500
C  44.62600 47.44500 42.31100
C  43.56800 46.57700 43.00900
O  43.42400 46.47700 44.23200
O  42.82200 45.92400 42.05500
C  41.82800 45.07200 42.60300
H  49.57700 42.93600 41.33800
H  53.50100 46.93500 44.84500
H  48.73000 51.00200 45.58000
H  44.98400 44.49900 41.48900
H  47.34800 43.27900 40.26900
H  47.34200 42.52200 43.15100
H  46.86800 41.59200 41.82200
H  45.66700 42.72300 42.67900
H  46.56600 45.10700 39.05300
H  45.90200 46.52900 39.80300
H  43.72400 45.92500 39.17600
H  43.97300 44.25700 39.58500
H  51.66300 42.28100 40.74600
H  52.71700 41.77400 42.12300
H  53.36600 42.80500 40.98400
H  55.88700 44.29400 45.18800
H  54.46400 44.98100 45.62100
H  55.50600 46.00000 44.55700
H  53.27100 49.67100 44.83700
H  51.22200 50.81300 46.58900
H  54.39600 49.30600 46.61600
H  53.37100 48.11400 47.24500
H  53.08400 49.80200 47.57500
H  50.79800 52.34100 44.93700
H  51.51100 51.37700 43.57000
H  53.44100 52.35000 43.86200
H  53.53100 52.33700 45.62700
H  52.68900 53.52300 44.85900
H  47.12100 52.08000 44.43800
H  46.11800 51.51600 45.75900
H  45.32900 51.92700 44.31300
H  44.39500 47.49700 41.24700
H  42.13300 44.32700 43.33700
H  41.31300 44.45700 41.86400
H  41.05200 45.74100 42.97600

