158

Mg 47.29100 24.59700 28.82600
C  48.24100 26.88600 31.22600
C  46.37300 22.50700 31.47000
C  47.05400 22.07100 26.67000
C  48.76400 26.57700 26.46700
N  47.26900 24.71500 31.09600
C  47.76700 25.74800 31.80500
C  47.45400 25.69900 33.25300
C  47.16900 24.15400 33.34300
C  46.83900 23.77400 31.91700
C  48.24300 23.33200 34.10100
C  46.25500 26.63300 33.62500
C  46.33700 27.38800 34.92000
H  46.96100 26.71800 36.27500
N  46.71100 22.66100 29.02700
C  46.28200 22.01200 30.17000
C  45.88700 20.68000 29.87100
C  45.95900 20.57900 28.44000
C  46.59200 21.76300 27.97700
C  45.39900 19.66600 30.84700
C  45.55000 19.38300 27.58000
O  45.62700 19.43200 26.38700
C  45.09200 18.15900 28.13300
N  47.69800 24.37800 26.79000
C  47.56600 23.24300 26.08400
C  47.90800 23.34800 24.61100
C  48.23000 24.88000 24.51900
C  48.32200 25.30000 26.02700
C  49.12400 22.49800 24.28500
C  47.22300 25.56400 23.56900
C  45.78500 25.81800 23.99300
N  48.26400 26.28700 28.75600
C  48.68100 27.12500 27.71300
C  49.21100 28.38400 28.17300
C  49.12400 28.32800 29.58300
C  48.52700 27.03200 29.89700
C  49.95300 29.31400 27.42100
C  49.44700 28.95300 30.83400
O  50.14900 29.88500 30.99600
C  48.78300 28.12000 31.97500
C  49.70400 28.00000 33.09500
O  50.62600 27.17300 33.21400
O  49.32600 28.94000 34.01100
C  49.97900 28.97300 35.32400
H  46.21300 21.82800 32.31100
H  46.83500 21.34200 25.88700
H  49.25100 27.19200 25.70700
H  48.33600 25.98200 33.82800
H  46.29000 24.03900 33.97800
H  48.98600 23.98600 34.55700
H  48.81300 22.82200 33.32400
H  47.82400 22.58500 34.77500
H  45.39700 25.99300 33.83100
H  46.04600 27.25800 32.75700
H  45.27500 27.52700 35.12200
H  46.89000 28.31200 34.75300
H  45.60700 19.96900 31.87300
H  45.90000 18.69900 30.79400
H  44.31000 19.62100 30.83700
H  45.87500 17.82000 28.81100
H  44.98800 17.37900 27.37900
H  44.13100 18.23200 28.64100
H  47.05000 23.09800 23.98700
H  49.24900 24.92600 24.13400
H  48.97300 21.58700 24.86500
H  50.11200 22.87900 24.54300
H  49.06800 22.49100 23.19700
H  47.21000 24.98800 22.64400
H  47.67100 26.48200 23.18900
H  45.76900 26.89900 23.85300
H  45.58700 25.51400 25.02000
H  44.95600 25.47300 23.37500
H  50.69800 28.76500 26.84500
H  50.47200 29.99100 28.09900
H  49.30300 29.89800 26.77000
H  47.86900 28.61700 32.30200
H  49.36700 28.48600 36.08400
H  50.18500 29.96400 35.72800
H  50.93000 28.44500 35.26300
Mg 30.45100 58.24100 40.24100
C  27.73900 56.19100 39.39400
C  32.48300 55.54300 40.08400
C  33.00000 60.37500 40.08300
C  28.11500 60.94300 40.70300
N  30.18400 56.14400 39.35600
C  28.97700 55.51500 39.29000
C  29.19400 54.05500 38.98900
C  30.51800 53.75500 39.70200
C  31.12000 55.22300 39.78200
C  30.48000 53.09600 41.06600
C  29.24600 53.80800 37.48500
C  28.04000 52.95100 37.00400
H  27.24100 53.52600 35.86000
N  32.51700 58.01800 40.04800
C  33.17100 56.79300 40.03400
C  34.60400 57.06700 39.86700
C  34.77800 58.51200 39.92900
C  33.37800 59.06000 39.95000
C  35.65500 55.99900 39.63600
C  36.09900 59.19500 40.03200
O  37.11500 58.49900 40.14200
C  36.25500 60.66800 39.99900
N  30.54200 60.35100 40.35200
C  31.73900 60.95100 40.19000
C  31.51400 62.51900 40.24800
C  30.00900 62.69000 40.67000
C  29.52100 61.24000 40.57600
C  32.54600 63.26200 41.04800
C  29.31700 63.75500 39.81400
C  28.21100 64.55700 40.54800
N  28.32300 58.57100 40.09200
C  27.53200 59.68100 40.41400
C  26.13800 59.28200 40.31000
C  26.14100 57.95300 39.91200
C  27.53400 57.50600 39.83800
C  24.89800 60.14400 40.37400
C  25.30400 56.76700 39.53300
O  24.09500 56.67700 39.36800
C  26.28700 55.55700 39.23200
C  26.04000 54.48900 40.26000
O  26.62800 54.46700 41.30200
O  25.16000 53.48500 39.77000
C  24.95000 52.49500 40.84100
H  33.14400 54.68600 40.22900
H  33.76500 61.14800 39.98500
H  27.43000 61.78200 40.84000
H  28.43300 53.39100 39.40100
H  31.21600 53.16200 39.11200
H  31.47100 53.21600 41.50500
H  30.32400 52.04000 40.84700
H  29.67100 53.41400 41.72200
H  30.09800 53.17700 37.23300
H  29.44000 54.71300 36.90900
H  27.30100 52.80900 37.79300
H  28.33500 51.92800 36.76900
H  36.32300 56.53900 38.96500
H  35.24100 55.12000 39.14300
H  36.15200 55.62100 40.52900
H  36.01900 61.21200 39.08400
H  37.20100 61.01700 40.41300
H  35.61000 61.11900 40.75300
H  31.56200 62.86600 39.21500
H  29.93100 63.02100 41.70500
H  33.49200 63.35300 40.51500
H  32.72900 62.78200 42.00900
H  32.00100 64.17500 41.29000
H  28.94900 63.22500 38.93500
H  30.09100 64.45600 39.50200
H  28.44300 65.61000 40.38800
H  28.28800 64.49500 41.63400
H  27.23800 64.37900 40.09000
H  24.62800 60.47500 39.37100
H  25.01200 60.96400 41.08300
H  24.14700 59.43100 40.71400
H  26.16300 55.16000 38.22500
H  25.84200 51.90900 41.05900
H  24.25400 51.76000 40.43800
H  24.43700 52.99800 41.66100

