158

Mg -0.36000 7.54100 25.30300
C  0.93400 9.61400 27.77200
C  0.15800 4.84300 27.31400
C  -1.19600 5.46900 22.71000
C  0.16700 10.05800 22.94800
N  0.60700 7.24900 27.26600
C  0.81900 8.26500 28.16100
C  0.95100 7.68600 29.63200
C  0.95400 6.19200 29.38000
C  0.50000 6.07000 27.95300
C  2.26000 5.50300 29.63400
C  -0.09900 8.16100 30.58600
C  0.28100 8.26200 32.10300
H  1.37100 7.39600 32.56200
N  -0.64400 5.40600 25.10300
C  -0.35000 4.51100 26.00900
C  -0.68900 3.15500 25.54400
C  -1.18200 3.33800 24.17800
C  -0.96400 4.77900 23.91800
C  -0.65000 1.88800 26.37400
C  -1.64700 2.26200 23.23800
O  -1.97400 2.50200 22.06200
C  -1.90300 0.80200 23.64000
N  -0.31700 7.64700 23.00400
C  -0.82900 6.73600 22.24200
C  -1.12600 7.17800 20.80900
C  -0.76600 8.75500 20.93100
C  -0.29000 8.86600 22.39900
C  -0.35600 6.52900 19.69000
C  -1.93100 9.72600 20.50900
C  -3.04000 9.98100 21.50500
N  0.38400 9.47900 25.30000
C  0.46300 10.41700 24.28200
C  0.84700 11.69600 24.87800
C  1.05800 11.46100 26.26800
C  0.83000 10.06800 26.41000
C  1.03000 12.95900 24.15200
C  1.38400 12.05500 27.56400
O  1.66200 13.19600 27.94300
C  1.20500 10.82200 28.61000
C  2.32200 10.72000 29.62500
O  3.39600 10.19900 29.43200
O  1.99200 11.38600 30.80500
C  2.86000 11.24100 31.98200
H  0.17800 3.93400 27.92000
H  -1.64200 4.86700 21.91500
H  0.29800 10.84600 22.20300
H  1.95600 8.00200 29.90800
H  0.22400 5.59900 29.93100
H  3.03300 6.17200 30.01400
H  2.68400 4.93100 28.80900
H  2.11200 4.77200 30.42800
H  -0.90300 7.43600 30.46100
H  -0.38200 9.12000 30.15200
H  -0.64900 7.85300 32.49600
H  0.43900 9.25400 32.52600
H  0.23800 1.94200 27.00500
H  -0.57100 0.94700 25.83000
H  -1.45900 1.82200 27.10100
H  -0.97500 0.27500 23.86400
H  -2.37600 0.41600 22.73700
H  -2.64900 0.81700 24.43400
H  -2.16200 6.94300 20.56600
H  0.14600 9.05300 20.41400
H  -1.04200 6.37100 18.85700
H  0.15700 5.60400 19.95300
H  0.32000 7.29200 19.30300
H  -2.34200 9.34800 19.57200
H  -1.48700 10.69100 20.26200
H  -3.98800 9.60200 21.12200
H  -3.27500 11.02700 21.69900
H  -2.87600 9.43700 22.43500
H  1.48200 12.75500 23.18100
H  1.71100 13.62300 24.68300
H  0.10100 13.45500 23.87200
H  0.34000 11.10800 29.20800
H  3.66400 11.97600 31.95400
H  3.34100 10.26500 32.04400
H  2.37900 11.36700 32.95200
Mg 26.89600 50.39800 26.73900
C  24.64300 51.43700 29.22700
C  29.31900 49.71900 29.25600
C  29.24300 49.92100 24.24200
C  24.64600 51.41000 24.32300
N  26.98700 50.74000 29.01200
C  25.88800 50.89300 29.79500
C  26.19300 50.62600 31.25800
C  27.67200 50.10200 31.24400
C  28.04800 50.16100 29.73700
C  28.63800 50.84000 32.16800
C  25.17800 49.68300 31.88900
C  24.64000 49.97800 33.31200
H  24.72700 48.96400 34.42700
N  28.92900 49.88600 26.73300
C  29.71300 49.58600 27.86700
C  31.00000 49.08800 27.43700
C  31.06500 49.24600 26.01100
C  29.73900 49.72600 25.56500
C  32.02800 48.71400 28.48600
C  32.19000 48.86300 25.09500
O  32.13800 49.03400 23.87300
C  33.50000 48.19200 25.60200
N  26.97800 50.69000 24.60100
C  27.95600 50.23800 23.77500
C  27.60500 50.42000 22.27100
C  26.05100 50.63900 22.38100
C  25.87600 50.97100 23.87000
C  28.42200 51.60100 21.60800
C  25.16700 49.47600 21.90100
C  24.11700 49.84000 20.83400
N  25.12200 51.38300 26.71500
C  24.29000 51.67000 25.67300
C  23.11700 52.32000 26.10500
C  23.19500 52.19700 27.51900
C  24.38300 51.56000 27.83900
C  21.96900 52.96400 25.26900
C  22.44400 52.46000 28.76100
O  21.35000 53.02800 28.90100
C  23.39700 51.95400 29.97100
C  23.79200 53.10400 30.74400
O  24.14500 54.16900 30.34700
O  23.75300 52.79800 32.03500
C  24.33800 53.83700 32.96400
H  29.88600 49.30200 30.09200
H  29.97200 49.75200 23.44700
H  24.02200 51.73500 23.48800
H  26.07000 51.53200 31.85100
H  27.59300 49.05300 31.52900
H  28.56600 50.55500 33.21800
H  28.22600 51.84200 32.28600
H  29.63300 51.04400 31.77300
H  25.71600 48.74600 32.02600
H  24.31300 49.59800 31.23000
H  23.57200 50.16300 33.19900
H  24.97500 50.94500 33.68700
H  32.77200 49.50900 28.43400
H  32.37500 47.69900 28.28700
H  31.63100 48.66400 29.49900
H  34.09600 49.01200 26.00200
H  33.85900 47.70800 24.69400
H  33.24800 47.39000 26.29600
H  27.85700 49.51900 21.71300
H  25.83300 51.59500 21.90600
H  28.98400 51.23800 20.74800
H  29.12800 51.82700 22.40700
H  27.68000 52.35800 21.35700
H  24.73400 48.96300 22.76000
H  25.84300 48.78700 21.39500
H  24.53400 49.80000 19.82800
H  23.77900 50.86900 20.95500
H  23.17600 49.29300 20.89200
H  21.13500 53.13800 25.94900
H  21.51100 52.16600 24.68300
H  22.22800 53.85500 24.69700
H  22.84500 51.24200 30.58500
H  24.76300 53.22600 33.76100
H  23.60300 54.50800 33.41000
H  25.11500 54.54700 32.68200

