158

Mg 40.43200 8.53900 30.20400
C  42.21500 9.87700 32.89200
C  37.93600 7.54500 32.48400
C  38.70600 7.28300 27.61500
C  43.01500 9.18600 28.10900
N  40.17400 8.70200 32.40800
C  40.96200 9.34000 33.26400
C  40.22400 9.43600 34.63600
C  38.93500 8.59900 34.50500
C  38.97300 8.31200 33.03100
C  38.84400 7.43100 35.46800
C  40.02900 10.89900 35.14700
C  39.55400 11.08300 36.59100
H  40.26600 11.84800 37.64000
N  38.61700 7.46900 30.07900
C  37.72800 7.22500 31.07100
C  36.55300 6.50000 30.56700
C  36.84100 6.39700 29.10800
C  38.11900 7.07400 28.87300
C  35.40400 6.00100 31.41500
C  35.93900 5.72900 28.03300
O  36.27100 5.67300 26.82700
C  34.69800 4.99900 28.37300
N  40.84600 8.11800 28.18700
C  39.91500 7.74800 27.32600
C  40.50100 7.74000 25.92000
C  41.72300 8.71600 25.97300
C  41.84100 8.74200 27.50300
C  40.91200 6.32500 25.41000
C  41.60600 10.04000 25.22600
C  41.00300 11.27700 25.98000
N  42.35400 9.18900 30.42300
C  43.30400 9.46000 29.47300
C  44.49400 10.03600 30.18800
C  44.05600 10.29800 31.51400
C  42.75900 9.74600 31.61500
C  45.80400 10.34800 29.49600
C  44.47400 10.95300 32.70600
O  45.53400 11.55000 32.91700
C  43.30400 10.66400 33.69600
C  43.90800 10.01000 34.88900
O  44.54600 8.96000 34.85900
O  43.75200 10.79600 35.99500
C  44.48600 10.37400 37.19500
H  37.05800 7.35200 33.10400
H  38.10800 7.00300 26.74600
H  43.77800 9.53900 27.41200
H  40.89500 9.01200 35.38300
H  38.20000 9.32400 34.85700
H  38.65300 6.47600 34.97800
H  38.02900 7.71400 36.13500
H  39.69500 7.42500 36.14900
H  39.27300 11.25300 34.44600
H  40.94100 11.49000 35.06400
H  39.34100 10.07100 36.93700
H  38.56300 11.53000 36.66900
H  34.46500 6.55100 31.46500
H  35.65700 5.76700 32.44900
H  35.12500 5.02200 31.02400
H  34.25700 4.70700 27.42000
H  33.87100 5.63200 28.69700
H  34.87200 4.16500 29.05200
H  39.74100 8.10700 25.22900
H  42.65600 8.29600 25.59800
H  40.14100 5.62900 25.74200
H  41.92000 6.07800 25.74200
H  41.01000 6.30200 24.32500
H  40.99100 9.86500 24.34300
H  42.61100 10.38900 24.98900
H  40.07800 11.38400 25.41400
H  41.65800 12.14400 25.89700
H  40.83300 10.96300 27.00900
H  45.71100 11.36000 29.10200
H  45.92900 9.62400 28.69100
H  46.53000 10.23000 30.30100
H  42.88800 11.64300 33.93300
H  44.16200 9.38100 37.50700
H  44.31400 11.02100 38.05500
H  45.54800 10.21500 37.01000
Mg 7.56500 53.70200 41.59600
C  7.02900 50.22500 41.51400
C  10.77400 53.18300 40.49900
C  7.79800 57.01900 41.04900
C  4.35000 53.98000 42.72700
N  8.65500 51.89700 40.99200
C  8.29400 50.58300 40.95700
C  9.48300 49.63900 40.73000
C  10.64500 50.64300 40.81100
C  10.00200 52.03600 40.80800
C  11.60400 50.43700 42.00100
C  9.46100 49.00300 39.32700
C  9.08900 49.88100 38.16100
H  7.84300 49.39700 37.36300
N  9.01400 54.93100 40.66900
C  10.33700 54.52000 40.40100
C  11.13400 55.64200 40.09600
C  10.36800 56.82300 40.42100
C  8.99300 56.31400 40.70000
C  12.51100 55.58200 39.63800
C  10.91700 58.26300 40.37700
O  12.06900 58.49200 40.06600
C  9.97900 59.36900 40.55500
N  6.19400 55.21600 41.63200
C  6.45800 56.56100 41.41500
C  5.35600 57.43600 41.93200
C  4.17900 56.44000 42.08400
C  4.97700 55.11800 42.23800
C  5.78100 58.06800 43.22600
C  3.24800 56.47700 40.84900
C  1.98900 57.19900 41.10000
N  6.04900 52.40800 42.23400
C  4.77400 52.66000 42.70900
C  4.08100 51.42200 43.01300
C  4.92600 50.43400 42.65400
C  6.07200 51.08700 42.03200
C  2.75300 51.35000 43.68200
C  5.15900 49.02100 42.59500
O  4.42500 48.07200 42.89900
C  6.41200 48.89900 41.64500
C  6.07300 48.24500 40.36100
O  5.51000 48.75700 39.43000
O  6.48600 46.97300 40.50100
C  6.28500 46.10300 39.39700
H  11.84500 53.16000 40.28700
H  7.72500 58.10800 41.06200
H  3.30800 54.04900 43.04800
H  9.39800 48.81000 41.43200
H  11.30300 50.66100 39.94200
H  11.75500 51.36500 42.55200
H  12.52600 50.20900 41.46400
H  11.23900 49.54300 42.50700
H  8.75700 48.17000 39.34500
H  10.44000 48.57700 39.10700
H  9.94900 49.74600 37.50500
H  8.88400 50.92900 38.38400
H  12.64100 55.85300 38.59100
H  12.92200 54.57200 39.64900
H  13.18000 56.10900 40.31800
H  9.08400 59.30500 39.93600
H  10.56000 60.25000 40.28500
H  9.65000 59.32400 41.59400
H  5.27500 58.22900 41.18900
H  3.58400 56.58700 42.98500
H  5.54700 59.13200 43.18400
H  6.83500 57.83600 43.37700
H  5.19800 57.67000 44.05700
H  3.08700 55.49800 40.39700
H  3.73600 57.01500 40.03700
H  1.99300 57.65900 42.08800
H  1.21200 56.45300 40.93500
H  1.95800 58.02500 40.38900
H  2.50900 52.10000 44.43500
H  2.66800 50.33700 44.07500
H  1.92600 51.47700 42.98300
H  7.09800 48.20800 42.13500
H  6.64500 46.52700 38.46000
H  5.26100 45.91500 39.07400
H  6.82500 45.18400 39.62600

