158

Mg -12.06600 16.77100 41.47100
C  -8.89700 15.27400 41.19800
C  -10.82000 19.51300 40.17900
C  -15.30100 17.90400 40.96500
C  -13.42900 13.57900 42.37800
N  -10.09400 17.27500 40.71100
C  -8.93600 16.56500 40.72300
C  -7.68700 17.31700 40.14800
C  -8.35700 18.73300 39.89600
C  -9.87800 18.50200 40.28100
C  -7.66200 19.96200 40.61600
C  -7.12100 16.62400 38.88700
C  -5.65200 16.34800 38.89900
H  -5.01700 16.51700 37.49700
N  -12.92800 18.54900 40.72300
C  -12.23600 19.58200 40.28500
C  -13.12900 20.65300 39.90300
C  -14.45200 20.22600 40.09100
C  -14.29600 18.82000 40.58000
C  -12.63700 21.97000 39.41100
C  -15.75500 20.95500 39.62900
O  -15.67300 22.11900 39.15300
C  -17.15900 20.31100 39.55300
N  -14.03600 16.01900 41.80500
C  -15.19300 16.65100 41.48500
C  -16.51500 15.88800 41.87000
C  -15.85900 14.49000 42.39100
C  -14.35500 14.68000 42.18300
C  -17.55300 16.65400 42.80600
C  -16.47600 13.17000 41.60700
C  -16.74300 12.00200 42.54000
N  -11.37900 14.89300 41.88800
C  -11.99300 13.66200 42.27800
C  -10.93100 12.65500 42.46400
C  -9.79300 13.26000 42.01700
C  -10.08800 14.61800 41.63700
C  -11.21800 11.27400 42.98000
C  -8.44200 12.91000 41.73800
O  -7.81800 11.78400 41.80200
C  -7.74300 14.33100 41.35300
C  -6.95700 14.84700 42.55800
O  -7.14300 14.49700 43.75400
O  -5.93600 15.63400 42.13600
C  -4.91400 15.88600 43.14600
H  -10.41200 20.48400 39.89000
H  -16.33500 18.13800 40.70300
H  -13.79500 12.56800 42.56600
H  -6.97800 17.47300 40.96100
H  -8.29200 19.07900 38.86500
H  -8.35400 20.29000 41.39200
H  -7.59900 20.85000 39.98600
H  -6.77300 19.67000 41.17400
H  -7.51200 17.14300 38.01200
H  -7.62100 15.65900 38.80000
H  -5.44200 15.29600 39.09600
H  -5.14100 17.01200 39.59500
H  -13.19800 22.11200 38.48700
H  -11.57200 21.98700 39.18000
H  -12.92300 22.75600 40.11100
H  -17.03200 19.53600 38.79700
H  -17.94700 20.97300 39.19400
H  -17.46400 19.88800 40.51100
H  -17.00900 15.66100 40.92500
H  -15.88100 14.41500 43.47800
H  -17.26000 17.70200 42.86700
H  -17.57500 16.27100 43.82600
H  -18.53000 16.54400 42.33500
H  -15.63400 12.88500 40.97600
H  -17.30400 13.36900 40.92600
H  -17.00500 12.47100 43.48800
H  -15.90800 11.31900 42.69700
H  -17.61100 11.49000 42.12200
H  -11.72900 10.71200 42.19800
H  -11.87400 11.41300 43.83900
H  -10.29100 10.76700 43.24800
H  -7.09600 14.20400 40.48500
H  -4.63000 16.93300 43.03100
H  -3.98700 15.34800 42.94800
H  -5.18400 15.78700 44.19700
Mg -5.25800 25.06500 26.14100
C  -4.03300 26.54500 28.98300
C  -7.27700 23.08900 28.11600
C  -6.20700 23.61100 23.38900
C  -2.88000 27.13900 24.27400
N  -5.64600 24.85000 28.40500
C  -4.98700 25.53200 29.34100
C  -5.57100 25.19300 30.78700
C  -6.47300 23.90600 30.46500
C  -6.51000 23.99100 28.90800
C  -5.98300 22.53700 30.87200
C  -6.37400 26.41700 31.30300
C  -6.00200 26.90700 32.75500
H  -5.69400 25.94100 33.82800
N  -6.54100 23.53800 25.78200
C  -7.34200 22.91800 26.71500
C  -8.27200 22.00600 26.02700
C  -7.98000 22.10300 24.61700
C  -6.82100 23.11500 24.55200
C  -9.35600 21.19100 26.77100
C  -8.57300 21.39200 23.47700
O  -8.11200 21.50300 22.37700
C  -9.71100 20.34800 23.67000
N  -4.56500 25.29300 24.10500
C  -5.18000 24.55300 23.16700
C  -4.71400 24.95200 21.76400
C  -3.60400 26.10500 22.02100
C  -3.63100 26.20900 23.59200
C  -4.13700 23.73000 20.99400
C  -3.91700 27.41900 21.31900
C  -3.09800 27.89900 20.09500
N  -3.71700 26.54900 26.46700
C  -2.89900 27.28600 25.65700
C  -2.10600 28.26500 26.48000
C  -2.58100 27.98000 27.73400
C  -3.57300 27.00200 27.70900
C  -1.08600 29.24400 25.95300
C  -2.25700 28.23100 29.04500
O  -1.29700 28.97400 29.45000
C  -3.25900 27.40200 29.97800
C  -2.49200 26.57200 30.89500
O  -2.26100 25.39900 30.67900
O  -2.18600 27.32400 32.00300
C  -1.10900 26.71500 32.78000
H  -7.97400 22.53500 28.74800
H  -6.56000 23.28000 22.41100
H  -2.23700 27.88700 23.80500
H  -4.83000 24.98300 31.55900
H  -7.49300 24.06400 30.81700
H  -6.71500 22.13900 31.57400
H  -5.01300 22.60000 31.36400
H  -5.93200 21.92300 29.97300
H  -7.40500 26.06100 31.28600
H  -6.36000 27.30700 30.67500
H  -6.91900 27.40300 33.07400
H  -5.30800 27.73600 32.61500
H  -10.14500 21.89300 27.04000
H  -8.89600 20.80900 27.68300
H  -9.82400 20.32100 26.31100
H  -10.68900 20.71800 23.98000
H  -9.19600 19.57600 24.24100
H  -9.90500 20.11200 22.62400
H  -5.53200 25.42100 21.21700
H  -2.62800 25.73000 21.71300
H  -4.30100 23.64300 19.92000
H  -4.48900 22.81500 21.46900
H  -3.08900 23.70300 21.29400
H  -3.77600 28.22300 22.04200
H  -4.98300 27.40800 21.09100
H  -2.90600 28.97100 20.13400
H  -3.69400 27.69700 19.20500
H  -2.18800 27.31900 19.93800
H  -1.26500 30.24200 26.35400
H  -1.07200 29.32500 24.86600
H  -0.09700 28.86400 26.20900
H  -3.92800 28.15700 30.39100
H  -0.25300 26.74600 32.10500
H  -1.28500 25.64300 32.86600
H  -0.81400 27.16800 33.72600

