158

Mg -2.72800 17.44200 27.67800
C  -2.92100 15.38400 30.42100
C  -3.36400 20.08500 29.65000
C  -2.55400 19.33300 24.83200
C  -2.69100 14.56900 25.58500
N  -3.31200 17.62200 29.93600
C  -3.15600 16.70200 30.83300
C  -3.63900 17.28900 32.24300
C  -3.67800 18.81800 31.93600
C  -3.35900 18.87200 30.43400
C  -4.95400 19.53600 32.26600
C  -2.56900 17.06600 33.35500
C  -2.44100 18.04900 34.63100
H  -2.03700 17.33300 35.91600
N  -2.98700 19.43300 27.35500
C  -3.24300 20.34800 28.32600
C  -3.07900 21.64400 27.66100
C  -2.83900 21.50500 26.25200
C  -2.73700 20.02200 26.10200
C  -3.31500 22.82600 28.46300
C  -2.59500 22.47700 25.21400
O  -2.19200 22.19200 24.09200
C  -2.70000 23.94200 25.54700
N  -2.63500 17.05900 25.50700
C  -2.58800 17.96500 24.60400
C  -2.70200 17.41000 23.17000
C  -2.61200 15.90000 23.35000
C  -2.67600 15.80500 24.87000
C  -4.06100 17.72300 22.46900
C  -1.28200 15.30800 22.76200
C  0.09100 15.35900 23.58500
N  -2.78600 15.41500 27.95000
C  -2.72400 14.34000 26.97900
C  -2.64800 13.12900 27.71900
C  -2.82200 13.48400 29.00900
C  -2.85500 14.89100 29.14400
C  -2.63400 11.68500 27.17700
C  -3.01000 12.94500 30.35000
O  -3.15600 11.78500 30.68700
C  -2.98800 14.14400 31.32000
C  -1.76400 13.99700 32.14600
O  -0.71300 14.46300 31.86800
O  -2.09600 13.31700 33.27200
C  -1.11600 13.33800 34.30400
H  -3.42000 20.91600 30.35600
H  -2.65400 20.00400 23.97600
H  -2.77000 13.64900 25.00300
H  -4.61100 16.90300 32.55200
H  -2.84300 19.28700 32.45700
H  -4.80800 20.34500 32.98100
H  -5.47600 18.73100 32.78400
H  -5.47000 19.84400 31.35600
H  -1.62300 17.07800 32.81500
H  -2.70200 16.02100 33.63500
H  -3.40100 18.50100 34.88200
H  -1.53900 18.64300 34.48500
H  -2.70900 22.88100 29.36700
H  -4.39200 22.80900 28.62800
H  -3.00100 23.69000 27.87700
H  -1.81400 24.31900 26.05700
H  -3.72200 23.95800 25.92600
H  -2.72900 24.42000 24.56800
H  -1.92800 17.69200 22.45600
H  -3.52700 15.41000 23.01600
H  -4.54400 18.42800 23.14600
H  -4.79700 16.97200 22.18400
H  -3.84300 18.38400 21.63000
H  -1.02700 15.85300 21.85400
H  -1.40800 14.24700 22.54600
H  -0.04000 15.22800 24.65900
H  0.44200 16.37800 23.42000
H  0.79300 14.59700 23.24800
H  -1.74600 11.63800 26.54700
H  -3.57300 11.52200 26.64700
H  -2.71600 10.94400 27.97300
H  -3.88700 14.14200 31.93700
H  -0.98600 14.25200 34.88300
H  -0.17900 13.04600 33.83000
H  -1.34300 12.46800 34.92100
Mg 16.77500 51.84300 25.77800
C  18.72600 50.55600 28.36000
C  14.36500 52.47000 28.04600
C  14.97300 53.00800 23.14900
C  19.23400 50.64300 23.45300
N  16.47200 51.42200 27.93300
C  17.50600 51.11900 28.75300
C  17.07000 51.29400 30.21000
C  15.54100 51.56100 30.13200
C  15.42200 51.78700 28.63500
C  14.53200 50.50400 30.53200
C  17.94600 52.35600 30.92300
C  18.27500 52.22900 32.37500
H  17.24800 51.43600 33.22400
N  14.99800 52.76000 25.64400
C  14.09800 52.86700 26.67700
C  12.87500 53.60000 26.13100
C  13.04900 53.79200 24.66700
C  14.40600 53.20200 24.41700
C  11.70500 53.95700 26.96400
C  12.17900 54.45900 23.68700
O  12.50100 54.68500 22.52000
C  10.86900 55.11600 24.10000
N  17.05100 51.76900 23.65500
C  16.15100 52.36100 22.75500
C  16.61400 52.30200 21.31000
C  18.02900 51.69100 21.49800
C  18.15000 51.36300 22.94500
C  15.75300 51.28200 20.41300
C  19.12100 52.51900 20.79500
C  19.86800 51.90000 19.57600
N  18.61100 50.72300 25.86800
C  19.42600 50.29500 24.86900
C  20.57800 49.67300 25.49300
C  20.32400 49.61000 26.86100
C  19.10500 50.40400 27.01600
C  21.94500 49.31000 24.78100
C  20.78500 49.17600 28.19000
O  21.74000 48.51700 28.51600
C  19.81200 49.78700 29.18500
C  19.26300 48.75800 30.02900
O  18.34200 48.02100 29.76600
O  19.96800 48.71800 31.20700
C  19.31800 47.85800 32.18000
H  13.61600 52.88800 28.72200
H  14.49300 53.42600 22.26100
H  19.88500 50.32500 22.63700
H  17.33200 50.35600 30.69800
H  15.35100 52.53400 30.58400
H  13.82200 51.06200 31.14300
H  14.97300 49.79300 31.23100
H  14.06400 50.01500 29.67700
H  17.59400 53.38800 30.91600
H  18.89200 52.34500 30.38200
H  18.40600 53.19800 32.85700
H  19.20500 51.66100 32.40200
H  10.89200 53.27100 26.72600
H  11.48100 55.00300 26.75800
H  11.94300 53.95200 28.02800
H  10.98000 56.05000 24.65000
H  10.12800 54.43800 24.52200
H  10.37800 55.33800 23.15300
H  16.59900 53.34400 20.99000
H  18.15800 50.76100 20.94400
H  14.84800 50.87200 20.86300
H  16.35000 50.40300 20.17200
H  15.54500 51.86200 19.51400
H  19.66000 52.95800 21.63400
H  18.68600 53.40600 20.33500
H  19.24000 51.14700 19.10000
H  20.81500 51.43300 19.84600
H  20.15200 52.67400 18.86300
H  22.12700 49.72200 23.78800
H  22.11200 48.24200 24.91700
H  22.66700 49.88600 25.36000
H  20.38300 50.50000 29.78000
H  19.28200 46.79700 31.92900
H  18.28900 48.11700 32.43000
H  19.90400 47.80900 33.09800

