158

Mg 35.28900 2.39900 30.42100
C  33.17900 3.70300 32.77500
C  37.76800 2.09800 32.82800
C  37.61200 1.57800 27.96900
C  33.09000 3.16600 27.99300
N  35.34600 2.81800 32.57700
C  34.34000 3.23200 33.38700
C  34.74500 3.38300 34.93400
C  36.27700 3.06600 34.82600
C  36.53300 2.65400 33.27000
C  37.22400 4.28500 35.27600
C  33.91600 2.40300 35.78000
C  33.55300 2.91900 37.22700
H  34.42200 4.08200 37.80000
N  37.34300 1.84900 30.40800
C  38.12200 1.67800 31.55100
C  39.42200 1.08500 31.13100
C  39.31000 0.80600 29.72200
C  38.03300 1.40600 29.28400
C  40.49300 0.79400 32.21100
C  40.32400 0.08500 28.89900
O  40.17900 -0.14900 27.73600
C  41.63500 -0.36000 29.55300
N  35.35000 2.41400 28.27500
C  36.41500 2.04300 27.50500
C  36.11700 2.30900 26.06800
C  34.64000 2.73000 26.03200
C  34.31000 2.71500 27.51200
C  37.10200 3.26300 25.40600
C  33.71200 1.94100 25.09300
C  33.42200 0.51500 25.50100
N  33.42800 3.19800 30.34200
C  32.56600 3.47400 29.29300
C  31.22800 3.84300 29.77400
C  31.39900 3.96600 31.16400
C  32.74600 3.61800 31.38900
C  30.07500 4.09800 28.90200
C  30.80500 4.34800 32.39300
O  29.70800 4.78200 32.67000
C  31.94500 4.15600 33.44300
C  32.23100 5.45100 34.20000
O  32.68500 6.50900 33.74600
O  31.74200 5.37400 35.48600
C  31.76800 6.54000 36.33300
H  38.53200 2.12700 33.60800
H  38.33800 1.31400 27.19800
H  32.37100 3.25500 27.17600
H  34.65600 4.42800 35.23000
H  36.61800 2.17600 35.35500
H  37.93800 4.51000 34.48400
H  37.80600 3.99300 36.15000
H  36.66000 5.19700 35.47500
H  34.42500 1.44700 35.90000
H  32.96500 2.30200 35.25800
H  33.72800 2.02600 37.82600
H  32.54000 3.32200 37.23200
H  41.47300 1.21500 31.98500
H  40.54900 -0.29100 32.30400
H  40.25300 1.04700 33.24400
H  41.37600 -1.10700 30.30300
H  42.29100 0.44300 29.89100
H  42.09300 -1.00700 28.80500
H  36.28300 1.32700 25.62300
H  34.49900 3.75300 25.68200
H  37.62600 2.64400 24.67800
H  37.88000 3.76700 25.98000
H  36.55400 4.10300 24.98000
H  34.24000 1.99600 24.14100
H  32.76000 2.46500 25.00600
H  33.79200 -0.18200 24.74900
H  32.34900 0.35000 25.59700
H  33.86000 0.17600 26.43900
H  29.51000 4.99300 29.16500
H  29.37200 3.29600 29.12500
H  30.36300 4.10200 27.85100
H  31.55700 3.40100 34.12600
H  30.90400 7.08900 35.95800
H  32.65800 7.14800 36.17000
H  31.61000 6.39200 37.40200
Mg -12.33900 16.96200 40.08300
C  -8.69000 15.98300 39.94800
C  -11.11500 20.25800 39.69600
C  -15.32500 17.69300 39.47800
C  -12.98500 13.46300 39.76200
N  -10.16400 18.02000 39.78400
C  -8.94100 17.42900 39.78700
C  -7.86600 18.40000 39.55300
C  -8.57200 19.80000 39.86900
C  -10.04300 19.35600 39.75000
C  -8.23100 20.61200 41.06300
C  -7.12500 18.26900 38.13100
C  -5.67600 17.83900 38.30200
H  -4.99400 16.95700 37.25800
N  -13.13100 18.74400 39.75300
C  -12.53800 19.94800 39.59700
C  -13.54600 20.87000 39.27300
C  -14.81700 20.22700 39.30000
C  -14.51300 18.78200 39.51900
C  -13.28200 22.34800 39.08900
C  -16.18400 20.88900 39.08400
O  -16.24300 22.12700 38.91900
C  -17.39200 20.10500 39.03100
N  -13.89600 15.71500 39.73100
C  -15.06100 16.25500 39.41200
C  -16.21200 15.20600 39.13300
C  -15.34400 13.90500 38.95400
C  -13.98700 14.38200 39.57000
C  -17.40700 15.04200 40.25900
C  -15.10500 13.42800 37.49800
C  -15.01700 11.88500 37.35500
N  -11.18400 15.04800 40.01900
C  -11.65100 13.73200 39.91100
C  -10.47700 12.87400 39.82000
C  -9.34500 13.72400 39.97700
C  -9.79600 15.07700 39.97600
C  -10.49300 11.39100 39.55200
C  -7.87400 13.73500 39.89600
O  -7.09200 12.78300 39.72400
C  -7.45100 15.16800 39.93300
C  -6.61900 15.33300 41.11800
O  -6.82100 16.02000 42.11700
O  -5.40500 14.69500 40.92200
C  -4.47000 14.65200 42.03100
H  -10.84600 21.31500 39.75500
H  -16.32100 17.92800 39.09700
H  -13.25100 12.40400 39.74900
H  -7.18100 18.19600 40.37600
H  -8.29900 20.48000 39.06200
H  -7.70300 21.52200 40.77800
H  -7.47900 20.04100 41.60700
H  -9.13800 20.72300 41.65700
H  -7.10100 19.29500 37.76400
H  -7.61100 17.65100 37.37600
H  -5.54600 17.42300 39.30200
H  -5.18400 18.81100 38.27500
H  -13.79000 22.71900 38.19900
H  -12.21400 22.53900 38.98700
H  -13.63200 22.92000 39.94800
H  -17.41600 19.69900 38.01900
H  -18.25200 20.74200 39.23800
H  -17.37000 19.39700 39.85900
H  -16.77700 15.38300 38.21700
H  -15.62000 13.19400 39.73400
H  -18.27500 15.61800 39.93700
H  -17.10900 15.34400 41.26400
H  -17.93400 14.09000 40.18600
H  -14.17500 13.78300 37.05500
H  -15.93300 13.70700 36.84600
H  -15.93500 11.62400 36.82800
H  -15.13100 11.47500 38.35800
H  -14.04900 11.53500 36.99600
H  -10.06200 11.11200 38.59000
H  -11.53100 11.05900 39.54800
H  -9.94100 10.95000 40.38300
H  -6.81600 15.50200 39.11300
H  -3.83700 13.76500 42.03700
H  -4.99100 14.69900 42.98800
H  -3.87000 15.54600 41.86000

