158

Mg 29.61100 57.81700 40.80300
C  26.90600 55.79100 40.03000
C  31.64200 55.14900 39.91400
C  32.15200 59.97300 40.97100
C  27.41100 60.47600 41.54200
N  29.27000 55.68800 39.97200
C  28.10500 55.03100 39.82400
C  28.30800 53.54200 39.43300
C  29.81500 53.39200 39.69000
C  30.29000 54.78900 39.86800
C  30.14600 52.38800 40.84400
C  27.81400 53.11300 37.97100
C  28.19400 53.90800 36.75900
H  27.24900 54.83500 36.09600
N  31.64800 57.58800 40.44600
C  32.32600 56.42500 40.11100
C  33.73400 56.71500 39.93200
C  33.87400 58.12300 40.14200
C  32.54700 58.60300 40.55500
C  34.70400 55.71400 39.44400
C  35.13200 58.82000 39.85900
O  36.19700 58.15600 39.55200
C  35.22600 60.33900 39.90200
N  29.72000 59.99300 41.14000
C  30.91500 60.55500 41.34500
C  30.71700 61.98700 41.75400
C  29.25100 62.05900 42.19600
C  28.74700 60.77300 41.63100
C  31.76600 62.51300 42.77000
C  28.53900 63.42100 41.95300
C  27.96600 64.17100 43.14900
N  27.62300 58.11400 40.80200
C  26.86100 59.27400 41.08400
C  25.41600 58.95100 40.99300
C  25.44600 57.57000 40.64700
C  26.75500 57.11600 40.45300
C  24.15700 59.87400 41.34000
C  24.53200 56.40400 40.28200
O  23.30300 56.24300 40.26200
C  25.49900 55.25000 40.03800
C  25.28000 54.08900 40.96700
O  25.44500 54.03800 42.19700
O  24.72400 53.00500 40.26400
C  24.24200 51.91600 41.13000
H  32.37900 54.36900 39.71500
H  32.84400 60.81700 41.00000
H  26.65000 61.12900 41.97400
H  27.82900 52.99500 40.24500
H  30.17300 52.92500 38.77300
H  29.34100 51.71800 41.14600
H  30.40800 53.02600 41.68800
H  31.02400 51.88100 40.44300
H  26.73600 53.03900 38.11400
H  28.26200 52.12900 37.83300
H  28.78400 53.31100 36.06300
H  28.80200 54.74200 37.10900
H  35.73100 55.74700 39.80900
H  34.82000 55.89500 38.37500
H  34.35800 54.68500 39.53800
H  34.33200 60.77600 39.45800
H  36.00600 60.68100 39.22200
H  35.40300 60.65000 40.93200
H  30.78800 62.58900 40.84800
H  29.24800 61.87700 43.27100
H  32.44200 61.67800 42.95800
H  31.37200 62.92700 43.69900
H  32.26300 63.23600 42.12400
H  27.77900 63.17300 41.21100
H  29.29300 64.05800 41.49000
H  28.33500 65.19600 43.15000
H  28.28700 63.75100 44.10200
H  26.88200 64.18600 43.27000
H  23.20500 59.54500 40.92400
H  24.34200 60.90600 41.04300
H  24.07200 59.81100 42.42500
H  25.15800 54.83700 39.08900
H  24.34900 51.00400 40.54200
H  23.19000 52.14700 41.29800
H  24.77300 51.88300 42.08100
Mg -11.96600 16.65700 42.06200
C  -8.83100 15.06900 41.50000
C  -10.70600 19.44700 40.66000
C  -15.05400 17.84000 42.04000
C  -13.17600 13.41600 43.04800
N  -9.99000 17.15900 41.01100
C  -8.86400 16.38400 41.05300
C  -7.68100 17.23300 40.51800
C  -8.23600 18.71400 40.62400
C  -9.72500 18.40700 40.78400
C  -7.55700 19.66300 41.72000
C  -7.18100 16.82700 39.12300
C  -5.69000 17.34700 38.88900
H  -5.63000 18.16600 37.64100
N  -12.75200 18.39300 41.52200
C  -12.05200 19.44900 40.99200
C  -12.80200 20.60400 40.88800
C  -14.11100 20.20900 41.38500
C  -14.00300 18.78600 41.66100
C  -12.19900 22.03500 40.55400
C  -15.31500 21.06300 41.50800
O  -15.23800 22.22000 41.18900
C  -16.63400 20.73300 42.03900
N  -13.85700 15.68800 42.49000
C  -14.96200 16.44700 42.39500
C  -16.26000 15.67200 42.73400
C  -15.60100 14.29900 43.32500
C  -14.14000 14.42400 42.93200
C  -17.33200 16.27700 43.69400
C  -16.16100 13.01400 42.68900
C  -16.29800 11.83600 43.67800
N  -11.28700 14.65500 42.25400
C  -11.82000 13.42900 42.68300
C  -10.79400 12.42800 42.73800
C  -9.64200 13.06200 42.26000
C  -9.98700 14.35500 42.00400
C  -10.87900 11.03900 43.30200
C  -8.24300 12.87600 42.07000
O  -7.54400 11.85700 42.08800
C  -7.66300 14.16700 41.48500
C  -6.48600 14.55200 42.40900
O  -6.55600 14.62700 43.64500
O  -5.32100 14.74400 41.64300
C  -4.07800 15.02500 42.36500
H  -10.21600 20.39700 40.43300
H  -16.07500 18.19100 41.87900
H  -13.53300 12.48600 43.49600
H  -6.90100 17.05900 41.26000
H  -8.22700 19.18600 39.64200
H  -8.36600 19.91700 42.40400
H  -7.28300 20.60100 41.23600
H  -6.63700 19.25400 42.13900
H  -7.73700 17.44300 38.41600
H  -7.27900 15.75300 38.97000
H  -5.05300 16.46700 38.80100
H  -5.29800 17.91300 39.73400
H  -12.21400 22.41100 39.53000
H  -11.19300 22.07300 40.97300
H  -12.79500 22.72400 41.15100
H  -17.21600 21.59900 42.35400
H  -16.60100 20.10200 42.92700
H  -17.22700 20.22200 41.28100
H  -16.68400 15.47900 41.74800
H  -15.69400 14.32400 44.41000
H  -17.17200 17.33800 43.88600
H  -17.52400 15.74200 44.62400
H  -18.23700 16.15600 43.09900
H  -15.54300 12.77100 41.82500
H  -17.14800 13.22700 42.27800
H  -16.33900 12.08400 44.73800
H  -15.60300 11.00200 43.58000
H  -17.30800 11.45700 43.51800
H  -11.44800 10.35500 42.67300
H  -11.39400 11.16000 44.25500
H  -9.87000 10.69400 43.52800
H  -7.30500 14.06400 40.46100
H  -3.85200 14.06900 42.83800
H  -4.22000 15.78900 43.12900
H  -3.17000 15.31600 41.83700

