158

Mg 42.75600 3.32300 46.19000
C  40.91000 6.27200 46.49400
C  39.92700 1.61100 46.27000
C  44.55800 0.70100 45.18900
C  45.54900 5.43500 45.61200
N  40.64200 3.94100 46.30600
C  40.12100 5.18400 46.57000
C  38.56500 5.08200 46.88900
C  38.40500 3.54500 46.97600
C  39.73600 2.98000 46.47800
C  37.97000 3.05100 48.35100
C  37.63000 5.85500 45.81500
C  38.02400 5.53900 44.45500
H  38.44200 6.56400 43.40400
N  42.30200 1.38000 45.92500
C  41.05000 0.89200 46.07600
C  41.07500 -0.53000 45.78800
C  42.36100 -0.78100 45.18500
C  43.14600 0.45000 45.43700
C  39.92600 -1.43500 46.03700
C  42.81700 -2.06000 44.56100
O  41.92200 -2.92300 44.51800
C  44.13200 -2.17800 43.79500
N  44.72400 3.11300 45.10900
C  45.28100 1.91800 45.11000
C  46.80700 2.06400 45.05300
C  47.05700 3.57900 44.90000
C  45.66800 4.12800 45.14900
C  47.64900 1.30400 46.20300
C  47.46200 4.00500 43.40500
C  48.86600 4.00700 43.04200
N  43.20700 5.40200 45.99900
C  44.37400 6.09200 45.93300
C  44.14800 7.52200 46.16100
C  42.81300 7.60500 46.33800
C  42.27400 6.32200 46.21800
C  45.13500 8.58500 46.07600
C  41.77200 8.51500 46.69000
O  41.78600 9.70300 46.95500
C  40.51100 7.71700 46.74600
C  39.86300 7.88300 48.10200
O  40.27100 7.74700 49.24100
O  38.56600 8.28700 47.81400
C  37.64900 8.41800 48.90700
H  39.02600 0.99400 46.28400
H  45.31500 -0.07400 45.04900
H  46.40500 6.11200 45.63900
H  38.42300 5.63300 47.81900
H  37.64200 3.33400 46.22700
H  37.15800 2.32900 48.26600
H  37.66700 3.94200 48.90100
H  38.74500 2.47900 48.86100
H  37.68700 6.94200 45.88700
H  36.57400 5.65600 46.00000
H  37.04000 5.26400 44.07400
H  38.52900 4.59500 44.25400
H  39.26400 -1.14800 46.85400
H  40.08600 -2.50600 46.16600
H  39.44900 -1.31900 45.06400
H  44.84000 -2.36500 44.60300
H  44.25500 -1.18400 43.36600
H  44.06700 -2.95600 43.03500
H  47.01900 1.65000 44.06700
H  47.68000 4.03200 45.67100
H  47.14900 0.96300 47.11000
H  48.32500 2.05400 46.61300
H  48.15900 0.40400 45.85900
H  47.13800 5.03600 43.26700
H  46.95100 3.36300 42.68700
H  49.32800 3.46900 43.87000
H  49.17100 5.05300 43.06600
H  49.12600 3.43600 42.15100
H  44.76500 9.22000 45.27100
H  46.05000 8.19700 45.62900
H  45.20300 9.12000 47.02300
H  39.84500 7.98200 45.92500
H  38.04300 8.97800 49.75600
H  37.38900 7.43300 49.29300
H  36.79600 8.91100 48.44200
Mg 47.18900 16.16200 27.95000
C  45.25800 15.82600 30.97900
C  49.32600 18.13900 29.85000
C  48.39500 17.41000 25.17800
C  44.41200 14.79600 26.28200
N  47.31900 16.87600 30.22400
C  46.47300 16.54900 31.21500
C  47.01700 17.02700 32.56800
C  48.30000 17.83300 32.16700
C  48.38200 17.52400 30.63800
C  48.18800 19.38000 32.44300
C  47.45000 15.90800 33.53800
C  46.75200 16.01000 34.93700
H  46.33800 17.46000 35.46200
N  48.75800 17.52400 27.50500
C  49.47100 18.21200 28.45400
C  50.56100 18.93800 27.78400
C  50.30700 18.77900 26.37300
C  49.11300 17.84000 26.30000
C  51.79500 19.56900 28.43800
C  50.97300 19.39900 25.13400
O  50.82200 18.99000 24.02700
C  51.89600 20.57600 25.28600
N  46.58600 16.02800 26.08400
C  47.28500 16.55500 25.08000
C  46.66600 16.15000 23.69100
C  45.68900 15.01100 24.10600
C  45.50500 15.29200 25.59800
C  46.09200 17.43500 22.95100
C  46.12200 13.53900 23.85200
C  47.45700 13.16200 24.39000
N  45.30100 15.38600 28.46800
C  44.24100 14.84000 27.67000
C  43.08900 14.51900 28.44900
C  43.46000 14.87400 29.73500
C  44.78000 15.34800 29.72300
C  41.90100 13.98600 27.90600
C  43.03700 14.80700 31.14400
O  41.96900 14.37300 31.55700
C  44.16700 15.48900 31.97000
C  43.57100 16.59800 32.69400
O  43.82800 17.76400 32.54200
O  42.76400 16.16800 33.71100
C  41.98300 17.14700 34.47000
H  49.97000 18.83400 30.39200
H  48.67600 17.81700 24.20400
H  43.61200 14.39000 25.66000
H  46.21900 17.65800 32.96000
H  49.26000 17.51900 32.57600
H  47.39600 19.51600 33.17900
H  47.77300 19.80300 31.52800
H  49.17000 19.81800 32.62500
H  48.50900 15.87700 33.79400
H  47.20100 14.93500 33.11400
H  47.34500 15.45200 35.66200
H  45.78600 15.50700 34.92200
H  51.69800 19.48400 29.52000
H  51.74600 20.63500 28.21500
H  52.75800 19.22700 28.06100
H  51.51100 21.23000 26.06800
H  51.87200 21.13900 24.35300
H  52.93900 20.28300 25.40800
H  47.44300 15.73700 23.04800
H  44.72200 15.13500 23.61800
H  46.91700 17.97300 22.48300
H  45.48300 17.98700 23.66600
H  45.35700 17.11800 22.21200
H  46.09200 13.29200 22.79100
H  45.34100 12.91100 24.28100
H  48.11300 12.81900 23.59000
H  47.36100 12.25900 24.99300
H  47.91900 13.95000 24.98500
H  41.48900 14.55000 27.07000
H  41.10600 14.06900 28.64600
H  42.07600 12.95400 27.60000
H  44.33200 14.60300 32.58300
H  41.43300 17.75300 33.75000
H  42.62900 17.67200 35.17300
H  41.32800 16.47400 35.02500

