158

Mg 2.10200 -2.21700 43.89000
C  5.43800 -1.24900 43.34900
C  1.17300 0.66100 41.97200
C  -1.13600 -3.31300 43.66400
C  3.11300 -5.27300 44.91000
N  3.20500 -0.53900 42.63200
C  4.56300 -0.31700 42.74000
C  4.94100 0.96500 41.99900
C  3.57600 1.60300 42.00400
C  2.55600 0.50900 42.12700
C  3.38300 2.78600 42.94800
C  5.54500 0.58800 40.57200
C  6.37500 1.63800 39.84600
H  5.82200 2.23700 38.52800
N  0.32600 -1.37700 43.01600
C  0.12800 -0.17800 42.31900
C  -1.23800 -0.01400 41.94700
C  -1.94500 -1.03400 42.69900
C  -0.89300 -1.97200 43.18000
C  -1.87500 1.20000 41.23600
C  -3.49900 -1.22100 42.89600
O  -4.26700 -0.50400 42.25800
C  -4.07400 -2.14700 43.90300
N  1.20100 -4.11000 44.16600
C  -0.19000 -4.30300 44.10300
C  -0.55600 -5.74800 44.49100
C  0.78100 -6.26000 45.07300
C  1.80200 -5.17100 44.70000
C  -1.60500 -5.91300 45.60900
C  1.17400 -7.73700 44.71200
C  1.75500 -8.61900 45.85300
N  3.91100 -3.10800 44.23500
C  4.20700 -4.37500 44.66100
C  5.58800 -4.58700 44.80100
C  6.14900 -3.33600 44.29300
C  5.05200 -2.49700 44.00200
C  6.26400 -5.74700 45.45300
C  7.36300 -2.58400 43.95600
O  8.51400 -2.93600 43.94100
C  6.89300 -1.16400 43.50400
C  7.17200 -0.23200 44.62700
O  6.84200 -0.41300 45.81300
O  7.84900 0.87900 44.14700
C  8.16500 1.89500 45.17700
H  0.93800 1.64300 41.55600
H  -2.17300 -3.61000 43.49100
H  3.51200 -6.16800 45.39100
H  5.72000 1.52500 42.51600
H  3.39300 2.04000 41.02200
H  2.36200 2.64400 43.30300
H  3.58400 3.72200 42.42800
H  4.09200 2.90400 43.76700
H  4.64200 0.35900 40.00600
H  6.03800 -0.37600 40.69800
H  7.36600 1.20400 39.71300
H  6.51500 2.48200 40.52000
H  -1.15700 1.48600 40.46700
H  -1.96400 2.09000 41.86000
H  -2.80300 0.91700 40.74000
H  -4.30400 -3.14800 43.53900
H  -5.04400 -1.77300 44.23300
H  -3.39700 -2.22100 44.75300
H  -0.82500 -6.34400 43.61900
H  0.82800 -6.16300 46.15700
H  -2.31800 -5.12600 45.36500
H  -1.15100 -5.70300 46.57800
H  -2.07000 -6.89900 45.60100
H  1.89200 -7.63800 43.89800
H  0.25300 -8.28800 44.52300
H  1.01500 -9.37800 46.10600
H  1.98500 -7.98900 46.71200
H  2.67300 -9.08600 45.49600
H  6.37300 -6.50800 44.68000
H  5.72400 -6.14400 46.31300
H  7.26300 -5.39200 45.70900
H  7.42500 -0.73800 42.65400
H  7.56500 1.83700 46.08500
H  7.74000 2.79100 44.72500
H  9.24800 1.91800 45.29900
Mg 0.29200 7.99700 25.46300
C  0.86800 9.76100 28.45000
C  0.13500 5.11800 27.42200
C  -0.12100 6.22500 22.68200
C  0.82800 10.87100 23.60100
N  0.39200 7.51300 27.68000
C  0.48500 8.43700 28.67800
C  0.43900 7.83100 30.03200
C  0.36600 6.26200 29.75200
C  0.27100 6.26500 28.24500
C  1.46900 5.28800 30.37400
C  -0.70300 8.41500 30.86300
C  -0.53500 8.17400 32.40700
H  -0.53400 6.66100 32.80400
N  0.04200 5.97500 25.07600
C  0.07400 4.94800 25.99100
C  0.03600 3.61900 25.25400
C  -0.02800 3.97300 23.84000
C  -0.00600 5.48300 23.84300
C  0.27300 2.24000 25.90100
C  -0.10400 3.03000 22.61600
O  -0.05400 3.45800 21.44900
C  -0.12900 1.55300 22.82900
N  0.34300 8.49700 23.40200
C  0.06600 7.57200 22.45700
C  -0.10200 8.22700 21.06600
C  0.03500 9.79400 21.45700
C  0.46700 9.71600 22.88500
C  0.93300 7.75100 19.95100
C  -1.24100 10.67500 21.23400
C  -2.18500 10.98800 22.41200
N  0.81100 9.86300 25.86600
C  1.00000 10.94800 25.01700
C  1.42800 12.02200 25.75800
C  1.43200 11.66900 27.13900
C  0.99700 10.27000 27.12800
C  1.64300 13.51800 25.23600
C  1.64200 12.14100 28.54000
O  2.14600 13.16500 28.92600
C  1.14100 10.88400 29.42200
C  2.22400 10.46800 30.32400
O  3.24600 9.89600 30.03500
O  1.89200 10.89900 31.59500
C  2.86600 10.49400 32.64500
H  0.25000 4.26300 28.09200
H  -0.19600 5.71000 21.72100
H  0.97600 11.74500 22.96300
H  1.41000 7.98500 30.50200
H  -0.59700 5.82400 30.01300
H  1.01400 4.52900 31.01000
H  2.14100 5.87700 30.99900
H  2.04900 4.87400 29.54900
H  -1.60000 7.84600 30.62100
H  -0.75200 9.50000 30.77100
H  -1.26400 8.73500 32.99200
H  0.32100 8.68200 32.85200
H  -0.69200 1.78900 25.66800
H  0.36700 2.27000 26.98700
H  1.14700 1.70200 25.53300
H  -1.09400 1.43500 23.32200
H  0.74000 1.25800 23.41600
H  -0.04900 1.07800 21.85200
H  -1.09100 7.94600 20.70400
H  0.87600 10.25000 20.93500
H  1.21900 8.57900 19.30200
H  0.56700 6.93600 19.32600
H  1.79100 7.28300 20.43400
H  -1.81800 10.18300 20.45100
H  -0.89200 11.62500 20.83000
H  -1.72600 10.58900 23.31700
H  -3.06200 10.37800 22.19600
H  -2.42700 12.03500 22.59800
H  1.13500 13.64900 24.28100
H  2.68100 13.81400 25.38700
H  1.18900 14.21700 25.93800
H  0.24500 11.17100 29.97300
H  3.50100 11.25500 33.10000
H  3.50700 9.63700 32.43500
H  2.23900 10.23200 33.49700

