158

Mg 1.01000 7.99300 26.59700
C  1.68200 10.13000 29.38800
C  1.57100 5.38700 28.67200
C  0.85600 6.07000 23.82300
C  0.89700 10.87900 24.59600
N  1.48600 7.84800 28.76900
C  1.69300 8.79700 29.73700
C  1.80500 8.33500 31.12500
C  2.03500 6.79300 30.76500
C  1.68500 6.62900 29.29800
C  3.55400 6.16000 30.97900
C  0.60200 8.54000 31.96100
C  0.69000 8.38500 33.54300
H  1.94000 7.77500 34.23000
N  1.06900 5.99700 26.36500
C  1.35100 5.09300 27.30100
C  1.41200 3.78500 26.63300
C  1.09800 3.91000 25.31100
C  0.97300 5.44300 25.07800
C  1.82300 2.58800 27.42400
C  0.85600 2.87000 24.18100
O  0.29000 3.22400 23.17900
C  1.18800 1.41500 24.33400
N  0.74300 8.38000 24.52000
C  0.74900 7.41800 23.53400
C  0.49500 8.00700 22.15800
C  0.46300 9.57500 22.49000
C  0.55400 9.64800 24.04000
C  1.38600 7.58300 21.05100
C  -0.76500 10.34000 21.98000
C  -0.50100 11.70500 21.27800
N  1.19400 10.09500 26.85500
C  1.13500 11.13000 25.95800
C  1.41600 12.40600 26.63100
C  1.61200 12.02400 27.98400
C  1.41500 10.64600 28.09600
C  1.52700 13.64700 25.96800
C  1.87700 12.57000 29.26900
O  2.14900 13.70900 29.60800
C  1.79300 11.36600 30.28500
C  2.97300 11.48300 31.21900
O  4.07900 11.00400 31.00900
O  2.50400 12.20800 32.29900
C  3.43400 12.22500 33.37000
H  1.64100 4.57900 29.40300
H  0.77300 5.59800 22.84200
H  0.89800 11.76600 23.95900
H  2.60100 8.94300 31.55400
H  1.39000 6.33400 31.51400
H  4.26700 6.91000 31.32000
H  3.97000 5.67800 30.09400
H  3.57000 5.48200 31.83300
H  -0.14500 7.83000 31.60700
H  0.21400 9.53000 31.71900
H  -0.18100 7.78700 33.81200
H  0.48300 9.37600 33.94700
H  2.60800 2.70900 28.17100
H  2.16200 1.80300 26.74700
H  0.96900 2.22900 27.99700
H  0.66000 1.03000 25.20600
H  2.25800 1.54800 24.49500
H  1.07200 0.83900 23.41600
H  -0.50100 7.74300 21.80100
H  1.34000 9.92100 21.94200
H  0.81800 6.74700 20.64100
H  2.39500 7.27400 21.32200
H  1.52500 8.33400 20.27400
H  -1.43400 10.51600 22.82200
H  -1.31500 9.83000 21.18900
H  -0.65600 12.58000 21.90900
H  -1.17600 11.83300 20.43200
H  0.57300 11.78600 21.10600
H  1.06900 14.53200 26.41000
H  1.30900 13.58300 24.90200
H  2.53600 14.04400 26.07700
H  0.87300 11.51200 30.85100
H  3.21900 13.01700 34.08800
H  4.47800 12.25300 33.05900
H  3.37200 11.25700 33.86700
Mg 46.48000 44.45300 43.56900
C  42.92700 44.08900 43.60800
C  46.77900 41.17300 42.73900
C  49.64600 45.14100 43.08800
C  45.75800 48.06000 43.57200
N  44.94600 42.78100 43.33800
C  43.56900 42.93200 43.30400
C  42.98700 41.48900 42.94700
C  44.20700 40.68200 42.53300
C  45.42100 41.59000 42.88300
C  44.29900 39.30600 43.16900
C  41.84600 41.45100 41.87300
C  42.08700 41.98400 40.40000
H  41.69900 41.17500 39.06200
N  48.01300 43.26000 43.10000
C  47.97600 41.91200 42.89900
C  49.30600 41.42800 42.79500
C  50.17700 42.52200 43.18900
C  49.33000 43.72400 43.18100
C  49.62400 39.94000 42.58800
C  51.69800 42.51100 43.54900
O  52.43100 41.48300 43.42000
C  52.47900 43.68000 44.19300
N  47.48900 46.29200 43.21100
C  48.84500 46.28400 43.09200
C  49.42100 47.78800 42.90100
C  48.11200 48.69400 42.90700
C  47.04700 47.62700 43.19700
C  50.48600 48.32000 43.97700
C  47.82100 49.57800 41.65900
C  47.37600 50.94400 41.93100
N  44.74400 45.85700 43.78200
C  44.65100 47.22900 43.78500
C  43.33300 47.62600 44.04500
C  42.56200 46.40300 44.00600
C  43.51100 45.34700 43.75500
C  42.78800 49.00600 44.28300
C  41.25300 45.87500 44.08200
O  40.15500 46.42200 44.24500
C  41.40300 44.29700 43.74700
C  40.78800 43.50300 44.85800
O  39.99300 42.55600 44.70200
O  41.22600 43.92900 46.05900
C  40.77700 43.18800 47.22100
H  46.81900 40.22700 42.19500
H  50.72200 45.31600 43.01100
H  45.46200 49.11100 43.57900
H  42.62800 41.06600 43.88500
H  44.23900 40.59500 41.44700
H  44.91500 39.31600 44.06800
H  44.62300 38.56200 42.44100
H  43.32400 38.95100 43.50200
H  40.99600 42.07600 42.14800
H  41.60000 40.39700 41.74700
H  43.15800 42.17200 40.32600
H  41.57400 42.94200 40.31500
H  49.83600 39.76700 41.53300
H  48.87800 39.25300 42.98600
H  50.46600 39.55500 43.16300
H  51.99600 43.95400 45.13100
H  52.48500 44.46100 43.43200
H  53.52200 43.37500 44.28000
H  49.89100 47.75800 41.91800
H  48.07900 49.38200 43.75200
H  50.57500 47.57300 44.76500
H  50.30100 49.27700 44.46500
H  51.50000 48.32100 43.57600
H  47.10300 49.06500 41.01900
H  48.63900 49.73900 40.95700
H  46.70900 51.18800 41.10400
H  48.28500 51.54500 41.90100
H  46.91100 51.02700 42.91300
H  41.89000 48.85700 44.88200
H  42.41400 49.38000 43.33000
H  43.53700 49.59400 44.81300
H  40.88600 44.14500 42.79900
H  41.54300 43.10400 47.99300
H  40.51000 42.15900 46.98000
H  39.92000 43.76600 47.56800

