158

Mg 2.01400 8.46800 27.25800
C  2.50400 10.55500 30.19300
C  1.92100 5.83900 29.62300
C  1.90800 6.37400 24.78400
C  2.64300 11.12600 25.26200
N  2.03400 8.23200 29.68700
C  2.13500 9.29400 30.60100
C  1.84800 8.80500 32.03200
C  1.76300 7.20000 31.83900
C  1.88600 7.06400 30.34300
C  2.92700 6.45700 32.62500
C  0.49900 9.39000 32.62600
C  0.27700 9.00500 34.05900
H  1.38800 8.48800 35.00600
N  1.93400 6.47500 27.18500
C  1.90400 5.55900 28.23200
C  1.71500 4.23300 27.75300
C  1.63900 4.34200 26.29400
C  1.89800 5.75200 26.02100
C  1.47600 2.99900 28.57500
C  1.44000 3.30100 25.20000
O  1.31000 3.58800 24.01700
C  1.21800 1.84700 25.56100
N  2.42200 8.67900 25.36000
C  2.20300 7.69300 24.47900
C  2.06900 8.24000 23.08500
C  1.96400 9.79300 23.24100
C  2.37200 9.85500 24.72200
C  3.37200 7.88300 22.27600
C  0.64600 10.46300 22.82600
C  0.81800 11.56900 21.78200
N  2.47500 10.45300 27.60300
C  2.77900 11.40100 26.62600
C  3.01900 12.63900 27.35100
C  3.13600 12.30600 28.69600
C  2.70400 10.94300 28.83900
C  3.12400 13.96200 26.76400
C  3.38200 12.94200 29.96200
O  3.55400 14.13400 30.30700
C  2.85900 11.75600 31.00700
C  3.97700 11.40700 31.97700
O  5.05300 10.84500 31.75600
O  3.58700 11.91300 33.18400
C  4.56000 11.66200 34.28200
H  1.63600 5.07300 30.34800
H  2.03800 5.81200 23.85700
H  2.64400 11.91000 24.50300
H  2.69400 9.09500 32.65500
H  0.82200 6.75000 32.15500
H  2.65500 5.75300 33.41100
H  3.60900 7.13500 33.13800
H  3.59800 5.96700 31.91900
H  -0.26200 9.00800 31.94600
H  0.24700 10.44700 32.54500
H  -0.54800 8.29600 34.12600
H  -0.13200 9.86800 34.58500
H  0.39500 2.86000 28.58500
H  1.75200 3.00600 29.62900
H  1.92100 2.09000 28.17000
H  0.78300 1.37500 24.67900
H  0.67500 1.70900 26.49600
H  2.19500 1.37700 25.66900
H  1.12200 7.87600 22.68700
H  2.74300 10.32300 22.69400
H  3.98600 8.78100 22.21200
H  3.05900 7.55800 21.28400
H  3.97300 7.12800 22.78200
H  0.10400 10.77500 23.71900
H  0.05800 9.70200 22.31300
H  1.71900 11.35900 21.20500
H  0.78800 12.56900 22.21600
H  0.00100 11.54300 21.06000
H  2.10100 14.25200 26.52300
H  3.62200 13.82200 25.80500
H  3.63900 14.66000 27.42400
H  1.94000 12.16700 31.42600
H  4.39400 12.26500 35.17500
H  5.56700 11.98400 34.01500
H  4.59700 10.57800 34.39600
Mg 46.55800 25.26900 27.51100
C  47.49600 27.52300 29.90700
C  46.18400 22.87200 29.99000
C  45.94100 22.90200 25.20200
C  47.36000 27.53900 25.10900
N  47.01300 25.14200 29.65600
C  47.09900 26.27100 30.51000
C  47.03900 25.99600 31.99300
C  46.62200 24.42800 31.97500
C  46.70200 24.06900 30.45400
C  47.47100 23.45300 32.80200
C  46.07600 26.96900 32.82400
C  45.59300 26.50800 34.19500
H  45.91800 27.46400 35.44200
N  45.94400 23.19400 27.58800
C  45.84500 22.41700 28.68200
C  45.52900 21.02100 28.32400
C  45.40400 21.03500 26.96700
C  45.74500 22.43000 26.51100
C  45.40300 19.83700 29.34600
C  45.06800 19.91200 26.06400
O  44.81100 19.98100 24.86200
C  44.97000 18.57800 26.61300
N  46.61300 25.22500 25.42700
C  46.36800 24.12600 24.71700
C  46.39900 24.39800 23.15800
C  46.57600 25.94800 23.21800
C  46.89500 26.28200 24.71400
C  47.53700 23.68900 22.42000
C  45.35600 26.81100 22.74900
C  45.75100 28.04000 21.84900
N  47.32400 27.14000 27.42200
C  47.65200 27.95200 26.38400
C  48.19500 29.15100 26.81400
C  48.16000 29.10300 28.22500
C  47.62800 27.88300 28.53800
C  48.69000 30.15600 25.86500
C  48.42500 29.79700 29.47900
O  48.91100 30.95000 29.64900
C  47.88000 28.88500 30.56100
C  48.89700 28.61200 31.67300
O  49.79300 27.71600 31.71700
O  48.55000 29.49800 32.66700
C  49.23700 29.45400 33.96100
H  46.07300 22.11400 30.76800
H  45.73400 22.15700 24.43100
H  47.70000 28.18500 24.29700
H  47.98000 26.02100 32.54300
H  45.58000 24.24800 32.24000
H  48.03800 22.80100 32.13700
H  46.96200 22.69600 33.39800
H  48.08600 23.95500 33.54900
H  45.19300 27.17800 32.21900
H  46.62500 27.88600 33.03700
H  45.95800 25.51200 34.44200
H  44.50800 26.39800 34.19300
H  44.36300 19.52300 29.26900
H  45.61800 20.24900 30.33200
H  46.14900 19.05700 29.19400
H  44.20400 18.57100 27.38900
H  45.96400 18.52700 27.05800
H  44.65500 17.81800 25.89900
H  45.42200 24.18900 22.72100
H  47.52300 26.26200 22.78000
H  48.36300 24.28700 22.80800
H  47.45600 23.68800 21.33300
H  47.58900 22.65500 22.76100
H  44.90300 27.32300 23.59800
H  44.52600 26.23900 22.33500
H  46.77700 28.00000 21.48300
H  45.64400 28.94300 22.45100
H  45.16000 28.17200 20.94300
H  49.61400 29.72600 25.47900
H  48.86500 31.11200 26.35900
H  48.02100 30.32600 25.02200
H  46.93300 29.25600 30.95300
H  48.64400 28.71100 34.49300
H  49.22700 30.44700 34.41100
H  50.26200 29.08800 34.02700

