158

Mg 26.58200 0.36000 29.15300
C  28.32100 -0.15100 32.09900
C  23.68800 0.95300 30.98000
C  24.80100 0.31100 26.19600
C  29.40200 -0.70300 27.33700
N  26.09600 0.27900 31.28200
C  27.00200 0.21000 32.30300
C  26.34300 0.34600 33.74500
C  24.79000 0.45800 33.27600
C  24.85400 0.54300 31.76100
C  23.75400 -0.56600 33.72300
C  26.90700 1.43700 34.60700
C  27.36400 1.02800 36.06300
H  27.03500 1.91400 37.17200
N  24.56000 0.78800 28.66200
C  23.52300 1.04700 29.56400
C  22.32400 1.36800 28.80800
C  22.64600 1.16300 27.42000
C  24.06200 0.70200 27.39200
C  21.07200 1.80200 29.49900
C  21.72300 1.27000 26.21800
O  22.01500 1.03400 25.05100
C  20.28600 1.50500 26.59700
N  27.04900 -0.21700 26.95300
C  26.14900 -0.05900 26.00900
C  26.74200 0.05700 24.55500
C  28.32800 -0.13800 24.97700
C  28.28300 -0.40600 26.52300
C  26.23400 -1.03000 23.50600
C  29.24600 1.00600 24.59400
C  29.57900 1.12200 23.11700
N  28.44000 -0.33700 29.52800
C  29.48500 -0.78300 28.75400
C  30.63100 -1.14700 29.55400
C  30.22400 -0.91000 30.89800
C  28.88600 -0.39900 30.83100
C  31.89600 -1.57200 28.99600
C  30.67900 -0.94300 32.30600
O  31.71500 -1.08200 32.87300
C  29.41000 -0.46800 33.10300
C  29.04100 -1.44200 34.10100
O  28.25800 -2.37600 33.89100
O  29.75200 -1.15200 35.21700
C  29.56000 -2.11500 36.36100
H  22.83700 1.24900 31.59700
H  24.19400 0.27500 25.28900
H  30.33500 -0.90100 26.80600
H  26.46300 -0.63400 34.20800
H  24.38900 1.37300 33.71200
H  24.32200 -1.30900 34.28300
H  23.21300 -1.08800 32.93400
H  23.02200 -0.10300 34.38400
H  26.11200 2.17600 34.71100
H  27.72800 1.96800 34.12600
H  28.44200 0.87000 36.09700
H  26.96100 0.05000 36.32600
H  20.79300 2.82500 29.24500
H  21.19400 1.84500 30.58100
H  20.27100 1.06800 29.41100
H  19.84800 0.71600 27.20800
H  19.73100 1.63600 25.66800
H  20.31500 2.51400 27.00900
H  26.56900 1.07200 24.19900
H  28.68800 -1.05300 24.50500
H  25.50700 -1.69900 23.96800
H  27.08900 -1.56400 23.09200
H  25.69700 -0.51400 22.71000
H  30.14500 1.05200 25.20900
H  28.68100 1.91700 24.78900
H  28.99900 1.95700 22.72400
H  29.31800 0.18500 22.62400
H  30.63500 1.37800 23.03300
H  32.12800 -1.06200 28.06100
H  31.89400 -2.61400 28.67500
H  32.73600 -1.40000 29.66900
H  29.69300 0.40400 33.69300
H  29.43200 -3.14600 36.03200
H  28.67800 -1.75100 36.88900
H  30.43800 -2.09400 37.00600
Mg 42.44900 41.97100 25.78800
C  41.91600 44.44100 28.45800
C  43.60500 39.98200 28.35900
C  43.30700 39.93600 23.44600
C  41.86400 44.60200 23.53300
N  42.73000 42.25600 28.14800
C  42.34600 43.24800 29.06200
C  42.25000 42.70000 30.52500
C  43.08100 41.38200 30.36500
C  43.19600 41.20000 28.84400
C  44.55000 41.40500 31.00600
C  40.81000 42.59200 31.04400
C  40.57600 41.89800 32.41700
H  39.87500 42.79000 33.48900
N  43.21700 40.15200 25.89600
C  43.59400 39.41400 27.05100
C  44.01000 38.11800 26.60500
C  43.86700 38.04300 25.21300
C  43.50300 39.39500 24.80300
C  44.52400 37.06000 27.59300
C  44.08900 36.80700 24.30200
O  44.10400 36.82900 23.11200
C  44.41000 35.50800 25.01100
N  42.66900 42.26700 23.79400
C  43.04700 41.23700 22.98000
C  43.10800 41.75900 21.51500
C  42.69400 43.27500 21.54300
C  42.29900 43.35200 23.03400
C  44.49100 41.37200 20.90900
C  41.57000 43.74300 20.51000
C  40.18100 43.12700 20.66000
N  41.97800 44.07700 25.93500
C  41.80000 44.99700 24.93000
C  41.32900 46.23500 25.50700
C  41.33700 46.02200 26.87000
C  41.89400 44.77000 27.07800
C  40.93100 47.52200 24.71100
C  41.15500 46.71100 28.08200
O  40.83800 47.89200 28.27500
C  41.44600 45.68100 29.19600
C  42.47800 46.19300 30.15400
O  43.54200 46.71800 29.87800
O  41.91100 46.14900 31.44000
C  42.84600 46.39800 32.55700
H  43.91600 39.31500 29.16600
H  43.52700 39.17900 22.69100
H  41.65700 45.36600 22.78100
H  42.72600 43.47600 31.12400
H  42.60100 40.45800 30.68700
H  44.98400 42.40400 31.01400
H  45.24400 40.78100 30.44100
H  44.56700 41.04300 32.03400
H  40.14400 42.03000 30.38900
H  40.41400 43.60600 31.10700
H  41.51800 41.49300 32.78700
H  39.89800 41.04500 32.42800
H  43.93200 36.17700 27.35200
H  44.39100 37.40000 28.61900
H  45.56500 36.78700 27.41600
H  44.65000 34.81400 24.20600
H  43.52900 35.13100 25.53100
H  45.30000 35.61400 25.63200
H  42.24800 41.28400 21.04300
H  43.59200 43.87900 21.41300
H  44.92000 42.29600 20.52300
H  44.36400 40.66200 20.09200
H  45.16600 40.91100 21.63000
H  41.95700 43.51300 19.51700
H  41.48500 44.82100 20.64700
H  39.84500 42.49000 19.84200
H  39.47100 43.91000 20.92500
H  40.05900 42.59200 21.60200
H  41.04700 47.43000 23.63100
H  41.56500 48.32600 25.08400
H  39.88600 47.78500 24.87600
H  40.45500 45.61000 29.64400
H  42.71700 47.46600 32.73400
H  43.87900 46.19800 32.27400
H  42.52700 45.71200 33.34100

