158

Mg 41.01800 7.91500 29.63100
C  42.73600 9.29200 32.39600
C  38.51800 6.95300 31.82700
C  39.74200 6.20200 27.12900
C  43.98300 8.38700 27.80500
N  40.76500 8.15100 31.92500
C  41.51400 8.77600 32.81600
C  40.89000 8.83700 34.21900
C  39.51000 8.14800 33.94500
C  39.59200 7.65500 32.50500
C  39.08900 7.05800 34.92000
C  40.86100 10.27900 34.88200
C  39.85100 10.41900 36.10200
H  40.31100 11.30700 37.27000
N  39.25100 6.88800 29.49400
C  38.36900 6.52800 30.47300
C  37.27100 5.86900 29.83000
C  37.53500 5.76100 28.46900
C  38.91200 6.27500 28.31200
C  36.07300 5.40000 30.64300
C  36.72000 5.18800 27.34000
O  37.11300 5.19800 26.19100
C  35.29900 4.61900 27.65000
N  41.76300 7.44100 27.69300
C  41.01800 6.72800 26.79300
C  41.74000 6.55600 25.39700
C  43.16300 7.32400 25.65000
C  43.00900 7.69300 27.15900
C  41.90400 5.04400 24.87800
C  43.38700 8.57500 24.75400
C  42.51300 9.80600 24.97100
N  42.87000 8.70900 29.95700
C  43.99300 8.84300 29.11400
C  45.07000 9.51800 29.74000
C  44.58900 9.77700 31.07800
C  43.29600 9.13800 31.16300
C  46.42900 9.75000 29.13000
C  44.95200 10.30300 32.33700
O  46.00100 10.76700 32.72500
C  43.78900 9.96400 33.30600
C  44.44800 9.05300 34.35600
O  44.71200 7.87500 34.07300
O  44.59900 9.66500 35.54600
C  44.98800 8.69000 36.61800
H  37.58400 6.77700 32.36600
H  39.36100 5.67600 26.25100
H  44.88500 8.32100 27.19300
H  41.57200 8.20900 34.79200
H  38.71400 8.89100 34.00200
H  38.31500 7.34000 35.63500
H  40.02400 6.83900 35.43500
H  38.66500 6.20000 34.39800
H  40.43600 11.01900 34.20400
H  41.82200 10.50700 35.34200
H  39.63800 9.48300 36.61900
H  38.92600 10.82500 35.69300
H  36.26100 5.45100 31.71500
H  35.77000 4.35800 30.53700
H  35.22600 6.04800 30.41500
H  35.36200 3.90600 28.47200
H  34.80800 4.26300 26.74400
H  34.67500 5.42900 28.02700
H  41.14900 7.07100 24.64000
H  43.97700 6.62500 25.46000
H  42.93900 4.70300 24.84000
H  41.47900 4.92800 23.88200
H  41.32000 4.39000 25.52500
H  43.11200 8.15900 23.78500
H  44.44600 8.82500 24.82500
H  41.71200 9.65200 25.69400
H  42.01800 9.98800 24.01700
H  43.05100 10.70400 25.27500
H  46.46100 9.65400 28.04500
H  47.04800 9.09200 29.74000
H  46.73100 10.78100 29.31200
H  43.40600 10.89100 33.73100
H  44.74900 9.13100 37.58600
H  46.06100 8.50100 36.60000
H  44.59900 7.67400 36.55200
Mg 53.65400 23.82500 44.18400
C  51.24800 26.15100 43.23600
C  51.55300 21.32900 43.17900
C  56.34400 21.74700 43.87800
C  55.85600 26.45500 44.86800
N  51.62900 23.81800 43.17300
C  50.80700 24.85400 42.95700
C  49.45500 24.36600 42.39100
C  49.52400 22.83900 42.64000
C  50.99200 22.61200 43.05100
C  48.44900 22.08000 43.54200
C  49.28600 24.83900 40.89400
C  47.86200 25.25200 40.46500
H  47.40400 24.58300 39.10000
N  53.82400 21.75400 43.72200
C  52.82500 20.89000 43.48300
C  53.35800 19.56100 43.44600
C  54.77600 19.69900 43.41000
C  55.06500 21.13100 43.63500
C  52.49800 18.31500 43.18400
C  55.72900 18.49100 43.11400
O  55.29100 17.31900 42.88400
C  57.16800 18.73100 43.04400
N  55.83600 24.05500 44.24200
C  56.71400 23.05400 44.18600
C  58.11600 23.43500 44.28900
C  57.97500 24.97500 44.75200
C  56.45500 25.20500 44.64600
C  58.89300 22.58400 45.35000
C  58.89300 25.96400 43.96500
C  59.28300 27.28800 44.70600
N  53.59300 25.92900 44.14700
C  54.47900 26.86700 44.56400
C  53.93200 28.15900 44.59900
C  52.62700 27.90900 44.14900
C  52.50200 26.57200 43.76500
C  54.57100 29.51000 44.95800
C  51.39100 28.53900 43.77300
O  51.07100 29.72000 43.71900
C  50.50400 27.44200 43.14200
C  50.42300 27.82200 41.75600
O  51.32000 27.77900 40.90700
O  49.25500 28.38300 41.49600
C  49.01300 28.95800 40.16700
H  50.85600 20.50700 42.99900
H  57.17200 21.03500 43.89600
H  56.52500 27.23300 45.24100
H  48.68400 24.71200 43.07900
H  49.35000 22.45700 41.63400
H  47.74800 22.77800 43.99900
H  48.98200 21.44800 44.25200
H  47.84400 21.43800 42.90000
H  49.51700 24.02300 40.20900
H  49.92700 25.69200 40.67000
H  47.94800 26.33200 40.34600
H  47.16600 25.12500 41.29500
H  52.70100 17.97600 42.16800
H  51.45900 18.44600 43.48600
H  52.85000 17.52900 43.85300
H  57.63900 18.89900 44.01300
H  57.34800 19.67600 42.53200
H  57.80700 17.97100 42.59500
H  58.71300 23.28500 43.39000
H  58.03600 25.17500 45.82100
H  59.88800 22.38500 44.95300
H  58.38600 21.67100 45.66300
H  59.10500 23.17200 46.24300
H  58.51200 26.27000 42.99000
H  59.82600 25.44100 43.75500
H  60.36400 27.43200 44.69700
H  59.04100 27.23800 45.76700
H  58.82000 28.14200 44.21100
H  54.50800 29.46300 46.04500
H  53.98800 30.35100 44.58400
H  55.60100 29.52000 44.60000
H  49.52800 27.43100 43.62800
H  49.91800 29.14400 39.58800
H  48.33500 29.80100 40.30100
H  48.34400 28.33300 39.57500

