158

Mg -3.13500 16.94200 26.85400
C  -3.79800 14.73300 29.38400
C  -3.65700 19.59300 29.07200
C  -2.76900 19.22000 24.36300
C  -3.19200 14.40400 24.51600
N  -3.67800 17.09400 28.94900
C  -3.79600 16.05500 29.79300
C  -3.92600 16.56300 31.29100
C  -4.01300 18.14400 31.14100
C  -3.72000 18.34800 29.60500
C  -5.41400 18.75600 31.57900
C  -2.65300 16.16600 32.15000
C  -2.07400 17.01100 33.29400
H  -1.57600 16.19100 34.49000
N  -3.02700 19.06100 26.73600
C  -3.29900 19.94600 27.78700
C  -3.09300 21.32300 27.30500
C  -2.55700 21.21200 26.00400
C  -2.78500 19.78100 25.60600
C  -3.27000 22.51700 28.23400
C  -1.99300 22.26400 25.04300
O  -1.73900 22.06400 23.88200
C  -1.69600 23.57100 25.63900
N  -3.01100 16.75500 24.73400
C  -2.78200 17.86500 23.94000
C  -2.76900 17.47700 22.46100
C  -2.73500 15.91300 22.54900
C  -2.95200 15.63000 24.02200
C  -3.89900 18.15100 21.68300
C  -1.44700 15.14300 22.12100
C  -0.19600 15.54700 22.91700
N  -3.52100 15.02500 26.87300
C  -3.54400 14.08300 25.87000
C  -3.88800 12.80300 26.41500
C  -4.00300 13.00500 27.83100
C  -3.79000 14.38900 28.02500
C  -4.17700 11.56100 25.70000
C  -4.08200 12.29800 29.08200
O  -4.10200 11.12100 29.31800
C  -3.98600 13.45300 30.17700
C  -2.82200 13.09500 31.01400
O  -1.61700 13.11200 30.78900
O  -3.37700 12.52500 32.15100
C  -2.42100 11.94300 33.10400
H  -3.78000 20.39800 29.79900
H  -2.56800 19.86600 23.50600
H  -3.29200 13.56000 23.83100
H  -4.78000 16.01100 31.68400
H  -3.30600 18.75300 31.70300
H  -5.40900 19.64600 32.20900
H  -6.15000 17.99200 31.83000
H  -5.91600 19.26000 30.75200
H  -1.75000 16.02400 31.55500
H  -2.99700 15.22200 32.57300
H  -2.77400 17.77200 33.64000
H  -1.18200 17.51800 32.92600
H  -2.35400 22.70600 28.79400
H  -4.07700 22.41000 28.96000
H  -3.49300 23.38800 27.61700
H  -1.22400 23.35500 26.59800
H  -2.53300 24.26400 25.72200
H  -1.02800 24.21300 25.06500
H  -1.83600 17.90500 22.09400
H  -3.63400 15.56100 22.04200
H  -4.11800 19.10200 22.16800
H  -4.73800 17.46300 21.78500
H  -3.54900 18.22900 20.65400
H  -1.28200 15.38200 21.07100
H  -1.72200 14.08900 22.12000
H  0.38100 16.35400 22.46400
H  0.31800 14.60100 22.75000
H  -0.41000 15.85300 23.94100
H  -3.25900 10.99000 25.55700
H  -4.53400 11.67300 24.67600
H  -4.90300 11.02300 26.30900
H  -4.84400 13.64500 30.82100
H  -1.65800 11.36600 32.58100
H  -2.97500 11.18500 33.65900
H  -1.92700 12.59500 33.82300
Mg -1.63500 33.65300 27.20200
C  -3.61500 31.97900 29.63000
C  -0.30900 35.59100 29.64500
C  0.02700 35.37800 24.72700
C  -3.49700 32.08800 24.66700
N  -1.91900 33.68400 29.32900
C  -2.77300 32.99300 30.20800
C  -2.50600 33.21400 31.71600
C  -1.63700 34.53500 31.63800
C  -1.26400 34.68000 30.10000
C  -2.29400 35.84600 32.14400
C  -1.88700 31.93200 32.43600
C  -2.73300 31.39300 33.65300
H  -1.97700 31.57300 34.97400
N  -0.33800 35.22500 27.19700
C  0.17900 35.84100 28.31100
C  1.04100 36.91900 27.90400
C  1.16800 36.85100 26.47500
C  0.28500 35.74100 26.09300
C  1.56000 37.96000 28.81800
C  1.94800 37.72400 25.52800
O  1.97100 37.56200 24.32700
C  2.82200 38.76600 26.09100
N  -1.84000 33.88100 25.05600
C  -0.93300 34.52200 24.25500
C  -0.95800 33.95100 22.77500
C  -2.23200 32.99000 22.81500
C  -2.53400 32.95400 24.28100
C  -1.13900 35.00300 21.64900
C  -1.89600 31.63100 22.06900
C  -3.09900 30.99000 21.39900
N  -3.17800 32.31700 27.06100
C  -3.79700 31.72900 25.99900
C  -4.72200 30.79000 26.46700
C  -4.70700 30.78600 27.85900
C  -3.74900 31.74500 28.19900
C  -5.62100 30.05400 25.58400
C  -5.24800 30.21700 29.07500
O  -6.09500 29.37900 29.25800
C  -4.55500 30.96900 30.31500
C  -5.60700 31.68900 31.20300
O  -6.13800 32.75200 30.97900
O  -5.84300 30.90300 32.35400
C  -6.68000 31.38000 33.45800
H  0.23700 36.14500 30.41100
H  0.62300 35.74800 23.89000
H  -3.97800 31.54300 23.85100
H  -3.39400 33.48100 32.28900
H  -0.75000 34.44200 32.26500
H  -2.35200 36.64500 31.40500
H  -1.60400 36.25700 32.88100
H  -3.35300 35.75500 32.38500
H  -0.85500 32.24400 32.59800
H  -1.89900 31.10500 31.72600
H  -2.98700 30.33800 33.55200
H  -3.70600 31.87700 33.73600
H  2.63900 38.10900 28.77800
H  1.23900 37.77100 29.84300
H  1.04500 38.89600 28.60300
H  3.25400 39.40000 25.31700
H  3.62700 38.28500 26.64700
H  2.31600 39.48300 26.73800
H  -0.08700 33.30100 22.69900
H  -3.04700 33.62700 22.47100
H  -1.43700 35.94900 22.10200
H  -1.91400 34.72500 20.93500
H  -0.19500 35.08400 21.11000
H  -1.64400 30.89600 22.83400
H  -1.10500 31.80500 21.33900
H  -2.89600 30.73800 20.35800
H  -3.91300 31.71500 21.39100
H  -3.38900 30.12200 21.99100
H  -5.00500 29.67100 24.77000
H  -6.35700 30.78300 25.24600
H  -6.06800 29.22100 26.12600
H  -3.90600 30.30700 30.88900
H  -7.45700 32.07200 33.13300
H  -6.08700 31.87100 34.23000
H  -7.32400 30.64700 33.94400

