158

Mg 24.59000 -4.27800 45.64900
C  26.63000 -1.94900 44.26900
C  21.99500 -3.26100 43.70100
C  22.83600 -6.82100 46.95600
C  27.41800 -5.39500 47.63500
N  24.31700 -2.74700 44.16600
C  25.34800 -2.01800 43.65800
C  24.80500 -1.24400 42.38300
C  23.22900 -1.35800 42.59100
C  23.14800 -2.47400 43.58300
C  22.51700 -0.13500 43.07000
C  25.26100 -1.92000 41.04900
C  25.90200 -0.90800 40.07700
H  25.51900 -0.95500 38.55200
N  22.68000 -5.02600 45.35100
C  21.72800 -4.40600 44.51100
C  20.53800 -5.16700 44.55500
C  20.71300 -6.20800 45.60300
C  22.12600 -6.03900 46.02200
C  19.37800 -4.82200 43.68500
C  19.63800 -7.25700 46.08900
O  18.56000 -7.24700 45.54800
C  19.86800 -8.20000 47.27800
N  24.98200 -5.86400 47.19800
C  24.11100 -6.82200 47.46700
C  24.66500 -7.93400 48.38100
C  26.05600 -7.33500 48.80900
C  26.19000 -6.07000 47.85700
C  23.80300 -8.41900 49.55300
C  27.13800 -8.45500 48.66000
C  28.32200 -8.42000 49.61100
N  26.57000 -3.72200 45.99700
C  27.55200 -4.22300 46.85600
C  28.69900 -3.41000 46.71800
C  28.41500 -2.50000 45.69500
C  27.09900 -2.77900 45.29100
C  30.01300 -3.62700 47.43900
C  28.93700 -1.35700 44.94900
O  30.03000 -0.81300 44.96500
C  27.73700 -0.93500 43.91400
C  27.30800 0.53400 44.01600
O  26.32600 0.97700 44.54600
O  28.21800 1.26400 43.33000
C  28.30000 2.63900 43.75100
H  21.20600 -2.92200 43.02600
H  22.25700 -7.71200 47.20800
H  28.28700 -5.71900 48.21200
H  25.14000 -0.20700 42.41800
H  22.66800 -1.63300 41.69800
H  22.76900 0.74300 42.47400
H  22.89600 0.14600 44.05200
H  21.43700 -0.28500 43.06900
H  24.44100 -2.36500 40.48500
H  25.93800 -2.76700 41.16400
H  26.98600 -1.01800 40.05000
H  25.80400 0.13600 40.37400
H  19.30300 -5.31000 42.71300
H  19.31500 -3.73400 43.71300
H  18.46100 -5.12700 44.18900
H  20.37400 -7.64000 48.06400
H  20.57100 -8.95600 46.92700
H  18.93500 -8.73800 47.44200
H  24.65000 -8.76100 47.67200
H  26.22800 -7.08500 49.85600
H  24.31500 -8.29600 50.50800
H  23.72300 -9.50200 49.46100
H  22.84100 -7.90800 49.57700
H  27.36600 -8.40600 47.59500
H  26.80300 -9.46600 48.89400
H  28.19300 -8.87300 50.59500
H  28.60500 -7.37200 49.70600
H  29.20800 -8.82500 49.12100
H  30.14400 -4.70500 47.53300
H  29.98500 -3.15100 48.41900
H  30.82700 -3.19800 46.85400
H  28.15200 -1.06800 42.91500
H  29.32500 2.99400 43.86200
H  27.79100 2.85300 44.69100
H  27.91600 3.21100 42.90700
Mg 28.12600 56.72800 40.76500
C  25.56000 54.31200 40.09500
C  30.35900 54.32600 39.63500
C  30.25700 59.10700 40.41600
C  25.47500 58.96800 41.16500
N  27.92500 54.55200 39.95300
C  26.81200 53.84400 39.69300
C  27.12500 52.46100 39.01500
C  28.69500 52.41700 39.16900
C  29.05300 53.86500 39.64000
C  29.07500 51.30400 40.22100
C  26.58500 52.36500 37.59400
C  26.78500 53.66400 36.76200
H  27.03400 53.41500 35.26300
N  30.08200 56.72400 40.18400
C  30.83100 55.64400 39.74800
C  32.15200 56.19400 39.52000
C  32.14100 57.56700 39.78800
C  30.79800 57.83000 40.15700
C  33.26200 55.32800 39.12700
C  33.38700 58.38700 39.59600
O  34.41500 57.97500 39.07600
C  33.37700 59.88800 40.03200
N  27.89900 58.70000 40.86400
C  28.97600 59.52200 40.81000
C  28.55300 61.01600 41.09000
C  27.01300 60.89400 41.26600
C  26.74100 59.43600 41.12300
C  29.29000 61.58500 42.30800
C  26.32500 61.68300 40.09000
C  25.67500 62.99700 40.62000
N  26.02000 56.59600 41.06900
C  25.08900 57.59600 41.22100
C  23.78900 57.00100 41.48400
C  23.91900 55.68400 41.04200
C  25.28500 55.50700 40.72800
C  22.49300 57.65100 41.84900
C  23.15400 54.47200 40.66600
O  21.97000 54.15300 40.77400
C  24.23300 53.54600 40.06300
C  24.23800 52.27600 40.80100
O  24.05800 51.18000 40.21000
O  24.63000 52.43700 42.08000
C  25.25100 51.26300 42.66100
H  31.09400 53.68100 39.15000
H  30.90700 59.97600 40.28800
H  24.60100 59.58900 41.36900
H  26.67400 51.65000 39.58700
H  29.15700 52.21400 38.20300
H  29.77300 51.76600 40.91800
H  29.70200 50.53500 39.77000
H  28.24900 50.90500 40.81000
H  25.51800 52.14300 37.62100
H  27.07300 51.54200 37.07200
H  27.64400 54.20500 37.16000
H  25.93900 54.32600 36.94600
H  34.16500 55.36800 39.73600
H  33.46900 55.45600 38.06500
H  33.02400 54.26500 39.15000
H  32.87900 59.86800 41.00100
H  32.74000 60.37700 39.29500
H  34.41900 60.18400 40.15800
H  28.84400 61.56500 40.19400
H  26.73200 61.17000 42.28200
H  29.77600 62.52100 42.03200
H  30.03700 60.89300 42.69700
H  28.63500 61.75200 43.16300
H  25.55700 61.00100 39.72600
H  26.98400 61.99400 39.27800
H  25.73700 63.12900 41.70000
H  24.64700 63.05000 40.26200
H  26.20400 63.84000 40.17500
H  21.76400 56.84100 41.85700
H  22.15900 58.17300 40.95200
H  22.48400 58.29000 42.73200
H  24.01400 53.18000 39.06000
H  25.53000 51.47900 43.69200
H  26.16700 50.99600 42.13600
H  24.59900 50.39000 42.68200

