158

Mg -1.78600 17.39900 26.25400
C  -1.91100 15.17600 28.97100
C  -2.27900 20.04900 28.56700
C  -2.41300 19.62300 23.69300
C  -2.02100 14.71500 24.17500
N  -1.99200 17.59200 28.53100
C  -2.01400 16.49200 29.37800
C  -2.11300 16.98100 30.83900
C  -2.20700 18.58300 30.76600
C  -2.15500 18.78600 29.21800
C  -3.55500 19.19900 31.41800
C  -1.01400 16.40200 31.82300
C  -0.73200 17.24400 32.95700
H  -0.28700 16.63800 34.30600
N  -2.15900 19.51000 26.13300
C  -2.20900 20.41800 27.20300
C  -2.23100 21.78700 26.66800
C  -2.08100 21.64500 25.28000
C  -2.32800 20.20200 24.94000
C  -2.21500 23.06200 27.53100
C  -1.89100 22.71700 24.26200
O  -2.01300 22.56100 23.03500
C  -1.39200 24.02700 24.76600
N  -2.16300 17.13300 24.27600
C  -2.33900 18.18500 23.39800
C  -2.66400 17.68700 22.00800
C  -2.28500 16.20600 22.04300
C  -2.09500 15.98200 23.60600
C  -4.08000 18.02400 21.58700
C  -0.97100 15.83100 21.22600
C  0.47500 16.03300 21.69200
N  -1.86200 15.34300 26.49000
C  -1.89900 14.32800 25.54000
C  -1.88300 13.04400 26.14400
C  -2.03700 13.35900 27.51900
C  -1.89600 14.74900 27.66700
C  -1.91300 11.72600 25.56800
C  -2.19900 12.70400 28.78000
O  -2.38400 11.50700 29.08000
C  -2.07200 13.84000 29.80300
C  -0.86100 13.47600 30.77400
O  0.26500 13.75700 30.60600
O  -1.36700 12.77000 31.80300
C  -0.50300 12.46000 32.93400
H  -2.41200 20.90100 29.23700
H  -2.48200 20.26100 22.80900
H  -2.10000 13.87800 23.47900
H  -3.05500 16.62900 31.25900
H  -1.40300 19.19600 31.17400
H  -3.35000 20.18100 31.84400
H  -3.93600 18.67600 32.29600
H  -4.32800 19.29900 30.65700
H  -0.10700 16.12700 31.28600
H  -1.41700 15.54800 32.36800
H  -1.52200 17.96700 33.15900
H  0.14800 17.76800 32.58400
H  -2.77000 23.86500 27.04500
H  -1.21600 23.45200 27.72800
H  -2.84600 22.95600 28.41400
H  -1.22100 24.57600 23.84100
H  -0.47600 23.87500 25.33700
H  -2.19100 24.54900 25.29300
H  -2.02200 18.17400 21.27300
H  -3.04400 15.50500 21.69800
H  -4.54300 18.53300 22.43200
H  -4.55500 17.05900 21.41000
H  -3.92000 18.69800 20.74600
H  -1.01800 16.20300 20.20200
H  -0.99000 14.74800 21.10000
H  0.48200 16.32700 22.74200
H  1.16300 16.65600 21.12100
H  1.03800 15.10000 21.66800
H  -1.23100 11.20900 26.24200
H  -1.49700 11.87500 24.57100
H  -2.96800 11.45600 25.59800
H  -2.91200 14.02100 30.47300
H  -0.85200 11.48300 33.26900
H  -0.77800 13.30300 33.56800
H  0.58400 12.44800 32.84500
Mg 1.28300 8.28500 25.32200
C  2.06900 10.12900 28.22600
C  1.61500 5.43800 27.22300
C  0.87600 6.66700 22.60400
C  1.28800 11.34100 23.54100
N  1.79400 7.89100 27.49700
C  1.91100 8.78200 28.57100
C  1.97800 8.13600 29.92100
C  2.09700 6.64400 29.51100
C  1.78100 6.66900 27.97000
C  3.50900 5.96300 29.79500
C  0.65400 8.41600 30.70400
C  0.67000 8.47200 32.23300
H  1.98200 7.93600 32.89100
N  1.23400 6.29900 24.95000
C  1.31300 5.30400 25.81700
C  1.26600 4.01700 25.06200
C  0.98900 4.40200 23.72400
C  1.12100 5.85500 23.66200
C  1.40600 2.62600 25.80000
C  0.64200 3.49100 22.61900
O  0.24300 3.83700 21.50200
C  0.70800 1.98300 22.72600
N  0.97700 8.85800 23.41300
C  0.85100 8.01900 22.40800
C  0.56000 8.66400 21.06900
C  0.40300 10.20700 21.48800
C  0.99900 10.14000 22.89500
C  1.72200 8.57000 19.99100
C  -1.04900 10.78600 21.55300
C  -2.00100 10.50200 20.41400
N  1.74300 10.26300 25.73700
C  1.69800 11.42900 24.90800
C  2.09300 12.57800 25.69200
C  2.23100 12.11900 26.97500
C  1.99700 10.69900 26.96100
C  2.14700 13.93100 25.19800
C  2.50800 12.53700 28.34100
O  2.93700 13.55800 28.74700
C  2.25300 11.32100 29.21400
C  3.35100 11.14200 30.24500
O  4.45200 10.73000 29.99400
O  2.95600 11.63700 31.43100
C  3.99000 11.65400 32.50100
H  1.51300 4.55900 27.86300
H  0.74700 6.18500 21.63300
H  1.26500 12.21400 22.88600
H  2.85400 8.45900 30.48400
H  1.38300 5.98300 30.00200
H  4.31100 6.65300 30.05700
H  3.96300 5.51400 28.91100
H  3.42100 5.15000 30.51600
H  -0.12900 7.70700 30.43400
H  0.36300 9.37200 30.27000
H  -0.20600 8.00900 32.68600
H  0.59100 9.50800 32.56300
H  2.18200 2.04600 25.30000
H  0.41400 2.23600 25.57500
H  1.53500 2.77800 26.87200
H  0.40800 1.59200 21.75400
H  -0.05400 1.64200 23.42700
H  1.74800 1.71500 22.90900
H  -0.43300 8.41700 20.69200
H  1.11300 10.80100 20.91300
H  2.59700 8.53700 20.64100
H  1.85100 9.43500 19.34100
H  1.65900 7.69600 19.34300
H  -0.99100 11.86300 21.71000
H  -1.47100 10.13500 22.31800
H  -1.39600 10.26000 19.54000
H  -2.66800 11.28200 20.04600
H  -2.57600 9.59700 20.60900
H  1.57100 14.43900 25.97100
H  1.78900 14.08900 24.18100
H  3.15200 14.35300 25.19600
H  1.31500 11.35600 29.76700
H  5.02200 11.54400 32.16600
H  3.76200 10.87400 33.22800
H  3.92200 12.54400 33.12600

