158

Mg -0.00200 7.91900 26.83800
C  1.07200 9.91800 29.47500
C  -0.16100 5.24100 29.03700
C  -0.55700 6.00400 24.14700
C  0.31400 10.72100 24.74800
N  0.50600 7.64500 28.91100
C  0.84300 8.57900 29.89200
C  0.78700 8.05200 31.38600
C  0.34500 6.61400 31.13500
C  0.26000 6.46900 29.60900
C  1.32000 5.52600 31.78800
C  -0.08000 8.80900 32.37300
C  0.38500 8.73900 33.86200
H  -0.44100 8.02400 34.88900
N  -0.23300 5.90400 26.64100
C  -0.31700 5.00800 27.64400
C  -0.71700 3.73200 26.98600
C  -0.67000 3.86700 25.57600
C  -0.45500 5.33800 25.41200
C  -1.00300 2.56100 27.83900
C  -0.96700 2.84400 24.43900
O  -0.99300 3.02200 23.23600
C  -1.15500 1.36900 24.84400
N  -0.02900 8.28700 24.77100
C  -0.33600 7.33400 23.84400
C  -0.56900 7.93200 22.46900
C  -0.61000 9.47700 22.76700
C  -0.10300 9.51900 24.15700
C  0.45500 7.42600 21.45800
C  -2.05000 10.09900 22.76600
C  -2.72600 10.34700 21.36900
N  0.43700 9.96000 27.01200
C  0.62900 10.95500 26.08200
C  1.09800 12.21700 26.71200
C  1.30700 11.76500 28.05100
C  0.96400 10.43700 28.15800
C  1.29900 13.45800 26.02200
C  1.77800 12.24700 29.30600
O  2.22500 13.31100 29.63600
C  1.52700 11.12000 30.27900
C  2.73900 10.82800 31.10100
O  3.76500 10.24400 30.76800
O  2.48300 11.39900 32.31300
C  3.67600 11.34900 33.27300
H  -0.31600 4.44700 29.77000
H  -0.77600 5.42700 23.24700
H  0.35000 11.59600 24.09600
H  1.80300 8.01400 31.78000
H  -0.68200 6.40500 31.43800
H  0.80800 4.62100 32.11500
H  1.69800 5.86400 32.75300
H  2.12000 5.08700 31.19100
H  -1.05800 8.35100 32.22400
H  -0.16600 9.86800 32.13000
H  0.67400 9.73500 34.20000
H  1.39100 8.34300 34.00100
H  -0.28700 1.75000 27.70900
H  -1.94200 2.13200 27.48900
H  -1.29800 2.71100 28.87700
H  -0.27600 1.11200 25.43500
H  -1.50100 0.52000 24.25400
H  -2.07400 1.52800 25.40900
H  -1.55300 7.63900 22.10300
H  0.03800 10.18600 22.25200
H  0.63400 8.05800 20.58900
H  0.12900 6.54600 20.90500
H  1.41200 7.15600 21.90400
H  -2.01800 11.10300 23.18900
H  -2.71000 9.60000 23.47600
H  -2.17000 9.89400 20.54800
H  -2.81100 11.43100 21.30300
H  -3.68900 9.83600 21.34900
H  0.48400 14.17700 26.10600
H  1.47600 13.46600 24.94600
H  2.14500 13.92700 26.52400
H  0.71200 11.51300 30.88700
H  4.62100 11.52000 32.75700
H  3.69400 10.37200 33.75500
H  3.60400 12.19300 33.95900
Mg 30.26100 57.35700 39.52100
C  27.77300 55.13700 38.74300
C  32.67400 54.94200 38.82000
C  32.70400 59.67100 39.55500
C  27.82900 59.85100 40.29900
N  30.19100 55.27500 38.78500
C  29.07800 54.56900 38.54700
C  29.48600 53.16900 37.99700
C  31.02800 53.05800 38.18300
C  31.32200 54.50500 38.66500
C  31.48300 52.11300 39.23700
C  29.04000 52.98800 36.49900
C  29.33400 54.00000 35.49200
H  28.24000 54.52600 34.68300
N  32.44800 57.28400 39.20400
C  33.20200 56.23500 38.99000
C  34.53200 56.61900 38.86300
C  34.59800 57.99800 39.16100
C  33.26300 58.36600 39.36400
C  35.60000 55.63200 38.62900
C  35.83900 58.80500 39.30300
O  36.97100 58.33800 39.09600
C  35.91800 60.15200 39.73100
N  30.20100 59.46400 39.66800
C  31.35700 60.15600 39.78400
C  31.07800 61.60200 40.24300
C  29.66000 61.57200 40.64000
C  29.11000 60.25800 39.97200
C  32.08500 62.17700 41.26800
C  28.89600 62.87600 40.20300
C  28.15800 63.63400 41.31300
N  28.16500 57.49700 39.67400
C  27.34100 58.53200 40.02000
C  25.98300 58.06600 39.87200
C  26.13600 56.74400 39.32500
C  27.52300 56.45600 39.21600
C  24.87600 58.92200 40.08900
C  25.33100 55.60200 38.91800
O  24.17600 55.40000 38.93700
C  26.39000 54.55800 38.42900
C  26.21100 53.23600 39.11300
O  26.65800 52.98900 40.23300
O  25.29700 52.52300 38.35100
C  24.97500 51.17300 38.86600
H  33.33800 54.09300 38.64900
H  33.42900 60.48600 39.62400
H  27.08300 60.58700 40.60900
H  28.86100 52.43700 38.50800
H  31.57000 52.92400 37.24700
H  30.57600 51.68500 39.66500
H  32.12800 52.52800 40.01200
H  31.95500 51.27100 38.73100
H  27.98000 52.74100 36.56400
H  29.45700 52.04700 36.14200
H  30.01400 53.48200 34.81500
H  29.89600 54.85500 35.86800
H  36.10500 55.99100 37.73200
H  35.26900 54.60600 38.46900
H  36.28900 55.67000 39.47300
H  36.94700 60.40700 39.98300
H  35.22800 60.41000 40.53500
H  35.54000 60.84100 38.97500
H  31.12400 62.15600 39.30500
H  29.56800 61.39600 41.71200
H  32.90900 62.77900 40.88600
H  32.50300 61.28800 41.74100
H  31.60600 62.73400 42.07400
H  28.21500 62.50000 39.43900
H  29.62300 63.53400 39.72800
H  28.75100 64.51000 41.57700
H  27.99700 63.09300 42.24600
H  27.28200 64.08900 40.85200
H  24.53600 59.33400 39.13900
H  25.18800 59.74400 40.73400
H  24.03500 58.40900 40.55500
H  26.34900 54.39500 37.35100
H  24.76400 50.40000 38.12600
H  24.05000 51.40100 39.39500
H  25.65400 50.79600 39.63200

