158

Mg 54.73100 24.22700 44.77700
C  52.32900 26.64700 43.91300
C  52.69900 21.79100 43.72000
C  57.31600 22.08500 44.94300
C  56.90200 26.92000 45.66000
N  52.83700 24.30800 43.74300
C  51.93400 25.29000 43.64400
C  50.51600 24.77900 43.22200
C  50.59500 23.33700 43.78300
C  52.13400 23.10300 43.62400
C  49.92900 23.02700 45.21700
C  50.32400 24.96600 41.64200
C  49.01400 24.56700 41.04600
H  48.74600 25.05400 39.57800
N  54.93800 22.09000 44.53900
C  53.93400 21.30800 44.14500
C  54.44400 19.93600 44.01600
C  55.84600 19.97900 44.40000
C  56.12500 21.39600 44.62500
C  53.62300 18.73600 43.58200
C  56.74300 18.81400 44.53100
O  56.36900 17.75100 44.04900
C  58.17400 18.80500 45.10300
N  56.85100 24.45800 45.03100
C  57.67100 23.42300 45.16800
C  59.09800 23.87100 45.72400
C  58.86400 25.39100 46.00200
C  57.46000 25.64500 45.59200
C  59.61700 23.04900 46.96700
C  59.89200 26.39400 45.42600
C  61.22500 26.49200 46.16300
N  54.64700 26.40000 44.82700
C  55.54100 27.28300 45.34300
C  54.85000 28.58000 45.50500
C  53.56500 28.38800 44.90600
C  53.55100 27.05000 44.49800
C  55.33000 29.85600 46.15200
C  52.27900 28.95000 44.59600
O  51.80700 30.05400 44.77400
C  51.41700 27.88800 43.87800
C  50.90400 28.41300 42.54000
O  51.61100 28.66200 41.55800
O  49.49200 28.52700 42.61400
C  48.76300 28.97300 41.42400
H  51.93400 21.02800 43.55800
H  58.14900 21.38600 44.84200
H  57.57600 27.67900 46.06200
H  49.73000 25.33500 43.73400
H  50.04700 22.73900 43.05600
H  50.48100 22.40600 45.92200
H  48.98000 22.56400 44.94800
H  49.58500 23.97200 45.63800
H  51.00200 24.16800 41.33800
H  50.74700 25.86200 41.18900
H  48.31400 24.84100 41.83600
H  48.96400 23.47900 41.02600
H  52.54200 18.87100 43.58600
H  53.75000 17.87400 44.23600
H  53.99800 18.39900 42.61500
H  58.44200 17.78500 45.38100
H  58.27500 19.39600 46.01400
H  58.88200 19.16800 44.35900
H  59.83900 23.76100 44.93200
H  58.72900 25.69800 47.03900
H  59.04600 22.24000 47.42300
H  59.82100 23.79500 47.73500
H  60.64600 22.72600 46.81100
H  59.45800 27.36700 45.19800
H  60.31100 26.24800 44.43100
H  62.11600 26.09000 45.68100
H  61.17300 26.10400 47.18000
H  61.49700 27.52600 46.37600
H  56.35400 30.01000 45.81000
H  55.34000 29.72000 47.23400
H  54.66900 30.65800 45.82400
H  50.50800 27.60000 44.40500
H  48.15700 28.16500 41.01400
H  49.47400 29.33900 40.68200
H  48.04300 29.75800 41.65500
Mg 48.90700 34.49200 27.15200
C  46.90400 33.42000 29.87500
C  49.69800 37.22700 29.12000
C  50.79000 35.73400 24.66800
C  47.70700 31.89700 25.27000
N  48.44200 35.14100 29.35700
C  47.74700 34.46100 30.25600
C  47.84000 35.14400 31.60500
C  48.39900 36.58000 31.25100
C  48.84600 36.39000 29.79200
C  47.42400 37.78400 31.24300
C  48.86300 34.41500 32.56300
C  48.50600 34.27300 34.05300
H  48.99700 35.48000 34.95800
N  50.10900 36.29100 26.86200
C  50.37100 37.21500 27.84400
C  51.22400 38.19900 27.22000
C  51.53800 37.84200 25.91000
C  50.83600 36.58600 25.74800
C  51.71500 39.41100 27.88500
C  52.40400 38.57900 24.83100
O  52.63600 38.07900 23.75600
C  53.06000 39.87400 25.12200
N  49.06900 33.97200 25.14100
C  49.97500 34.59000 24.33600
C  50.14900 33.79200 22.99200
C  49.27800 32.48600 23.24200
C  48.58400 32.77900 24.60900
C  49.77500 34.66200 21.77700
C  50.14200 31.17400 23.18800
C  50.46100 30.65200 21.71000
N  47.52800 33.01300 27.40800
C  47.12200 31.99700 26.55800
C  46.15700 31.12600 27.26000
C  45.93500 31.73300 28.48600
C  46.87100 32.80700 28.59600
C  45.58400 29.82500 26.58500
C  45.21000 31.62300 29.79600
O  44.43800 30.82300 30.29900
C  45.76000 32.75700 30.70600
C  46.33300 32.04600 31.86800
O  47.22600 31.23100 31.79300
O  45.76600 32.40500 33.02500
C  46.25200 31.60400 34.14400
H  50.02800 38.06800 29.73400
H  51.53500 35.96100 23.90300
H  47.48300 31.04400 24.62600
H  46.91800 35.25300 32.17500
H  49.32000 36.81700 31.78500
H  46.98800 37.95700 30.26000
H  47.97300 38.69300 31.49000
H  46.68900 37.58700 32.02300
H  49.90200 34.72200 32.44600
H  48.82600 33.37100 32.25000
H  49.00200 33.37900 34.43200
H  47.42600 34.14800 33.98000
H  51.39000 40.29900 27.34200
H  52.80400 39.37300 27.91100
H  51.36600 39.53600 28.91000
H  53.78900 39.74100 25.92300
H  52.36000 40.68400 25.32300
H  53.52600 40.27500 24.22300
H  51.19400 33.50800 22.87300
H  48.50200 32.25000 22.51400
H  48.78500 34.36900 21.42800
H  50.47800 34.39800 20.98700
H  49.92700 35.74000 21.83700
H  49.83500 30.40600 23.89800
H  51.13600 31.54700 23.43600
H  49.74900 31.10500 21.02200
H  50.42700 29.56400 21.77100
H  51.49500 30.88500 21.45500
H  46.39000 29.15400 26.29100
H  44.98400 30.10900 25.72100
H  44.99600 29.26100 27.30900
H  44.89500 33.36000 30.98100
H  47.30000 31.78900 34.37700
H  46.02900 30.54300 34.02800
H  45.69100 31.96700 35.00500

