158

Mg 0.28200 -0.80900 43.92000
C  3.51500 0.32800 43.02900
C  -1.05800 1.87500 42.10700
C  -2.77700 -2.25500 44.16300
C  1.79100 -3.65200 45.32300
N  1.18200 0.85400 42.67500
C  2.50400 1.16500 42.51800
C  2.72900 2.42100 41.69900
C  1.26100 3.03300 41.92000
C  0.37500 1.86900 42.34800
C  1.22800 4.14800 42.97900
C  3.19300 2.10500 40.23500
C  4.47200 2.93700 39.80900
H  4.21000 3.80600 38.62400
N  -1.63100 -0.22600 43.35800
C  -1.93400 0.89000 42.56500
C  -3.37200 0.98500 42.36400
C  -3.89700 -0.15500 42.98200
C  -2.75200 -0.97200 43.55200
C  -4.10400 2.05800 41.57900
C  -5.39100 -0.60000 43.01400
O  -6.27100 0.09000 42.51600
C  -5.91800 -1.96000 43.44600
N  -0.38300 -2.71800 44.46600
C  -1.72600 -3.00900 44.67200
C  -1.93800 -4.28200 45.36300
C  -0.52300 -4.81000 45.78700
C  0.37500 -3.66700 45.19100
C  -2.97400 -4.35600 46.47900
C  -0.10300 -6.23800 45.31300
C  0.04100 -7.23300 46.38400
N  2.27300 -1.50900 44.15800
C  2.71900 -2.70100 44.79400
C  4.15400 -2.76500 44.66100
C  4.47200 -1.53700 44.07100
C  3.28700 -0.85700 43.74100
C  5.18700 -3.75600 45.04900
C  5.58000 -0.80400 43.61300
O  6.79100 -1.10000 43.55600
C  4.96800 0.49000 42.87900
C  5.53300 1.74500 43.54700
O  5.14100 2.16300 44.62400
O  6.70000 2.18700 42.89900
C  7.65500 2.96600 43.64100
H  -1.45900 2.80000 41.68700
H  -3.67600 -2.84500 44.34900
H  2.24300 -4.59900 45.62500
H  3.45000 3.06300 42.20500
H  0.80900 3.37700 40.99000
H  0.26400 4.10200 43.48500
H  1.43100 5.13400 42.56200
H  2.04800 3.90800 43.65600
H  2.32600 2.34600 39.62000
H  3.27000 1.01700 40.24400
H  5.23100 2.21100 39.51700
H  4.89000 3.51900 40.63000
H  -3.56800 2.97300 41.32900
H  -4.88700 2.41300 42.24900
H  -4.54600 1.62100 40.68400
H  -6.98500 -2.15100 43.33800
H  -5.87500 -1.98600 44.53500
H  -5.38400 -2.77400 42.95400
H  -2.28300 -5.04400 44.66400
H  -0.40700 -4.77900 46.87100
H  -3.28100 -3.35900 46.79200
H  -2.46600 -4.83900 47.31400
H  -3.90300 -4.87000 46.23100
H  0.81500 -6.15000 44.73100
H  -0.72300 -6.58700 44.48700
H  0.03300 -6.67900 47.32200
H  0.99500 -7.75100 46.29100
H  -0.85700 -7.84600 46.30200
H  5.34000 -4.01000 46.09800
H  6.18000 -3.44700 44.72200
H  4.93200 -4.69100 44.55100
H  5.27200 0.54800 41.83400
H  7.62400 2.54500 44.64600
H  7.33100 4.00100 43.53200
H  8.60400 2.75100 43.15100
Mg 8.64300 3.85900 28.04900
C  9.77500 2.29600 30.97300
C  6.52000 5.73000 29.98200
C  7.24600 5.01000 25.08400
C  10.44900 1.44400 26.15400
N  8.32100 3.97100 30.22600
C  8.92100 3.31600 31.23000
C  8.30200 3.74300 32.63300
C  7.25900 4.77200 32.22100
C  7.33900 4.82100 30.68700
C  5.75600 4.64500 32.70600
C  9.44400 4.11900 33.69400
C  9.18600 5.17400 34.71300
H  9.58400 4.90300 36.17400
N  7.20200 5.24500 27.61500
C  6.42200 5.89600 28.54100
C  5.56800 6.86100 27.83800
C  5.79200 6.70000 26.47300
C  6.75300 5.59000 26.36100
C  4.50000 7.63100 28.57200
C  5.15100 7.42200 25.27300
O  5.49900 7.16200 24.14900
C  4.16200 8.57700 25.46400
N  8.65600 3.17400 25.95500
C  8.09900 3.93100 24.97800
C  8.67200 3.50300 23.61400
C  9.95200 2.71000 24.01700
C  9.68700 2.39900 25.44700
C  7.61300 2.73800 22.82100
C  11.32300 3.43000 23.91400
C  11.25600 4.96700 23.83300
N  9.91900 2.18100 28.44400
C  10.56100 1.31200 27.57500
C  11.18500 0.24200 28.40400
C  11.03900 0.66600 29.73200
C  10.13800 1.76400 29.68900
C  11.87700 -1.03600 27.91000
C  11.35700 0.35100 31.08600
O  12.08000 -0.58800 31.52200
C  10.53200 1.37600 32.07300
C  9.60000 0.50300 32.81300
O  8.50800 0.15300 32.43600
O  10.16000 0.27700 34.02800
C  9.44400 -0.72000 34.86800
H  6.07600 6.46500 30.65700
H  6.94100 5.47000 24.14200
H  11.20100 0.88700 25.59200
H  7.79000 2.85100 32.99300
H  7.52100 5.74400 32.64000
H  5.64600 5.37900 33.50400
H  5.62600 3.64400 33.11700
H  5.01000 4.85600 31.93900
H  10.37400 4.38500 33.19200
H  9.64500 3.23700 34.30200
H  8.09800 5.17300 34.65200
H  9.55100 6.15000 34.39400
H  4.35600 7.43600 29.63500
H  3.60700 7.27500 28.05800
H  4.74400 8.67900 28.40000
H  3.60300 8.72000 24.54000
H  4.64500 9.54000 25.63100
H  3.47200 8.42900 26.29400
H  8.98700 4.41300 23.10400
H  9.97800 1.77800 23.45200
H  6.75800 2.45900 23.43600
H  8.02900 1.86800 22.31300
H  7.15600 3.49800 22.18700
H  11.74200 3.32500 22.91300
H  12.09800 3.16300 24.63300
H  11.19200 5.37900 22.82600
H  12.09700 5.52000 24.25100
H  10.35500 5.27500 24.36200
H  12.83500 -0.75200 27.47400
H  11.20700 -1.65100 27.30900
H  12.15500 -1.52500 28.84300
H  11.26600 1.91800 32.67000
H  9.30200 -1.70200 34.41500
H  8.44700 -0.36400 35.12500
H  10.07200 -0.80500 35.75500

