158

Mg 52.38900 23.45300 44.69100
C  49.44400 25.29600 43.83400
C  50.59700 20.57100 43.78900
C  55.26900 21.72100 44.54700
C  53.97200 26.32800 45.29800
N  50.27400 23.02200 43.88800
C  49.25800 23.93000 43.59400
C  47.94700 23.18200 43.34200
C  48.31000 21.76900 43.75400
C  49.83600 21.71100 43.82200
C  47.45000 21.39700 45.00900
C  47.51500 23.22600 41.86400
C  48.41000 22.68300 40.83200
H  48.62100 23.52700 39.56900
N  52.84000 21.41800 44.26000
C  51.98800 20.41500 44.00400
C  52.75100 19.14100 43.98100
C  54.11300 19.45900 44.08000
C  54.11200 20.94500 44.32300
C  52.14900 17.79900 43.65500
C  55.27300 18.40600 43.99800
O  55.03700 17.25700 43.82300
C  56.63900 18.69800 44.26000
N  54.41600 24.02600 44.85200
C  55.40900 23.13500 44.76300
C  56.75000 23.92200 44.76400
C  56.30600 25.37300 45.18800
C  54.78400 25.25100 45.14700
C  57.87200 23.33600 45.66100
C  56.98600 26.51800 44.37200
C  57.84700 27.48600 45.12100
N  51.93700 25.44000 44.71100
C  52.67200 26.52200 45.14500
C  51.81400 27.64400 45.24200
C  50.55900 27.26100 44.72200
C  50.71200 25.89300 44.33100
C  52.18100 28.99900 45.76700
C  49.26300 27.70300 44.39200
O  48.76800 28.84200 44.49300
C  48.51500 26.48500 43.76100
C  48.18600 26.87000 42.35100
O  48.94200 26.90900 41.42800
O  46.84200 27.13400 42.23000
C  46.38100 27.58400 40.90700
H  50.11500 19.59400 43.87200
H  56.17700 21.12600 44.66500
H  54.42100 27.28900 45.55900
H  47.17500 23.55100 44.01700
H  47.94800 21.13300 42.94700
H  47.85000 20.51100 45.50300
H  46.48700 21.16600 44.55200
H  47.32600 22.19200 45.74500
H  47.22200 24.25400 41.64800
H  46.56900 22.69600 41.74900
H  48.03900 21.72300 40.47100
H  49.39800 22.57400 41.27800
H  52.72500 17.44700 42.79900
H  51.08200 17.86600 43.44200
H  52.30700 17.09000 44.46700
H  57.17200 17.78300 44.00300
H  56.87900 18.96000 45.29100
H  56.92300 19.51100 43.59200
H  57.06900 23.87900 43.72300
H  56.58600 25.60200 46.21600
H  57.69000 22.32100 46.01400
H  57.93800 24.03600 46.49300
H  58.77400 23.32500 45.04900
H  56.29700 27.18200 43.85000
H  57.65700 25.93400 43.74200
H  58.74400 27.02700 45.53600
H  57.29700 27.98500 45.91800
H  58.10800 28.27900 44.42000
H  51.81600 29.72200 45.03800
H  53.25200 29.20200 45.79600
H  51.83100 29.08300 46.79600
H  47.61100 26.27400 44.33200
H  46.83700 26.93600 40.15900
H  46.65200 28.61700 40.68900
H  45.30600 27.41500 40.97900
Mg 41.62100 41.31100 27.41900
C  40.95300 43.77400 29.75800
C  41.98700 39.00500 29.89500
C  42.52800 39.11400 25.02200
C  41.69500 43.93100 24.99800
N  41.40100 41.34700 29.57800
C  40.99000 42.47400 30.34500
C  40.83400 42.14700 31.77900
C  41.22900 40.64700 31.86500
C  41.51100 40.25900 30.37400
C  42.34300 40.23800 32.83300
C  39.47900 42.58900 32.51000
C  38.90900 41.81700 33.73500
H  38.18900 42.65700 34.80500
N  42.14300 39.34400 27.47100
C  42.18000 38.50400 28.57000
C  42.45300 37.12000 28.16100
C  42.63600 37.18400 26.75600
C  42.41800 38.56100 26.37300
C  42.57300 35.88300 29.06100
C  42.99400 36.03500 25.71900
O  43.26900 36.17500 24.51400
C  43.14600 34.62800 26.28200
N  42.13900 41.49900 25.42100
C  42.43800 40.44400 24.59000
C  42.60200 40.84000 23.13800
C  42.10800 42.31700 23.15600
C  41.99100 42.67100 24.63300
C  44.08600 40.65600 22.57300
C  40.83400 42.77900 22.38600
C  39.50200 42.12600 22.92000
N  41.33600 43.41900 27.35800
C  41.38000 44.33600 26.37600
C  41.10800 45.65700 26.79500
C  40.87500 45.53300 28.19000
C  41.09800 44.12600 28.45900
C  41.02800 46.91800 26.01900
C  40.53100 46.15900 29.35600
O  40.27400 47.34500 29.56100
C  40.57100 45.02400 30.46100
C  41.54700 45.42700 31.59300
O  42.72500 45.12700 31.57900
O  40.77000 45.98500 32.59600
C  41.45600 46.13300 33.86300
H  42.13900 38.23000 30.64900
H  42.84200 38.36500 24.29100
H  41.54000 44.68100 24.22000
H  41.67700 42.74900 32.11900
H  40.30200 40.17900 32.19400
H  42.15400 39.26900 33.29600
H  42.16500 41.03800 33.55100
H  43.36700 40.38300 32.48800
H  38.62300 42.61700 31.83600
H  39.73000 43.62100 32.75500
H  39.73600 41.39500 34.30600
H  38.27300 40.96900 33.48200
H  42.59000 36.35600 30.04300
H  43.50600 35.36200 28.84500
H  41.80400 35.12100 28.93700
H  42.20000 34.35900 26.75100
H  43.90100 34.66000 27.06800
H  43.48000 34.01800 25.44200
H  41.84400 40.19800 22.68900
H  42.91800 42.95600 22.80600
H  44.67600 40.11400 23.31200
H  44.53500 41.57600 22.19900
H  43.97600 39.93300 21.76400
H  40.98900 42.42800 21.36600
H  40.80500 43.86700 22.43400
H  39.64000 41.60600 23.86800
H  39.10100 41.44400 22.17000
H  38.73600 42.87100 23.13900
H  40.18900 46.88800 25.32300
H  41.93400 47.07600 25.43500
H  40.97600 47.70700 26.76900
H  39.54300 44.86600 30.78700
H  42.53000 46.31100 33.81600
H  41.26800 45.33000 34.57600
H  41.09900 47.07000 34.29200

