158

Mg 46.41300 24.84200 28.43600
C  47.29900 26.87900 31.20300
C  45.84100 22.33300 30.67200
C  46.01700 22.83800 25.78700
C  47.71900 27.36300 26.34700
N  46.57200 24.66400 30.69000
C  46.78200 25.65000 31.57600
C  46.45700 25.22000 33.02800
C  46.18200 23.62300 32.82100
C  46.21800 23.53800 31.27200
C  47.16800 22.68500 33.52200
C  45.24400 25.99600 33.69500
C  45.45500 26.87700 35.03000
H  44.52700 26.63300 36.24600
N  45.94200 22.89300 28.28700
C  45.69700 22.01700 29.32100
C  45.24900 20.76400 28.77200
C  45.19500 20.90000 27.39900
C  45.71600 22.25800 27.09200
C  45.14200 19.51900 29.67300
C  44.75700 19.81700 26.45700
O  44.90000 19.94400 25.21100
C  44.22600 18.58100 26.92200
N  46.98600 24.97800 26.44800
C  46.55400 24.09500 25.50000
C  46.91300 24.43600 24.08900
C  47.08100 26.01500 24.24500
C  47.33400 26.18900 25.78500
C  48.11600 23.59900 23.41500
C  45.85100 26.83800 23.73300
C  44.46000 26.19900 23.98300
N  47.28600 26.74300 28.66300
C  47.80400 27.58700 27.71400
C  48.33300 28.76100 28.39500
C  48.10400 28.56400 29.78100
C  47.52900 27.29100 29.88200
C  49.02400 29.99400 27.85200
C  48.27100 29.22400 31.11400
O  48.76300 30.32900 31.41900
C  47.72900 28.08000 32.08300
C  48.82700 27.71000 33.04500
O  49.74500 26.89300 32.79500
O  48.52500 28.33500 34.25400
C  49.35700 27.91400 35.35800
H  45.42400 21.64500 31.41000
H  45.93300 22.14300 24.95000
H  47.90000 28.27800 25.78000
H  47.38800 25.21200 33.59400
H  45.12800 23.50500 33.07500
H  47.65600 23.21800 34.33900
H  47.95000 22.36300 32.83400
H  46.45400 21.92400 33.83800
H  44.52500 25.20200 33.89900
H  44.88300 26.65900 32.90900
H  45.29200 27.92900 34.79200
H  46.51200 26.86000 35.29300
H  44.13200 19.15900 29.86800
H  45.74700 19.49100 30.58000
H  45.71000 18.72900 29.18100
H  44.92800 17.90400 27.40900
H  43.76500 18.06700 26.07800
H  43.46900 18.87700 27.64900
H  45.99800 24.12400 23.58500
H  48.01400 26.32500 23.77500
H  48.87800 24.28400 23.04300
H  47.66600 23.06500 22.57800
H  48.47200 22.87500 24.14800
H  45.95100 26.94500 22.65300
H  45.84200 27.86300 24.10300
H  44.19600 25.61900 23.09900
H  43.76200 27.00900 24.19500
H  44.40400 25.47600 24.79700
H  48.49000 30.91700 28.07700
H  49.35800 29.93900 26.81600
H  49.93500 30.09000 28.44300
H  46.80700 28.30100 32.62000
H  48.92000 27.05700 35.87000
H  49.36800 28.75600 36.04900
H  50.41200 27.78000 35.11800
Mg 9.09800 48.29200 27.40800
C  6.84800 48.21000 30.12600
C  11.74000 49.08100 29.44600
C  11.00200 48.42900 24.71400
C  6.17400 47.91600 25.35600
N  9.24200 48.60000 29.55800
C  8.23100 48.40400 30.48000
C  8.79800 48.41800 31.90200
C  10.25600 48.96000 31.62700
C  10.44000 48.92300 30.11000
C  10.30200 50.32000 32.33900
C  8.78700 47.05900 32.75800
C  9.81300 46.82000 33.89200
H  9.19900 46.36900 35.28000
N  11.03400 48.67700 27.14200
C  11.97400 48.97000 28.07000
C  13.30400 48.97400 27.52400
C  13.13600 49.00000 26.13600
C  11.66900 48.62700 25.90900
C  14.57800 49.14700 28.48400
C  14.12700 49.27000 25.00100
O  13.82500 49.13700 23.83500
C  15.60200 49.59700 25.35200
N  8.52600 48.24300 25.30900
C  9.60600 48.35900 24.43600
C  9.13800 48.23000 22.94700
C  7.58300 48.17200 23.13700
C  7.42200 48.06200 24.67200
C  9.65500 49.20700 21.84500
C  6.81700 47.01000 22.36600
C  6.76200 47.12700 20.85800
N  6.86800 48.14100 27.66100
C  5.87700 48.01100 26.71600
C  4.55900 47.90900 27.38400
C  4.89500 48.00600 28.76200
C  6.29400 48.11100 28.82400
C  3.13800 47.77100 26.71800
C  4.33900 47.95100 30.08300
O  3.18300 47.87200 30.41700
C  5.63700 47.98300 31.04900
C  5.62800 46.64600 31.64800
O  5.92600 45.58500 31.09300
O  5.21100 46.73000 32.96100
C  5.20000 45.45700 33.70200
H  12.58100 49.14100 30.14000
H  11.59400 48.44700 23.79700
H  5.26000 47.86200 24.76100
H  8.11400 49.09200 32.41700
H  10.98000 48.26200 32.04700
H  11.29200 50.38800 32.79200
H  9.53600 50.37900 33.11200
H  10.13900 51.11500 31.61200
H  8.83700 46.24800 32.03100
H  7.77000 47.04200 33.15000
H  10.24200 47.77300 34.19900
H  10.42700 45.98700 33.55000
H  15.43200 48.62800 28.05000
H  14.46400 48.70400 29.47300
H  14.85000 50.20000 28.55400
H  16.08600 48.62900 25.22400
H  15.72300 50.17400 26.26900
H  16.00000 50.24900 24.57400
H  9.40200 47.21400 22.65400
H  7.15100 49.12900 22.84600
H  10.27000 48.72100 21.08800
H  10.31600 49.97000 22.25600
H  9.03200 49.79400 21.17000
H  5.84700 47.07200 22.86000
H  7.33300 46.07600 22.58500
H  7.18500 46.17600 20.53400
H  7.23200 47.91900 20.27500
H  5.72000 47.16100 20.53800
H  3.03500 46.83500 26.17000
H  3.03000 48.53500 25.94900
H  2.37800 47.76400 27.50000
H  5.61500 48.70100 31.86900
H  4.71200 45.61300 34.66400
H  6.24500 45.27700 33.95700
H  4.75300 44.59200 33.21200

