158

Mg 26.05600 -0.25400 29.56600
C  28.19500 -0.52700 32.37400
C  23.53100 0.32300 31.70400
C  24.15100 -0.11200 26.89300
C  28.72000 -1.52100 27.62300
N  25.90900 -0.16600 31.77500
C  26.91200 -0.11600 32.68800
C  26.43900 0.33800 34.08100
C  24.90200 0.41200 33.91500
C  24.76200 0.21900 32.37000
C  24.05800 -0.65200 34.71800
C  27.14300 1.67800 34.45300
C  28.07300 1.56300 35.71600
H  27.88900 2.57900 36.87400
N  24.08900 0.11100 29.33300
C  23.16100 0.32900 30.31400
C  21.88500 0.57300 29.74700
C  21.97600 0.40000 28.36300
C  23.43600 0.10000 28.09200
C  20.69800 1.02800 30.62100
C  20.89300 0.44100 27.25600
O  21.17800 0.12500 26.08900
C  19.59900 1.09400 27.54000
N  26.41300 -0.66000 27.51500
C  25.46800 -0.45800 26.63100
C  26.00500 -0.69500 25.12300
C  27.44200 -1.12100 25.41400
C  27.59500 -1.11600 26.90500
C  25.13400 -1.69400 24.19600
C  28.52400 -0.26000 24.66200
C  28.56500 1.26800 24.86900
N  28.04100 -0.84500 29.89000
C  28.98100 -1.33500 29.01200
C  30.28600 -1.49500 29.69700
C  30.00400 -1.12700 31.03300
C  28.63900 -0.82900 31.07300
C  31.52300 -1.94700 29.10700
C  30.58200 -0.96400 32.35600
O  31.65400 -1.25400 32.82100
C  29.47000 -0.57600 33.24900
C  29.41200 -1.58100 34.31900
O  28.88000 -2.67300 34.25700
O  30.09800 -1.17100 35.43200
C  30.23600 -2.01800 36.64500
H  22.74200 0.58100 32.41400
H  23.47800 -0.00600 26.04000
H  29.63800 -1.71700 27.06600
H  26.76800 -0.40400 34.80800
H  24.55100 1.34800 34.35000
H  24.64700 -1.05700 35.54100
H  23.70900 -1.48800 34.11200
H  23.13000 -0.22300 35.09600
H  26.42700 2.48200 34.62500
H  27.75900 2.03200 33.62700
H  29.10200 1.70900 35.39000
H  28.07400 0.50900 35.99100
H  20.45200 2.07000 30.42000
H  20.88300 1.07700 31.69400
H  19.86700 0.35800 30.39500
H  19.55200 2.10200 27.95200
H  19.01300 0.45000 28.19600
H  19.05000 1.17500 26.60200
H  25.98900 0.25200 24.58200
H  27.60900 -2.15100 25.09800
H  24.21100 -1.84900 24.75500
H  25.58000 -2.67300 24.02500
H  24.80200 -1.22500 23.26900
H  28.22300 -0.26000 23.61400
H  29.48700 -0.72200 24.88000
H  27.87000 1.63400 25.62500
H  28.15000 1.75400 23.98600
H  29.61200 1.56100 24.94400
H  32.33200 -1.64400 29.77100
H  31.55400 -1.60200 28.07300
H  31.56500 -3.03600 29.14900
H  29.85100 0.40700 33.52500
H  29.64900 -1.53800 37.42700
H  31.25400 -2.08700 37.02900
H  29.95000 -3.05000 36.44400
Mg 35.86800 0.71400 29.56400
C  33.73200 1.81400 32.07200
C  38.51500 0.41800 31.88000
C  37.86400 -0.04800 27.03000
C  33.27400 1.11200 27.29700
N  36.05400 1.30100 31.72500
C  35.09300 1.56600 32.53200
C  35.58700 1.50000 33.97000
C  37.09500 1.35600 33.89500
C  37.26700 0.88500 32.39200
C  37.92300 2.70000 34.22200
C  34.80300 0.46400 34.81600
C  34.24100 0.75800 36.22400
H  35.00800 1.89200 36.97800
N  37.89100 0.21600 29.49300
C  38.78400 0.15600 30.54300
C  40.05600 -0.34600 30.01300
C  39.92900 -0.54200 28.64300
C  38.52000 -0.07900 28.31000
C  41.24000 -0.64900 30.83500
C  40.88600 -1.18300 27.63300
O  40.60900 -1.10200 26.45300
C  42.03300 -1.92100 28.05400
N  35.62300 0.43900 27.49700
C  36.61100 0.23300 26.59400
C  36.12800 0.34900 25.10100
C  34.64300 0.44800 25.30500
C  34.47200 0.60900 26.77300
C  36.85600 1.44500 24.27100
C  33.87000 -0.72800 24.63100
C  33.38700 -1.92200 25.52000
N  33.89500 1.38900 29.55800
C  32.98300 1.46200 28.55600
C  31.69600 1.79500 29.13100
C  31.93400 2.05000 30.48800
C  33.33300 1.72600 30.74200
C  30.38600 1.91800 28.38500
C  31.39700 2.51300 31.75200
O  30.28200 2.86800 32.11300
C  32.53500 2.27600 32.82600
C  32.72700 3.56000 33.53700
O  33.41700 4.52600 33.24100
O  31.80100 3.60800 34.59200
C  31.66300 4.84200 35.29700
H  39.19200 0.27900 32.72600
H  38.54700 -0.32700 26.22500
H  32.46900 1.14000 26.56100
H  35.41900 2.45700 34.46300
H  37.44500 0.52400 34.50500
H  38.33300 2.62100 35.22900
H  37.30000 3.58300 34.07700
H  38.79100 2.80600 33.57200
H  35.42600 -0.41700 34.97100
H  33.95200 0.08500 34.25000
H  34.28800 -0.09600 36.89900
H  33.25800 1.20900 36.08500
H  42.19600 -0.35500 30.40200
H  41.19800 -1.68400 31.17300
H  41.21700 0.01000 31.70300
H  42.35100 -2.48600 27.17800
H  41.62500 -2.60300 28.79900
H  42.80800 -1.21600 28.35600
H  36.38800 -0.60600 24.64500
H  34.25100 1.39200 24.92600
H  37.55700 1.98100 24.91000
H  36.20000 2.18100 23.80600
H  37.44800 0.92900 23.51500
H  34.33400 -1.08400 23.71100
H  32.95200 -0.25200 24.28800
H  33.67900 -2.87400 25.07800
H  32.31900 -1.84700 25.72700
H  33.81400 -1.83600 26.51900
H  29.54700 1.44700 28.89700
H  30.40400 1.43500 27.40800
H  29.95700 2.91700 28.30300
H  32.22300 1.52400 33.55200
H  32.57900 5.02000 35.85900
H  31.01100 4.77000 36.16700
H  31.40800 5.58700 34.54300

