158

Mg -1.26300 17.47700 26.89100
C  -1.61800 15.22200 29.76000
C  -1.75000 20.06900 29.02300
C  -1.72800 19.48400 24.17500
C  -1.66500 14.64000 24.84600
N  -1.71800 17.60500 29.19500
C  -1.69300 16.60800 30.16100
C  -1.91400 17.20600 31.60700
C  -2.18400 18.72000 31.26400
C  -1.87500 18.83000 29.74300
C  -3.67500 19.04100 31.53100
C  -0.69600 16.98000 32.50400
C  -0.51000 17.66900 33.82600
H  -0.89400 16.96300 35.13700
N  -1.37500 19.48800 26.63900
C  -1.54000 20.38300 27.64400
C  -1.54300 21.70200 27.02400
C  -1.47900 21.54100 25.60200
C  -1.55600 20.12300 25.42600
C  -1.69800 22.93100 27.91200
C  -1.30400 22.55500 24.54000
O  -1.27000 22.32800 23.33500
C  -1.19700 24.01300 24.92300
N  -1.72800 17.11100 24.85000
C  -1.71700 18.11600 23.90300
C  -1.95800 17.53500 22.57200
C  -1.70600 16.03800 22.81300
C  -1.69000 15.88900 24.29700
C  -3.35800 17.97700 22.00100
C  -0.34700 15.49000 22.22600
C  0.98700 16.14200 22.75300
N  -1.49100 15.37700 27.20800
C  -1.56900 14.36500 26.24100
C  -1.51200 13.04400 26.92000
C  -1.56300 13.36800 28.26500
C  -1.47300 14.73400 28.37400
C  -1.58400 11.67400 26.20500
C  -1.61800 12.75100 29.58500
O  -1.73100 11.60300 29.88400
C  -1.73200 13.96500 30.63500
C  -0.71000 13.67000 31.62100
O  0.48700 14.00100 31.71900
O  -1.34900 12.76000 32.41400
C  -0.73100 12.06800 33.52500
H  -1.83400 20.85200 29.78000
H  -2.02600 20.00100 23.26000
H  -1.55300 13.84800 24.10300
H  -2.74000 16.56500 31.91400
H  -1.52400 19.44200 31.74500
H  -3.94200 19.65200 30.66900
H  -3.80300 19.50800 32.50800
H  -4.36600 18.20000 31.47400
H  0.20900 17.15400 31.92100
H  -0.70700 15.92200 32.76500
H  -1.19600 18.49600 33.64300
H  0.44200 18.19800 33.86300
H  -2.04000 22.81100 28.94100
H  -2.38300 23.57100 27.35600
H  -0.72300 23.41100 27.99000
H  -0.29400 23.99700 25.53400
H  -2.04500 24.41700 25.47500
H  -0.95800 24.61800 24.04800
H  -1.15400 17.85400 21.90900
H  -2.53300 15.43400 22.44000
H  -3.64100 18.92700 22.45300
H  -4.00700 17.17200 22.34400
H  -3.27000 18.09800 20.92100
H  -0.42300 15.73000 21.16500
H  -0.31800 14.40100 22.25000
H  1.42500 16.71800 21.93800
H  1.69700 15.40200 23.12200
H  0.73000 16.78400 23.59500
H  -0.62200 11.34100 25.81500
H  -2.32100 11.63400 25.40300
H  -1.94300 10.94200 26.92900
H  -2.70200 13.99500 31.13300
H  -0.87700 12.65500 34.43200
H  0.34900 11.96400 33.42200
H  -1.20300 11.11600 33.76700
Mg 30.13800 59.39800 40.45200
C  26.96000 58.15900 39.21100
C  31.62400 56.67500 38.90300
C  33.12200 61.02900 40.54100
C  28.47400 62.36800 41.13700
N  29.30500 57.65300 39.11200
C  28.00700 57.25100 38.91600
C  28.01600 55.94400 38.03300
C  29.42300 55.34100 38.37200
C  30.16200 56.63900 38.78700
C  29.41700 54.31000 39.54400
C  27.87100 56.28100 36.49000
C  26.71000 55.58100 35.69900
H  26.96800 54.83000 34.33500
N  32.05100 58.96400 39.93300
C  32.47200 57.70400 39.42000
C  33.99100 57.71900 39.27200
C  34.37400 58.91400 39.83700
C  33.19600 59.69600 40.18200
C  34.84400 56.58700 38.65000
C  35.81900 59.34000 39.91700
O  36.73800 58.60200 39.55100
C  36.25800 60.65800 40.56000
N  30.64600 61.43700 40.79400
C  31.96600 61.87700 40.69100
C  31.95700 63.44700 40.92200
C  30.52100 63.78900 41.49600
C  29.78300 62.51200 41.08500
C  33.06000 64.07000 41.67600
C  29.87600 65.10900 41.01900
C  29.58800 66.14700 42.09100
N  28.17200 60.12400 40.33100
C  27.65100 61.31600 40.64500
C  26.21600 61.29700 40.56600
C  25.86900 60.10900 39.94300
C  27.09900 59.39600 39.81000
C  25.41000 62.42200 41.03200
C  24.76000 59.33200 39.45900
O  23.54200 59.52800 39.60700
C  25.44200 57.98400 38.91900
C  24.83600 56.76400 39.59200
O  24.60900 56.61600 40.78800
O  24.66400 55.76000 38.62600
C  24.03000 54.50800 39.12600
H  32.24600 55.79600 38.72000
H  34.03200 61.63300 40.56800
H  27.81600 63.18900 41.43100
H  27.29400 55.16300 38.27300
H  30.00300 54.86500 37.58100
H  28.42600 54.30400 39.99700
H  30.09700 54.67500 40.31400
H  29.71000 53.32400 39.18400
H  28.81500 56.12600 35.96700
H  27.67100 57.35100 36.43900
H  25.92200 56.30500 35.48800
H  26.14200 54.85400 36.28000
H  35.42900 57.00600 37.83100
H  34.14500 55.82200 38.31200
H  35.46000 56.10400 39.40800
H  35.99400 61.54100 39.97800
H  37.33200 60.51300 40.67400
H  35.87600 60.75700 41.57600
H  32.00700 63.91200 39.93700
H  30.64500 63.85100 42.57700
H  32.72600 65.03300 42.06300
H  33.94500 64.06400 41.04000
H  33.32800 63.43300 42.51900
H  29.01600 64.91800 40.37700
H  30.69600 65.52200 40.43200
H  28.57200 66.54000 42.05500
H  30.12300 67.03500 41.75500
H  29.81100 65.89100 43.12700
H  25.58100 62.43100 42.10800
H  24.35200 62.20700 40.87800
H  25.74600 63.40800 40.70900
H  25.18500 57.89700 37.86300
H  23.00000 54.83900 39.25900
H  24.45000 54.13200 40.05900
H  23.94300 53.74300 38.35500

