158

Mg -8.55900 40.46600 42.79400
C  -7.35200 37.35000 41.72300
C  -6.06100 41.92500 40.75000
C  -10.08800 43.55200 43.14300
C  -11.53600 38.91200 43.76000
N  -6.89500 39.71700 41.33500
C  -6.55200 38.44800 41.21100
C  -5.18900 38.25700 40.41800
C  -4.70900 39.75100 40.17000
C  -5.90200 40.50900 40.90400
C  -3.29800 40.22300 40.84200
C  -5.54200 37.34700 39.13800
C  -4.54600 36.11400 39.02200
H  -4.89300 34.97300 38.04800
N  -8.07600 42.46600 42.22600
C  -6.99600 42.79100 41.38300
C  -6.90700 44.14700 41.30000
C  -8.04200 44.77700 41.85800
C  -8.84000 43.61100 42.41100
C  -5.70400 44.82900 40.51700
C  -8.42900 46.24100 41.71500
O  -7.75100 47.01300 41.04700
C  -9.81300 46.75400 42.19100
N  -10.52200 41.11000 43.42000
C  -10.85700 42.37800 43.56700
C  -12.36500 42.53900 43.94500
C  -12.82800 41.03100 44.10300
C  -11.60700 40.29000 43.78000
C  -12.55000 43.46400 45.20000
C  -14.05500 40.65300 43.32900
C  -15.05600 39.80100 44.11400
N  -9.25700 38.52900 42.87400
C  -10.44500 38.04300 43.32800
C  -10.45100 36.61500 43.24400
C  -9.21500 36.21600 42.74700
C  -8.59300 37.46100 42.43400
C  -11.53900 35.74100 43.78600
C  -8.35500 35.11300 42.41200
O  -8.49200 33.93500 42.66400
C  -7.08400 35.76700 41.76700
C  -5.87400 35.36100 42.54400
O  -5.47200 36.11700 43.45100
O  -5.39900 34.13500 42.21200
C  -4.30500 33.57000 43.01200
H  -5.19700 42.32300 40.21400
H  -10.60500 44.49700 43.32300
H  -12.47700 38.48000 44.10800
H  -4.47000 37.70100 41.02000
H  -4.77400 39.89700 39.09100
H  -3.34800 41.28400 41.08800
H  -2.54300 40.17100 40.05800
H  -3.08000 39.58500 41.69900
H  -5.47200 38.00100 38.26900
H  -6.54000 36.91100 39.15600
H  -4.58800 35.64700 40.00600
H  -3.53000 36.48300 38.87700
H  -5.99400 45.01500 39.48300
H  -4.78400 44.24500 40.51500
H  -5.38100 45.73700 41.02600
H  -9.99000 47.79800 41.93300
H  -9.82200 46.66000 43.27700
H  -10.56500 46.08200 41.77800
H  -12.80000 42.95500 43.03600
H  -12.91000 40.79700 45.16500
H  -12.88700 42.95000 46.10100
H  -13.26800 44.27200 45.06400
H  -11.59600 43.92500 45.45500
H  -13.69000 40.21500 42.40000
H  -14.63700 41.50300 42.97300
H  -14.88100 39.89200 45.18600
H  -15.03900 38.81000 43.66100
H  -16.02800 40.24200 43.89600
H  -11.28600 34.69300 43.62500
H  -12.44700 35.98200 43.23200
H  -11.70600 35.94500 44.84300
H  -6.91000 35.24200 40.82700
H  -4.47400 33.89400 44.03900
H  -3.28300 33.85100 42.75700
H  -4.42500 32.49200 43.11300
Mg -1.50800 34.35000 26.62900
C  -2.89300 32.66600 29.31600
C  0.12000 36.35900 28.69900
C  -0.67500 36.26300 23.87300
C  -3.54800 32.37500 24.35600
N  -1.46200 34.55900 28.77500
C  -2.07500 33.72600 29.69100
C  -1.66900 34.00100 31.12200
C  -0.75500 35.26900 30.93500
C  -0.65400 35.44300 29.40100
C  -1.24200 36.64000 31.60600
C  -1.02200 32.83900 31.97200
C  -1.51200 32.69400 33.42500
H  -0.46200 32.56500 34.51100
N  -0.33100 36.03900 26.32700
C  0.22700 36.70700 27.35800
C  1.20300 37.66000 26.75000
C  1.05600 37.63700 25.32200
C  -0.06600 36.64100 25.12300
C  2.04900 38.58900 27.55000
C  1.79900 38.30000 24.21100
O  1.48400 38.14900 23.05800
C  3.01200 39.21500 24.57500
N  -1.98200 34.31200 24.40200
C  -1.58700 35.24500 23.50100
C  -2.23300 35.04000 22.14600
C  -3.03600 33.70900 22.35300
C  -2.82700 33.44800 23.82100
C  -3.08200 36.29000 21.73200
C  -2.68500 32.48600 21.45900
C  -1.44900 31.68500 21.85700
N  -2.91800 32.80600 26.73300
C  -3.51100 32.02200 25.75700
C  -4.29700 30.97400 26.37200
C  -4.05300 31.19100 27.71400
C  -3.22000 32.32000 27.91600
C  -5.14800 29.90100 25.73100
C  -4.38700 30.74900 28.96600
O  -5.15300 29.87300 29.30100
C  -3.58800 31.57200 30.11200
C  -4.54300 32.11000 31.07500
O  -4.99000 33.20900 30.99600
O  -4.77300 31.23100 32.09000
C  -5.51700 31.68000 33.24600
H  0.76000 36.89500 29.40300
H  -0.63500 36.98300 23.05300
H  -4.18200 31.83700 23.64800
H  -2.52100 34.39700 31.67400
H  0.21600 35.01300 31.35900
H  -2.09000 36.45300 32.26400
H  -1.51400 37.33600 30.81200
H  -0.40700 36.93300 32.24300
H  0.05400 32.93600 32.11600
H  -1.25700 32.01600 31.29700
H  -2.23800 31.88800 33.53500
H  -2.00100 33.65600 33.57900
H  3.04500 38.14700 27.58500
H  1.63200 38.75100 28.54300
H  1.99500 39.53900 27.01900
H  3.66100 38.50700 25.09100
H  2.75500 40.11200 25.13900
H  3.42800 39.44900 23.59600
H  -1.45200 34.83700 21.41400
H  -4.10200 33.83600 22.16300
H  -2.91300 37.03200 22.51200
H  -4.16000 36.13300 21.70000
H  -2.63300 36.74800 20.85100
H  -2.44300 33.05200 20.55900
H  -3.64100 31.99100 21.28700
H  -1.70900 30.64100 22.03200
H  -1.06300 32.04200 22.81200
H  -0.74400 31.74200 21.02700
H  -4.56800 29.58500 24.86400
H  -6.19200 30.21000 25.67600
H  -5.13400 29.13900 26.51000
H  -2.94200 30.89200 30.66600
H  -4.95700 32.41200 33.82800
H  -5.77300 30.86500 33.92300
H  -6.40800 32.28100 33.06400

