158

Mg 24.56900 -6.11400 46.25300
C  26.38400 -3.51300 44.69000
C  22.05900 -5.52600 44.32200
C  23.33500 -9.00200 47.50500
C  27.75000 -6.94300 47.91000
N  24.25500 -4.66700 44.61500
C  25.15500 -3.71800 44.11900
C  24.53100 -2.95800 42.93900
C  23.07000 -3.42000 42.93100
C  23.09700 -4.59600 44.01900
C  22.02300 -2.25200 43.04900
C  25.41500 -3.21200 41.61000
C  25.96000 -1.90100 40.99900
H  25.41000 -1.62100 39.64100
N  22.83000 -7.02200 46.11100
C  21.86500 -6.61100 45.25600
C  20.71900 -7.43000 45.39200
C  20.99000 -8.49500 46.31700
C  22.40600 -8.19100 46.73900
C  19.49700 -7.03400 44.64700
C  20.06700 -9.56400 46.74300
O  18.88800 -9.66200 46.31800
C  20.51500 -10.66900 47.75100
N  25.47000 -7.76300 47.40000
C  24.67700 -8.83500 47.82300
C  25.59000 -9.97700 48.35600
C  26.94200 -9.30400 48.63700
C  26.76200 -7.92100 47.91500
C  25.13400 -10.72400 49.58700
C  28.24200 -10.10300 48.22800
C  29.52400 -9.91000 49.12800
N  26.61900 -5.37900 46.34100
C  27.71500 -5.79500 47.11900
C  28.70300 -4.78200 47.06800
C  28.24600 -3.88400 46.06100
C  26.90500 -4.26500 45.69900
C  29.98500 -4.83600 47.79400
C  28.68000 -2.80400 45.25300
O  29.74700 -2.22400 45.26700
C  27.48900 -2.45600 44.29600
C  26.96700 -1.08500 44.52400
O  26.22800 -0.72700 45.41800
O  27.51100 -0.23500 43.50800
C  26.90700 1.13200 43.51200
H  21.26900 -5.14800 43.66900
H  22.90200 -9.94400 47.84800
H  28.68400 -7.27400 48.36700
H  24.67600 -1.91600 43.22400
H  22.65600 -3.84000 42.01500
H  22.52800 -1.35900 42.67900
H  21.71800 -2.13100 44.08800
H  21.11200 -2.50100 42.50500
H  24.76900 -3.69200 40.87500
H  26.19300 -3.96000 41.76700
H  27.04300 -1.88500 40.87900
H  25.76400 -0.98300 41.55200
H  18.77000 -7.84500 44.60500
H  19.74600 -6.67100 43.65000
H  19.03300 -6.23900 45.23000
H  19.68600 -11.27600 48.11500
H  21.03500 -10.09500 48.51800
H  21.19000 -11.37700 47.27000
H  25.75800 -10.73800 47.59400
H  27.03100 -8.97800 49.67300
H  24.10300 -10.84400 49.92000
H  25.68600 -10.26800 50.41000
H  25.46900 -11.75100 49.44600
H  28.54400 -9.85000 47.21200
H  28.00300 -11.16600 48.26000
H  30.34800 -9.68800 48.45000
H  29.74800 -10.83900 49.65200
H  29.42300 -9.09500 49.84600
H  30.69000 -5.57600 47.41600
H  29.72200 -5.08600 48.82200
H  30.30600 -3.79700 47.73200
H  27.75700 -2.64700 43.25700
H  27.44800 1.71400 42.76600
H  27.06500 1.56700 44.49900
H  25.83400 1.22100 43.34300
Mg -2.08100 35.18900 26.59800
C  -3.99000 33.44400 28.95000
C  -1.48000 37.53200 29.07300
C  -0.23500 36.84600 24.33700
C  -3.21200 33.04000 24.23700
N  -2.71600 35.41800 28.79600
C  -3.26800 34.43500 29.54900
C  -2.99700 34.76100 31.04800
C  -2.53300 36.21700 31.08400
C  -2.21500 36.40700 29.56100
C  -3.66400 37.12100 31.71700
C  -2.11100 33.64100 31.69500
C  -2.74300 32.80500 32.79200
H  -2.02300 32.79200 34.15200
N  -1.04300 36.98000 26.64600
C  -0.85300 37.77300 27.80600
C  0.17700 38.78700 27.46000
C  0.37300 38.75400 26.08400
C  -0.28000 37.49300 25.60100
C  0.85800 39.62900 28.53300
C  1.24600 39.67000 25.22500
O  1.54200 39.48500 24.06000
C  1.67200 40.91900 25.71100
N  -1.85300 35.08300 24.49700
C  -0.92800 35.77000 23.82700
C  -0.74000 35.22000 22.39000
C  -1.70400 33.94600 22.39500
C  -2.35200 34.00400 23.79400
C  -1.01800 36.21400 21.27200
C  -1.04500 32.56800 22.13200
C  -0.33800 31.88200 23.33000
N  -3.54700 33.66600 26.48500
C  -3.88300 32.87200 25.44300
C  -4.88900 31.82500 25.87600
C  -4.95700 32.04700 27.26400
C  -4.09400 33.15600 27.57700
C  -5.59300 30.82600 25.07400
C  -5.49100 31.63000 28.49800
O  -6.19900 30.66800 28.73300
C  -4.90700 32.45900 29.68500
C  -5.96900 33.15700 30.43300
O  -6.72100 33.93500 29.92500
O  -6.13400 32.56600 31.68200
C  -7.25200 32.99600 32.48400
H  -1.24000 38.26400 29.84800
H  0.38900 37.37600 23.61500
H  -3.43100 32.30300 23.46100
H  -3.95200 34.64300 31.55900
H  -1.59700 36.34100 31.62900
H  -3.31800 37.70100 32.57300
H  -4.43000 36.45600 32.11500
H  -4.07100 37.74100 30.91800
H  -1.29800 34.09100 32.26500
H  -1.70600 32.95600 30.95000
H  -2.70100 31.79900 32.37400
H  -3.78900 33.06700 32.94800
H  1.94500 39.61100 28.45800
H  0.57200 39.32500 29.54000
H  0.49700 40.65700 28.53500
H  0.92900 41.51100 26.24500
H  2.11400 41.52200 24.91800
H  2.51700 40.74700 26.37700
H  0.29400 34.88000 22.33000
H  -2.50100 34.06000 21.66000
H  -1.84300 35.77700 20.71000
H  -0.02500 36.35300 20.84500
H  -1.31300 37.22000 21.57100
H  -0.23400 32.70400 21.41500
H  -1.72800 31.87700 21.63800
H  -0.92000 30.97600 23.49900
H  -0.34500 32.42900 24.27200
H  0.73500 31.73200 23.20600
H  -5.28500 30.77300 24.03000
H  -6.64200 31.11500 25.14400
H  -5.42600 29.81800 25.45400
H  -4.30200 31.83600 30.34300
H  -7.89100 33.74500 32.01500
H  -6.85000 33.38100 33.42100
H  -7.84400 32.11900 32.74400

