158

Mg 53.63000 25.99300 44.60600
C  50.95000 28.14800 44.41400
C  51.43800 23.41500 43.75600
C  56.27200 23.92000 44.21900
C  55.62500 28.69200 45.10000
N  51.40200 25.82300 44.15400
C  50.53100 26.81500 44.12300
C  49.12800 26.39200 43.55500
C  49.27400 24.84100 43.88000
C  50.81800 24.63300 43.85000
C  48.54300 24.26800 45.08300
C  48.86700 26.69400 42.04600
C  50.08500 26.97200 41.07500
H  50.36900 26.01700 39.92200
N  53.81400 23.89900 44.12800
C  52.82100 22.98800 43.89400
C  53.40200 21.68200 43.55100
C  54.86100 21.81800 43.75400
C  55.01800 23.25900 44.06200
C  52.58700 20.52000 43.21000
C  55.93200 20.62900 43.72800
O  55.57500 19.48100 43.43400
C  57.38800 20.87300 44.12000
N  55.70400 26.32500 44.50300
C  56.58000 25.27100 44.39500
C  58.00300 25.78600 44.34600
C  57.83300 27.28900 44.72000
C  56.28600 27.49500 44.79000
C  59.12400 25.06600 45.24100
C  58.58000 28.52200 43.95700
C  59.26100 29.60500 44.82300
N  53.36600 27.97200 44.91400
C  54.26700 28.95300 45.22200
C  53.61300 30.22900 45.40000
C  52.27200 29.92600 45.15000
C  52.22100 28.55900 44.84700
C  54.27700 31.52100 45.68100
C  50.99700 30.50000 45.04600
O  50.60400 31.61700 45.30500
C  50.04800 29.34600 44.55900
C  49.58500 29.93000 43.24000
O  50.16400 29.96200 42.18800
O  48.16700 30.17400 43.41400
C  47.39200 30.50500 42.13600
H  50.72400 22.61000 43.57400
H  57.24400 23.42700 44.14800
H  56.33300 29.52400 45.09400
H  48.31800 26.80800 44.15300
H  48.91300 24.23100 43.05300
H  48.17800 24.99000 45.81300
H  49.24100 23.62700 45.62100
H  47.78200 23.49700 44.96200
H  48.17000 27.52700 41.94800
H  48.33500 25.92200 41.49100
H  51.00100 27.13900 41.64100
H  49.91300 27.92300 40.57000
H  52.88700 19.65000 43.79500
H  52.61400 20.29000 42.14500
H  51.59700 20.80600 43.56300
H  57.82400 21.47300 43.32100
H  57.89500 19.91100 44.20000
H  57.23600 21.18100 45.15400
H  58.37700 25.66900 43.32900
H  58.20300 27.48300 45.72700
H  58.65600 24.33200 45.89700
H  59.69800 25.77000 45.84200
H  59.89700 24.54000 44.68000
H  57.83300 28.94300 43.28500
H  59.37200 27.96800 43.45400
H  59.54500 29.09600 45.74400
H  58.51000 30.39100 44.90300
H  60.25800 29.91400 44.50900
H  53.92500 32.45800 45.24900
H  55.34300 31.65400 45.49300
H  54.21300 31.59500 46.76600
H  49.17600 29.31500 45.21200
H  46.69200 31.25800 42.50000
H  46.85400 29.60400 41.84000
H  47.99600 30.87600 41.30800
Mg 10.38500 46.85900 25.58100
C  8.49800 47.06600 28.42700
C  13.05600 48.00300 27.19800
C  12.14000 46.71200 22.57400
C  7.37400 45.90600 23.72300
N  10.65400 47.72700 27.54300
C  9.75000 47.69400 28.60800
C  10.35600 48.32600 29.86300
C  11.68700 48.96300 29.22500
C  11.82700 48.12300 27.99900
C  11.54700 50.46600 28.85700
C  10.71900 47.35200 31.13300
C  10.11700 47.82000 32.47500
H  9.88900 46.69300 33.50600
N  12.33500 47.10900 25.02700
C  13.30800 47.58100 25.88700
C  14.58300 47.36000 25.26500
C  14.34300 46.98800 23.87600
C  12.88400 46.93200 23.77300
C  15.86400 47.75100 25.90300
C  15.35800 46.76300 22.74900
O  15.05900 46.49500 21.62400
C  16.84900 46.94900 23.00400
N  9.84200 46.54200 23.50000
C  10.75700 46.50100 22.43500
C  10.08400 46.04600 21.17400
C  8.66200 45.57800 21.62300
C  8.60200 46.11900 23.02900
C  10.16400 47.05400 20.04300
C  8.37300 44.03100 21.45200
C  9.07800 43.12000 22.46800
N  8.31800 46.56700 25.89100
C  7.26300 46.11700 25.11900
C  6.10300 45.98500 26.03100
C  6.62100 46.25700 27.34200
C  7.91100 46.68100 27.21700
C  4.58500 45.68600 25.70300
C  6.16800 46.34300 28.62800
O  5.04800 46.14700 29.11100
C  7.45100 46.71800 29.44900
C  7.73600 45.56000 30.30500
O  8.25700 44.45500 30.02400
O  7.27800 45.76900 31.57700
C  7.41000 44.57400 32.51700
H  14.00500 48.22200 27.69100
H  12.66900 46.66700 21.62000
H  6.62200 45.55100 23.01600
H  9.73600 49.17700 30.14700
H  12.60400 48.76500 29.77900
H  11.51700 50.59500 27.77500
H  12.47200 50.93000 29.19900
H  10.67600 50.98200 29.26000
H  11.80400 47.26300 31.17700
H  10.46900 46.31800 30.89600
H  9.20100 48.36400 32.24500
H  10.83000 48.61000 32.71100
H  16.57900 46.93600 25.78900
H  15.74900 48.03800 26.94800
H  16.19300 48.65800 25.39600
H  17.14500 46.16800 23.70400
H  17.02800 47.95900 23.37300
H  17.45800 46.85200 22.10600
H  10.62900 45.19400 20.76700
H  7.88300 46.08800 21.05600
H  10.79000 46.76300 19.20000
H  10.45400 48.07100 20.30800
H  9.14800 47.11600 19.65300
H  8.60300 43.78500 20.41500
H  7.34000 43.83300 21.73800
H  9.82000 43.78100 22.91500
H  9.51600 42.25500 21.97100
H  8.35600 42.88500 23.25000
H  4.24700 44.81000 26.25900
H  4.53800 45.32700 24.67500
H  3.85700 46.48000 25.86900
H  7.15200 47.50400 30.14300
H  7.42700 44.78400 33.58700
H  8.34100 44.03600 32.34400
H  6.71100 43.77700 32.26200

