158

Mg 42.45600 41.06200 26.66900
C  41.73800 43.58700 29.02600
C  43.85200 39.21700 29.25000
C  43.21700 38.85200 24.39100
C  41.72400 43.41100 24.18000
N  42.77800 41.34300 28.94000
C  42.28500 42.43800 29.66100
C  42.39900 42.17100 31.17600
C  43.39900 40.91800 31.15200
C  43.38700 40.44800 29.66700
C  44.93500 41.18800 31.63000
C  40.92900 41.93000 31.80600
C  40.61000 42.90400 32.90700
H  39.98200 42.44700 34.28000
N  43.38500 39.24500 26.73800
C  43.84800 38.64300 27.92900
C  44.33800 37.27800 27.59500
C  44.07700 37.10400 26.19700
C  43.55700 38.43100 25.69400
C  45.03500 36.33500 28.57200
C  44.33500 35.84400 25.30700
O  44.21900 35.90100 24.09600
C  44.60500 34.59900 25.89400
N  42.50600 41.24200 24.62000
C  42.76300 40.09600 23.87400
C  42.53000 40.25500 22.37000
C  41.95800 41.68300 22.32900
C  42.13200 42.20400 23.76600
C  43.85000 40.03900 21.52300
C  40.48400 41.76300 21.79000
C  40.00200 43.18400 21.36200
N  41.68900 43.00700 26.60700
C  41.42500 43.87000 25.55200
C  40.99700 45.16800 25.97400
C  41.00300 45.05400 27.37900
C  41.52100 43.76100 27.65900
C  40.68900 46.36800 25.18700
C  40.61900 45.76400 28.68100
O  40.10300 46.83200 28.97500
C  41.17900 44.78100 29.74300
C  42.28500 45.51700 30.35500
O  43.23100 45.93500 29.75500
O  42.12400 45.69300 31.71700
C  43.10600 46.57400 32.46500
H  44.15100 38.56700 30.07600
H  43.22500 38.04800 23.65200
H  41.43500 44.15000 23.43000
H  42.96800 42.99900 31.59800
H  43.00800 40.06300 31.70200
H  44.85600 42.16100 32.11400
H  45.50900 41.18200 30.70300
H  45.27900 40.46200 32.36700
H  40.90200 40.96000 32.30200
H  40.05500 41.92500 31.15500
H  39.84600 43.58500 32.53000
H  41.46900 43.53500 33.13700
H  46.09700 36.47000 28.77800
H  44.86100 35.26700 28.44400
H  44.61800 36.55200 29.55600
H  43.89900 34.49100 26.71800
H  45.61300 34.53900 26.30300
H  44.34900 33.80600 25.19100
H  41.76400 39.56000 22.02700
H  42.57700 42.30300 21.68000
H  44.62300 40.80500 21.58900
H  43.51000 40.03600 20.48700
H  44.21200 39.04500 21.78500
H  39.94700 41.46800 22.69100
H  40.31900 40.96300 21.06800
H  39.40600 43.54700 22.19900
H  39.35800 43.28200 20.48900
H  40.92100 43.76800 21.30300
H  41.22100 47.20100 25.64600
H  39.63000 46.61300 25.26500
H  41.10400 46.26400 24.18500
H  40.45400 44.59100 30.53400
H  43.51700 45.93300 33.24500
H  42.71400 47.53500 32.79800
H  43.99900 46.81500 31.88800
Mg 10.09100 48.29200 26.29900
C  8.12200 48.79000 29.21400
C  12.77900 49.75800 27.95200
C  11.68100 48.05200 23.53700
C  7.03700 47.99100 24.59700
N  10.33300 49.15200 28.36100
C  9.47800 49.16400 29.38300
C  10.20100 49.64600 30.67600
C  11.51200 50.22300 30.09600
C  11.55100 49.68200 28.71300
C  11.59200 51.76900 30.00600
C  10.38100 48.49800 31.77400
C  9.77200 48.74900 33.13100
H  9.55600 47.53800 34.00700
N  11.95000 48.65700 25.85800
C  12.99300 49.19600 26.67700
C  14.27800 49.17800 25.89300
C  13.93900 48.63200 24.56000
C  12.49000 48.44100 24.58900
C  15.52800 49.62300 26.43900
C  14.85000 48.34900 23.39600
O  14.48000 47.87800 22.31700
C  16.25400 48.52900 23.50800
N  9.37100 48.02700 24.38200
C  10.31900 47.91200 23.43500
C  9.69900 47.55500 22.07100
C  8.18900 47.64000 22.33600
C  8.15600 47.81100 23.82500
C  10.11100 48.47700 20.86600
C  7.42300 46.43200 21.89500
C  6.74300 46.62700 20.55600
N  8.04800 48.20400 26.76900
C  6.91400 48.11200 25.98700
C  5.72800 48.21200 26.75300
C  6.12800 48.35300 28.05000
C  7.57600 48.43200 27.95800
C  4.33000 48.12500 26.18700
C  5.76200 48.52900 29.40100
O  4.59600 48.54100 29.89500
C  7.00300 48.68300 30.23500
C  7.10400 47.46500 31.15600
O  7.67900 46.40100 30.97200
O  6.20200 47.62000 32.17900
C  5.83300 46.43100 33.01900
H  13.58200 50.24800 28.50700
H  12.30600 47.82800 22.67000
H  6.07400 47.96500 24.08300
H  9.63300 50.40600 31.21200
H  12.41000 49.84400 30.58400
H  11.28500 52.13500 29.02700
H  12.59000 52.17200 30.18000
H  10.91500 52.21000 30.73700
H  11.44400 48.36600 31.97500
H  10.05600 47.52500 31.40600
H  8.78900 49.10300 32.82300
H  10.15200 49.60900 33.68200
H  15.36400 50.39100 27.19500
H  16.03300 50.20000 25.66500
H  16.16300 48.86200 26.89300
H  16.63000 48.04400 24.40900
H  16.47000 49.59700 23.47400
H  16.77100 48.04700 22.67900
H  10.00500 46.53000 21.86000
H  7.82800 48.53500 21.82800
H  9.26200 48.80100 20.26400
H  10.89300 48.02900 20.25300
H  10.66600 49.36600 21.16500
H  6.68400 46.26600 22.67900
H  8.09900 45.57800 21.86300
H  5.88200 47.27800 20.70800
H  6.37000 45.65800 20.22600
H  7.44600 47.04000 19.83200
H  3.68800 48.85900 26.67500
H  4.04800 47.07800 26.29700
H  4.28700 48.39000 25.13100
H  6.90600 49.57600 30.85200
H  4.76200 46.24500 32.94300
H  6.24000 46.67900 34.00000
H  6.39800 45.58800 32.62200

