158

Mg 17.33000 -0.54700 27.70500
C  15.97100 1.35800 30.31400
C  19.02900 -2.40400 29.97900
C  18.90600 -2.11500 25.13700
C  15.47200 1.34000 25.53900
N  17.36200 -0.54600 29.90300
C  16.80100 0.31300 30.78800
C  17.12500 -0.00800 32.22700
C  18.16900 -1.03700 32.10000
C  18.21200 -1.37700 30.58700
C  19.61100 -0.70600 32.66200
C  15.87700 -0.33300 33.08900
C  15.89200 0.27200 34.44000
H  17.22800 0.60700 34.98100
N  18.70700 -2.14100 27.55500
C  19.26100 -2.76800 28.62400
C  20.16200 -3.80700 28.16600
C  20.19200 -3.69100 26.76800
C  19.26400 -2.63400 26.42700
C  20.90000 -4.73400 29.17200
C  20.98300 -4.52000 25.71500
O  20.95300 -4.23200 24.49500
C  21.83600 -5.65100 26.17400
N  17.25200 -0.33000 25.66100
C  18.04000 -1.06500 24.80200
C  17.89400 -0.56600 23.35900
C  16.64100 0.32900 23.52600
C  16.38800 0.45700 24.98700
C  19.12600 0.13500 22.78200
C  15.33400 0.12800 22.66300
C  14.09500 -0.44400 23.33300
N  15.98400 1.06700 27.79800
C  15.27500 1.71400 26.84700
C  14.57200 2.85500 27.41500
C  14.86100 2.83500 28.81000
C  15.59200 1.60500 28.96200
C  13.58100 3.82300 26.76300
C  14.70400 3.48200 30.04000
O  14.06700 4.49500 30.34400
C  15.39600 2.51000 31.07600
C  16.37000 3.29400 31.91600
O  17.61800 3.31900 31.71300
O  15.74200 3.83100 33.03500
C  16.55000 4.58500 33.98100
H  19.63300 -2.90700 30.73700
H  19.39500 -2.58100 24.27900
H  14.91200 1.85200 24.75400
H  17.57200 0.92200 32.58000
H  17.84900 -1.94000 32.62000
H  19.88600 0.34600 32.72700
H  20.39400 -1.27200 32.15700
H  19.67500 -1.09100 33.68000
H  15.79200 -1.40200 33.28500
H  15.04300 0.08500 32.52600
H  15.38800 -0.49200 35.03000
H  15.13500 1.05500 34.38300
H  21.15200 -4.33100 30.15300
H  21.75800 -5.14100 28.63800
H  20.31700 -5.61900 29.42700
H  21.15900 -6.20200 26.82700
H  22.61200 -5.12800 26.73400
H  22.14100 -6.25200 25.31700
H  17.53600 -1.42000 22.78300
H  16.93100 1.30500 23.13900
H  19.87400 0.21700 23.57100
H  18.79200 1.13800 22.52000
H  19.44500 -0.40400 21.89000
H  15.55100 -0.66900 21.95300
H  15.01200 1.00600 22.10300
H  13.50500 0.37500 23.74300
H  14.35700 -1.21800 24.05400
H  13.50600 -0.95300 22.56900
H  14.17200 4.62200 26.31600
H  12.69500 4.19500 27.27600
H  13.14400 3.30500 25.90900
H  14.60700 2.18500 31.75500
H  16.23700 5.62800 34.03100
H  17.62700 4.49900 33.83800
H  16.21200 4.20200 34.94400
Mg 5.73300 54.63900 40.93000
C  5.25900 51.22200 41.21900
C  8.81000 54.15600 39.76400
C  5.74200 57.89300 39.93100
C  2.27400 55.06700 41.89700
N  6.78100 52.81600 40.18400
C  6.48100 51.54100 40.55200
C  7.62900 50.66200 40.04900
C  8.81300 51.57600 40.29300
C  8.12500 52.96000 40.16000
C  9.62700 51.40200 41.61400
C  7.49800 50.19400 38.50200
C  6.51600 50.96100 37.50000
H  7.10300 51.88800 36.42900
N  7.11900 55.90600 40.02900
C  8.39600 55.47400 39.59500
C  9.01700 56.58600 38.81500
C  8.00400 57.64000 38.73400
C  6.88800 57.19600 39.62600
C  10.31400 56.57800 38.16900
C  8.15400 58.96300 37.87700
O  9.17700 59.21200 37.28400
C  7.16800 60.06900 37.96500
N  4.26200 56.34400 41.00900
C  4.54100 57.55800 40.59700
C  3.39600 58.49400 40.86800
C  2.40900 57.63700 41.63400
C  2.95000 56.26000 41.51800
C  3.68800 59.91200 41.45900
C  0.91100 57.73900 41.03700
C  0.14000 59.14800 41.08700
N  4.02100 53.42200 41.49800
C  2.76800 53.72800 41.84900
C  2.07100 52.43400 42.08600
C  3.05800 51.46000 41.93900
C  4.21400 52.09000 41.46700
C  0.64400 52.19700 42.57900
C  3.25600 50.07500 42.12100
O  2.50400 49.20800 42.53900
C  4.64000 49.80500 41.47100
C  4.45100 49.15900 40.15200
O  3.57400 49.40700 39.33200
O  5.32500 48.10100 40.13300
C  5.03900 47.07000 39.12300
H  9.87400 54.05000 39.54200
H  5.67800 58.93400 39.60800
H  1.29100 55.31000 42.30800
H  7.69700 49.74900 40.64100
H  9.58900 51.44900 39.53800
H  9.55400 52.22300 42.32700
H  10.67000 51.19900 41.37100
H  9.26300 50.52200 42.14300
H  7.22400 49.13900 38.46700
H  8.52000 50.27000 38.13100
H  5.76900 51.52600 38.05700
H  5.88900 50.20400 37.02900
H  10.92400 57.31900 38.68700
H  10.24900 56.86100 37.11800
H  10.73200 55.57400 38.24700
H  6.29700 59.66700 37.44700
H  7.63200 60.89400 37.42400
H  7.00200 60.52600 38.94100
H  2.83600 58.73400 39.96400
H  2.29400 57.91200 42.68200
H  3.19800 60.00700 42.42700
H  3.19100 60.63800 40.81500
H  4.77500 59.99000 41.49500
H  0.30900 56.97200 41.52500
H  0.93600 57.37900 40.00800
H  -0.93200 59.02900 40.93000
H  0.60600 59.85400 40.39900
H  0.35400 59.46300 42.10800
H  0.75600 51.74300 43.56400
H  0.10200 51.54000 41.89900
H  0.04600 53.09200 42.75100
H  5.31800 49.22200 42.09400
H  5.45800 46.10700 39.41400
H  5.61300 47.34700 38.23800
H  3.96500 46.99200 38.95400

