158

Mg 36.18000 49.19700 24.68800
C  35.94400 47.21500 27.67300
C  34.79100 51.74000 26.52200
C  35.73900 50.61000 21.82300
C  37.33100 46.26400 23.16700
N  35.47400 49.43400 26.90800
C  35.59300 48.53100 27.92100
C  35.49200 49.29500 29.36900
C  34.79000 50.69400 28.91500
C  35.05900 50.62300 27.35300
C  33.31400 50.85100 29.43400
C  36.81200 49.35300 30.20000
C  36.74000 49.05800 31.71700
H  35.41200 49.33500 32.46200
N  35.31300 50.95000 24.22500
C  34.85400 51.91400 25.11300
C  34.64700 53.17000 24.38200
C  34.93800 52.89500 22.95900
C  35.30300 51.42700 22.91200
C  34.30400 54.51100 24.98300
C  35.05300 53.72600 21.72100
O  35.30500 53.25100 20.64800
C  34.70700 55.09700 21.83100
N  36.44400 48.46400 22.78500
C  36.29400 49.31500 21.73900
C  36.69800 48.64600 20.42900
C  37.52700 47.45600 20.96800
C  37.05200 47.37500 22.39100
C  35.51300 48.20000 19.49800
C  39.09600 47.71800 20.91500
C  39.75200 49.14900 20.92000
N  36.48300 47.10800 25.25000
C  36.97800 46.06700 24.48900
C  37.14600 44.79900 25.29100
C  36.73700 45.32800 26.55700
C  36.38400 46.71000 26.45100
C  37.68000 43.47100 24.85000
C  36.52900 44.88000 27.98300
O  36.65100 43.73500 28.46300
C  36.14400 46.13600 28.75500
C  34.90300 45.86800 29.58600
O  33.78500 46.22600 29.33800
O  35.24800 45.24700 30.77900
C  34.13000 44.87900 31.67600
H  34.48800 52.64000 27.06200
H  35.52400 50.95400 20.80900
H  37.73400 45.42000 22.60300
H  34.82200 48.66500 29.95400
H  35.25300 51.58300 29.34500
H  33.17900 51.79900 29.95500
H  32.98300 50.08000 30.13000
H  32.52600 50.91600 28.68300
H  37.26300 50.33400 30.04800
H  37.39500 48.61000 29.65700
H  37.63300 49.50700 32.15300
H  36.90000 47.98700 31.84000
H  35.12900 55.18200 24.74600
H  34.00600 54.59600 26.02800
H  33.46400 54.88900 24.40000
H  33.69200 55.13600 22.22600
H  34.75900 55.51600 20.82600
H  35.44200 55.66400 22.40200
H  37.29900 49.30800 19.80500
H  37.36300 46.44300 20.60100
H  34.52800 48.38600 19.92600
H  35.61500 47.17800 19.13500
H  35.54500 48.87200 18.64000
H  39.38600 47.17700 20.01400
H  39.31000 47.19200 21.84600
H  40.25400 49.28700 19.96200
H  40.61600 49.33700 21.55800
H  39.07100 49.99800 20.97600
H  37.95700 43.38500 23.79900
H  36.86000 42.82800 25.17000
H  38.58500 43.28600 25.42800
H  37.00400 46.48700 29.32500
H  34.32000 43.91800 32.15500
H  33.14400 44.88400 31.21200
H  34.21000 45.74700 32.33000
Mg 9.83700 47.81600 25.98300
C  7.97600 47.77800 28.90000
C  12.40700 49.17900 27.67300
C  11.59300 47.47800 23.18100
C  6.86500 46.75000 24.27900
N  10.06000 48.55700 27.94200
C  9.23200 48.33900 29.04100
C  9.94500 48.85400 30.38300
C  11.07100 49.75200 29.75700
C  11.23700 49.08700 28.37300
C  10.82800 51.28000 29.54500
C  10.47100 47.76000 31.32600
C  10.13400 47.96000 32.85300
H  10.47300 46.79100 33.79800
N  11.74900 48.20900 25.51600
C  12.65300 48.75500 26.35700
C  13.87000 49.00600 25.60700
C  13.74000 48.36200 24.33200
C  12.27900 48.02500 24.24700
C  15.10900 49.73800 26.16900
C  14.75500 48.18200 23.24100
O  14.45700 47.63300 22.18100
C  16.16600 48.70100 23.40800
N  9.22900 47.29600 23.98100
C  10.23700 47.18200 23.02100
C  9.68500 46.65700 21.68700
C  8.24200 46.24300 22.08400
C  8.07000 46.71600 23.54200
C  9.84400 47.73900 20.52800
C  7.90100 44.75500 21.90400
C  8.74900 43.76400 22.72300
N  7.68500 47.60000 26.37900
C  6.64200 47.14400 25.59300
C  5.45800 47.08500 26.44600
C  5.95800 47.17600 27.76100
C  7.30800 47.48200 27.66600
C  4.10000 46.77600 25.99100
C  5.55300 47.13500 29.14700
O  4.47300 46.88100 29.66700
C  6.88000 47.37700 29.89100
C  7.14500 46.25500 30.80500
O  7.92800 45.37800 30.57300
O  6.46200 46.37900 31.96100
C  6.42400 45.19000 32.84000
H  13.20400 49.64300 28.25800
H  12.17800 47.17000 22.31200
H  6.10400 46.16100 23.76300
H  9.25200 49.44700 30.98000
H  11.98000 49.54900 30.32300
H  9.84000 51.63100 29.84300
H  10.91300 51.44600 28.47100
H  11.60000 51.81000 30.10200
H  11.55500 47.65600 31.35600
H  9.96700 46.88300 30.92100
H  9.05000 48.06500 32.86000
H  10.59100 48.92000 33.09500
H  15.93700 49.02900 26.12800
H  14.90600 50.02400 27.20100
H  15.34700 50.60500 25.55300
H  15.97500 49.77100 23.49100
H  16.74900 48.46000 22.51900
H  16.67900 48.34400 24.30100
H  10.33400 45.91500 21.22200
H  7.54500 46.80800 21.46500
H  10.16200 48.64600 21.04200
H  8.83900 47.91300 20.14400
H  10.59100 47.41100 19.80500
H  8.02700 44.71900 20.82200
H  6.84800 44.52600 22.06200
H  9.39600 44.41400 23.31200
H  9.31000 43.15700 22.01100
H  8.15600 43.03900 23.28100
H  4.12500 46.29300 25.01500
H  3.59000 47.73800 26.04400
H  3.81400 46.14200 26.83000
H  6.63000 48.22200 30.53200
H  6.59300 45.56900 33.84700
H  7.34900 44.61500 32.79000
H  5.49600 44.63300 32.70700

