158

Mg 26.54100 50.64400 26.40600
C  24.15900 51.45600 28.95600
C  28.77900 50.11500 28.80900
C  28.76300 50.27800 23.88700
C  24.07200 51.60100 24.10300
N  26.42300 50.77100 28.59300
C  25.37900 51.00700 29.44000
C  25.72900 50.87600 30.88200
C  27.32200 50.56400 30.79300
C  27.57100 50.50600 29.31200
C  28.23500 51.51600 31.59700
C  24.85500 49.76100 31.57600
C  25.34900 49.26300 32.88100
H  24.60400 49.72400 34.14300
N  28.46500 50.06800 26.33600
C  29.23900 49.88800 27.47200
C  30.49700 49.37200 27.03000
C  30.56900 49.51200 25.58900
C  29.25200 49.98300 25.19500
C  31.54100 48.98600 28.14200
C  31.75800 49.23100 24.72200
O  31.61600 49.46500 23.52600
C  33.03900 48.60900 25.21500
N  26.35100 50.92200 24.27300
C  27.42300 50.74300 23.49900
C  27.02200 50.74200 22.05800
C  25.61200 51.33200 22.10500
C  25.27700 51.27800 23.55000
C  27.98500 51.64300 21.18900
C  24.54900 50.44100 21.29400
C  23.58700 51.10000 20.27600
N  24.57700 51.40700 26.43100
C  23.73900 51.71800 25.41500
C  22.35300 52.09400 25.91200
C  22.51200 52.06100 27.30500
C  23.85700 51.58400 27.55300
C  21.24600 52.67700 25.17600
C  21.86400 52.42900 28.55300
O  20.75000 52.88700 28.79500
C  22.87500 51.85900 29.67300
C  23.14800 53.08600 30.51200
O  23.92100 53.97900 30.16500
O  22.48400 53.13900 31.67800
C  22.72400 54.26100 32.58100
H  29.45200 49.83600 29.62200
H  29.45200 50.01400 23.08200
H  23.26400 51.83400 23.40600
H  25.54400 51.87000 31.28900
H  27.60100 49.60600 31.23100
H  29.07500 51.82900 30.97700
H  28.62500 51.09100 32.52200
H  27.69600 52.42900 31.84700
H  24.57200 48.96200 30.89200
H  23.90700 50.27500 31.73200
H  26.35500 49.59500 33.13800
H  25.28700 48.17500 32.85800
H  31.20000 49.04700 29.17600
H  32.43500 49.60800 28.17000
H  31.89000 47.99200 27.86200
H  32.80100 47.62100 25.60900
H  33.40300 49.29500 25.98000
H  33.65300 48.59400 24.31400
H  26.92700 49.75000 21.61600
H  25.70200 52.36700 21.77700
H  28.90000 51.09500 20.96200
H  28.15100 52.56000 21.75500
H  27.43000 52.02900 20.33300
H  23.87000 49.96800 22.00300
H  25.11500 49.64700 20.80600
H  23.43200 50.54700 19.34900
H  23.99900 52.06400 19.97700
H  22.60800 51.33200 20.69500
H  21.18400 52.16700 24.21500
H  21.47000 53.71700 24.93500
H  20.29500 52.50000 25.67700
H  22.47400 51.07600 30.31600
H  23.61600 54.11400 33.19100
H  22.05300 54.48600 33.41000
H  22.81200 55.21700 32.06400
Mg -11.03000 39.79000 41.49000
C  -10.39900 36.54800 40.55900
C  -7.97400 40.85400 40.33000
C  -12.19900 42.90500 41.28200
C  -14.40300 38.64000 42.38100
N  -9.38800 38.78900 40.50800
C  -9.38400 37.45600 40.19000
C  -8.03400 37.08200 39.49800
C  -7.31700 38.49000 39.40300
C  -8.19100 39.43800 40.18300
C  -5.77200 38.54100 39.87700
C  -8.27200 36.27700 38.13200
C  -7.44000 36.61500 36.89100
H  -6.78400 35.57100 36.08600
N  -10.15500 41.65900 41.04800
C  -8.90300 41.87400 40.61600
C  -8.71600 43.28600 40.34500
C  -9.90800 43.92800 40.70600
C  -10.85200 42.84300 40.96800
C  -7.39000 43.98300 40.03600
C  -10.11500 45.51800 40.76800
O  -9.25500 46.29900 40.36900
C  -11.32500 46.19300 41.50500
N  -12.95900 40.57600 41.74400
C  -13.15200 41.94700 41.57300
C  -14.56400 42.41600 41.91800
C  -15.15400 41.06100 42.45500
C  -14.13700 40.01300 42.16600
C  -14.68900 43.55100 42.94900
C  -16.53300 40.57700 41.81200
C  -17.64200 40.18200 42.88500
N  -12.16700 37.97100 41.65600
C  -13.44200 37.67500 42.08000
C  -13.58100 36.21300 42.07700
C  -12.44600 35.73600 41.46800
C  -11.62700 36.85100 41.23300
C  -14.86500 35.45000 42.37900
C  -11.71500 34.60200 41.02400
O  -11.99600 33.43600 41.19800
C  -10.45800 35.06800 40.28900
C  -9.27400 34.29800 40.81700
O  -8.61700 34.49800 41.85600
O  -9.00100 33.27900 39.89700
C  -8.00800 32.31000 40.34300
H  -7.01100 41.15400 39.91100
H  -12.70700 43.85800 41.11700
H  -15.28700 38.22500 42.86900
H  -7.50400 36.36500 40.12500
H  -7.34300 38.78400 38.35400
H  -5.49200 37.51900 40.13300
H  -5.72400 39.08600 40.82000
H  -5.15300 39.02800 39.12400
H  -9.29700 36.47700 37.82200
H  -8.15700 35.23200 38.41900
H  -6.60700 37.23400 37.22500
H  -8.14400 37.17100 36.27200
H  -7.14600 43.94800 38.97500
H  -6.56700 43.53700 40.59400
H  -7.33200 45.02700 40.34400
H  -11.57900 45.78600 42.48300
H  -12.20000 46.10400 40.86100
H  -11.03900 47.24100 41.41500
H  -15.02900 42.77900 41.00100
H  -15.26500 41.10500 43.53800
H  -15.24900 44.39600 42.54800
H  -13.72700 43.93800 43.28600
H  -15.21400 43.16200 43.82100
H  -16.37500 39.69800 41.18800
H  -17.01800 41.30900 41.16500
H  -18.53800 40.71100 42.55900
H  -17.29900 40.50300 43.86900
H  -17.89800 39.12600 42.79000
H  -15.69700 36.05000 42.01100
H  -14.93000 35.29900 43.45700
H  -15.00600 34.50300 41.85900
H  -10.68900 34.98200 39.22800
H  -7.67100 31.64500 39.54700
H  -8.48400 31.88300 41.22600
H  -7.16400 32.95800 40.57600

