158

Mg 40.83000 8.51500 30.26400
C  42.73900 9.63400 33.00700
C  38.61900 7.28300 32.51800
C  39.43100 6.81400 27.78100
C  43.48300 9.61100 28.13700
N  40.76100 8.61100 32.55300
C  41.63400 9.04100 33.47800
C  41.20700 8.62800 34.89500
C  40.00600 7.69700 34.58800
C  39.71600 7.94900 33.06700
C  40.17000 6.20900 34.94500
C  40.82800 9.89800 35.75000
C  41.29100 9.66900 37.19400
H  41.55600 10.98200 38.01100
N  39.10800 7.41700 30.14300
C  38.35800 7.03600 31.18900
C  37.24900 6.26600 30.66100
C  37.43600 6.16400 29.27800
C  38.72200 6.78300 28.99600
C  36.03600 5.77800 31.40100
C  36.51000 5.64400 28.16500
O  36.86700 5.40900 27.02800
C  35.07400 5.39900 28.48700
N  41.40800 8.21500 28.27100
C  40.62900 7.41800 27.45200
C  41.20900 7.46900 26.03800
C  42.31100 8.61400 26.10000
C  42.46900 8.80500 27.57000
C  41.75900 6.06600 25.63300
C  41.76000 9.89500 25.35200
C  42.56700 10.49200 24.23500
N  42.67800 9.46000 30.45200
C  43.64300 9.94400 29.48800
C  44.75000 10.60700 30.17700
C  44.44200 10.45600 31.56500
C  43.16700 9.78200 31.67000
C  46.01500 11.09100 29.50000
C  44.92600 10.76700 32.91900
O  45.92000 11.32900 33.28100
C  43.80200 10.36100 33.82500
C  44.47700 9.56900 34.87500
O  45.11500 8.56000 34.74800
O  44.25900 10.18000 36.06100
C  44.86600 9.55100 37.26500
H  38.02700 6.80300 33.30000
H  39.07000 6.26500 26.90800
H  44.25000 10.04900 27.49400
H  42.04900 8.13100 35.37600
H  39.21800 7.97900 35.28700
H  41.15800 5.96700 35.33800
H  40.00000 5.48700 34.14600
H  39.49100 6.01600 35.77500
H  39.74600 10.01600 35.70200
H  41.32500 10.79300 35.37600
H  42.17200 9.02700 37.22800
H  40.44300 9.20000 37.69200
H  36.20400 5.56000 32.45600
H  35.74400 4.76900 31.11100
H  35.11400 6.35600 31.34500
H  34.70800 6.33900 28.90000
H  34.88800 4.62100 29.22700
H  34.50400 5.14500 27.59300
H  40.43500 7.72900 25.31600
H  43.32600 8.39000 25.77200
H  41.51400 5.28300 26.35100
H  42.83700 6.10700 25.47700
H  41.31100 5.73500 24.69600
H  41.71800 10.70400 26.08100
H  40.74400 9.65700 25.03600
H  41.82900 10.54300 23.43500
H  43.46800 9.95500 23.93800
H  42.90700 11.46000 24.60400
H  45.98200 12.18000 29.53100
H  46.06000 10.72600 28.47400
H  46.84300 10.80500 30.15000
H  43.50800 11.34400 34.19300
H  45.95500 9.56200 37.21800
H  44.55700 8.52100 37.44000
H  44.66600 10.22600 38.09700
Mg 8.48300 48.10300 26.29300
C  6.15200 48.15700 28.96300
C  10.93800 48.66200 28.60500
C  10.71100 48.38300 23.78100
C  5.84000 47.59500 24.05300
N  8.53500 48.20600 28.58800
C  7.43800 48.16000 29.44500
C  7.94500 48.13100 30.86000
C  9.44300 48.66600 30.71500
C  9.72600 48.49000 29.21800
C  9.62800 50.10800 31.19800
C  7.84000 46.71700 31.62000
C  7.34000 46.90400 33.03200
H  8.02700 46.28800 34.31400
N  10.55700 48.45600 26.16500
C  11.39100 48.77100 27.25800
C  12.68900 49.15800 26.77100
C  12.66700 48.91700 25.38400
C  11.28200 48.53600 25.03200
C  13.77500 49.54800 27.73000
C  13.77300 48.94500 24.33700
O  13.61400 48.65800 23.12500
C  15.18700 49.18200 24.81700
N  8.33200 48.05000 24.19700
C  9.42100 48.13500 23.31200
C  9.01200 47.71800 21.86600
C  7.43400 47.48100 22.02000
C  7.17600 47.67400 23.52600
C  9.44900 48.70200 20.75500
C  6.96300 46.12300 21.46300
C  5.66900 46.12100 20.66300
N  6.46000 48.00600 26.35700
C  5.51500 47.82400 25.35000
C  4.22400 47.84000 25.89300
C  4.36900 47.96100 27.31000
C  5.78600 48.00800 27.56700
C  2.89800 47.65300 25.28100
C  3.63300 47.99500 28.62800
O  2.44700 47.85900 28.89300
C  4.80000 48.46900 29.67200
C  4.46900 47.84700 30.94500
O  4.55800 46.64900 31.18800
O  4.17600 48.69300 31.89700
C  3.77700 48.26300 33.20800
H  11.71200 48.90100 29.33800
H  11.38400 48.32700 22.92300
H  5.07600 47.20000 23.38100
H  7.48100 48.91300 31.46100
H  10.16200 48.16600 31.36400
H  8.72700 50.55500 31.61800
H  9.99500 50.76000 30.40500
H  10.37400 50.15300 31.99200
H  8.84200 46.28900 31.65600
H  7.11600 46.14400 31.04000
H  6.37400 46.40600 32.94300
H  7.27000 47.95300 33.32000
H  13.68700 48.81100 28.52800
H  13.47300 50.55900 28.00200
H  14.78400 49.49200 27.32100
H  15.42900 48.31200 25.42800
H  15.21400 50.16600 25.28400
H  15.92200 49.28100 24.01700
H  9.41100 46.72400 21.66400
H  6.86200 48.24200 21.49000
H  10.33100 49.29400 20.99900
H  8.63600 49.41300 20.60600
H  9.68400 48.21300 19.81000
H  6.69900 45.50800 22.32400
H  7.77800 45.74400 20.84700
H  5.29600 45.17000 20.28200
H  5.84300 46.79300 19.82300
H  4.86600 46.52200 21.28200
H  2.55200 48.66000 25.05000
H  2.19100 47.12700 25.92300
H  3.02400 47.23600 24.28200
H  4.83700 49.55800 29.69100
H  3.24300 49.14900 33.55000
H  4.69900 48.19700 33.78500
H  3.18600 47.35000 33.28700

