158

Mg -2.46800 17.34600 26.87300
C  -3.20900 15.10700 29.50300
C  -2.39300 19.81000 29.01900
C  -2.27700 19.34600 24.23400
C  -3.23300 14.66700 24.64900
N  -2.80300 17.32300 29.04200
C  -2.95700 16.37300 29.96700
C  -3.00100 16.89800 31.36900
C  -2.90100 18.44500 31.09800
C  -2.63200 18.55300 29.59400
C  -4.07500 19.27700 31.65200
C  -1.81300 16.25300 32.21500
C  -1.44800 16.97000 33.51800
H  -1.13700 16.15100 34.71700
N  -2.18500 19.28100 26.66500
C  -2.13600 20.17200 27.69300
C  -1.91000 21.50600 27.16000
C  -1.88800 21.42100 25.72200
C  -2.10100 19.97200 25.44500
C  -1.98000 22.68700 28.08800
C  -1.69200 22.47900 24.60900
O  -1.79300 22.20300 23.41600
C  -1.50300 23.83600 24.98700
N  -2.54600 17.06000 24.77700
C  -2.46300 18.02500 23.91300
C  -2.78100 17.54700 22.49400
C  -3.00300 16.00900 22.61300
C  -2.85100 15.90500 24.10700
C  -4.01800 18.11200 21.89300
C  -1.96600 15.17100 21.74800
C  -2.42500 14.33100 20.54600
N  -2.96100 15.25700 26.97200
C  -3.29500 14.31800 26.04800
C  -3.64600 13.04700 26.65700
C  -3.55500 13.30300 27.99700
C  -3.13500 14.67200 28.13200
C  -4.05900 11.79100 25.92800
C  -3.72100 12.69400 29.32000
O  -4.03900 11.57900 29.65100
C  -3.57600 13.84100 30.25600
C  -2.44700 13.30900 31.04500
O  -1.31100 13.57300 30.98700
O  -2.93200 12.51200 32.05700
C  -2.12700 12.14100 33.18900
H  -2.35900 20.62400 29.74700
H  -2.19600 20.01900 23.37800
H  -3.35000 13.84300 23.94300
H  -3.84500 16.65500 32.01500
H  -1.97600 18.77400 31.57300
H  -4.71100 19.45700 30.78500
H  -3.66500 20.13900 32.17800
H  -4.62900 18.68900 32.38400
H  -0.87800 16.08100 31.68100
H  -2.24200 15.30900 32.54900
H  -2.10500 17.82300 33.69200
H  -0.45100 17.40600 33.45500
H  -1.39200 22.39900 28.96000
H  -3.00600 22.79900 28.43700
H  -1.63700 23.61100 27.62300
H  -2.22200 24.08800 25.76600
H  -1.68600 24.43200 24.09300
H  -0.46000 24.08800 25.18200
H  -2.03700 17.73300 21.72000
H  -4.04400 15.76200 22.40800
H  -4.88600 17.52200 22.19100
H  -3.92400 17.91500 20.82500
H  -4.13200 19.15200 22.19800
H  -1.40600 14.48600 22.38500
H  -1.25100 15.83100 21.25700
H  -2.09400 14.76100 19.60100
H  -3.50400 14.20600 20.63400
H  -2.05100 13.30900 20.60400
H  -3.33400 10.97700 25.94000
H  -4.36200 12.00200 24.90300
H  -4.87400 11.33300 26.48900
H  -4.23600 14.02000 31.10500
H  -1.86400 11.08400 33.24400
H  -2.66000 12.46200 34.08300
H  -1.17800 12.67500 33.24100
Mg 25.35800 1.48300 30.19900
C  27.62500 1.60200 32.80000
C  22.85000 1.47800 32.40700
C  23.36800 1.25700 27.61100
C  28.22500 1.04800 28.04600
N  25.23700 1.56000 32.34900
C  26.30500 1.72200 33.18200
C  25.86900 1.73300 34.64600
C  24.34700 1.30600 34.49200
C  24.13200 1.54400 33.02800
C  23.99600 -0.08000 35.00700
C  26.16200 3.03700 35.36200
C  27.18800 2.90700 36.53700
H  26.96800 3.76500 37.79300
N  23.38600 1.38700 30.04100
C  22.53100 1.36900 31.05900
C  21.19000 1.24600 30.50900
C  21.28500 1.12900 29.08700
C  22.74400 1.24800 28.84000
C  19.88300 1.21900 31.40700
C  20.21700 0.95600 28.06600
O  20.44300 0.72400 26.85700
C  18.81500 1.23500 28.43100
N  25.79500 1.24400 28.14700
C  24.72800 1.22300 27.25700
C  25.23700 1.43200 25.83500
C  26.79700 1.66300 26.00100
C  26.97500 1.27800 27.46600
C  24.85400 0.19100 24.93800
C  27.31300 3.07700 25.52000
C  26.93900 4.33800 26.28500
N  27.47000 1.20600 30.37000
C  28.50600 0.96000 29.42300
C  29.78100 0.71900 30.02900
C  29.43500 0.92700 31.41300
C  28.07900 1.28000 31.52400
C  31.13000 0.52600 29.46300
C  30.04200 0.92100 32.73700
O  31.21300 0.73700 33.08300
C  28.87100 1.33000 33.66200
C  28.71300 0.18800 34.72400
O  28.06500 -0.84100 34.61400
O  29.56200 0.56000 35.78900
C  29.85500 -0.53300 36.66400
H  22.12900 1.36800 33.22000
H  22.76000 1.28200 26.70400
H  29.04600 0.88100 27.34600
H  26.34300 0.97100 35.26400
H  23.66400 1.96300 35.03000
H  24.82600 -0.71600 34.69900
H  23.04400 -0.32900 34.53800
H  23.80700 -0.20400 36.07400
H  25.28800 3.47700 35.84300
H  26.47800 3.77900 34.62900
H  28.08500 3.29600 36.05600
H  27.33900 1.90200 36.93100
H  19.43300 2.18100 31.16100
H  20.10500 1.21900 32.47400
H  19.18100 0.40400 31.22800
H  18.32200 1.45200 27.48400
H  18.87300 2.07300 29.12600
H  18.32200 0.34400 28.82000
H  24.75800 2.35200 25.50000
H  27.39700 0.94400 25.44300
H  25.64900 -0.55500 24.90500
H  24.61600 0.53500 23.93100
H  23.93100 -0.28000 25.27500
H  26.99400 3.07500 24.47800
H  28.39700 2.96100 25.51100
H  26.85600 4.10600 27.34700
H  26.01300 4.74700 25.88100
H  27.72200 5.08500 26.15700
H  31.21600 1.23600 28.64100
H  31.18500 -0.52900 29.19400
H  31.80800 0.81400 30.26700
H  29.20600 2.28100 34.07600
H  29.77100 -1.48000 36.13100
H  29.33500 -0.29900 37.59300
H  30.92100 -0.39200 36.84200

