158

Mg 1.03000 -2.01600 43.52100
C  4.39500 -1.29100 42.38900
C  0.00200 0.69000 41.39900
C  -2.14000 -2.99700 43.87500
C  2.27800 -5.18200 44.48000
N  2.15600 -0.57000 41.86200
C  3.51200 -0.36000 41.83000
C  3.78400 0.95700 41.08200
C  2.31500 1.65000 40.97500
C  1.43500 0.50600 41.37000
C  2.23300 3.02400 41.65300
C  4.40600 0.52700 39.71700
C  5.83000 1.09400 39.39300
H  6.04900 1.96100 38.16300
N  -0.79100 -1.14300 42.92800
C  -0.92800 -0.05600 42.19500
C  -2.36600 0.40600 42.29300
C  -3.06700 -0.71000 42.88900
C  -2.01300 -1.66500 43.27500
C  -2.86100 1.80400 41.86900
C  -4.49900 -0.72900 43.04500
O  -5.17300 0.25700 42.72700
C  -5.18800 -1.84800 43.70800
N  0.17200 -3.85900 44.14200
C  -1.19500 -4.02200 44.17400
C  -1.62100 -5.41100 44.65600
C  -0.16100 -6.01300 44.90900
C  0.87000 -4.97700 44.52100
C  -2.50000 -5.55100 45.88600
C  0.16100 -7.48500 44.39700
C  0.41600 -8.56700 45.52200
N  2.93200 -3.01600 43.58800
C  3.27000 -4.30500 44.04600
C  4.67500 -4.50400 43.90600
C  5.17000 -3.26900 43.43000
C  4.06500 -2.45600 43.11700
C  5.51800 -5.74400 44.21200
C  6.37200 -2.61400 43.06400
O  7.57200 -2.97300 43.04500
C  5.89800 -1.24700 42.38300
C  6.36200 -0.13200 43.29600
O  5.82200 0.18200 44.35100
O  7.48200 0.47600 42.76000
C  8.13900 1.43700 43.70200
H  -0.37900 1.62600 40.98400
H  -3.16100 -3.32500 44.08500
H  2.65900 -6.17100 44.74400
H  4.48000 1.59200 41.63000
H  2.10800 1.69700 39.90600
H  1.42800 3.12400 42.38100
H  1.92500 3.71800 40.87100
H  3.15900 3.30900 42.15300
H  3.69000 0.77000 38.93300
H  4.69700 -0.51600 39.58900
H  6.58000 0.30500 39.33200
H  6.08000 1.61300 40.31900
H  -3.87300 2.11200 42.13200
H  -2.74300 1.99200 40.80200
H  -2.18700 2.40400 42.48200
H  -6.22500 -1.60300 43.94100
H  -4.70100 -2.10700 44.64700
H  -5.14800 -2.75700 43.10700
H  -2.16000 -5.75500 43.77400
H  0.10400 -6.07400 45.96500
H  -3.44500 -5.94600 45.51400
H  -2.69100 -4.61900 46.41800
H  -1.99700 -6.24100 46.56300
H  1.00400 -7.51200 43.70700
H  -0.70200 -7.81900 43.82200
H  1.36500 -9.08500 45.38000
H  -0.37200 -9.32000 45.55500
H  0.44900 -8.00800 46.45700
H  6.15900 -5.74300 45.09200
H  6.10400 -5.92600 43.31100
H  4.91100 -6.64800 44.26600
H  6.34400 -1.16700 41.39100
H  7.49500 2.30900 43.82100
H  8.96300 1.92100 43.17900
H  8.55100 0.93100 44.57600
Mg 48.02600 34.86600 27.91400
C  45.95900 33.22000 30.15300
C  48.59100 37.19400 30.11900
C  49.15400 36.79700 25.35600
C  47.16500 32.41700 25.49500
N  47.27900 35.16800 29.85500
C  46.61400 34.30900 30.71300
C  46.68300 34.69300 32.16500
C  47.10500 36.23100 31.96300
C  47.71500 36.25600 30.56300
C  45.94500 37.15700 32.21300
C  47.65600 33.77200 33.05500
C  48.56800 34.46100 34.14000
H  47.92700 35.54300 35.04100
N  48.87100 36.73400 27.78400
C  49.05100 37.57100 28.83900
C  49.85800 38.68200 28.44200
C  49.87200 38.66300 27.06800
C  49.25000 37.36200 26.66600
C  50.56500 39.57000 29.48600
C  50.44300 39.68000 26.05500
O  50.53200 39.42900 24.78200
C  50.92900 41.02500 26.46600
N  47.99900 34.65000 25.69600
C  48.61700 35.61000 24.91400
C  48.68100 35.12800 23.47500
C  48.15000 33.67100 23.44700
C  47.73100 33.58700 24.97600
C  47.98200 36.11400 22.45800
C  49.15300 32.58000 22.96000
C  50.25900 32.07000 23.96400
N  46.95500 33.08800 27.84900
C  46.63900 32.19500 26.85900
C  45.91400 31.04500 27.43300
C  45.47300 31.49700 28.65500
C  46.14800 32.76400 28.87600
C  45.45600 29.86100 26.71600
C  44.71700 31.14700 29.75400
O  44.02300 30.16200 29.99100
C  44.91000 32.30600 30.76700
C  45.14200 31.84200 32.10700
O  46.09900 31.16000 32.47600
O  44.20000 32.29300 32.90400
C  44.35400 31.94900 34.32100
H  48.89100 37.88600 30.90800
H  49.37900 37.47900 24.53400
H  47.07400 31.56700 24.81600
H  45.69400 34.60300 32.61400
H  47.95700 36.40900 32.62000
H  45.98000 37.54200 33.23200
H  45.00700 36.60500 32.27000
H  45.93200 37.99800 31.51900
H  48.32000 33.33700 32.30800
H  47.24500 32.84500 33.45300
H  49.39700 34.94100 33.61900
H  48.94400 33.69700 34.82100
H  50.68400 40.60200 29.15400
H  51.54700 39.11500 29.62000
H  50.15600 39.35200 30.47300
H  50.17500 41.58200 27.02200
H  51.43600 41.49900 25.62600
H  51.71300 40.79400 27.18700
H  49.73900 35.19700 23.22000
H  47.26600 33.55500 22.82000
H  47.05900 35.73300 22.01900
H  48.78800 36.26800 21.74000
H  47.83400 37.00600 23.06600
H  49.79900 33.02200 22.20100
H  48.56900 31.80100 22.46900
H  50.37600 31.01900 23.69900
H  50.01600 32.05000 25.02600
H  51.24600 32.49200 23.77200
H  46.27500 29.28000 26.29300
H  44.87400 30.32500 25.92000
H  44.87100 29.24700 27.40000
H  44.01700 32.93000 30.78100
H  43.37400 32.15000 34.75300
H  45.10300 32.63600 34.71700
H  44.58200 30.93600 34.65400

