158

Mg 25.55000 1.41600 28.98200
C  27.50700 1.21700 31.92000
C  22.89300 1.68800 30.77000
C  23.84800 1.26500 26.07700
C  28.49400 0.51100 27.14900
N  25.28900 1.38100 31.06100
C  26.12600 1.54000 32.15600
C  25.45000 1.70500 33.48500
C  23.94500 1.75600 33.10000
C  24.02900 1.54800 31.49600
C  22.99500 0.65300 33.73700
C  25.90700 2.88800 34.39200
C  26.49100 2.58000 35.76500
H  26.35100 3.67300 36.86400
N  23.56800 1.56200 28.46200
C  22.61900 1.76400 29.41400
C  21.36800 1.93800 28.73900
C  21.62900 1.75000 27.31700
C  23.07300 1.53400 27.22900
C  20.01700 2.09100 29.47200
C  20.58700 1.69100 26.16000
O  20.98000 1.33600 25.00800
C  19.17300 1.92900 26.35500
N  26.07900 0.77300 26.94200
C  25.23000 1.12100 25.95600
C  25.79700 1.00600 24.57800
C  27.34100 0.75000 24.92400
C  27.34600 0.70700 26.47100
C  25.28600 -0.18800 23.59300
C  28.28600 1.86200 24.38700
C  29.49300 1.33700 23.63600
N  27.63100 1.04700 29.38500
C  28.70300 0.65200 28.56100
C  29.86100 0.44300 29.36000
C  29.46600 0.73200 30.67900
C  28.08900 0.96500 30.68500
C  31.14000 -0.15800 28.95000
C  29.81500 0.79400 32.10000
O  30.90800 0.66200 32.64000
C  28.60800 1.19200 32.92000
C  28.50800 0.13800 34.00800
O  28.10800 -1.01800 33.85700
O  29.00400 0.58800 35.24700
C  28.89400 -0.25900 36.45700
H  22.02500 2.04700 31.32800
H  23.38000 1.29900 25.09100
H  29.48600 0.45100 26.69600
H  25.59400 0.79700 34.07100
H  23.48100 2.68600 33.42900
H  23.47800 -0.16900 34.26400
H  22.36800 0.18100 32.98000
H  22.32800 1.24200 34.36700
H  25.10200 3.59500 34.59100
H  26.74100 3.40600 33.91800
H  27.57600 2.56800 35.66200
H  26.12000 1.62100 36.12700
H  19.39600 2.82800 28.96100
H  20.12600 2.39300 30.51300
H  19.59500 1.08600 29.48800
H  18.71700 1.26800 27.09200
H  18.70100 1.81600 25.37900
H  18.97000 2.95100 26.67200
H  25.61900 1.98400 24.13100
H  27.73600 -0.17700 24.51000
H  24.62600 -0.78200 24.22500
H  26.03100 -0.82300 23.11200
H  24.76400 0.29700 22.76900
H  28.57300 2.56300 25.17100
H  27.66600 2.50300 23.76000
H  30.24800 2.10300 23.46200
H  29.16300 0.90500 22.69000
H  29.92400 0.51000 24.20000
H  30.86700 -0.96700 28.27300
H  31.66200 -0.51500 29.83800
H  31.78200 0.50400 28.36800
H  28.81300 2.20500 33.26700
H  27.94600 -0.18300 36.99000
H  29.67200 -0.04400 37.18900
H  29.09000 -1.30200 36.20800
Mg 54.71800 24.36900 44.64300
C  52.07600 26.36900 43.39200
C  52.83500 21.49700 44.04500
C  57.52900 22.53000 45.07000
C  56.52000 27.30500 45.32100
N  52.63500 24.02500 44.00400
C  51.78700 24.94800 43.36900
C  50.54400 24.22900 42.88700
C  50.67600 22.76400 43.47500
C  52.15500 22.70500 43.92300
C  49.67000 22.15900 44.56000
C  50.32200 24.33100 41.35500
C  48.89900 23.97400 40.93300
H  48.84200 22.79500 40.01700
N  55.24500 22.27700 44.52300
C  54.28700 21.30600 44.34500
C  54.96000 20.03000 44.35500
C  56.31400 20.27500 44.70400
C  56.42100 21.75000 44.75100
C  54.26200 18.69800 43.91200
C  57.31300 19.19900 44.95700
O  56.97200 17.99800 44.97700
C  58.70100 19.55200 45.40500
N  56.80000 24.89300 44.87700
C  57.71100 23.89800 45.14600
C  59.04100 24.47600 45.76000
C  58.69200 26.03900 45.78200
C  57.22800 26.11500 45.26700
C  59.43400 24.00400 47.16300
C  59.61300 26.83000 44.88000
C  59.94700 28.26400 45.39200
N  54.41800 26.47100 44.40900
C  55.22800 27.57300 44.76800
C  54.44500 28.76400 44.63000
C  53.24600 28.34200 44.08600
C  53.27600 26.91200 43.89700
C  54.98500 30.13600 44.94100
C  52.00400 28.78700 43.56100
O  51.56400 29.88000 43.34600
C  51.24700 27.55800 42.92200
C  51.28900 27.70200 41.40200
O  52.25800 27.57300 40.67700
O  49.99700 27.92000 41.06500
C  49.75100 28.00200 39.64800
H  52.25100 20.57500 44.01400
H  58.45500 22.06300 45.41200
H  57.07000 28.22700 45.52400
H  49.78700 24.71800 43.50000
H  50.61400 22.09500 42.61600
H  49.07800 23.00900 44.89700
H  50.23900 21.70800 45.37300
H  49.05400 21.41700 44.05000
H  51.00800 23.65900 40.83800
H  50.49900 25.31600 40.92400
H  48.31600 24.81400 40.55600
H  48.38800 23.68900 41.85200
H  54.04800 18.09600 44.79500
H  54.93000 18.01700 43.38500
H  53.38300 18.97900 43.33100
H  59.19900 20.04100 44.56900
H  59.24400 18.63500 45.63400
H  58.59900 20.13700 46.31900
H  59.84300 24.32400 45.03700
H  58.86300 26.47600 46.76600
H  59.11100 22.98000 47.34900
H  59.04800 24.62300 47.97300
H  60.51400 23.86200 47.13000
H  59.14400 27.07600 43.92700
H  60.59900 26.37600 44.77900
H  60.76600 28.14800 46.10300
H  59.18900 28.90600 45.84000
H  60.31400 28.85800 44.55400
H  54.76200 30.39900 45.97500
H  54.53100 30.95700 44.38600
H  56.07500 30.13600 44.94900
H  50.29400 27.29700 43.38300
H  49.64500 27.02900 39.16900
H  50.61200 28.47400 39.17300
H  48.86200 28.58400 39.40700

