158

Mg 46.85200 25.09500 28.75700
C  47.71800 27.27700 31.33700
C  45.87200 22.83200 31.07800
C  46.58500 22.87900 26.33900
C  48.60000 27.26200 26.50400
N  46.83900 25.07600 30.93700
C  47.25200 26.06400 31.77500
C  46.93700 25.66600 33.22600
C  46.61100 24.16000 33.09100
C  46.37500 24.00400 31.62300
C  47.60900 23.09900 33.75500
C  45.89400 26.66900 33.81300
C  46.37700 27.45600 35.07100
H  45.44700 27.28500 36.23800
N  46.20600 23.13000 28.69900
C  45.78400 22.39300 29.73800
C  45.20400 21.15600 29.23800
C  45.53400 21.07700 27.87900
C  46.22500 22.38700 27.56700
C  44.65600 20.05400 30.19000
C  45.17900 19.92000 26.85700
O  45.46500 20.03000 25.66100
C  44.61300 18.69500 27.30100
N  47.45600 25.12700 26.69100
C  47.17700 24.06800 25.93200
C  47.59800 24.32600 24.46600
C  48.07300 25.74700 24.48900
C  48.04500 26.10000 25.96500
C  48.51500 23.25000 23.80500
C  47.24400 26.70800 23.49700
C  45.89500 27.13400 24.18900
N  47.78900 27.01300 28.82500
C  48.56900 27.67500 27.87000
C  49.11100 28.91400 28.50500
C  48.81200 28.78100 29.85400
C  48.01900 27.62800 29.96500
C  49.89500 29.99300 27.81400
C  49.03200 29.42400 31.12400
O  49.74300 30.37400 31.40000
C  48.30300 28.49000 32.18400
C  49.28300 28.04100 33.27800
O  49.88300 26.99100 33.23100
O  49.24300 28.89900 34.35800
C  50.15300 28.60200 35.52000
H  45.62300 22.11500 31.86300
H  46.49400 22.21900 25.47400
H  49.11600 28.00200 25.88900
H  47.80300 25.75500 33.88200
H  45.63800 23.92700 33.52300
H  47.27300 22.52800 34.62100
H  48.48400 23.62200 34.13900
H  47.75300 22.32200 33.00400
H  44.99600 26.16800 34.17500
H  45.65600 27.39400 33.03500
H  46.26300 28.51600 34.84600
H  47.39800 27.20400 35.35700
H  45.34200 19.20700 30.18800
H  43.78400 19.57000 29.74900
H  44.51300 20.27300 31.24800
H  43.64900 18.77600 27.80300
H  45.33000 18.18900 27.94700
H  44.66800 17.96700 26.49100
H  46.61100 24.40200 24.01000
H  49.10900 25.69100 24.15600
H  47.92900 22.75800 23.03000
H  48.91200 22.49500 24.48400
H  49.41500 23.58000 23.28700
H  46.95600 26.17600 22.59000
H  47.83200 27.53600 23.10100
H  45.03800 26.83500 23.58500
H  45.78800 28.21600 24.26000
H  45.68500 26.62000 25.12700
H  50.42700 29.58800 26.95300
H  50.66900 30.25800 28.53400
H  49.12600 30.71600 27.54000
H  47.51000 29.08800 32.63400
H  50.65400 29.56300 35.62900
H  50.96500 27.88800 35.37800
H  49.52100 28.43500 36.39300
Mg 49.33500 45.46700 42.49400
C  45.84700 44.96600 42.14400
C  49.73900 41.89300 42.38300
C  52.69800 45.83400 42.24300
C  48.82600 48.90100 42.18200
N  48.07900 43.67400 42.05600
C  46.62600 43.71000 42.15100
C  45.94900 42.32700 42.28700
C  47.20600 41.44700 42.51400
C  48.45300 42.37000 42.28500
C  47.26800 40.71500 43.82300
C  45.01400 41.79300 41.13900
C  44.82200 42.65000 39.91100
H  44.71100 41.81400 38.61200
N  50.94100 44.02900 42.32400
C  50.93500 42.66100 42.35100
C  52.32800 42.21000 42.21100
C  53.20400 43.33600 42.09600
C  52.28700 44.48000 42.23100
C  52.63900 40.73400 42.20900
C  54.71600 43.26400 41.85500
O  55.23500 42.16800 41.72300
C  55.57000 44.43800 41.76400
N  50.59500 47.20600 42.22700
C  51.95500 47.07400 42.39300
C  52.64700 48.45800 42.45000
C  51.43500 49.44400 42.24000
C  50.19700 48.48500 42.19900
C  53.37000 48.64300 43.80700
C  51.44200 50.28200 40.92100
C  51.49500 51.83200 41.03000
N  47.77100 46.73800 42.19600
C  47.65600 48.10800 42.15100
C  46.18000 48.51200 42.04900
C  45.55600 47.25100 42.12900
C  46.47100 46.24100 42.18800
C  45.65000 49.85300 41.92000
C  44.26900 46.72000 42.17800
O  43.20600 47.31200 42.16000
C  44.40400 45.20800 42.26400
C  43.77700 44.70700 43.49600
O  42.99100 43.77100 43.57000
O  44.40900 45.32400 44.52800
C  43.91500 44.87900 45.84100
H  49.78600 40.82200 42.59200
H  53.75200 46.11400 42.27700
H  48.71200 49.98500 42.11400
H  45.48500 42.52000 43.25400
H  47.21500 40.67900 41.74100
H  46.28000 40.43000 44.18400
H  47.64400 41.41900 44.56600
H  48.02600 39.93200 43.82900
H  43.97400 41.61600 41.41200
H  45.36400 40.83300 40.75700
H  45.53600 43.47300 39.89200
H  43.80900 43.04100 40.00800
H  53.39800 40.37900 41.51200
H  51.73400 40.15600 42.02100
H  52.96000 40.38500 43.19100
H  55.33600 44.94800 40.83000
H  56.62400 44.16100 41.77600
H  55.37300 45.07100 42.63000
H  53.34000 48.56400 41.61600
H  51.34200 50.07100 43.12700
H  54.40700 48.58500 43.47500
H  53.30900 47.80300 44.49900
H  53.14500 49.61300 44.24900
H  50.57100 49.99700 40.33100
H  52.28900 49.98500 40.30100
H  52.47700 52.20100 40.73700
H  51.52500 52.24800 42.03700
H  50.76200 52.49500 40.56900
H  46.24100 50.62700 41.43000
H  45.46300 50.36300 42.86500
H  44.68200 49.82100 41.41900
H  43.83100 44.85700 41.40600
H  44.36200 45.42000 46.67500
H  44.10600 43.84900 46.14200
H  42.84700 45.09500 45.87100

