158

Mg 36.54700 48.79400 25.25700
C  36.49400 46.83900 28.18800
C  34.59400 51.04500 26.76800
C  36.17600 50.33900 22.23600
C  38.15200 46.12200 23.62900
N  35.58800 48.90700 27.22800
C  35.83300 48.07300 28.30800
C  35.48900 48.73300 29.66300
C  34.72200 50.02200 29.21000
C  34.97500 49.99400 27.63600
C  33.17100 50.02400 29.53500
C  36.70400 48.83000 30.64500
C  36.69600 48.07400 31.99800
H  35.36000 47.95400 32.66900
N  35.48200 50.46400 24.55200
C  34.73800 51.26200 25.36900
C  34.20700 52.38200 24.59700
C  34.67600 52.32000 23.26000
C  35.50700 51.00600 23.27000
C  33.38800 53.44600 25.30200
C  34.46600 53.18100 22.10400
O  35.21900 52.96500 21.13100
C  33.53200 54.37700 22.11100
N  37.08500 48.30200 23.24500
C  36.84400 49.12800 22.17400
C  37.50200 48.59600 20.88300
C  38.22100 47.32300 21.41900
C  37.89600 47.32900 22.86000
C  36.56500 48.37400 19.58700
C  39.79000 47.27700 21.30300
C  40.35300 46.90000 19.93100
N  37.29500 46.92800 25.77700
C  37.87700 45.95100 25.00500
C  38.15300 44.73600 25.85400
C  37.61600 45.07000 27.12900
C  37.14200 46.39400 26.99900
C  38.68700 43.39800 25.36800
C  37.42700 44.56200 28.45700
O  37.76000 43.51400 28.98900
C  36.73500 45.72500 29.27100
C  35.42600 45.17600 29.77400
O  34.44100 45.26800 29.09800
O  35.53900 44.49700 30.93500
C  34.28200 43.83700 31.37900
H  34.02200 51.76500 27.35800
H  36.12800 50.93100 21.31900
H  38.55200 45.17000 23.27300
H  34.82000 48.06600 30.20700
H  35.23200 50.89700 29.61200
H  32.84700 49.16900 30.12800
H  32.45700 50.07600 28.71300
H  33.04300 50.93800 30.11500
H  37.01500 49.84700 30.88300
H  37.44800 48.38300 29.98600
H  37.21100 48.75500 32.67500
H  37.29100 47.16500 31.90100
H  32.32700 53.23300 25.43500
H  33.49700 54.35900 24.71700
H  33.84300 53.70000 26.25900
H  32.52000 53.97900 22.17700
H  33.44700 54.76500 21.09600
H  33.75200 55.26300 22.70700
H  38.38100 49.15700 20.56500
H  37.79400 46.45900 20.91100
H  35.57100 48.79100 19.74800
H  36.43300 47.30800 19.40700
H  36.93000 48.94500 18.73300
H  40.15700 46.63700 22.10500
H  40.26400 48.22300 21.56300
H  41.02900 47.70000 19.62900
H  39.64100 46.72300 19.12500
H  40.90600 45.97300 20.08700
H  39.41700 43.56600 24.57700
H  37.91800 42.65700 25.14900
H  39.31400 42.95700 26.14300
H  37.40900 46.08500 30.05000
H  33.94400 43.09900 30.65100
H  33.47500 44.56400 31.47100
H  34.39400 43.45500 32.39400
Mg -2.50100 33.87200 27.88700
C  -4.13200 31.98400 30.23600
C  -1.54300 35.96600 30.45800
C  -1.16000 35.81400 25.56700
C  -4.03700 31.89100 25.38300
N  -2.73000 33.86000 30.18400
C  -3.47600 33.04200 30.96300
C  -3.46900 33.42100 32.38000
C  -2.89600 34.92800 32.31700
C  -2.36900 34.91300 30.91600
C  -3.89100 36.08600 32.55600
C  -2.82200 32.50800 33.46500
C  -3.58500 32.27600 34.82300
H  -2.76900 32.22800 36.14100
N  -1.41400 35.67800 27.95200
C  -1.05600 36.29200 29.18300
C  -0.11600 37.34500 28.80900
C  0.03200 37.32400 27.39300
C  -0.88200 36.28200 26.87200
C  0.44400 38.39800 29.75200
C  1.01400 38.08800 26.56800
O  1.18100 37.88700 25.37300
C  1.94700 39.03700 27.24900
N  -2.63400 33.87800 25.70300
C  -1.92800 34.82400 25.00700
C  -2.12400 34.66200 23.48100
C  -2.85700 33.29700 23.42300
C  -3.18900 32.94700 24.89800
C  -2.94100 35.80500 22.78100
C  -2.00500 32.20500 22.71500
C  -0.99000 31.40400 23.61100
N  -3.86600 32.33900 27.77800
C  -4.28000 31.54200 26.73900
C  -5.14800 30.48300 27.21200
C  -5.10300 30.65300 28.57300
C  -4.19700 31.68900 28.85100
C  -5.99200 29.49600 26.40900
C  -5.69400 30.04300 29.74400
O  -6.56500 29.21800 29.84400
C  -5.07000 30.98100 30.83300
C  -6.10400 31.73300 31.68000
O  -6.70600 32.75100 31.30900
O  -6.27400 31.21700 32.95200
C  -7.11400 32.04600 33.86600
H  -1.11000 36.57000 31.25800
H  -0.64200 36.37100 24.78300
H  -4.44700 31.34000 24.53400
H  -4.52700 33.52600 32.62000
H  -2.04300 35.15500 32.95600
H  -3.55000 36.82300 33.28300
H  -4.86100 35.75500 32.92500
H  -3.96800 36.75100 31.69600
H  -1.90900 32.97700 33.83200
H  -2.54900 31.53400 33.05900
H  -3.86000 31.24500 34.60300
H  -4.50700 32.83400 34.98900
H  -0.12400 38.32800 30.68000
H  0.35400 39.42800 29.40900
H  1.50400 38.28500 29.98100
H  2.76000 39.34700 26.59300
H  2.50500 38.61800 28.08600
H  1.43000 39.93800 27.58000
H  -1.12100 34.56600 23.06500
H  -3.85900 33.38000 23.00300
H  -3.78100 35.41300 22.20800
H  -2.32800 36.45300 22.15500
H  -3.29600 36.51600 23.52700
H  -1.40900 32.53000 21.86300
H  -2.72200 31.54500 22.22700
H  -1.24100 30.34300 23.59000
H  -1.04700 31.80000 24.62500
H  0.03700 31.51600 23.26100
H  -5.58400 29.31200 25.41500
H  -6.97400 29.94100 26.24800
H  -6.00300 28.56300 26.97300
H  -4.47700 30.38100 31.52300
H  -7.97600 32.38000 33.28800
H  -6.64100 32.94300 34.26600
H  -7.50300 31.45100 34.69300

