158

Mg -2.00000 17.22700 26.89700
C  -2.12800 15.01800 29.70000
C  -2.66300 19.81400 29.03300
C  -2.42300 19.20600 24.12800
C  -2.34800 14.34900 24.74300
N  -2.19300 17.33800 29.14500
C  -2.29700 16.37800 30.06500
C  -2.63500 16.92600 31.43900
C  -3.22000 18.37200 31.08600
C  -2.62700 18.53600 29.68200
C  -4.78900 18.50800 31.25300
C  -1.45100 17.08500 32.42900
C  -1.77700 17.27900 33.97200
H  -0.79400 16.80100 34.98100
N  -2.18100 19.29400 26.58500
C  -2.42200 20.13300 27.65200
C  -2.48000 21.46800 27.07800
C  -2.36900 21.35700 25.64900
C  -2.34600 19.89700 25.38000
C  -2.64600 22.66300 27.95900
C  -2.35000 22.39500 24.62300
O  -2.51100 22.13900 23.43200
C  -2.14300 23.83500 25.03500
N  -2.32400 16.84700 24.82900
C  -2.46500 17.86300 23.88400
C  -2.88200 17.23300 22.55100
C  -2.35100 15.75600 22.69800
C  -2.32500 15.63500 24.18300
C  -4.37000 17.47400 22.23700
C  -0.93000 15.43700 22.02100
C  -0.69300 14.04000 21.34100
N  -2.12200 15.09100 27.09100
C  -2.30100 14.07100 26.11300
C  -2.47100 12.78100 26.85800
C  -2.30500 13.08200 28.24600
C  -2.05600 14.51100 28.30800
C  -2.83500 11.41300 26.30500
C  -2.27100 12.47100 29.56900
O  -2.31900 11.31800 29.96500
C  -2.17200 13.70100 30.54000
C  -1.09400 13.60500 31.50600
O  0.10700 13.69200 31.22500
O  -1.61400 13.35500 32.71000
C  -0.63200 13.25000 33.79800
H  -2.81800 20.60700 29.76700
H  -2.60400 19.88400 23.29100
H  -2.43200 13.50300 24.05800
H  -3.35500 16.29600 31.96200
H  -2.86100 19.20800 31.68600
H  -5.32500 18.48500 30.30400
H  -4.90700 19.48000 31.73300
H  -5.25600 17.68200 31.78900
H  -0.98500 18.05500 32.25200
H  -0.66500 16.34000 32.30800
H  -2.77400 16.84400 34.05000
H  -1.83000 18.34600 34.19000
H  -2.41700 22.53200 29.01700
H  -3.62700 23.12100 27.83600
H  -2.06500 23.48300 27.53700
H  -1.15500 24.09200 25.41600
H  -2.94200 24.20500 25.67700
H  -2.19800 24.44100 24.13100
H  -2.35300 17.72200 21.73200
H  -3.05600 15.06400 22.23700
H  -4.76900 18.13000 23.01000
H  -4.87600 16.51100 22.18000
H  -4.56700 18.05400 21.33500
H  -0.16200 15.52600 22.78900
H  -0.80300 16.28200 21.34400
H  0.00800 14.06900 20.50700
H  -1.59600 13.64800 20.87200
H  -0.33500 13.28300 22.03900
H  -2.45600 11.40400 25.28300
H  -3.90500 11.25800 26.16300
H  -2.38700 10.65500 26.94700
H  -3.08500 13.73500 31.13500
H  -1.14100 12.81100 34.65600
H  -0.16300 14.17600 34.13100
H  0.05700 12.49800 33.41400
Mg 46.94600 24.97500 29.18300
C  47.72100 27.39000 31.65800
C  46.03400 22.80000 31.58900
C  46.81100 22.65300 26.79000
C  48.22200 27.27700 26.93700
N  46.83600 25.10000 31.38300
C  47.23200 26.18200 32.21400
C  46.80600 25.88200 33.69500
C  46.36900 24.37600 33.67300
C  46.34800 24.03800 32.12300
C  47.09800 23.29900 34.46100
C  45.67900 26.88600 34.22400
C  46.10100 27.74400 35.38900
H  45.06400 27.87200 36.53300
N  46.35700 23.01400 29.19300
C  46.00900 22.25500 30.26900
C  45.56000 20.96600 29.89900
C  45.79800 20.90900 28.49900
C  46.27900 22.21800 28.04400
C  44.93600 19.93900 30.94300
C  45.48000 19.79700 27.49300
O  45.69400 19.94700 26.28600
C  44.91300 18.53300 27.88500
N  47.46300 24.99400 27.11800
C  47.32600 23.90400 26.40600
C  47.72500 24.13600 24.85600
C  47.81800 25.74300 24.96800
C  47.83500 26.04800 26.40200
C  49.09600 23.39000 24.49100
C  46.61400 26.41400 24.27100
C  45.27500 26.17800 24.92900
N  47.75300 26.97900 29.23100
C  48.32400 27.71400 28.23900
C  48.86700 28.96800 28.74400
C  48.59100 28.86900 30.12400
C  47.94200 27.68600 30.33900
C  49.64600 30.05900 27.96500
C  48.70400 29.54200 31.43000
O  49.13600 30.63900 31.74700
C  48.18400 28.59500 32.49300
C  49.31900 28.30100 33.39200
O  50.23900 27.52600 33.13400
O  49.02100 28.90100 34.63400
C  50.05500 28.62200 35.68300
H  45.49600 22.22500 32.34600
H  46.89000 21.83200 26.07300
H  48.73400 27.88700 26.19000
H  47.69700 25.84600 34.32300
H  45.33500 24.23100 33.98700
H  46.56500 23.17500 35.40400
H  48.09400 23.67900 34.69100
H  47.00800 22.33100 33.96900
H  44.77900 26.32700 34.48500
H  45.41900 27.65500 33.49700
H  46.19000 28.77300 35.04100
H  47.06100 27.42000 35.79100
H  45.13000 18.90100 30.67400
H  43.87300 20.06900 31.14500
H  45.29600 20.12800 31.95500
H  45.74700 17.88600 28.15700
H  44.43500 17.98800 27.07100
H  44.15600 18.59000 28.66700
H  46.97800 23.84900 24.11500
H  48.77100 26.07400 24.55600
H  49.55400 23.05000 25.42000
H  49.86700 24.04500 24.08700
H  48.87500 22.56800 23.81000
H  46.59000 26.00100 23.26300
H  46.74200 27.49300 24.18800
H  44.47600 26.10900 24.19100
H  45.11000 27.03400 25.58400
H  45.26500 25.18800 25.38600
H  50.52000 30.35400 28.54600
H  48.93200 30.87800 27.88400
H  50.00400 29.79800 26.96900
H  47.39800 29.14900 33.00700
H  50.01700 29.43700 36.40700
H  51.07900 28.58800 35.31100
H  49.79500 27.73200 36.25600

