158

Mg 48.02200 15.98200 28.51700
C  46.06800 15.53300 31.48300
C  49.94200 18.10900 30.43800
C  49.47200 16.85100 25.77600
C  45.34600 14.47000 26.75100
N  47.92600 16.73800 30.67100
C  47.07700 16.44800 31.67600
C  47.58100 16.89300 33.07500
C  48.70400 17.85400 32.65500
C  48.85800 17.55400 31.15600
C  48.44000 19.36900 33.06200
C  48.05600 15.66900 33.91900
C  48.17000 15.85300 35.44200
H  47.58400 17.11900 36.11500
N  49.58700 17.13800 28.18900
C  50.26500 17.95000 29.06700
C  51.41300 18.56900 28.41200
C  51.36200 18.11500 27.08200
C  50.08800 17.35900 26.96600
C  52.38300 19.44100 29.09800
C  52.37800 18.27700 25.93600
O  52.32700 17.55800 24.99200
C  53.58800 19.11100 26.18800
N  47.42600 15.76300 26.48500
C  48.26000 16.21200 25.52700
C  47.83400 15.79900 24.15300
C  46.53600 14.92300 24.47400
C  46.36400 15.10700 25.96200
C  47.67700 17.04500 23.17300
C  46.43000 13.44800 24.02900
C  47.00700 12.31600 24.93000
N  46.14600 15.06300 28.99000
C  45.20800 14.53300 28.19400
C  44.12800 13.98700 28.94500
C  44.49700 14.31100 30.26900
C  45.72300 15.01300 30.26500
C  42.83300 13.31000 28.52100
C  44.14600 14.10000 31.58000
O  43.24400 13.41900 32.11500
C  45.07000 14.96700 32.45100
C  44.35000 16.03700 33.17500
O  43.92400 17.09500 32.71400
O  44.16100 15.64400 34.44700
C  43.33600 16.48600 35.32400
H  50.50800 18.80800 31.05700
H  49.99600 17.32600 24.94400
H  44.48700 13.94300 26.32900
H  46.76800 17.31400 33.66700
H  49.58500 17.53400 33.21200
H  48.35800 20.01100 32.18500
H  49.35300 19.65700 33.58300
H  47.58100 19.46700 33.72500
H  49.07800 15.43900 33.61500
H  47.51500 14.77300 33.61400
H  49.22200 15.95900 35.70700
H  47.88400 14.93000 35.94700
H  52.75000 20.20700 28.41500
H  53.19900 18.87000 29.54000
H  52.03900 20.07500 29.91600
H  53.96400 18.81500 27.16800
H  53.28400 20.15500 26.25900
H  54.33400 18.95000 25.41000
H  48.58600 15.10800 23.77100
H  45.67400 15.39300 24.00000
H  46.64300 17.15700 22.84700
H  48.44800 16.72800 22.47000
H  48.05200 17.92000 23.70300
H  46.84100 13.23400 23.04200
H  45.34800 13.32300 23.99200
H  47.73100 12.56700 25.70500
H  47.57300 11.63100 24.29900
H  46.13600 11.89600 25.43400
H  42.05700 13.31400 29.28600
H  42.97100 12.26700 28.23500
H  42.42200 13.81000 27.64400
H  45.63700 14.38500 33.17800
H  42.69900 15.89500 35.98200
H  42.56800 17.09400 34.84600
H  43.99200 17.08700 35.95400
Mg 0.58400 43.49400 25.97800
C  2.86700 43.54600 28.63700
C  -1.99300 43.06800 28.28700
C  -1.45200 42.91700 23.43000
C  3.30900 44.02900 23.86400
N  0.50900 43.21600 28.21100
C  1.51700 43.39400 29.04600
C  1.06500 43.26200 30.50400
C  -0.50500 42.94200 30.35000
C  -0.68300 43.10700 28.88500
C  -0.86700 41.43800 30.81900
C  1.38300 44.61500 31.23500
C  1.77500 44.54900 32.73000
H  1.45000 43.36800 33.61900
N  -1.47500 43.11300 25.85200
C  -2.37900 42.98400 26.94500
C  -3.73200 42.75200 26.41900
C  -3.48200 42.51400 25.02600
C  -2.11300 42.86100 24.71100
C  -5.01800 42.67600 27.27300
C  -4.39700 41.91800 24.01500
O  -4.03500 41.67900 22.87500
C  -5.81600 41.81500 24.37700
N  0.93600 43.38500 23.97200
C  -0.09300 43.12500 23.12500
C  0.37800 43.24600 21.66400
C  1.86700 43.84600 21.77500
C  2.09200 43.78000 23.29900
C  0.38900 42.00800 20.77800
C  1.98000 45.34300 21.31300
C  1.74100 45.57700 19.84500
N  2.64400 43.86600 26.14000
C  3.62300 44.00700 25.20300
C  4.87900 44.27000 25.78800
C  4.69800 43.95800 27.16400
C  3.31700 43.69300 27.36400
C  6.16400 44.71500 25.05600
C  5.30000 43.74700 28.51600
O  6.51200 43.71100 28.84200
C  4.13100 43.51700 29.50400
C  4.31500 42.28500 30.34800
O  3.85400 41.22600 30.08200
O  5.14600 42.62400 31.43100
C  5.47700 41.50500 32.33200
H  -2.73700 42.99300 29.08300
H  -2.05600 42.96500 22.52200
H  4.04400 44.31000 23.10700
H  1.57100 42.38200 30.90000
H  -1.05500 43.72300 30.87500
H  0.02500 41.01100 31.27700
H  -1.28900 40.83900 30.01200
H  -1.59100 41.47000 31.63300
H  0.60000 45.37300 31.20200
H  2.19900 45.09500 30.69500
H  1.43700 45.36600 33.36700
H  2.86300 44.60900 32.71400
H  -5.84500 43.25700 26.86600
H  -4.88400 43.21600 28.21000
H  -5.36600 41.67500 27.53000
H  -5.87600 41.27800 25.32400
H  -6.26500 41.15800 23.63200
H  -6.31700 42.78200 24.34700
H  -0.31000 43.92600 21.16000
H  2.61400 43.20300 21.30900
H  -0.35700 42.06700 19.98500
H  0.05000 41.17400 21.39300
H  1.36500 41.75100 20.36800
H  2.94500 45.80600 21.52000
H  1.22900 45.92800 21.84400
H  0.70200 45.89500 19.76000
H  1.82100 44.62800 19.31500
H  2.35400 46.37100 19.41600
H  6.47500 45.73800 25.27000
H  6.01600 44.64200 23.97800
H  6.93100 43.99900 25.34900
H  4.12900 44.41000 30.12700
H  6.23200 41.67300 33.09900
H  5.71700 40.55700 31.85000
H  4.56900 41.29700 32.89900

