158

Mg 17.50000 51.88300 26.09800
C  19.34100 50.57400 28.77200
C  14.87200 52.54200 28.37100
C  15.68000 53.16400 23.57800
C  19.86800 50.80600 23.94000
N  17.20900 51.62600 28.30000
C  18.14700 51.21900 29.21300
C  17.64600 51.42000 30.65300
C  16.18100 51.79400 30.49100
C  16.09500 52.12000 28.97600
C  15.29100 50.56600 30.77300
C  18.48900 52.57500 31.35600
C  18.76800 52.44400 32.87500
H  17.76600 51.72300 33.74500
N  15.60500 52.88400 26.03100
C  14.66800 52.96100 27.01800
C  13.44700 53.52500 26.43300
C  13.75300 53.97100 25.15300
C  15.08500 53.34000 24.83200
C  12.25800 53.96600 27.40400
C  12.89500 54.83900 24.26600
O  13.32900 55.25400 23.20500
C  11.51700 55.32200 24.65200
N  17.76400 52.04100 24.00800
C  16.87300 52.62500 23.14300
C  17.40100 52.53100 21.69700
C  18.84100 51.97500 21.92400
C  18.80000 51.57400 23.38400
C  16.45900 51.66300 20.74100
C  19.96900 52.91100 21.63100
C  21.13100 52.29500 20.76600
N  19.21900 50.80000 26.22600
C  20.10900 50.40600 25.25400
C  21.18000 49.69800 25.87400
C  20.95100 49.71700 27.23900
C  19.74100 50.44200 27.45500
C  22.34800 49.00600 25.20800
C  21.52700 49.41800 28.57900
O  22.54600 48.75800 28.78100
C  20.47600 49.91900 29.63900
C  19.92200 48.77200 30.40600
O  19.25800 47.86100 29.93100
O  20.15300 48.98200 31.74500
C  19.62400 47.95300 32.63400
H  14.09700 52.80700 29.09300
H  14.94100 53.54900 22.87200
H  20.65500 50.45400 23.26900
H  17.72400 50.45500 31.15400
H  15.84000 52.68000 31.02800
H  15.88600 49.65500 30.83600
H  14.47100 50.48800 30.05900
H  14.85400 50.76300 31.75200
H  17.98200 53.53600 31.28100
H  19.45500 52.65600 30.85700
H  18.95700 53.44300 33.26700
H  19.70200 51.88300 32.88800
H  12.51700 54.98700 27.68400
H  12.25800 53.36500 28.31400
H  11.28000 53.87900 26.93200
H  11.38400 55.69500 25.66800
H  10.77100 54.57100 24.39200
H  11.34100 56.19300 24.02100
H  17.49600 53.51600 21.23900
H  18.86600 51.03200 21.37700
H  16.21800 52.33900 19.92100
H  15.59600 51.42300 21.36200
H  16.97700 50.75200 20.44000
H  20.42600 53.33700 22.52300
H  19.54300 53.78900 21.14600
H  21.16500 52.64900 19.73500
H  21.02600 51.21300 20.69000
H  22.05300 52.49700 21.31200
H  22.33200 47.94000 25.43200
H  23.18000 49.49400 25.71500
H  22.32500 49.15700 24.12800
H  20.88800 50.67800 30.30400
H  20.56000 47.39600 32.66900
H  18.83800 47.37400 32.14900
H  19.47300 48.31000 33.65300
Mg -12.60500 16.91600 42.24000
C  -9.48400 15.73600 41.51000
C  -11.54900 20.09500 41.17100
C  -15.84700 18.11300 42.36700
C  -13.79500 13.79800 42.44500
N  -10.73300 17.80300 41.51700
C  -9.55900 17.12200 41.22900
C  -8.40600 18.03100 40.94300
C  -9.05300 19.51100 41.05900
C  -10.55400 19.16500 41.23300
C  -8.48400 20.42700 42.20500
C  -7.58900 17.85500 39.65400
C  -6.19400 17.27600 39.60700
H  -5.23400 17.79600 38.53500
N  -13.52900 18.97200 41.96400
C  -12.90700 20.00800 41.42200
C  -13.92000 21.01800 41.23600
C  -15.15900 20.53800 41.75100
C  -14.89500 19.13900 42.02600
C  -13.55400 22.42200 40.88900
C  -16.39700 21.34900 41.93300
O  -16.36300 22.48000 41.50100
C  -17.72500 20.87800 42.65300
N  -14.54800 16.12100 42.54800
C  -15.70100 16.75900 42.63500
C  -16.86600 15.81800 42.76200
C  -16.21300 14.41000 42.73500
C  -14.75800 14.77500 42.59400
C  -17.66800 16.08400 44.04700
C  -16.79900 13.46300 41.72700
C  -18.10700 12.69000 42.06100
N  -11.79300 15.08900 42.23300
C  -12.41400 13.91400 42.35200
C  -11.43400 12.84300 42.32500
C  -10.22400 13.50300 42.00800
C  -10.49200 14.90200 41.98500
C  -11.68300 11.38500 42.53800
C  -8.82000 13.32500 41.67700
O  -8.20800 12.27600 41.50200
C  -8.25000 14.77900 41.57000
C  -7.33800 15.24500 42.68800
O  -7.61800 15.67600 43.80400
O  -6.05500 15.11900 42.22000
C  -4.88800 15.41200 43.14800
H  -11.12500 21.07700 40.94800
H  -16.87800 18.46400 42.27900
H  -14.04700 12.74500 42.58800
H  -7.64600 17.93400 41.71900
H  -8.96000 20.15400 40.18400
H  -7.90000 21.26400 41.82200
H  -7.70700 19.87500 42.73400
H  -9.10900 20.71500 43.05100
H  -7.46200 18.86000 39.25000
H  -8.14600 17.23200 38.95400
H  -6.25200 16.20000 39.44500
H  -5.72500 17.39800 40.58400
H  -14.26600 22.75700 40.13600
H  -12.57900 22.38600 40.40300
H  -13.38800 23.04300 41.77000
H  -18.26600 20.21600 41.97600
H  -18.38500 21.68000 42.98300
H  -17.37000 20.30800 43.51200
H  -17.40800 16.00800 41.83500
H  -16.38700 13.91300 43.68900
H  -18.03800 15.16000 44.49200
H  -18.49500 16.76700 43.85700
H  -16.99800 16.49000 44.80500
H  -15.98800 12.77100 41.49600
H  -16.95300 14.12200 40.87300
H  -18.05200 11.64200 41.76600
H  -19.06300 13.02400 41.65700
H  -18.23900 12.70100 43.14300
H  -12.35800 11.13400 41.72000
H  -12.09100 11.23000 43.53700
H  -10.82000 10.75200 42.32900
H  -7.62900 14.81200 40.67400
H  -3.93100 15.08100 42.74500
H  -5.09000 14.85000 44.06000
H  -4.90500 16.42700 43.54500

