158

Mg 41.10900 8.24400 30.07200
C  42.70600 9.56500 32.88300
C  39.06400 6.60100 32.39200
C  39.92500 6.49100 27.47100
C  43.70000 9.50300 28.10800
N  40.91200 8.11800 32.41400
C  41.56300 8.89600 33.26600
C  40.98700 8.85300 34.74300
C  39.81400 7.82400 34.55500
C  39.88600 7.57400 32.98700
C  39.92900 6.58500 35.49400
C  40.57800 10.26000 35.19600
C  41.29200 10.56100 36.60800
H  40.46500 11.21600 37.66100
N  39.75000 6.87100 29.95900
C  38.94500 6.35300 30.99000
C  37.91500 5.46900 30.41800
C  38.09500 5.52500 28.99400
C  39.27900 6.33900 28.78200
C  36.82300 4.73200 31.21400
C  37.31000 4.87500 27.87600
O  37.61000 4.83500 26.72200
C  36.04100 4.16000 28.22700
N  41.73200 8.16500 27.97200
C  41.03800 7.33300 27.12100
C  41.66400 7.44200 25.75400
C  42.84600 8.43300 25.93200
C  42.81100 8.68100 27.40000
C  42.00500 6.00100 25.22600
C  42.98000 9.67100 25.02300
C  42.04300 10.92600 25.37600
N  42.88300 9.21700 30.34400
C  43.76700 9.76100 29.44900
C  44.77200 10.42600 30.16000
C  44.35000 10.45000 31.42200
C  43.24000 9.66200 31.53400
C  46.03000 11.01600 29.61200
C  44.73500 10.83800 32.72100
O  45.66200 11.50200 33.10400
C  43.70300 10.25700 33.69300
C  44.37200 9.22900 34.58600
O  44.64500 8.05300 34.37000
O  44.75200 9.88900 35.71200
C  45.12600 9.01700 36.79800
H  38.27600 6.19200 33.02800
H  39.49900 5.95000 26.62400
H  44.40000 9.99000 27.42600
H  41.83600 8.48100 35.31500
H  38.92000 8.38700 34.82000
H  40.06200 5.71100 34.85600
H  38.95900 6.42200 35.96300
H  40.66800 6.67700 36.29000
H  39.52300 10.34300 35.45600
H  40.83100 11.02200 34.46000
H  42.03000 11.32800 36.37300
H  41.77300 9.66700 37.00400
H  35.81900 5.13800 31.08800
H  37.07800 4.80300 32.27200
H  36.91400 3.67400 30.96900
H  35.34800 4.71600 28.85900
H  36.37700 3.22500 28.67500
H  35.56900 3.96000 27.26500
H  40.97800 7.94000 25.07000
H  43.79300 7.91200 25.79000
H  41.35800 5.85600 24.36100
H  41.78600 5.22200 25.95600
H  43.05900 5.94700 24.95500
H  42.72300 9.44200 23.98900
H  44.00500 10.04000 24.99300
H  41.41300 10.58700 26.19800
H  41.38200 11.15900 24.54100
H  42.53900 11.85900 25.64100
H  45.94200 11.98900 29.12800
H  46.38200 10.32900 28.84200
H  46.78300 10.95700 30.39800
H  43.27400 11.08800 34.25300
H  45.40200 9.48200 37.74500
H  45.95200 8.38800 36.46600
H  44.25200 8.38800 36.96900
Mg -2.26300 35.03300 26.69200
C  -3.87600 32.94900 29.16500
C  -0.77600 36.64600 29.25500
C  -1.12400 37.04800 24.39300
C  -3.95900 33.05200 24.25400
N  -2.48500 34.80100 28.99000
C  -3.08500 33.89200 29.79800
C  -2.77300 34.06500 31.24500
C  -1.76600 35.27600 31.27400
C  -1.63200 35.61500 29.73700
C  -2.28200 36.44200 32.14400
C  -2.07400 32.89700 31.87900
C  -2.72100 32.20800 33.09000
H  -1.81500 31.93800 34.26400
N  -1.11800 36.72300 26.83700
C  -0.57500 37.17500 27.95400
C  0.39700 38.20500 27.61300
C  0.33900 38.32500 26.21000
C  -0.72500 37.42300 25.75100
C  1.15300 39.09900 28.62400
C  1.14900 39.12600 25.32200
O  0.95500 39.10100 24.10900
C  2.21700 40.11100 25.81200
N  -2.59800 35.10100 24.69700
C  -1.95500 36.05100 23.90900
C  -2.13500 35.78100 22.39400
C  -2.83000 34.33900 22.32200
C  -3.07900 34.08400 23.88800
C  -2.92000 36.93900 21.64300
C  -1.90800 33.27100 21.70400
C  -0.75400 32.85700 22.54600
N  -3.74500 33.40800 26.67500
C  -4.28000 32.69200 25.61100
C  -5.07400 31.60200 26.08900
C  -4.96300 31.68000 27.49000
C  -4.09500 32.75200 27.75500
C  -5.80700 30.64100 25.25600
C  -5.31400 31.00000 28.73800
O  -6.03400 30.02700 28.99400
C  -4.64400 31.81100 29.82400
C  -5.67800 32.28000 30.77300
O  -6.24100 33.37000 30.68200
O  -5.95700 31.32800 31.76700
C  -6.72000 31.87300 32.93700
H  -0.11600 37.07600 30.01100
H  -0.64000 37.56300 23.56000
H  -4.20900 32.28900 23.51400
H  -3.74200 34.30300 31.68500
H  -0.76200 35.02400 31.61500
H  -1.76300 37.36100 31.87400
H  -1.94100 36.08900 33.11700
H  -3.37100 36.49900 32.17000
H  -1.09300 33.12900 32.29500
H  -1.87000 32.05100 31.22400
H  -3.11800 31.21500 32.87700
H  -3.59600 32.75100 33.44800
H  0.68500 40.07300 28.76700
H  2.20000 39.30600 28.40100
H  1.09500 38.62200 29.60200
H  2.62500 40.76500 25.04200
H  3.04100 39.63900 26.34800
H  1.75700 40.80900 26.51100
H  -1.09000 35.65400 22.11200
H  -3.65300 34.48000 21.62200
H  -2.99600 37.78200 22.33000
H  -3.95700 36.65900 21.45800
H  -2.39000 37.45300 20.84200
H  -1.45200 33.57900 20.76400
H  -2.59300 32.43700 21.55200
H  -0.81900 31.77600 22.66300
H  -0.81400 33.43900 23.46600
H  0.20200 33.00200 22.04300
H  -5.19600 30.35300 24.40100
H  -6.69400 31.20500 24.96800
H  -6.04300 29.75800 25.84900
H  -3.91800 31.22300 30.38700
H  -6.18100 32.70200 33.39500
H  -6.91100 31.02700 33.59700
H  -7.73600 32.23300 32.77400

