158

Mg 34.71400 3.46100 29.13200
C  32.54100 4.13700 31.72400
C  37.27700 3.02500 31.48100
C  36.76200 2.62000 26.71000
C  32.14200 3.82300 26.92500
N  34.84400 3.56000 31.41000
C  33.80400 3.87800 32.22200
C  34.15400 3.75800 33.74100
C  35.80800 3.57800 33.61200
C  36.04300 3.37500 32.09100
C  36.73700 4.78000 34.11300
C  33.42200 2.56200 34.35000
C  32.97200 2.81300 35.78100
H  34.01400 3.47300 36.73300
N  36.75200 2.88800 29.07200
C  37.63700 2.73600 30.12100
C  38.96100 2.42500 29.62700
C  38.79000 2.29500 28.19300
C  37.38800 2.56300 27.89000
C  40.15600 2.21100 30.46500
C  39.86200 1.84800 27.18400
O  39.65000 1.85100 25.96900
C  41.27900 1.43800 27.64700
N  34.47800 3.10500 27.12200
C  35.52300 2.90900 26.32600
C  35.12000 2.96200 24.86000
C  33.55700 3.21000 24.86300
C  33.34600 3.34200 26.41600
C  35.91500 4.00000 23.93300
C  32.83600 2.00300 24.35300
C  32.84300 1.64800 22.82800
N  32.79500 4.00600 29.24700
C  31.86300 4.12700 28.25800
C  30.63400 4.69300 28.77700
C  30.86500 4.73700 30.11800
C  32.19200 4.23500 30.39000
C  29.44800 5.05100 28.00500
C  30.31800 5.10400 31.38900
O  29.25900 5.70200 31.67200
C  31.32000 4.57300 32.48500
C  31.65800 5.72800 33.31300
O  32.36900 6.68600 33.04800
O  31.06100 5.56200 34.54000
C  31.59800 6.48200 35.52900
H  38.03400 2.89200 32.25700
H  37.45100 2.60100 25.86300
H  31.32300 3.92800 26.21000
H  33.90100 4.67000 34.28200
H  36.20100 2.69500 34.11600
H  36.01500 5.59600 34.14800
H  37.55100 5.03700 33.43600
H  37.10400 4.48600 35.09600
H  34.09300 1.70600 34.27500
H  32.50400 2.31800 33.81400
H  32.60800 1.82900 36.07600
H  32.06000 3.40000 35.89100
H  40.59700 1.25300 30.19000
H  39.87600 2.11700 31.51400
H  40.81600 3.07900 30.48700
H  41.89100 2.09500 28.26600
H  41.87200 1.39500 26.73300
H  41.25500 0.48400 28.17300
H  35.39000 2.03000 24.36500
H  33.30100 4.14300 24.36100
H  36.43600 4.61700 24.66400
H  35.21400 4.46000 23.23700
H  36.67200 3.50100 23.32900
H  31.77700 2.12200 24.58400
H  33.16800 1.11000 24.88300
H  33.49800 2.15200 22.11700
H  31.79000 1.67400 22.55000
H  33.28300 0.65000 22.84000
H  29.19900 4.25800 27.30000
H  29.58100 6.05000 27.58900
H  28.61400 5.14100 28.70100
H  31.01400 3.74600 33.12500
H  30.88600 7.30500 35.58200
H  32.66400 6.69900 35.45900
H  31.44500 5.86300 36.41200
Mg -1.54100 34.59900 25.88700
C  -3.17500 32.61800 28.44800
C  -0.18400 36.52000 28.26900
C  -0.21500 36.20800 23.40500
C  -3.49500 32.77900 23.47200
N  -1.57900 34.58500 28.13100
C  -2.34500 33.72900 28.91000
C  -2.12200 34.04300 30.42200
C  -1.36600 35.38600 30.34600
C  -0.98400 35.53700 28.89800
C  -2.18000 36.55300 30.77600
C  -1.28100 32.92600 31.19400
C  -1.98100 32.13100 32.29300
H  -1.23100 32.14000 33.64000
N  -0.26900 36.07800 25.81100
C  0.18200 36.79500 26.89500
C  1.07300 37.79700 26.42400
C  1.21800 37.61800 25.02100
C  0.18900 36.63700 24.68500
C  1.83700 38.69900 27.38200
C  2.21700 38.11700 23.99200
O  2.21600 37.93300 22.73400
C  3.21200 39.01200 24.56000
N  -1.88900 34.60600 23.79100
C  -1.21500 35.42200 22.96600
C  -1.63100 35.33900 21.52800
C  -2.49000 34.07500 21.54700
C  -2.67100 33.78800 23.05000
C  -2.42900 36.60400 21.03800
C  -1.87400 32.86600 20.83700
C  -0.53900 32.46200 21.40200
N  -3.06600 33.08900 25.92400
C  -3.79300 32.46500 24.83800
C  -4.58800 31.41800 25.39300
C  -4.33000 31.38900 26.77300
C  -3.46200 32.44500 27.02200
C  -5.17600 30.33200 24.61300
C  -4.62800 30.71800 28.07200
O  -5.34000 29.76700 28.21900
C  -3.86100 31.43500 29.17600
C  -4.90700 31.73500 30.21700
O  -5.47800 32.77500 30.25300
O  -4.92400 30.80300 31.18300
C  -5.54400 30.99000 32.49400
H  0.27700 37.13600 29.04400
H  -0.15600 36.91600 22.57600
H  -4.09400 32.26900 22.71500
H  -3.14400 34.16500 30.78000
H  -0.41200 35.39600 30.87200
H  -3.04000 36.61000 30.10900
H  -1.57000 37.45200 30.68800
H  -2.47400 36.32900 31.80100
H  -0.37400 33.36900 31.60400
H  -0.99900 32.23600 30.39800
H  -2.14100 31.12200 31.91300
H  -2.92000 32.62000 32.54900
H  2.92400 38.64800 27.32300
H  1.59600 38.67200 28.44400
H  1.77400 39.76600 27.17200
H  3.68100 38.49000 25.39500
H  2.69900 39.91000 24.90300
H  4.06700 39.19700 23.91000
H  -0.75000 35.31200 20.88600
H  -3.47200 34.23000 21.09900
H  -1.75500 37.42100 20.78000
H  -3.12500 36.97300 21.79100
H  -2.95500 36.33600 20.12100
H  -1.68200 33.17500 19.80900
H  -2.53400 32.00700 20.95400
H  0.18000 32.37700 20.58700
H  -0.64000 31.47500 21.85400
H  -0.15800 33.16300 22.14400
H  -4.66500 30.03700 23.69600
H  -6.16000 30.61800 24.24000
H  -5.45500 29.49300 25.25100
H  -3.04800 30.89000 29.65700
H  -4.90200 31.70700 33.00600
H  -5.72400 30.06100 33.03500
H  -6.53800 31.43500 32.53000

