158

Mg 9.15000 3.63000 27.42800
C  10.70200 2.22500 30.26200
C  7.68400 5.95600 29.26000
C  7.93800 5.02700 24.48000
C  10.43800 1.00400 25.54700
N  9.18400 3.98100 29.53200
C  9.85800 3.32800 30.53300
C  9.62100 3.96300 31.88900
C  8.62900 5.20100 31.53100
C  8.49200 5.08100 30.00600
C  7.27000 4.97100 32.22300
C  10.95400 4.41500 32.52600
C  10.79400 5.08300 34.02000
H  11.51200 4.51800 35.26600
N  7.95400 5.26400 26.93000
C  7.33700 6.04800 27.89800
C  6.54300 7.06400 27.26900
C  6.68000 6.89900 25.82800
C  7.52800 5.70700 25.68800
C  5.54600 7.95400 28.00600
C  5.98600 7.62600 24.72400
O  6.08900 7.24000 23.55200
C  5.07200 8.79900 25.03200
N  9.17100 3.07800 25.32400
C  8.60700 3.82100 24.32400
C  8.84500 3.14900 22.99800
C  9.54200 1.83100 23.33100
C  9.77100 1.97300 24.82700
C  7.49000 2.99400 22.18000
C  10.76100 1.65900 22.51200
C  10.80400 0.45600 21.56100
N  10.28300 1.85000 27.81800
C  10.80600 0.89600 26.86800
C  11.52000 -0.08300 27.59900
C  11.55600 0.41400 28.91800
C  10.76600 1.61500 29.01200
C  12.24500 -1.32400 27.13300
C  12.03200 0.08900 30.22900
O  12.68600 -0.86800 30.63000
C  11.50400 1.28000 31.18800
C  10.66800 0.66900 32.25400
O  9.59400 0.05700 32.09200
O  11.27400 0.73600 33.48400
C  10.69000 -0.10100 34.51800
H  7.33700 6.74300 29.93300
H  7.61300 5.54900 23.57800
H  10.70100 0.17600 24.88500
H  9.23000 3.14900 32.50000
H  9.07100 6.19000 31.65200
H  6.89900 5.92800 32.58900
H  7.39300 4.30500 33.07800
H  6.46700 4.52000 31.63900
H  11.38800 5.14700 31.84600
H  11.66000 3.59400 32.65300
H  9.72700 5.10700 34.24400
H  10.95700 6.16100 34.00300
H  5.81800 9.00900 27.98800
H  5.67200 7.56300 29.01500
H  4.56100 7.76900 27.57900
H  4.05100 8.58000 25.34400
H  4.90400 9.45200 24.17500
H  5.54500 9.38600 25.81900
H  9.49400 3.83100 22.44900
H  8.88300 0.98200 23.14800
H  7.35200 3.78700 21.44400
H  6.69300 3.07800 22.91900
H  7.62700 2.05000 21.65200
H  11.67800 1.62100 23.10100
H  10.82100 2.50300 21.82500
H  10.04700 0.55800 20.78300
H  10.76100 -0.48900 22.10100
H  11.78600 0.46200 21.08700
H  12.34700 -1.84400 28.08600
H  13.21300 -1.07200 26.70100
H  11.62000 -1.90000 26.45000
H  12.32000 1.80900 31.68000
H  10.09200 -0.93700 34.15700
H  10.19400 0.51900 35.26500
H  11.44300 -0.60000 35.12800
Mg 15.72400 52.34800 25.37600
C  17.95300 51.02700 27.93700
C  13.40700 52.87000 27.72600
C  13.85800 53.28800 22.91700
C  18.26000 51.28100 23.00800
N  15.80000 52.13700 27.58400
C  16.79800 51.60200 28.41800
C  16.35200 51.80900 29.83500
C  14.81900 52.05500 29.72100
C  14.62200 52.41100 28.26900
C  13.93200 50.80400 30.17500
C  17.10900 53.11900 30.36000
C  17.12100 53.44900 31.84300
H  16.14100 52.62200 32.74100
N  13.85900 53.00800 25.36700
C  13.00900 53.11800 26.41400
C  11.71200 53.66000 25.93400
C  11.94200 53.91700 24.55800
C  13.28200 53.40000 24.20400
C  10.48900 53.89300 26.81900
C  10.88500 54.45600 23.59300
O  11.11100 54.47300 22.36300
C  9.52900 54.89600 24.13400
N  16.08800 52.24800 23.27400
C  15.16100 52.85000 22.50000
C  15.54400 52.76200 21.01300
C  16.98000 52.24500 21.03300
C  17.15800 51.95200 22.52100
C  14.57000 52.05600 20.04800
C  18.05900 53.11200 20.35300
C  18.47500 52.65200 18.93300
N  17.69400 51.31100 25.42900
C  18.54300 50.95900 24.37400
C  19.66800 50.20300 24.91700
C  19.56500 50.26100 26.31300
C  18.33300 50.97000 26.59700
C  20.74800 49.59800 24.12800
C  20.09400 49.92300 27.60200
O  21.09300 49.35200 27.95500
C  19.09500 50.49900 28.70000
C  18.81200 49.58600 29.83500
O  18.53400 48.34600 29.75800
O  19.15200 50.23500 30.98000
C  19.06500 49.47900 32.26400
H  12.61500 53.05900 28.45300
H  13.17700 53.47300 22.08400
H  19.00000 50.99400 22.25800
H  16.43800 50.92300 30.46400
H  14.58400 53.00200 30.20700
H  14.49200 49.90500 30.43100
H  13.22300 50.54000 29.39000
H  13.25200 51.07400 30.98300
H  16.58800 53.97500 29.93300
H  18.10200 53.07400 29.91200
H  16.84500 54.48200 32.05500
H  18.13500 53.31400 32.22100
H  9.67900 53.21100 26.56200
H  10.21900 54.94100 26.94600
H  10.68400 53.57200 27.84200
H  8.98700 54.20100 24.77500
H  9.02200 54.84000 23.17100
H  9.75300 55.89000 24.52200
H  15.52100 53.81200 20.72300
H  16.90400 51.29500 20.50300
H  13.60800 51.74600 20.45500
H  14.92600 51.07600 19.73100
H  14.39500 52.61300 19.12800
H  18.91200 53.22400 21.02200
H  17.63800 54.11700 20.30700
H  17.99600 51.76600 18.51600
H  19.52400 52.42700 19.12600
H  18.47800 53.53800 18.29800
H  21.63200 50.18300 23.87600
H  20.22600 49.09500 23.31300
H  20.95200 48.74000 24.76800
H  19.65600 51.30200 29.17700
H  19.86700 48.74100 32.26200
H  18.12700 48.94300 32.41200
H  19.12800 50.17400 33.10100

