158

Mg 17.61600 -0.90300 27.60300
C  16.35900 0.98500 30.20400
C  19.49500 -2.67600 29.94400
C  18.87900 -2.52000 24.97000
C  15.95000 1.25400 25.34500
N  17.97600 -0.72600 29.81800
C  17.24000 0.01400 30.70800
C  17.62400 -0.21400 32.18000
C  18.88700 -1.19000 31.98800
C  18.79400 -1.56000 30.52700
C  20.27700 -0.60800 32.42100
C  16.46300 -0.76800 33.07600
C  16.48500 -0.52400 34.62500
H  17.74700 0.16200 35.19900
N  18.98400 -2.37400 27.43300
C  19.54400 -3.09600 28.51900
C  20.31500 -4.25400 27.98600
C  20.03300 -4.34400 26.65500
C  19.23200 -3.09100 26.29300
C  21.09800 -5.22100 28.95700
C  20.30700 -5.39900 25.58800
O  19.74800 -5.42800 24.50000
C  21.35000 -6.50600 25.80300
N  17.68400 -0.45300 25.44900
C  18.19300 -1.41900 24.58300
C  17.79600 -1.10600 23.16600
C  16.93300 0.14300 23.27600
C  16.77400 0.31000 24.80200
C  18.94500 -1.03100 22.13400
C  15.61900 -0.04400 22.58600
C  14.53700 -0.94200 23.25000
N  16.33600 0.79000 27.66400
C  15.71300 1.53300 26.67000
C  14.82300 2.54300 27.28100
C  15.04600 2.32500 28.65700
C  15.95400 1.24000 28.83100
C  13.94700 3.60300 26.69100
C  14.70300 2.74700 29.97400
O  13.96600 3.66400 30.26100
C  15.53600 1.95700 31.03400
C  16.37000 2.91900 31.76300
O  17.46200 3.30600 31.41800
O  15.63900 3.34900 32.82400
C  16.37500 4.44300 33.51600
H  19.98500 -3.38600 30.61400
H  19.35600 -3.14500 24.21300
H  15.36600 1.74000 24.56100
H  17.85000 0.73000 32.67700
H  18.76200 -2.09200 32.58700
H  20.16800 0.45000 32.65900
H  20.93700 -0.54000 31.55700
H  20.70900 -1.10500 33.29000
H  16.34500 -1.83600 32.89600
H  15.53700 -0.28700 32.76100
H  16.35700 -1.51200 35.06700
H  15.63800 0.12000 34.86000
H  20.82300 -6.26300 28.79400
H  20.93400 -5.05700 30.02200
H  22.13600 -5.09600 28.64900
H  21.82500 -6.52500 26.78400
H  22.20300 -6.40300 25.13200
H  20.77100 -7.40900 25.60800
H  17.11100 -1.88900 22.84000
H  17.47200 0.98400 22.83900
H  19.88700 -1.30400 22.61100
H  19.01900 -0.09200 21.58700
H  18.72800 -1.74800 21.34300
H  15.72500 -0.34600 21.54400
H  15.16800 0.94800 22.59400
H  13.68900 -0.26800 23.36800
H  14.75100 -1.40500 24.21400
H  14.29500 -1.73900 22.54700
H  14.44200 3.81900 25.74500
H  14.10300 4.41000 27.40800
H  12.88100 3.40200 26.58700
H  14.83600 1.55700 31.76900
H  17.33200 4.16000 33.95600
H  15.80900 4.85300 34.35200
H  16.69000 5.27400 32.88500
Mg 44.22500 3.19500 47.75500
C  42.54600 6.34400 47.55900
C  41.16400 1.66400 47.54900
C  45.85500 0.39600 47.23000
C  47.22500 4.95500 47.76100
N  42.06300 4.01900 47.39200
C  41.66900 5.29300 47.50000
C  40.16800 5.35800 47.57900
C  39.72100 3.82600 47.63400
C  41.03500 3.08000 47.53100
C  38.89800 3.39900 48.93000
C  39.48300 6.08500 46.36600
C  39.82600 5.60000 44.94800
H  40.60200 6.59200 44.08600
N  43.59400 1.27100 47.59700
C  42.32200 0.79800 47.49500
C  42.37600 -0.55200 47.28000
C  43.77000 -0.97800 47.29900
C  44.46200 0.21600 47.45800
C  41.09200 -1.52800 47.16900
C  44.20700 -2.45900 47.25500
O  43.40700 -3.39200 47.16200
C  45.68700 -2.90200 47.22800
N  46.30900 2.70100 47.46100
C  46.70900 1.46900 47.35200
C  48.15500 1.33200 47.05300
C  48.71100 2.75800 47.34100
C  47.38600 3.55000 47.57400
C  48.81800 0.26300 47.85700
C  49.69300 3.32600 46.38200
C  49.06500 4.04800 45.20400
N  44.83000 5.20400 47.52400
C  46.09700 5.74400 47.72200
C  46.00600 7.24000 47.71800
C  44.61800 7.51400 47.69600
C  43.96200 6.24900 47.55500
C  47.09700 8.26100 48.09400
C  43.61900 8.51900 47.63700
O  43.79000 9.73100 47.66000
C  42.19600 7.78100 47.56900
C  41.34000 8.25500 48.74300
O  41.40900 7.71400 49.84100
O  40.47300 9.24200 48.37100
C  39.29500 9.36900 49.30400
H  40.20600 1.14100 47.50600
H  46.33100 -0.51400 46.85900
H  48.11000 5.57600 47.91100
H  39.96000 5.82400 48.54200
H  39.07800 3.60400 46.78200
H  39.63200 2.75600 49.41500
H  38.09100 2.74400 48.60000
H  38.63900 4.20000 49.62200
H  39.76100 7.13900 46.39500
H  38.42200 5.88300 46.50900
H  38.83900 5.34900 44.55800
H  40.41000 4.68000 44.98700
H  40.23100 -0.91900 46.89300
H  40.97900 -2.14000 48.06400
H  41.21700 -2.27300 46.38300
H  46.33400 -2.37100 47.92700
H  46.18400 -2.77500 46.26700
H  45.67900 -3.95800 47.50100
H  48.33500 1.23800 45.98200
H  49.24600 2.76800 48.29000
H  49.69200 0.60400 48.41100
H  49.02300 -0.56300 47.17700
H  48.14000 -0.14200 48.60900
H  50.24500 2.52100 45.89600
H  50.43800 3.94500 46.88200
H  49.07800 5.13400 45.29400
H  48.04200 3.69200 45.07600
H  49.70000 3.86800 44.33600
H  46.90000 9.16800 47.52300
H  48.06800 7.78000 47.97200
H  47.03900 8.43100 49.16900
H  41.63200 8.16200 46.71800
H  38.96400 8.38500 49.63700
H  38.44500 9.84700 48.81900
H  39.56900 9.90700 50.21200

