158

Mg 49.20500 47.78100 42.75300
C  45.92300 48.38500 41.93700
C  49.22600 45.05300 40.65700
C  52.65500 47.52500 43.13200
C  49.26200 50.92500 44.39300
N  47.80500 46.98500 41.34200
C  46.47200 47.33600 41.19500
C  45.68000 46.32700 40.29400
C  46.75200 45.20400 40.01800
C  48.06900 45.81800 40.63300
C  46.32600 43.82600 40.67800
C  45.18700 47.03600 39.02300
C  43.66000 46.97100 38.70600
H  43.31400 46.42100 37.32500
N  50.67500 46.40400 42.11800
C  50.48500 45.32400 41.33100
C  51.74500 44.54700 41.20100
C  52.75300 45.29000 41.88100
C  52.04300 46.45300 42.43400
C  51.93200 43.21300 40.47600
C  54.21800 44.97300 41.85900
O  54.56800 43.90600 41.42700
C  55.31500 45.87700 42.30800
N  50.72000 49.05900 43.46000
C  52.06900 48.70100 43.58000
C  52.92300 49.87600 44.20400
C  51.75100 50.82900 44.65200
C  50.46000 50.22800 44.18800
C  53.92800 49.44700 45.36700
C  51.96300 52.26700 44.17200
C  51.62800 53.38600 45.16800
N  47.84500 49.33100 43.33400
C  48.00100 50.54600 43.90500
C  46.74300 51.30300 43.83100
C  45.84900 50.42200 43.21500
C  46.61900 49.33600 42.74700
C  46.52900 52.65200 44.47900
C  44.46600 50.21300 42.83300
O  43.46500 50.92900 43.18100
C  44.44100 48.77200 42.10300
C  43.79800 47.83800 43.03000
O  43.92200 47.73900 44.23600
O  42.84200 47.06900 42.44200
C  42.17700 46.07300 43.30200
H  49.10200 44.17000 40.02600
H  53.74400 47.53300 43.20700
H  49.16900 51.89500 44.88600
H  44.81600 45.93300 40.83000
H  47.01600 44.92100 38.99900
H  46.85600 43.64800 41.61300
H  46.47000 43.00600 39.97500
H  45.25000 43.80800 40.85600
H  45.71000 46.57300 38.18600
H  45.48300 48.08400 39.06400
H  43.14500 47.93200 38.71400
H  43.20900 46.21900 39.35300
H  52.46100 42.50100 41.10900
H  52.38600 43.33200 39.49200
H  50.98000 42.70500 40.32600
H  55.31900 46.77700 41.69300
H  56.17600 45.24000 42.10700
H  55.13600 46.13000 43.35300
H  53.40900 50.36300 43.35800
H  51.62100 50.88700 45.73300
H  54.25800 48.41800 45.22200
H  53.69000 49.68100 46.40400
H  54.82400 50.01600 45.11900
H  51.35200 52.45900 43.29100
H  53.02100 52.37400 43.93100
H  51.14000 52.97100 46.04900
H  51.11500 54.07700 44.49800
H  52.56600 53.88100 45.41900
H  47.12800 52.78200 45.38000
H  45.49100 52.75900 44.79400
H  46.71700 53.47800 43.79300
H  44.00400 48.83800 41.10700
H  41.54500 45.51200 42.61300
H  41.59400 46.41700 44.15700
H  42.92400 45.32500 43.56700
Mg -13.20400 16.09100 42.74500
C  -10.36400 14.20100 41.94700
C  -11.85200 18.65100 40.77600
C  -16.23200 17.61400 42.47900
C  -14.81300 13.04800 43.51800
N  -11.34000 16.36500 41.38000
C  -10.33100 15.46000 41.32300
C  -9.13100 16.04900 40.46200
C  -9.58300 17.55400 40.21200
C  -10.99700 17.53800 40.81800
C  -8.62200 18.60100 40.83300
C  -8.70300 15.30100 39.18600
C  -7.23000 15.03500 38.95200
H  -6.45100 15.85000 37.87800
N  -13.87600 17.96600 41.93600
C  -13.13000 18.87900 41.31200
C  -13.87400 20.12500 41.25100
C  -15.15100 19.83300 41.80500
C  -15.18000 18.41000 42.02500
C  -13.22600 21.39400 40.74300
C  -16.20600 20.82100 42.14200
O  -16.18700 22.02600 41.68900
C  -17.41200 20.56400 42.88900
N  -15.22900 15.38300 42.97300
C  -16.26300 16.31400 43.00100
C  -17.62700 15.59700 43.40100
C  -17.16100 14.19200 43.74400
C  -15.64300 14.15600 43.41600
C  -18.63000 16.35800 44.28300
C  -17.98000 12.96000 43.12300
C  -19.47800 13.09700 42.75800
N  -12.61900 14.07000 42.94800
C  -13.40200 12.95100 43.31900
C  -12.48900 11.84400 43.47300
C  -11.26100 12.29800 43.08400
C  -11.45800 13.59700 42.54900
C  -12.90900 10.44000 43.75100
C  -9.85800 11.96700 42.87300
O  -9.17400 10.97200 43.08300
C  -9.21600 13.22000 42.09700
C  -8.03000 13.75900 42.82700
O  -8.04200 14.54200 43.72500
O  -6.87400 13.17200 42.34900
C  -5.63800 13.70600 43.01300
H  -11.27900 19.46900 40.33400
H  -17.23200 18.05000 42.43900
H  -15.22300 12.12700 43.93700
H  -8.31400 15.92700 41.17300
H  -9.70400 17.84200 39.16800
H  -9.02400 19.02500 41.75300
H  -8.62700 19.39200 40.08300
H  -7.62700 18.18900 40.99900
H  -8.97200 15.96600 38.36600
H  -9.27900 14.37800 39.13000
H  -7.15200 13.97500 38.70900
H  -6.76400 15.20800 39.92200
H  -13.50700 21.55300 39.70200
H  -12.14000 21.32900 40.80900
H  -13.48000 22.20500 41.42600
H  -17.86300 21.43500 43.36500
H  -17.33500 19.84200 43.70100
H  -18.14000 20.21700 42.15500
H  -18.07900 15.54500 42.41000
H  -17.16900 14.15700 44.83300
H  -18.97000 15.76500 45.13100
H  -19.52100 16.50100 43.67200
H  -18.27600 17.32200 44.64900
H  -18.03900 12.15600 43.85600
H  -17.45400 12.61500 42.23300
H  -20.03700 12.20900 43.05500
H  -19.64600 13.31600 41.70300
H  -19.83200 13.97300 43.30200
H  -13.43100 10.40000 44.70700
H  -12.14000 9.68500 43.91400
H  -13.52400 10.09200 42.92200
H  -8.80800 12.97200 41.11700
H  -4.94700 14.13600 42.28800
H  -5.23100 12.90900 43.63500
H  -5.80300 14.60600 43.60500

