158

Mg 1.49800 7.84100 25.82800
C  2.17200 9.96800 28.51300
C  2.03100 5.21700 27.96200
C  1.04600 5.71700 23.24600
C  1.20000 10.57500 23.66400
N  1.92700 7.63700 27.98200
C  2.11100 8.64200 28.92100
C  2.25900 8.07000 30.38800
C  2.40400 6.54500 30.17000
C  2.15100 6.43600 28.61400
C  3.79800 5.86400 30.55100
C  0.99900 8.47200 31.23400
C  1.16900 9.28000 32.53200
H  2.34100 8.80800 33.41300
N  1.46100 5.70700 25.62000
C  1.79300 4.83100 26.59700
C  1.76100 3.45900 26.09300
C  1.30500 3.52000 24.75600
C  1.21600 5.01300 24.48000
C  2.12000 2.28400 27.02600
C  0.97700 2.47300 23.69400
O  0.51700 2.70400 22.61200
C  1.18100 0.94500 24.13600
N  1.42200 8.16300 23.70900
C  1.03700 7.10600 22.91900
C  0.65400 7.47600 21.46500
C  0.70100 9.05100 21.58600
C  1.05600 9.31800 23.09400
C  1.52200 6.79900 20.33300
C  -0.59500 9.76200 21.19600
C  -0.58400 10.58800 19.90800
N  1.67600 9.85300 25.98200
C  1.50700 10.86900 25.04700
C  1.65400 12.14300 25.73900
C  2.03200 11.84200 27.10200
C  1.97800 10.43800 27.19900
C  1.40900 13.54800 25.18600
C  2.39000 12.47200 28.31300
O  2.67900 13.64400 28.52300
C  2.31700 11.24700 29.34700
C  3.56600 11.27800 30.14000
O  4.65200 10.88300 29.77400
O  3.32400 11.95500 31.29100
C  4.50900 12.31100 32.06000
H  2.20200 4.45000 28.72000
H  0.89200 4.98900 22.44700
H  1.02600 11.39700 22.96700
H  3.18900 8.46100 30.79800
H  1.66500 5.95000 30.70500
H  4.25400 5.97200 31.53500
H  4.57500 6.18000 29.85500
H  3.66600 4.78200 30.51900
H  0.47700 7.56900 31.55400
H  0.36400 9.01500 30.53400
H  0.25100 9.22300 33.11700
H  1.29700 10.35200 32.38400
H  1.36800 1.50000 26.93400
H  2.33200 2.39900 28.08900
H  3.04500 1.81000 26.69700
H  0.94300 0.24400 23.33700
H  0.56400 0.74000 25.01100
H  2.17100 0.74200 24.54500
H  -0.38900 7.19300 21.32600
H  1.48200 9.45100 20.93900
H  2.53300 6.56600 20.66600
H  1.55700 7.53900 19.53300
H  1.04500 5.92300 19.89100
H  -0.82800 10.53700 21.92700
H  -1.42400 9.05600 21.23700
H  -0.02500 10.09700 19.11200
H  -0.19200 11.58200 20.12100
H  -1.64800 10.60400 19.67300
H  2.39700 13.97100 25.00200
H  0.97000 14.06500 26.03900
H  0.78000 13.45900 24.30000
H  1.45500 11.47300 29.97400
H  5.02600 11.40400 32.37100
H  4.21800 12.77500 33.00200
H  5.05100 13.04000 31.45700
Mg 26.21900 -0.08900 29.25200
C  28.15600 -0.32700 32.28400
C  23.47300 0.35100 31.28200
C  24.42900 0.05100 26.48700
C  29.00200 -1.12900 27.52600
N  25.87000 0.02300 31.62400
C  26.82900 -0.02300 32.63100
C  26.20500 0.39400 34.00900
C  24.65700 0.61600 33.65600
C  24.66800 0.25000 32.12200
C  23.63100 -0.16700 34.47900
C  26.82700 1.61700 34.73000
C  26.22100 2.08500 36.05200
H  27.04600 2.29900 37.25000
N  24.28500 0.18700 28.93800
C  23.28100 0.31200 29.88400
C  22.04900 0.57200 29.13200
C  22.27700 0.63200 27.74800
C  23.68100 0.26500 27.67900
C  20.73200 1.03300 29.79800
C  21.35700 0.88300 26.55000
O  21.72600 0.79500 25.40800
C  19.92000 1.35800 26.78300
N  26.59800 -0.50400 27.27400
C  25.73300 -0.24000 26.28300
C  26.38600 -0.20800 24.89500
C  27.83000 -0.76400 25.18800
C  27.84400 -0.82100 26.76100
C  25.55100 -0.96100 23.78100
C  28.96800 0.17500 24.66800
C  30.00300 -0.53600 23.79500
N  28.14900 -0.65500 29.75000
C  29.19100 -1.06800 28.87500
C  30.43800 -1.28900 29.66000
C  29.97300 -1.06400 30.95200
C  28.65700 -0.56700 30.94600
C  31.80800 -1.66700 29.17400
C  30.47700 -0.97000 32.27500
O  31.59900 -1.13100 32.73100
C  29.37700 -0.44100 33.21400
C  29.22900 -1.29400 34.37300
O  28.68600 -2.37200 34.35000
O  29.75400 -0.81900 35.51500
C  29.55000 -1.43200 36.86400
H  22.63500 0.69500 31.89200
H  23.98800 0.30200 25.52000
H  29.84100 -1.30700 26.85000
H  26.38500 -0.48500 34.62900
H  24.49600 1.68100 33.82200
H  24.12100 -0.67600 35.30900
H  23.00700 -0.94900 34.04600
H  22.89100 0.44700 34.99100
H  26.95500 2.45900 34.04900
H  27.83600 1.30400 35.00000
H  25.36700 1.44600 36.27300
H  25.87900 3.09600 35.83000
H  20.57500 2.07500 29.51600
H  20.74000 0.92100 30.88200
H  19.92500 0.39700 29.43400
H  19.97200 2.37300 27.17700
H  19.21400 0.71400 27.30600
H  19.32500 1.47800 25.87700
H  26.39100 0.84400 24.61100
H  27.94800 -1.78700 24.83000
H  26.22100 -1.58600 23.19000
H  25.12300 -0.15200 23.19000
H  24.86200 -1.60100 24.33400
H  29.43700 0.53000 25.58600
H  28.67700 1.14300 24.26000
H  30.40700 0.11600 23.02000
H  29.66600 -1.47400 23.35500
H  30.83200 -0.90500 24.39900
H  32.09800 -1.05900 28.31700
H  31.72900 -2.73100 28.95000
H  32.58200 -1.52600 29.92900
H  29.62800 0.56900 33.53800
H  30.40600 -1.06800 37.43200
H  29.52700 -2.52000 36.80400
H  28.61600 -0.95300 37.15900

