158

Mg 53.12600 23.46900 44.85200
C  50.82800 25.96400 43.84200
C  51.08100 21.05600 43.46600
C  55.64700 21.25700 45.17000
C  55.26300 26.05700 45.95800
N  51.22600 23.56100 43.79800
C  50.37600 24.69700 43.47500
C  49.07800 24.24200 42.80700
C  49.02000 22.70900 43.35500
C  50.55000 22.40400 43.51900
C  48.20200 22.54200 44.59200
C  49.02100 24.49000 41.27700
C  47.59900 24.87900 40.69400
H  47.28500 24.47700 39.26600
N  53.34000 21.44200 44.38000
C  52.38700 20.62200 43.82200
C  52.93900 19.29000 43.71400
C  54.29100 19.34000 44.16400
C  54.45800 20.68900 44.66500
C  52.20600 18.18000 42.98300
C  55.19100 18.11600 44.22800
O  54.77000 16.96700 43.92800
C  56.69100 18.35700 44.35000
N  55.31700 23.68700 45.07500
C  56.05800 22.57800 45.42400
C  57.41500 22.86500 46.06900
C  57.21000 24.41200 46.39800
C  55.83400 24.79700 45.74900
C  57.73200 21.91200 47.25300
C  58.48900 25.32500 45.97000
C  59.92100 24.75900 46.00400
N  53.10100 25.56100 44.97600
C  54.02400 26.45400 45.48200
C  53.42300 27.74700 45.59400
C  52.22900 27.62600 44.90800
C  52.06700 26.26800 44.55500
C  54.02800 29.03000 46.24000
C  51.10100 28.33900 44.38700
O  50.88000 29.54000 44.46900
C  50.17200 27.31100 43.63400
C  50.16900 27.81600 42.24500
O  51.19800 28.09800 41.64900
O  48.93900 27.91400 41.81200
C  48.74400 28.57100 40.48600
H  50.40000 20.24100 43.21300
H  56.36500 20.48200 45.44600
H  55.89800 26.79000 46.45900
H  48.21600 24.74600 43.24500
H  48.62900 22.08600 42.55000
H  47.71100 23.47900 44.85200
H  48.85400 22.35000 45.44500
H  47.46400 21.74100 44.56800
H  49.30100 23.59300 40.72400
H  49.57000 25.37100 40.94600
H  47.48100 25.96100 40.74600
H  46.86600 24.34500 41.29900
H  52.93400 17.86700 42.23400
H  51.38300 18.51000 42.35000
H  51.89300 17.32400 43.58000
H  56.88300 19.33800 43.91700
H  57.36800 17.62800 43.90500
H  56.98900 18.33700 45.39800
H  58.16200 22.61400 45.31700
H  57.21800 24.61600 47.46800
H  58.32700 21.08400 46.87000
H  56.76700 21.48700 47.53000
H  58.16000 22.34100 48.16000
H  58.49500 26.15800 46.67300
H  58.32200 25.69300 44.95800
H  60.37400 24.99500 45.04100
H  60.02700 23.67500 45.95900
H  60.61800 25.24000 46.69000
H  53.29800 29.78600 45.94800
H  54.98000 29.38900 45.85100
H  54.00200 28.83600 47.31200
H  49.15600 27.25100 44.02500
H  47.99300 28.07800 39.87000
H  49.66700 28.76200 39.93800
H  48.42200 29.59000 40.70300
Mg 36.31700 49.79400 25.90800
C  36.83100 47.93800 28.81800
C  35.14600 52.27100 27.73400
C  35.94000 51.41000 23.01400
C  37.19300 46.89600 23.96300
N  35.95100 50.00300 28.04800
C  36.42400 49.22100 29.03700
C  36.19800 49.91900 30.39800
C  35.45200 51.25500 30.05700
C  35.44100 51.21100 28.48300
C  34.00000 51.32300 30.54200
C  37.49100 50.08400 31.21300
C  37.49200 49.61300 32.60600
H  36.22900 49.71400 33.40300
N  35.70500 51.63000 25.39200
C  35.26300 52.53000 26.33500
C  35.00500 53.81800 25.70600
C  35.17200 53.62800 24.30200
C  35.56700 52.20300 24.17700
C  34.55900 54.91100 26.52500
C  35.04700 54.61700 23.19600
O  35.08300 54.32000 21.99100
C  34.83100 56.11000 23.48500
N  36.36600 49.14300 23.90800
C  36.26300 50.05700 22.92700
C  36.40800 49.40600 21.52000
C  36.99800 48.01200 21.80200
C  36.79400 48.00200 23.30300
C  35.05500 49.33700 20.64500
C  38.53200 47.88000 21.38100
C  38.84200 47.08600 20.02300
N  36.75000 47.76000 26.27200
C  37.06400 46.70600 25.39700
C  37.48400 45.54900 26.14800
C  37.40000 45.97900 27.51900
C  36.98800 47.31900 27.55300
C  38.05900 44.29400 25.60500
C  37.62900 45.56900 28.91700
O  37.95500 44.46400 29.33700
C  37.20100 46.82100 29.79800
C  36.08800 46.37000 30.63200
O  34.91600 46.39100 30.38000
O  36.56700 45.99100 31.94200
C  35.57200 45.56300 32.96000
H  34.77900 53.13900 28.28600
H  35.89600 51.98000 22.08300
H  37.36500 46.04400 23.30200
H  35.45200 49.21900 30.77600
H  36.04800 52.09100 30.42300
H  33.37500 51.78300 29.77700
H  34.03300 51.97500 31.41500
H  33.70900 50.31800 30.84800
H  37.78400 51.12800 31.09600
H  38.23800 49.57100 30.60800
H  38.16000 50.22700 33.20900
H  37.85400 48.58900 32.69300
H  35.42500 55.57000 26.59400
H  34.10800 54.75300 27.50400
H  33.82800 55.50600 25.97800
H  35.51100 56.29900 24.31700
H  33.74900 56.18000 23.59600
H  35.12700 56.64100 22.58100
H  37.11100 50.00700 20.94300
H  36.39800 47.18100 21.43000
H  35.28900 49.08500 19.61100
H  34.40300 50.20800 20.71200
H  34.53300 48.47300 21.05500
H  39.02400 47.38800 22.22000
H  38.94900 48.88700 21.37400
H  37.87600 46.63500 19.79500
H  39.64600 46.38000 20.22800
H  39.06700 47.67200 19.13100
H  38.46100 44.45200 24.60400
H  37.22600 43.59600 25.52200
H  38.85400 44.03200 26.30200
H  38.03900 47.19800 30.38400
H  36.08000 45.13700 33.82500
H  35.03400 44.82500 32.36500
H  34.90200 46.39500 33.17900

