158

Mg 7.84500 3.18100 28.04400
C  9.23000 1.68600 30.93600
C  5.97000 5.13100 30.19500
C  6.17600 4.31200 25.47700
C  9.30300 0.57300 26.12000
N  7.60900 3.29000 30.22800
C  8.32900 2.69700 31.27800
C  8.20200 3.33900 32.69600
C  6.94700 4.25700 32.37700
C  6.74900 4.13700 30.82900
C  5.61700 3.93200 33.16500
C  9.49300 4.04100 33.14200
C  10.34300 3.48600 34.33400
H  10.70000 4.52100 35.36800
N  6.32300 4.54900 27.82200
C  5.72000 5.31300 28.75400
C  4.84500 6.26600 28.17600
C  4.93600 6.07200 26.77700
C  5.82100 4.92000 26.65300
C  3.90300 7.20200 28.88900
C  4.15800 6.80500 25.61900
O  4.08100 6.35500 24.47200
C  3.70300 8.14000 25.84800
N  7.69400 2.54400 26.11300
C  7.01100 3.23600 25.18400
C  7.13200 2.60200 23.82200
C  8.22300 1.53500 24.04700
C  8.45400 1.53600 25.52900
C  5.81000 2.05500 23.27700
C  9.48200 1.87300 23.26200
C  10.36800 0.70300 22.85500
N  9.03700 1.53700 28.45100
C  9.56200 0.59700 27.53000
C  10.32100 -0.33100 28.37500
C  10.31300 0.09200 29.67100
C  9.49300 1.15400 29.69100
C  11.05300 -1.54300 27.79000
C  10.79500 -0.18400 30.98000
O  11.59400 -1.09200 31.25200
C  10.15800 0.87500 31.85900
C  9.40200 0.07800 32.88400
O  8.51900 -0.73300 32.65500
O  9.98400 0.30300 34.15900
C  9.19300 -0.21800 35.32900
H  5.49400 5.87300 30.84000
H  5.65600 4.70500 24.60200
H  9.76000 -0.22000 25.52600
H  7.84300 2.57200 33.38200
H  7.13900 5.32000 32.51700
H  4.72900 3.71300 32.57200
H  5.31900 4.85100 33.66900
H  5.84000 3.04500 33.75800
H  9.34200 5.10600 33.31800
H  10.09800 3.98100 32.23600
H  11.29500 3.02800 34.06400
H  9.71700 2.78000 34.88100
H  3.55100 6.73000 29.80600
H  2.94000 7.24700 28.38000
H  4.33000 8.15500 29.20200
H  4.51100 8.65100 26.37200
H  2.85200 8.13600 26.52900
H  3.44700 8.58800 24.88800
H  7.56400 3.32700 23.13200
H  7.81900 0.61900 23.61600
H  4.88300 2.41600 23.72300
H  5.84800 0.96700 23.21200
H  5.73000 2.28800 22.21500
H  10.21000 2.43600 23.84700
H  9.26100 2.41100 22.34100
H  10.55200 0.62000 21.78400
H  9.95300 -0.22700 23.24500
H  11.37100 0.82000 23.26500
H  10.54400 -1.89800 26.89400
H  11.06700 -2.35100 28.52100
H  12.07900 -1.22900 27.60100
H  10.96700 1.46800 32.28600
H  8.77900 -1.19500 35.08000
H  8.40400 0.49800 35.55700
H  9.88200 -0.27300 36.17200
Mg 53.85600 24.46800 42.96700
C  51.48400 26.99400 42.28100
C  51.74600 22.10900 42.00400
C  56.49000 22.30400 42.92100
C  56.05800 27.02700 43.90400
N  51.87000 24.62300 42.05400
C  51.06200 25.67800 41.83500
C  49.66500 25.20800 41.39200
C  49.67700 23.66300 41.83400
C  51.20000 23.45100 42.07800
C  48.80700 23.26600 43.06100
C  49.27800 25.49000 39.91700
C  50.33300 25.16700 38.85800
H  49.85300 24.32000 37.66200
N  54.10700 22.49000 42.38900
C  53.08100 21.69400 42.13000
C  53.52300 20.29700 42.16600
C  54.87500 20.31500 42.60700
C  55.23600 21.74000 42.67800
C  52.64600 19.08300 41.86400
C  55.71100 19.05000 42.79600
O  55.31600 17.94900 42.50000
C  57.04500 19.03100 43.50500
N  56.03100 24.67300 43.12400
C  56.91100 23.60100 43.22900
C  58.39200 24.03600 43.50300
C  58.18300 25.57200 43.95900
C  56.68300 25.80200 43.63500
C  59.11200 23.14800 44.57500
C  59.12300 26.66600 43.35200
C  59.82300 27.49700 44.30300
N  53.81700 26.64600 43.12700
C  54.76200 27.48600 43.57100
C  54.10000 28.74600 43.80100
C  52.81700 28.68900 43.25200
C  52.69200 27.34000 42.84900
C  54.74200 29.90700 44.47600
C  51.58700 29.37300 42.92500
O  51.21100 30.45900 43.23900
C  50.63000 28.27900 42.31600
C  50.01700 28.75700 41.04700
O  50.45900 28.69800 39.96900
O  48.76700 29.19500 41.37400
C  47.90400 29.73600 40.31100
H  50.95100 21.38600 41.81000
H  57.30400 21.58200 43.01000
H  56.79200 27.69400 44.36000
H  48.88700 25.71300 41.96400
H  49.50600 23.07400 40.93300
H  48.06300 22.52300 42.77300
H  48.33900 24.05300 43.65400
H  49.46200 22.86000 43.83100
H  48.89900 26.50700 39.81600
H  48.34700 24.97000 39.69200
H  51.10500 24.59000 39.36600
H  50.77300 26.07000 38.43500
H  52.33900 18.54100 42.75900
H  53.10400 18.26300 41.31000
H  51.77700 19.45700 41.32300
H  57.12700 18.10300 44.07200
H  57.01100 19.86200 44.21000
H  57.92700 19.00000 42.86500
H  58.97200 23.98600 42.58200
H  58.23200 25.56700 45.04800
H  58.64600 22.27800 45.03600
H  59.63900 23.77000 45.29800
H  60.01600 22.78800 44.08400
H  58.59300 27.34700 42.68500
H  59.82100 26.15500 42.68800
H  59.35800 28.48000 44.37100
H  60.85200 27.70900 44.01300
H  59.77600 27.15300 45.33700
H  54.74400 30.78500 43.83100
H  55.74400 29.62100 44.79500
H  54.24100 29.98000 45.44100
H  49.79300 28.12000 42.99500
H  48.28100 30.72700 40.05900
H  46.94600 29.99600 40.76300
H  47.78500 29.06100 39.46300

