158

Mg -9.99100 39.80400 41.43100
C  -8.81300 36.46700 40.74000
C  -7.03700 40.91800 40.17100
C  -11.27100 42.77100 41.71800
C  -13.19000 38.26800 41.96700
N  -8.20800 38.72500 40.36900
C  -7.92800 37.42600 40.28600
C  -6.53600 37.25500 39.60200
C  -5.91900 38.71000 39.40800
C  -7.08400 39.51100 40.14900
C  -4.53300 38.90700 40.12500
C  -6.74200 36.60800 38.18400
C  -5.99300 35.26100 37.89900
H  -5.18500 35.25800 36.59400
N  -9.30700 41.67300 41.04400
C  -8.02900 41.92600 40.54900
C  -7.80900 43.35700 40.42400
C  -8.97600 44.00600 40.91000
C  -9.95700 42.80400 41.27700
C  -6.50500 44.02200 39.86100
C  -9.27000 45.48300 41.11100
O  -8.48000 46.32000 40.75400
C  -10.50500 45.95700 41.69000
N  -11.94400 40.42500 41.65200
C  -12.19000 41.76000 41.88600
C  -13.65000 42.00700 42.24300
C  -14.35900 40.59900 42.26400
C  -13.10200 39.68800 41.90800
C  -13.91500 42.69800 43.55700
C  -15.58800 40.40000 41.38500
C  -16.79300 39.51300 41.89200
N  -10.80000 37.69700 41.62900
C  -12.10900 37.29300 41.85800
C  -12.20200 35.81500 41.88300
C  -10.85200 35.44800 41.49600
C  -10.12100 36.65700 41.27300
C  -13.42700 35.07500 42.24800
C  -9.91900 34.36700 41.24900
O  -10.02800 33.16500 41.52100
C  -8.64600 34.98000 40.65300
C  -7.43700 34.47600 41.42100
O  -7.09100 34.88400 42.55000
O  -6.79200 33.47200 40.71300
C  -5.58400 32.87500 41.41800
H  -6.07000 41.31600 39.85600
H  -11.76600 43.72900 41.89100
H  -14.16500 37.90000 42.29300
H  -5.99700 36.65500 40.33500
H  -5.93800 39.02300 38.36400
H  -4.16000 37.94700 40.48100
H  -4.68400 39.52300 41.01100
H  -3.72700 39.32900 39.52500
H  -6.58300 37.36300 37.41400
H  -7.78300 36.28800 38.14400
H  -6.74200 34.47500 37.79600
H  -5.35900 34.95200 38.72900
H  -6.58400 44.18600 38.78600
H  -5.64000 43.36100 39.90600
H  -6.32700 45.04800 40.18300
H  -11.24200 45.72500 40.92100
H  -10.55700 47.03500 41.84000
H  -10.66800 45.45000 42.64100
H  -14.17700 42.55400 41.46100
H  -14.74800 40.22400 43.21000
H  -13.88700 43.78400 43.46400
H  -13.27900 42.27500 44.33400
H  -14.91900 42.48300 43.92400
H  -15.30000 39.78800 40.53000
H  -16.02400 41.36500 41.12800
H  -17.76900 39.97400 41.73800
H  -16.63700 39.06800 42.87500
H  -16.79300 38.65600 41.21900
H  -14.13700 35.74700 42.73000
H  -13.00200 34.37500 42.96700
H  -13.84100 34.65600 41.33100
H  -8.54200 34.73500 39.59600
H  -4.87500 33.46700 41.99700
H  -4.96700 32.34600 40.69100
H  -6.07100 32.24600 42.16400
Mg -5.76600 25.66100 25.81100
C  -4.10600 26.71000 28.64300
C  -7.56500 23.54900 27.62400
C  -7.01200 24.51400 22.90500
C  -3.54200 27.74200 23.86400
N  -5.60400 24.96700 27.91100
C  -5.06600 25.69200 28.89600
C  -5.47800 25.27000 30.29000
C  -6.52100 24.17000 29.88800
C  -6.64200 24.28400 28.34100
C  -6.26200 22.72000 30.39000
C  -6.31500 26.47700 30.89100
C  -6.19400 26.60000 32.43400
H  -6.05500 25.46000 33.38400
N  -7.20100 24.23700 25.33200
C  -7.86600 23.47500 26.25200
C  -8.69100 22.53800 25.54900
C  -8.68500 22.88100 24.09500
C  -7.53800 23.89300 24.02000
C  -9.47700 21.50100 26.37200
C  -9.48100 22.38500 22.88300
O  -9.28900 22.80200 21.76000
C  -10.67200 21.44100 23.01300
N  -5.35300 26.09600 23.61900
C  -5.97100 25.42200 22.64900
C  -5.44800 25.76700 21.27300
C  -4.45300 26.90400 21.59400
C  -4.45600 26.91300 23.11300
C  -4.62100 24.54900 20.75700
C  -4.77200 28.35100 20.96000
C  -3.57200 28.96200 20.23000
N  -4.06700 26.83600 26.10900
C  -3.37300 27.76200 25.26900
C  -2.41800 28.57400 26.06300
C  -2.66200 28.11600 27.38300
C  -3.67000 27.15100 27.36700
C  -1.47900 29.57700 25.49600
C  -2.13500 28.22400 28.66600
O  -1.31800 28.97100 29.14400
C  -3.10400 27.29200 29.55000
C  -2.26500 26.26400 30.28300
O  -1.59400 25.38600 29.74500
O  -2.20100 26.74200 31.60300
C  -1.00300 26.20500 32.35800
H  -8.06700 22.85600 28.30200
H  -7.41300 24.08300 21.98500
H  -2.74700 28.35700 23.43800
H  -4.65900 25.06400 30.97900
H  -7.50600 24.49600 30.22300
H  -7.08600 22.47400 31.05900
H  -5.34300 22.63200 30.97000
H  -6.13000 22.10500 29.50000
H  -7.35300 26.49500 30.55800
H  -5.85500 27.36700 30.46000
H  -7.00700 27.24300 32.77300
H  -5.32100 27.24300 32.54700
H  -9.29800 20.49100 26.00400
H  -10.48000 21.92800 26.38100
H  -9.12900 21.46700 27.40400
H  -10.99900 21.21200 21.99900
H  -11.38800 21.99900 23.61500
H  -10.35000 20.53400 23.52500
H  -6.29800 26.09900 20.67700
H  -3.41200 26.60400 21.47400
H  -4.13100 24.08500 21.61400
H  -3.84700 24.86100 20.05600
H  -5.24100 23.85600 20.18800
H  -4.91700 28.95200 21.85700
H  -5.68100 28.29000 20.36200
H  -2.93100 28.16500 19.85400
H  -2.91400 29.49200 20.91800
H  -3.77700 29.67000 19.42600
H  -1.95000 30.55200 25.37400
H  -1.14300 29.32800 24.49000
H  -0.67900 29.75800 26.21400
H  -3.65600 28.01800 30.14800
H  -0.34500 27.06800 32.25800
H  -0.73100 25.25800 31.89200
H  -1.28100 26.03000 33.39800

