158

Mg 16.37000 -2.00400 28.44100
C  15.33300 0.25100 30.97700
C  18.09400 -3.71700 30.70600
C  17.81500 -3.73600 25.83600
C  14.74800 0.02800 26.05700
N  16.76300 -1.69500 30.56900
C  16.20700 -0.72800 31.42800
C  16.48200 -1.10600 32.84500
C  17.43300 -2.34900 32.71700
C  17.46900 -2.59900 31.25200
C  18.91800 -2.24200 33.29000
C  15.21600 -1.25900 33.80100
C  15.15700 -0.39500 35.10600
H  16.47500 0.21800 35.65300
N  17.75000 -3.53500 28.30600
C  18.31500 -4.13600 29.36800
C  19.06000 -5.31400 28.97200
C  19.07200 -5.25000 27.57400
C  18.14100 -4.17000 27.14500
C  19.76900 -6.26700 29.90600
C  19.85100 -6.16900 26.48300
O  19.92000 -5.80200 25.33000
C  20.62700 -7.40500 26.88900
N  16.30000 -1.85100 26.27700
C  16.95100 -2.72600 25.44400
C  16.86100 -2.30900 24.00500
C  15.81200 -1.17000 24.02400
C  15.60300 -0.92600 25.52400
C  18.24000 -1.93000 23.37200
C  14.44200 -1.39600 23.33900
C  13.36500 -2.26000 24.12900
N  15.17800 -0.28300 28.40100
C  14.55700 0.37200 27.37900
C  13.65000 1.40800 27.93000
C  13.97800 1.45800 29.35500
C  14.87100 0.41100 29.58700
C  12.77000 2.32300 27.10500
C  13.74800 2.15500 30.65000
O  13.07600 3.11600 31.00500
C  14.56200 1.40700 31.76900
C  15.42300 2.42700 32.32500
O  16.38600 2.84200 31.72300
O  14.86700 2.92200 33.49900
C  15.56700 4.03700 34.13700
H  18.57800 -4.34600 31.45600
H  18.23200 -4.26100 24.97500
H  14.19500 0.57400 25.29000
H  17.15600 -0.28400 33.08600
H  16.88500 -3.19800 33.12500
H  19.10800 -1.32800 33.85300
H  19.67000 -2.25200 32.50100
H  19.06400 -3.07400 33.97800
H  15.20900 -2.28300 34.17400
H  14.30100 -0.93600 33.30500
H  14.65100 -0.99200 35.86500
H  14.54200 0.49500 34.96700
H  19.19700 -7.19500 29.91500
H  19.90100 -5.94700 30.94000
H  20.77100 -6.50900 29.55100
H  19.99400 -7.98800 27.55900
H  21.54700 -7.10300 27.39000
H  20.84100 -8.08900 26.06900
H  16.43700 -3.14300 23.44600
H  16.21200 -0.28000 23.53800
H  19.18300 -2.22400 23.83400
H  18.33100 -0.85200 23.23700
H  18.12800 -2.42100 22.40500
H  14.61700 -1.96000 22.42300
H  14.01900 -0.40400 23.18300
H  12.62900 -1.52100 24.44400
H  13.72500 -2.64600 25.08300
H  12.76600 -2.92300 23.50500
H  13.15100 2.66400 26.14200
H  12.53800 3.22800 27.66700
H  11.80700 1.83900 26.94900
H  13.84800 1.09500 32.53100
H  15.71900 4.01800 35.21600
H  15.10200 4.99200 33.89000
H  16.58500 3.95700 33.75500
Mg 30.84400 58.91100 40.50100
C  28.01000 57.06300 39.49400
C  32.77700 56.19200 39.60000
C  33.53400 60.80000 40.96800
C  28.78400 61.66500 40.88300
N  30.42500 56.92200 39.29400
C  29.23700 56.39000 39.19700
C  29.39200 55.05900 38.47900
C  30.85100 54.69500 38.92500
C  31.40200 56.03800 39.31100
C  30.86900 53.68500 40.05500
C  29.20400 55.27100 36.98100
C  27.90900 54.64200 36.41400
H  27.15000 55.33700 35.31800
N  32.89000 58.54100 40.33100
C  33.48700 57.38100 39.96500
C  34.92600 57.55600 39.94900
C  35.16200 58.86900 40.28600
C  33.79900 59.49100 40.54900
C  35.91700 56.51600 39.52600
C  36.45900 59.53600 40.31700
O  37.52800 58.96700 40.11900
C  36.72600 61.01900 40.39500
N  31.12400 60.94200 41.01400
C  32.35200 61.52500 41.13300
C  32.24500 63.02500 41.35200
C  30.71000 63.31200 41.09100
C  30.12800 61.91700 41.02300
C  32.76100 63.44900 42.73000
C  30.47500 64.17300 39.78400
C  29.57200 65.38000 39.96100
N  28.71600 59.33100 40.36100
C  28.10000 60.51300 40.58600
C  26.66500 60.31300 40.42700
C  26.55100 58.95700 40.12100
C  27.85900 58.43200 39.98600
C  25.64400 61.30900 40.52300
C  25.67700 57.83500 39.87900
O  24.45500 57.82100 39.77000
C  26.54300 56.62200 39.36800
C  26.22000 55.44300 40.15300
O  26.76000 54.98900 41.14900
O  25.12100 54.92200 39.54500
C  24.61900 53.60600 40.04200
H  33.41100 55.30200 39.59100
H  34.30800 61.56600 41.05500
H  28.07300 62.49400 40.88200
H  28.71900 54.28400 38.84500
H  31.52400 54.48300 38.09400
H  31.45600 54.17000 40.83500
H  31.46700 52.82800 39.74400
H  29.88900 53.33700 40.38000
H  30.03100 54.78600 36.46200
H  29.17100 56.33200 36.73400
H  27.22100 54.38300 37.21900
H  28.23700 53.67800 36.02400
H  36.47500 55.92200 40.25000
H  36.63100 56.97800 38.84500
H  35.42400 55.69900 39.00000
H  36.52100 61.42600 41.38500
H  36.04200 61.49400 39.69200
H  37.73100 61.30700 40.08500
H  32.87500 63.31200 40.51100
H  30.26400 63.75800 41.98000
H  33.82200 63.22600 42.83500
H  32.16600 62.99200 43.52100
H  32.65500 64.53100 42.64400
H  29.88700 63.63100 39.04300
H  31.41200 64.54000 39.36500
H  28.88100 65.34400 39.11800
H  30.21600 66.25500 39.87100
H  28.90800 65.34100 40.82400
H  25.83700 61.89800 41.41900
H  24.62400 60.93100 40.45200
H  25.75400 61.90900 39.61900
H  26.40000 56.49900 38.29400
H  25.11200 53.30400 40.96600
H  24.75800 52.82500 39.29400
H  23.56900 53.71800 40.31300

