158

Mg 9.74900 47.30700 27.00300
C  7.99500 47.23300 29.89200
C  12.48000 48.46900 28.50100
C  11.27700 47.31000 24.02500
C  6.56500 46.51100 25.27500
N  10.16300 47.95500 28.96300
C  9.35600 47.62600 30.01900
C  10.10700 48.00800 31.37500
C  11.41100 48.66700 30.76800
C  11.35900 48.25000 29.33800
C  11.40000 50.22100 30.85800
C  10.34600 46.67400 32.20900
C  10.08600 46.73000 33.65500
H  10.45300 45.58800 34.57000
N  11.61100 47.80700 26.36200
C  12.61500 48.22000 27.15300
C  13.80900 48.31500 26.43800
C  13.50600 48.04200 25.08300
C  12.01600 47.74800 25.10400
C  15.04600 48.98700 26.92800
C  14.38600 47.95200 23.85100
O  13.90800 47.69100 22.79200
C  15.91400 48.10900 23.92500
N  8.92600 47.08700 24.89300
C  9.86200 46.96900 23.94700
C  9.20100 46.68700 22.60600
C  7.75200 46.20000 23.03700
C  7.75100 46.66300 24.48000
C  9.25700 47.86900 21.60700
C  7.64900 44.60600 22.93900
C  8.72900 43.80400 23.68000
N  7.75400 46.89700 27.40900
C  6.54800 46.65900 26.66400
C  5.39600 46.47700 27.56000
C  5.98600 46.62000 28.79600
C  7.35700 46.96000 28.66300
C  3.95200 46.27500 27.17900
C  5.60700 46.71700 30.16800
O  4.53200 46.69100 30.74700
C  6.94400 47.06700 30.92700
C  7.08800 45.91600 31.83700
O  7.52800 44.78500 31.56300
O  6.71600 46.36800 33.05800
C  6.57800 45.31400 34.05500
H  13.37600 48.76000 29.05400
H  11.74700 47.27700 23.04000
H  5.62400 46.36500 24.74100
H  9.56600 48.68700 32.03500
H  12.33300 48.22200 31.14200
H  12.10500 50.53500 31.62700
H  10.39700 50.62100 31.01000
H  11.73900 50.53300 29.87000
H  11.41300 46.45100 32.20000
H  9.86500 45.83800 31.70100
H  9.04800 47.01500 33.82500
H  10.59000 47.65000 33.95200
H  14.88500 49.44000 27.90600
H  15.30500 49.82900 26.28600
H  15.96200 48.39700 26.97100
H  16.28200 47.90300 22.91900
H  16.16000 47.38200 24.69900
H  16.22000 49.13600 24.12200
H  9.70200 45.84100 22.13600
H  6.97400 46.45100 22.31600
H  9.88400 48.69500 21.94400
H  8.29100 48.30300 21.34700
H  9.68800 47.56600 20.65300
H  7.90200 44.45200 21.89000
H  6.65000 44.28800 23.23600
H  8.60900 44.31300 24.63700
H  9.70900 43.96900 23.23100
H  8.45400 42.75100 23.73500
H  3.80500 46.19300 26.10200
H  3.35700 47.07800 27.61300
H  3.64700 45.35000 27.66800
H  6.88600 48.00000 31.48700
H  6.30800 45.77000 35.00800
H  7.58600 45.01200 34.33800
H  5.86000 44.54600 33.76800
Mg -12.02800 37.89400 43.10800
C  -10.10600 35.19700 42.21800
C  -10.09100 39.76800 40.97000
C  -14.30300 40.40500 43.13000
C  -14.19400 35.76900 44.63000
N  -10.28900 37.50800 41.68300
C  -9.65100 36.32900 41.60600
C  -8.36400 36.52500 40.82500
C  -8.42200 37.94400 40.25100
C  -9.67700 38.45900 41.00500
C  -7.12600 38.87400 40.41400
C  -8.11700 35.47200 39.67200
C  -6.64100 35.05200 39.49800
H  -5.83500 35.57500 38.27600
N  -12.12100 39.88700 42.28200
C  -11.15700 40.48000 41.51400
C  -11.49400 41.88700 41.30900
C  -12.67200 42.11800 42.00000
C  -13.13100 40.77500 42.49800
C  -10.68300 42.76600 40.41400
C  -13.33000 43.42500 42.11800
O  -12.73200 44.42000 41.73800
C  -14.69000 43.65000 42.67200
N  -13.90200 38.02900 43.71400
C  -14.63700 39.19100 43.74100
C  -16.07600 38.99700 44.27500
C  -16.07500 37.45400 44.56800
C  -14.59100 37.03800 44.35600
C  -16.35300 40.00500 45.42500
C  -17.15300 36.67600 43.71900
C  -17.77500 35.45500 44.39600
N  -12.12400 35.85900 43.48300
C  -13.06700 35.15300 44.17000
C  -12.60100 33.77000 44.30300
C  -11.35900 33.75200 43.58000
C  -11.25300 35.02900 43.00800
C  -13.27900 32.63400 45.05100
C  -10.21900 32.93300 43.20500
O  -9.92300 31.78300 43.44000
C  -9.42400 33.77600 42.28100
C  -8.06500 33.84300 42.85900
O  -7.14200 33.23400 42.43600
O  -7.99600 34.72500 43.88800
C  -6.57000 34.90400 44.41700
H  -9.51100 40.49200 40.39500
H  -14.95800 41.25600 43.32900
H  -14.94400 35.13900 45.11200
H  -7.51000 36.32700 41.47300
H  -8.61500 38.00600 39.18000
H  -7.34600 39.72300 41.06200
H  -6.80700 39.21900 39.43000
H  -6.24800 38.31100 40.73200
H  -8.40000 35.96100 38.74000
H  -8.88500 34.70500 39.77100
H  -6.60000 33.97900 39.30800
H  -6.13300 35.05200 40.46200
H  -11.37500 43.39800 39.85700
H  -9.97000 42.40700 39.67200
H  -10.03700 43.47900 40.92500
H  -15.33900 43.07100 42.01500
H  -14.96800 44.67300 42.42000
H  -14.74500 43.38700 43.72800
H  -16.76100 39.10100 43.43300
H  -16.41000 37.41100 45.60400
H  -15.44200 40.33000 45.92700
H  -16.98300 39.53200 46.17800
H  -16.90200 40.90500 45.14800
H  -16.52300 36.38300 42.87900
H  -17.92300 37.38000 43.40600
H  -18.82100 35.68100 44.60400
H  -17.23700 35.10900 45.27900
H  -17.77300 34.63400 43.67900
H  -14.35100 32.60700 44.85800
H  -13.05100 32.71400 46.11400
H  -12.76600 31.77900 44.61100
H  -9.46200 33.31500 41.29400
H  -6.39300 35.70800 45.13200
H  -5.84400 35.10800 43.63000
H  -6.24300 33.97400 44.88100

