158

Mg 47.43300 44.48200 42.87000
C  44.09900 43.38900 42.53300
C  48.41300 41.25500 42.44100
C  50.72500 45.55100 42.38900
C  46.41300 47.75400 42.78700
N  46.40100 42.56800 42.45000
C  45.04200 42.32800 42.50100
C  44.78900 40.77200 42.41700
C  46.15600 40.21800 42.70600
C  47.07700 41.44100 42.57600
C  46.25100 39.46000 44.04000
C  44.04900 40.29800 41.14400
C  44.11600 41.21100 39.82400
H  44.20700 40.54200 38.45300
N  49.26000 43.47000 42.64100
C  49.49600 42.13300 42.55800
C  50.91100 41.86300 42.44600
C  51.59300 43.07500 42.42300
C  50.54000 44.18200 42.47000
C  51.46900 40.50700 42.11200
C  53.11900 43.22700 42.28000
O  53.81600 42.24800 42.03200
C  53.92000 44.49500 42.50100
N  48.34100 46.44900 42.22900
C  49.75000 46.53800 42.31800
C  50.02900 48.07700 42.47000
C  48.68100 48.77800 42.62000
C  47.73500 47.60200 42.54600
C  51.22300 48.57900 43.38200
C  48.29400 49.96000 41.66800
C  47.81700 51.23800 42.30400
N  45.64900 45.42200 42.65900
C  45.33400 46.75600 42.72000
C  43.88900 46.90100 42.80900
C  43.36400 45.61600 42.60100
C  44.48900 44.75300 42.55700
C  43.17800 48.20700 43.11200
C  42.12900 44.86000 42.41800
O  40.96500 45.24200 42.35500
C  42.55300 43.31400 42.55400
C  42.08400 42.89300 43.92500
O  42.16000 43.59100 44.95500
O  41.68700 41.48500 43.95600
C  41.64700 40.94500 45.35700
H  48.65400 40.19200 42.50200
H  51.73300 45.96700 42.45000
H  46.11400 48.77800 43.01700
H  44.14700 40.71400 43.29600
H  46.49600 39.63600 41.84900
H  45.41200 38.80400 44.27100
H  46.66800 40.10000 44.81700
H  47.01700 38.75300 43.72000
H  43.01300 40.33000 41.48100
H  44.25500 39.24500 40.95200
H  45.05600 41.75800 39.89100
H  43.34500 41.97100 39.95100
H  52.20100 40.50700 41.30400
H  50.73300 39.71400 41.98100
H  51.99600 40.26300 43.03400
H  53.74000 45.09000 41.60500
H  54.97200 44.22800 42.60200
H  53.50600 44.84400 43.44700
H  50.33600 48.26200 41.44100
H  48.65300 49.16800 43.63700
H  51.35900 47.75100 44.07700
H  50.94400 49.47500 43.93900
H  52.16500 48.83800 42.89800
H  47.47000 49.59600 41.05400
H  49.12500 50.19700 41.00400
H  48.71900 51.85000 42.32300
H  47.35800 51.02100 43.26900
H  47.02900 51.77200 41.77300
H  43.69900 48.76300 43.89200
H  42.13100 47.92600 43.23200
H  43.28300 48.84700 42.23600
H  42.07000 42.65700 41.83100
H  40.65400 40.54000 45.55400
H  42.19500 41.51500 46.10800
H  42.25700 40.04800 45.25300
Mg 47.83700 34.80100 27.61900
C  46.16600 32.89800 30.06100
C  47.94600 37.46000 29.90400
C  49.16000 36.77000 25.25700
C  46.84500 32.46300 25.27300
N  47.24800 35.07200 29.69300
C  46.60400 34.10900 30.47200
C  46.68700 34.58300 31.96000
C  46.78100 36.15300 31.79600
C  47.38800 36.25500 30.41000
C  45.45500 37.02400 31.89200
C  48.09400 34.02400 32.48700
C  48.24100 33.44500 33.91600
H  47.40100 34.03300 35.14300
N  48.56500 36.82500 27.62500
C  48.62900 37.66800 28.67500
C  49.39500 38.82300 28.36000
C  49.77900 38.67600 27.01700
C  49.15800 37.40800 26.54100
C  49.58200 39.93500 29.26800
C  50.50300 39.61300 26.14300
O  50.75700 39.35500 24.97500
C  50.88100 40.98000 26.68900
N  48.00300 34.66100 25.55100
C  48.55000 35.60700 24.73400
C  48.42400 35.22300 23.21700
C  47.70900 33.82400 23.33600
C  47.56600 33.61100 24.78700
C  47.67100 36.22000 22.31400
C  48.34100 32.69800 22.47600
C  47.59200 32.23800 21.22000
N  46.91200 32.98600 27.64500
C  46.57500 32.14000 26.59500
C  45.90700 30.94400 27.10800
C  45.76500 31.27800 28.50700
C  46.27000 32.48800 28.72700
C  45.45700 29.76500 26.32700
C  45.13300 30.80800 29.66500
O  44.44700 29.80600 29.86400
C  45.46200 31.82600 30.76400
C  46.25800 31.15700 31.88500
O  47.40600 30.83300 31.86700
O  45.27000 30.70300 32.81100
C  45.76600 29.93200 33.97800
H  48.05400 38.28000 30.61600
H  49.52300 37.40400 24.44500
H  46.70000 31.66200 24.54400
H  45.80000 34.19800 32.46400
H  47.54400 36.49300 32.49700
H  44.58600 36.36800 31.83500
H  45.47400 37.71800 31.05200
H  45.35200 37.58100 32.82300
H  48.77800 34.87200 32.47600
H  48.46400 33.24900 31.81500
H  49.31300 33.44700 34.11500
H  47.95300 32.41200 34.10800
H  49.40700 39.68700 30.31500
H  49.07500 40.83500 28.91900
H  50.62400 40.25200 29.22700
H  51.80500 41.04100 27.26400
H  50.04200 41.50400 27.14800
H  50.89600 41.69400 25.86500
H  49.39300 34.98300 22.77900
H  46.65600 33.87700 23.05900
H  46.92700 35.77200 21.65500
H  48.36600 36.92300 21.85400
H  47.16200 36.91400 22.98300
H  48.56300 31.88100 23.16300
H  49.16400 33.19400 21.96200
H  47.87000 32.77200 20.31200
H  46.51100 32.29200 21.34800
H  47.80600 31.18400 21.04400
H  44.45800 30.08700 26.03200
H  45.50600 28.95200 27.05100
H  46.18300 29.56400 25.53900
H  44.61500 32.30900 31.25200
H  46.32900 30.59600 34.63400
H  46.37300 29.13000 33.55900
H  44.88600 29.55700 34.50100

