158

Mg 35.58100 1.94600 29.38700
C  33.68300 3.04200 31.90000
C  38.31700 1.91100 31.69800
C  37.76500 1.20200 26.90300
C  33.22700 2.86800 27.13400
N  36.02300 2.60400 31.50700
C  34.99900 2.85300 32.35000
C  35.49700 2.92700 33.82200
C  36.99500 2.78700 33.77500
C  37.12900 2.43900 32.21300
C  37.85400 4.07800 34.11000
C  34.76200 1.88100 34.68900
C  34.34100 2.24800 36.15100
H  34.73800 3.63000 36.70200
N  37.71100 1.49600 29.32300
C  38.59700 1.48500 30.34000
C  39.83100 0.93200 29.80100
C  39.67000 0.55000 28.47000
C  38.35000 1.07000 28.15900
C  41.08000 0.79200 30.66000
C  40.71500 -0.11400 27.43700
O  40.35100 -0.37100 26.28600
C  42.14900 -0.44700 27.93700
N  35.47000 2.02500 27.30600
C  36.51000 1.61800 26.49800
C  36.22900 1.95400 25.02700
C  34.69600 2.34300 25.08900
C  34.40800 2.41600 26.60300
C  37.14600 3.12100 24.47800
C  33.79800 1.33800 24.34700
C  33.57800 -0.04700 25.03100
N  33.79500 2.91800 29.43000
C  32.83000 3.09000 28.42700
C  31.61800 3.63900 29.01300
C  31.86600 3.54000 30.41600
C  33.27000 3.16400 30.55000
C  30.30400 3.98100 28.37100
C  31.22900 3.64700 31.70800
O  30.07300 3.87500 32.10000
C  32.47700 3.51800 32.70800
C  32.73100 4.87100 33.39500
O  33.57500 5.77300 33.07600
O  31.79600 5.08100 34.34900
C  31.75800 6.31500 35.04300
H  39.09400 1.72200 32.44100
H  38.47900 1.03300 26.09400
H  32.48200 3.19300 26.40400
H  35.34500 3.93800 34.20200
H  37.38600 1.98600 34.40300
H  38.38100 4.27700 33.17700
H  38.57500 3.89900 34.90700
H  37.27500 4.96100 34.38400
H  35.43700 1.02500 34.68900
H  33.90000 1.46100 34.17000
H  34.66200 1.51300 36.88900
H  33.25900 2.12100 36.19200
H  41.33100 -0.23100 30.94000
H  40.88100 1.22400 31.64000
H  41.95700 1.35100 30.33400
H  42.67900 -0.97300 27.14300
H  42.03600 -1.11700 28.79000
H  42.59200 0.51700 28.18600
H  36.52700 1.02600 24.54000
H  34.42100 3.29100 24.62700
H  36.57300 3.99900 24.18000
H  37.72100 2.75400 23.62800
H  37.82800 3.35500 25.29600
H  34.17000 1.14400 23.34100
H  32.80700 1.77400 24.22200
H  33.22900 -0.79000 24.31400
H  32.95300 0.05400 25.91800
H  34.55400 -0.35000 25.41100
H  30.26600 3.45400 27.41800
H  30.34600 5.04400 28.13500
H  29.45600 3.76700 29.02200
H  32.30100 2.76400 33.47600
H  32.76800 6.60000 35.33700
H  31.21900 6.13400 35.97200
H  31.27900 7.09000 34.44400
Mg 5.83200 54.51500 41.88800
C  5.31900 51.02700 41.57400
C  8.75200 54.13900 40.37500
C  5.79600 57.84300 41.49500
C  2.44500 54.60500 42.90600
N  6.82600 52.80500 40.93900
C  6.47900 51.46200 40.95400
C  7.52600 50.56800 40.17100
C  8.67900 51.59000 40.15800
C  8.07500 52.92500 40.49700
C  9.66200 51.28600 41.31800
C  7.15400 49.99600 38.71400
C  6.13400 50.68200 37.87000
H  6.68900 51.47600 36.68800
N  7.19100 55.88800 41.12000
C  8.40800 55.46600 40.65700
C  9.21000 56.69600 40.43100
C  8.31400 57.80700 40.64800
C  7.02800 57.24500 41.09600
C  10.70200 56.71100 39.99100
C  8.62300 59.25000 40.52200
O  9.79500 59.53700 40.17800
C  7.69100 60.30500 40.93000
N  4.28300 55.92700 42.05400
C  4.54700 57.29800 41.85100
C  3.35900 58.18300 42.22900
C  2.28800 57.07700 42.59200
C  3.05600 55.77100 42.46100
C  3.66800 59.13800 43.41200
C  0.98700 57.11500 41.73500
C  -0.32400 57.29100 42.56900
N  4.22200 53.08600 42.25300
C  2.99900 53.32200 42.78800
C  2.31200 52.08400 43.03300
C  3.26000 51.18600 42.61000
C  4.37400 51.85600 42.17100
C  1.00900 51.83800 43.56700
C  3.47400 49.75400 42.43700
O  2.79600 48.78000 42.74200
C  4.92500 49.61400 41.89300
C  4.80500 48.77900 40.74900
O  4.37600 49.19800 39.68000
O  5.11500 47.50700 41.08600
C  4.99700 46.55000 39.92900
H  9.76700 54.07600 39.97800
H  5.85200 58.93300 41.48900
H  1.39800 54.67000 43.21100
H  7.66000 49.67600 40.78200
H  9.13000 51.68600 39.17100
H  9.30400 50.54900 42.03700
H  9.95300 52.19100 41.85100
H  10.58900 50.87700 40.91600
H  6.79500 48.97700 38.86200
H  8.12600 49.86900 38.23900
H  5.66900 51.43000 38.51300
H  5.38100 50.01100 37.45800
H  10.83100 57.10200 38.98100
H  10.97900 55.65800 39.94100
H  11.29300 57.22900 40.74600
H  6.86900 60.18600 40.22300
H  8.18700 61.23000 40.63600
H  7.37900 60.24400 41.97200
H  3.17100 58.74700 41.31500
H  1.96300 57.08600 43.63200
H  3.07000 59.07600 44.32100
H  3.53700 60.12400 42.96600
H  4.69100 59.12500 43.78700
H  0.88800 56.25000 41.07800
H  1.13900 57.97700 41.08500
H  -0.68200 56.26800 42.68300
H  -1.03400 57.87500 41.98300
H  -0.01700 57.74800 43.50900
H  0.20200 52.38600 43.08000
H  0.95300 52.25600 44.57300
H  0.76900 50.78000 43.66500
H  5.67600 49.11500 42.50600
H  5.56500 45.63100 40.07100
H  5.35500 47.05800 39.03300
H  3.96800 46.34500 39.63400

