158

Mg 35.09500 1.74100 29.22500
C  32.93400 3.15600 31.65600
C  37.65800 1.95100 31.40500
C  37.14100 0.85600 26.73500
C  32.45100 2.04700 26.96000
N  35.29600 2.65600 31.25500
C  34.24000 2.83200 32.12500
C  34.73700 3.00200 33.55900
C  36.26900 2.81200 33.47000
C  36.43400 2.47700 31.95000
C  37.06900 3.97100 34.00200
C  33.91800 2.08500 34.51700
C  33.33200 2.72600 35.73500
H  34.34900 3.66700 36.44200
N  37.08900 1.38900 29.08400
C  37.98000 1.48500 30.12900
C  39.24800 1.08600 29.65600
C  39.15200 0.84300 28.24600
C  37.73500 1.02000 27.94900
C  40.57100 1.04500 30.47700
C  40.21900 0.45700 27.31800
O  40.05000 0.56000 26.11900
C  41.58900 0.07700 27.77100
N  34.84800 1.36800 27.15600
C  35.79900 0.95200 26.27100
C  35.32900 0.82300 24.80300
C  33.79200 1.14700 25.00400
C  33.68100 1.50000 26.51500
C  36.01300 1.78400 23.72500
C  32.92600 -0.09900 24.67700
C  32.00200 0.06800 23.45000
N  33.08100 2.37600 29.27200
C  32.14600 2.42600 28.25600
C  30.97200 3.09700 28.79100
C  31.21500 3.32800 30.16700
C  32.53100 2.94000 30.37400
C  29.82800 3.45000 28.03900
C  30.66100 3.96900 31.26000
O  29.59300 4.46300 31.47500
C  31.72400 3.77900 32.43600
C  32.02600 5.11500 32.97800
O  32.92600 5.89900 32.67300
O  31.17700 5.29800 34.00800
C  31.51600 6.12200 35.17500
H  38.42900 1.89200 32.17600
H  37.82000 0.81200 25.88100
H  31.59700 2.13600 26.28500
H  34.57600 4.03200 33.87500
H  36.59600 1.95600 34.06100
H  36.56100 4.69500 34.63900
H  37.31300 4.45900 33.05800
H  37.95600 3.56600 34.48800
H  34.58200 1.29700 34.86900
H  33.12100 1.63200 33.92700
H  32.81900 2.08500 36.45200
H  32.50400 3.24900 35.25700
H  41.25700 1.71000 29.95300
H  40.99400 0.04200 30.53100
H  40.44100 1.37000 31.51000
H  42.14100 -0.29000 26.90600
H  41.43200 -0.67200 28.54700
H  42.11500 0.93600 28.18900
H  35.52200 -0.24300 24.68500
H  33.52700 1.95300 24.31900
H  36.79900 2.33700 24.23800
H  35.29700 2.39900 23.17900
H  36.45700 1.21200 22.91100
H  32.41600 -0.32400 25.61300
H  33.45400 -1.01000 24.39300
H  31.79100 1.10300 23.18100
H  31.04600 -0.42200 23.63400
H  32.61700 -0.38400 22.67100
H  30.06500 3.72000 27.01000
H  29.47900 4.38600 28.47600
H  29.00200 2.74300 28.11700
H  31.46100 3.11200 33.25600
H  30.82900 6.96100 35.28700
H  32.52700 6.51600 35.06600
H  31.43200 5.47000 36.04500
Mg -12.60200 38.05200 41.97700
C  -10.33900 35.50400 41.00500
C  -10.50400 40.38100 40.55100
C  -15.24800 40.10700 42.04000
C  -14.68400 35.27600 43.10800
N  -10.72500 37.96600 40.76400
C  -10.04800 36.83200 40.46900
C  -8.78300 37.20700 39.60100
C  -8.80100 38.77200 39.64400
C  -10.03600 39.08400 40.46100
C  -7.45600 39.37200 40.20000
C  -8.86500 36.58000 38.17700
C  -7.66300 35.71400 37.67600
H  -6.68400 36.54700 36.77700
N  -12.81400 40.01400 41.55400
C  -11.77600 40.87400 41.06200
C  -12.28500 42.16600 40.87900
C  -13.57700 42.17200 41.47500
C  -13.94500 40.71200 41.73200
C  -11.42500 43.24400 40.24200
C  -14.51200 43.37800 41.67000
O  -14.29100 44.45300 41.13900
C  -15.92100 43.25500 42.29600
N  -14.66900 37.68400 42.34600
C  -15.54800 38.67800 42.25900
C  -16.98900 38.24800 42.56000
C  -16.81900 36.67400 42.91800
C  -15.31200 36.51100 42.83200
C  -17.71000 39.21500 43.58100
C  -17.71300 35.61600 42.11000
C  -18.19800 34.39800 42.86700
N  -12.58500 35.88100 42.14200
C  -13.37700 34.97600 42.68300
C  -12.69100 33.70600 42.85100
C  -11.47500 33.86800 42.20800
C  -11.52200 35.16000 41.66400
C  -13.22600 32.57500 43.61000
C  -10.19000 33.18300 41.87800
O  -9.71200 32.17000 42.34400
C  -9.44400 34.28900 40.97500
C  -8.10500 34.64200 41.60600
O  -7.79800 35.58200 42.36700
O  -7.20600 33.75200 41.16800
C  -5.90800 33.69600 41.88800
H  -9.80500 41.15000 40.21400
H  -16.12700 40.74400 41.92000
H  -15.27600 34.38300 43.31800
H  -7.91400 36.92100 40.19500
H  -8.93300 39.16000 38.63400
H  -7.11000 40.11300 39.48000
H  -6.69000 38.61200 40.35800
H  -7.73900 39.93900 41.08700
H  -8.98200 37.44000 37.51700
H  -9.77600 35.98700 38.09400
H  -8.12500 34.88000 37.14700
H  -7.04700 35.31700 38.48200
H  -12.09100 43.91500 39.70000
H  -10.71300 42.79900 39.54600
H  -10.90700 43.76000 41.05100
H  -16.62300 43.01500 41.49700
H  -16.25900 44.18800 42.74600
H  -15.70800 42.51000 43.06300
H  -17.60800 38.33300 41.66700
H  -17.13300 36.57200 43.95700
H  -18.49900 39.81000 43.12000
H  -16.87500 39.62600 44.14800
H  -18.23000 38.61100 44.32400
H  -17.11200 35.30200 41.25600
H  -18.60200 36.09800 41.70200
H  -17.59700 33.56100 42.51100
H  -19.27200 34.29300 42.71000
H  -17.92600 34.51900 43.91500
H  -13.85000 32.86000 44.45700
H  -12.51400 31.79000 43.86400
H  -13.96100 32.10000 42.96200
H  -9.21700 34.02900 39.94100
H  -5.80300 34.40100 42.71300
H  -5.25100 33.90200 41.04300
H  -5.66800 32.70300 42.26900

