158

Mg 47.95600 15.82000 28.56500
C  45.96400 15.40400 31.57500
C  50.05000 17.67500 30.43000
C  49.23900 16.78400 25.74800
C  45.40300 13.96700 26.90400
N  48.08700 16.28900 30.81400
C  47.22800 15.91900 31.82200
C  47.79300 16.51800 33.15900
C  49.12200 17.24100 32.75000
C  49.13500 16.98200 31.26200
C  49.43200 18.66700 33.37700
C  48.13400 15.45200 34.29300
C  47.68900 15.64700 35.77900
H  47.82800 17.09500 36.48700
N  49.44200 16.98300 28.12600
C  50.21600 17.66500 29.05000
C  51.20200 18.43700 28.31700
C  50.96300 18.24500 26.93900
C  49.84700 17.29900 26.89100
C  52.33900 19.16500 28.96000
C  51.75700 18.68900 25.67800
O  51.67800 18.25400 24.51200
C  52.82000 19.71100 25.89100
N  47.45000 15.38100 26.64600
C  48.17800 15.91900 25.60300
C  47.86000 15.31200 24.22800
C  46.63000 14.33400 24.66100
C  46.47100 14.53400 26.17000
C  47.52900 16.38600 23.11500
C  46.98200 12.89100 24.33800
C  45.92100 12.19800 23.48100
N  46.10000 14.87200 29.04700
C  45.23100 14.12400 28.28800
C  44.01700 13.69500 29.10800
C  44.33000 14.16900 30.34000
C  45.56700 14.86900 30.30600
C  42.81500 12.94900 28.79900
C  43.84200 14.18700 31.71900
O  42.82100 13.64200 32.20400
C  44.91700 14.97000 32.57200
C  44.17300 16.06800 33.26300
O  43.82100 17.06200 32.63600
O  44.06800 15.76200 34.61300
C  43.55700 16.81000 35.37700
H  50.80400 18.23700 30.98600
H  49.77900 17.05000 24.83700
H  44.63000 13.44400 26.33600
H  47.07600 17.23500 33.55900
H  49.94800 16.63300 33.11900
H  49.14200 19.39200 32.61700
H  50.51000 18.75400 33.50800
H  48.95400 18.89100 34.33100
H  49.20300 15.24600 34.34900
H  47.60700 14.54000 34.01200
H  48.24000 15.07600 36.52600
H  46.67400 15.32200 36.00800
H  53.07300 18.36200 28.90000
H  52.20000 19.36800 30.02200
H  52.64200 20.13000 28.55500
H  52.29600 20.52500 26.39200
H  53.25200 20.00700 24.93500
H  53.54100 19.26600 26.57700
H  48.68400 14.71400 23.83900
H  45.74100 14.72300 24.16400
H  47.57400 15.87200 22.15500
H  48.17900 17.25900 23.05300
H  46.48700 16.69300 23.20400
H  47.10200 12.25300 25.21400
H  47.91100 12.78600 23.77900
H  45.29300 11.61100 24.15200
H  46.50900 11.53700 22.84400
H  45.24800 12.86800 22.94600
H  42.91200 12.49500 27.81300
H  42.02900 13.70300 28.75300
H  42.69500 12.24700 29.62400
H  45.39400 14.29600 33.28400
H  42.53900 17.06300 35.08300
H  44.30100 17.60400 35.30100
H  43.44900 16.43300 36.39400
Mg 48.51900 35.05100 28.04400
C  47.04900 33.20400 30.55400
C  48.34900 37.79200 30.04400
C  49.89800 36.65500 25.52000
C  47.89100 32.26500 25.83300
N  47.68100 35.41700 30.12500
C  47.31400 34.48900 30.93900
C  47.10400 35.10200 32.38200
C  47.14400 36.66600 31.98000
C  47.78000 36.61400 30.60300
C  45.80600 37.50500 32.06200
C  48.23900 34.60800 33.37900
C  48.70500 35.53700 34.55700
H  47.73900 36.56400 35.14300
N  49.08700 36.99300 27.85400
C  48.92000 37.98800 28.76800
C  49.64800 39.13300 28.23800
C  50.07100 38.85600 26.88500
C  49.66000 37.45500 26.67500
C  50.00200 40.38300 29.05800
C  50.83400 39.75300 25.85900
O  51.39900 39.30200 24.87600
C  51.00500 41.19300 26.10700
N  48.80400 34.61100 25.98000
C  49.51500 35.40300 25.16100
C  49.91100 34.79000 23.87400
C  49.25700 33.32000 23.98200
C  48.54500 33.40400 25.32400
C  49.39400 35.58300 22.61200
C  50.34900 32.27400 24.06100
C  50.00300 30.87200 23.54400
N  47.68800 32.97900 28.11100
C  47.46300 32.04000 27.14900
C  46.82500 30.87000 27.77800
C  46.59700 31.31500 29.10900
C  47.12300 32.61300 29.25000
C  46.24200 29.68700 27.06000
C  46.05500 30.92900 30.42600
O  45.45400 29.91800 30.74700
C  46.48200 32.06100 31.37600
C  47.43000 31.62700 32.48000
O  48.65500 31.58900 32.37900
O  46.79600 31.27000 33.59700
C  47.55600 31.13900 34.85500
H  48.42500 38.63200 30.73700
H  50.45300 37.16200 24.72800
H  47.74300 31.43500 25.13900
H  46.14700 34.73100 32.74800
H  47.78700 37.26600 32.62400
H  45.78800 38.01100 33.02800
H  44.95100 36.83000 32.08500
H  45.91400 38.26700 31.29100
H  49.11000 34.26200 32.82200
H  47.84700 33.76900 33.95200
H  49.56700 36.06900 34.15400
H  48.96700 34.85000 35.36200
H  49.79000 41.28200 28.47900
H  50.99500 40.31300 29.50200
H  49.36000 40.42700 29.93800
H  51.54100 41.26500 27.05400
H  50.02800 41.67500 26.14900
H  51.59800 41.59200 25.28400
H  50.99400 34.72300 23.77700
H  48.64400 33.06500 23.11700
H  48.70900 36.37500 22.91400
H  48.90700 34.95400 21.86700
H  50.19200 36.03700 22.02500
H  50.70300 32.07300 25.07300
H  51.15700 32.69100 23.46100
H  50.84300 30.40700 23.02700
H  49.07000 30.87300 22.98100
H  49.76400 30.11800 24.29400
H  47.09700 29.08500 26.75000
H  45.77400 30.10100 26.16800
H  45.47100 29.13300 27.59600
H  45.59700 32.42700 31.89600
H  48.45700 31.74800 34.93900
H  47.94700 30.12200 34.89700
H  46.81100 31.35700 35.62000

