158

Mg 1.00800 7.64400 26.45000
C  1.64000 9.81500 29.19600
C  1.31700 4.99800 28.65500
C  0.50100 5.63600 23.90900
C  1.46300 10.38700 24.32700
N  1.32200 7.43300 28.69000
C  1.54800 8.46100 29.56200
C  1.39000 7.88700 30.96500
C  1.66000 6.39100 30.79000
C  1.43300 6.23500 29.27300
C  3.00500 5.77000 31.19500
C  0.13100 8.36300 31.73100
C  0.44000 8.65900 33.20300
H  1.53600 7.88700 33.84600
N  0.77900 5.64700 26.30700
C  0.95400 4.69200 27.35200
C  0.59200 3.38000 26.84400
C  0.36300 3.50100 25.43000
C  0.58300 4.92000 25.16100
C  0.47200 2.09300 27.75000
C  0.16800 2.45500 24.24000
O  -0.01200 2.76000 23.06900
C  0.24800 0.96000 24.68000
N  1.20200 7.91100 24.39600
C  0.68300 6.98800 23.61500
C  0.48900 7.55500 22.19900
C  0.60500 9.05900 22.40100
C  1.15100 9.12900 23.83500
C  1.42200 6.98900 21.10900
C  -0.74800 9.88400 22.22700
C  -0.66700 11.07100 21.14200
N  1.50000 9.71100 26.62500
C  1.65900 10.71900 25.67500
C  2.12300 11.92100 26.27800
C  2.02200 11.63200 27.67800
C  1.65000 10.30700 27.85900
C  2.30200 13.25700 25.58800
C  2.24900 12.22400 29.00000
O  2.71600 13.31700 29.31000
C  1.96600 11.03700 30.00700
C  3.13200 10.97700 30.95800
O  4.12500 10.33100 30.71600
O  2.92300 11.79600 32.11500
C  4.03400 11.77000 33.09300
H  1.47200 4.19400 29.37800
H  0.32900 5.10100 22.97300
H  1.44900 11.23000 23.63300
H  2.24800 8.24600 31.53400
H  0.85100 5.77600 31.18500
H  3.54300 6.46300 31.84100
H  3.62400 5.54100 30.32800
H  2.81400 4.85000 31.74600
H  -0.56900 7.52700 31.76000
H  -0.23000 9.32800 31.37600
H  -0.42100 8.28500 33.75700
H  0.38800 9.70800 33.49600
H  1.39800 1.52500 27.84300
H  -0.24700 1.35800 27.38900
H  0.06800 2.50100 28.67700
H  0.32300 0.50100 23.69500
H  -0.63200 0.70300 25.26900
H  1.10900 0.71000 25.30000
H  -0.50300 7.33500 21.80400
H  1.43000 9.43500 21.79700
H  1.67400 5.94500 21.29200
H  2.24900 7.62700 20.79600
H  0.82100 6.87700 20.20700
H  -1.03700 10.33200 23.17800
H  -1.61800 9.24000 22.09200
H  -1.16800 10.96900 20.18000
H  0.37000 11.34700 20.94900
H  -1.20300 11.93800 21.52800
H  1.43500 13.88400 25.37600
H  2.69500 12.91500 24.63000
H  2.96200 13.87000 26.20200
H  1.10600 11.22900 30.64800
H  4.86600 11.10800 32.85300
H  3.70300 11.60400 34.11900
H  4.46000 12.76500 32.96800
Mg 9.42200 3.53300 28.23700
C  10.75500 1.88600 31.08100
C  7.45900 5.47600 30.39100
C  7.72200 4.58200 25.60900
C  10.80600 0.94900 26.22900
N  9.20600 3.66800 30.51700
C  9.90900 2.98300 31.44400
C  9.56200 3.50900 32.90800
C  8.46600 4.58900 32.60000
C  8.31700 4.61600 31.03800
C  7.07700 4.38700 33.29400
C  10.77900 4.13400 33.71200
C  11.10100 3.53400 35.07600
H  11.23400 4.48600 36.31100
N  7.82100 4.84400 27.99400
C  7.22400 5.59900 28.98100
C  6.31200 6.54900 28.29700
C  6.37800 6.34800 26.89700
C  7.35200 5.20200 26.79000
C  5.44000 7.49800 29.10000
C  5.58400 7.02200 25.76700
O  5.85100 6.83400 24.60300
C  4.52400 8.10300 26.09300
N  9.35500 2.90200 26.23100
C  8.62100 3.54000 25.35800
C  8.96800 3.10700 23.94000
C  9.79800 1.90200 24.12800
C  10.04300 1.90000 25.60800
C  7.76700 2.90800 23.00000
C  11.11700 1.86500 23.33200
C  11.48400 0.58500 22.49500
N  10.59600 1.80500 28.55500
C  11.09800 0.87600 27.64400
C  11.88800 -0.07600 28.32100
C  11.72400 0.21700 29.64100
C  11.00800 1.44400 29.77000
C  12.57600 -1.29100 27.77400
C  12.10500 -0.25700 30.99100
O  12.60400 -1.31000 31.29300
C  11.50700 0.87900 31.98300
C  10.62300 0.26900 33.07900
O  9.41800 -0.00300 32.95900
O  11.31300 -0.02000 34.22100
C  10.50100 -0.47700 35.34100
H  6.89400 6.15000 31.03800
H  7.15700 4.90000 24.73100
H  11.15800 0.16800 25.55200
H  9.12800 2.60100 33.32600
H  8.84000 5.54700 32.96100
H  7.22100 3.46600 33.85900
H  6.33600 4.38200 32.49400
H  6.92800 5.18600 34.01900
H  10.62700 5.21100 33.77900
H  11.61400 3.96500 33.03300
H  12.01600 2.97400 34.88300
H  10.29300 2.81700 35.21900
H  5.47000 7.40700 30.18600
H  4.41200 7.19300 28.90900
H  5.79800 8.50500 28.88600
H  3.76900 7.56100 26.66400
H  4.20700 8.47600 25.11900
H  5.02800 8.92100 26.60700
H  9.61000 3.86200 23.48700
H  9.32100 0.94100 23.93400
H  6.88500 2.98000 23.63500
H  7.81400 1.87900 22.64400
H  7.49500 3.54900 22.16100
H  11.94200 2.10700 24.00200
H  11.00900 2.62600 22.56000
H  10.67200 0.26000 21.84500
H  11.66700 -0.27800 23.13500
H  12.41600 0.76600 21.96000
H  13.22700 -1.83000 28.46200
H  13.03900 -1.14500 26.79800
H  11.85100 -2.06700 27.52900
H  12.23800 1.47400 32.52900
H  10.12100 -1.40200 34.90700
H  9.65100 0.17100 35.55800
H  11.01000 -0.66300 36.28700

