158

Mg 41.13500 8.96800 29.81800
C  42.99400 10.16300 32.45100
C  38.86300 7.64600 32.10600
C  39.38000 7.79100 27.33800
C  43.77400 9.79500 27.68400
N  40.91200 9.02700 32.11700
C  41.78800 9.65000 32.95800
C  41.39600 9.38000 34.44200
C  40.21500 8.31300 34.20200
C  39.94400 8.35200 32.70500
C  40.62300 6.90400 34.70000
C  40.95200 10.53700 35.29300
C  41.24800 10.34600 36.79200
H  41.79400 11.40500 37.77300
N  39.34300 7.89300 29.73800
C  38.52700 7.43700 30.79500
C  37.36500 6.88600 30.22100
C  37.50200 6.88800 28.80200
C  38.80800 7.47000 28.60900
C  36.21500 6.30000 31.04000
C  36.58400 6.40500 27.66800
O  36.97100 6.17900 26.49100
C  35.20000 6.05200 27.97600
N  41.63200 8.70100 27.76400
C  40.63200 8.38000 26.95400
C  40.91700 8.68000 25.43300
C  42.44500 9.20400 25.55100
C  42.65100 9.26600 27.09600
C  40.80400 7.44800 24.48100
C  42.74700 10.41500 24.66100
C  43.54400 10.18400 23.33500
N  43.06600 9.80900 29.95300
C  44.03900 10.01400 29.00300
C  45.16400 10.66600 29.65100
C  44.75000 10.85300 30.99200
C  43.50000 10.22900 31.14400
C  46.37900 11.30600 28.96200
C  45.07100 11.38700 32.22300
O  46.04900 11.94900 32.63800
C  43.97100 11.00400 33.19500
C  44.64800 10.20600 34.27900
O  45.46800 9.35200 34.08600
O  44.25500 10.61100 35.57700
C  44.81700 9.89800 36.76300
H  38.10700 7.31100 32.82000
H  38.74700 7.67300 26.45600
H  44.52200 10.06000 26.93300
H  42.20700 8.81700 34.90500
H  39.28600 8.62800 34.67700
H  41.43200 6.99900 35.42400
H  40.84400 6.33400 33.79800
H  39.77300 6.37300 35.12700
H  39.89900 10.81200 35.24200
H  41.58800 11.36000 34.96600
H  41.95000 9.51300 36.82100
H  40.30800 10.00800 37.23000
H  36.34200 6.38300 32.12000
H  36.04600 5.24700 30.81300
H  35.31600 6.78700 30.66400
H  34.63600 6.97000 28.14000
H  34.98400 5.37900 28.80500
H  34.75400 5.62000 27.08000
H  40.22600 9.51000 25.28700
H  43.05000 8.37400 25.18500
H  41.70500 7.03400 24.02700
H  40.03800 7.75300 23.76800
H  40.43300 6.63200 25.10000
H  43.33800 11.11800 25.24800
H  41.86300 10.98100 24.36700
H  43.20200 10.86000 22.55100
H  43.35600 9.17000 22.98300
H  44.62100 10.23400 23.49700
H  46.34400 12.39300 28.88300
H  46.45000 10.98500 27.92300
H  47.27800 10.93500 29.45300
H  43.62900 11.92700 33.66300
H  44.01300 9.62000 37.44500
H  45.51500 10.55200 37.28500
H  45.22800 8.92800 36.48200
Mg 48.95400 46.02300 42.65500
C  45.69900 46.65200 41.53600
C  48.65300 42.98200 41.11200
C  52.16800 45.58200 42.99800
C  49.23800 49.35400 43.69800
N  47.44500 45.03400 41.34500
C  46.23100 45.48200 41.03300
C  45.44600 44.53700 40.08700
C  46.26100 43.18600 40.43400
C  47.54200 43.72100 41.01200
C  45.55400 42.05500 41.25900
C  45.64900 45.00300 38.58300
C  44.38500 44.91500 37.65300
H  44.43400 44.07900 36.37500
N  50.25300 44.45800 42.06900
C  49.97800 43.33100 41.49600
C  51.10800 42.40800 41.43100
C  52.14800 43.09900 42.19300
C  51.56800 44.45200 42.45700
C  51.18100 40.95800 40.80000
C  53.51200 42.57800 42.63900
O  53.68300 41.39600 42.45400
C  54.63500 43.35100 43.27500
N  50.45000 47.33900 43.17100
C  51.71300 46.90800 43.26700
C  52.70600 48.09800 43.61400
C  51.76700 49.30100 43.74400
C  50.40100 48.62800 43.56700
C  53.56600 47.82200 44.87900
C  51.96300 50.47300 42.69600
C  52.82600 51.62700 43.29300
N  47.67400 47.64200 42.75600
C  47.90900 48.89500 43.39900
C  46.59400 49.56700 43.46900
C  45.72800 48.70800 42.74600
C  46.48900 47.59700 42.29500
C  46.37300 50.92800 44.00300
C  44.32500 48.58600 42.30400
O  43.31600 49.20900 42.49000
C  44.38300 47.26600 41.38400
C  43.14500 46.39200 41.70900
O  42.37800 45.96800 40.87800
O  42.90500 46.32200 43.08700
C  41.76600 45.47800 43.50000
H  48.44200 41.94900 40.82800
H  53.25400 45.47200 43.02900
H  49.34200 50.38900 44.02900
H  44.37300 44.47600 40.26700
H  46.57300 42.75500 39.48200
H  46.10100 41.85600 42.18000
H  45.60000 41.17000 40.62400
H  44.52000 42.37000 41.40100
H  46.38900 44.40300 38.05200
H  46.05600 46.01400 38.58900
H  44.16000 45.94800 37.38800
H  43.48900 44.77300 38.25700
H  50.25900 40.86900 40.22500
H  51.04700 40.23300 41.60300
H  51.95800 40.91600 40.03800
H  54.35200 43.92200 44.15900
H  55.12800 43.88000 42.46000
H  55.36500 42.62200 43.62700
H  53.35900 48.25300 42.75500
H  51.84600 49.74800 44.73500
H  53.25600 46.83200 45.21400
H  53.48500 48.47900 45.74600
H  54.59400 47.87800 44.52000
H  51.04200 50.90700 42.30600
H  52.50800 49.93500 41.92000
H  52.35100 52.55200 42.96500
H  53.86700 51.51000 42.99300
H  52.65500 51.71300 44.36600
H  46.57400 51.64900 43.21100
H  46.97700 51.07400 44.89900
H  45.31400 51.07800 44.21300
H  44.23600 47.51500 40.33300
H  41.74100 44.52500 42.97100
H  40.79100 45.95900 43.43400
H  41.87400 45.29500 44.56900

