158

Mg 8.81000 2.70300 27.88100
C  10.17700 1.16700 30.80600
C  7.01300 4.77300 29.93100
C  7.64100 4.19900 25.14600
C  10.45400 0.32800 25.91700
N  8.70400 2.98500 30.18600
C  9.40000 2.32400 31.13400
C  9.04300 2.86100 32.50100
C  7.96300 3.91100 32.18200
C  7.73800 3.78600 30.67200
C  6.60600 3.65100 32.91400
C  10.27400 3.27600 33.30200
C  10.10200 4.11700 34.55800
H  10.94500 3.65400 35.77000
N  7.42200 4.25500 27.57500
C  6.79500 4.99400 28.52600
C  5.95900 6.06100 27.91500
C  6.09100 5.91200 26.51800
C  7.11100 4.76800 26.35100
C  5.25000 7.12200 28.70700
C  5.39400 6.71100 25.36400
O  5.68700 6.54500 24.17400
C  4.22300 7.51200 25.70700
N  9.05400 2.33100 25.83100
C  8.43700 3.14100 24.84900
C  8.88500 2.73600 23.41900
C  9.54700 1.33200 23.67900
C  9.78700 1.32900 25.21300
C  7.67000 2.51400 22.44500
C  10.95900 1.13300 22.93000
C  11.03100 0.34500 21.62300
N  9.95700 0.99800 28.23500
C  10.64900 0.21600 27.32900
C  11.27900 -0.89000 28.04800
C  11.20000 -0.46500 29.39800
C  10.37200 0.64500 29.52300
C  12.08300 -2.10500 27.55800
C  11.69400 -0.76800 30.74300
O  12.49600 -1.55600 31.16200
C  11.00400 0.25900 31.73000
C  10.00900 -0.48300 32.59100
O  9.11800 -1.29200 32.17500
O  10.39900 -0.45700 33.89600
C  9.74100 -1.34800 34.80300
H  6.69100 5.64800 30.50000
H  7.45900 4.83800 24.28000
H  10.79500 -0.41400 25.19200
H  8.57300 2.09900 33.12200
H  8.38100 4.87000 32.48800
H  5.80100 3.52800 32.19000
H  6.33600 4.51700 33.51900
H  6.65100 2.82100 33.61900
H  10.86700 3.84500 32.58500
H  10.95500 2.45900 33.53800
H  9.10400 4.34200 34.93600
H  10.50700 5.07800 34.24300
H  5.39600 8.11500 28.28200
H  5.40200 7.07100 29.78500
H  4.19900 6.85700 28.59100
H  4.48600 8.42000 26.24800
H  3.64000 6.90900 26.40300
H  3.54400 7.81700 24.91000
H  9.56800 3.43000 22.92900
H  8.97300 0.44700 23.40400
H  7.56000 1.45400 22.21700
H  7.68900 3.29600 21.68500
H  6.73700 2.75600 22.95600
H  11.62900 0.72600 23.68800
H  11.37500 2.10300 22.65500
H  10.07800 0.48900 21.11300
H  11.06700 -0.73300 21.78300
H  11.93000 0.48000 21.02200
H  13.12100 -1.80900 27.71200
H  11.89900 -2.00600 26.48800
H  11.72900 -3.03700 27.99800
H  11.73400 0.81800 32.31600
H  9.02000 -0.77600 35.38700
H  10.56500 -1.54300 35.48800
H  9.40200 -2.28300 34.35600
Mg 17.37200 -2.34800 28.01400
C  16.35400 -0.39800 30.84000
C  19.48500 -4.13300 30.09100
C  18.89900 -3.65400 25.36900
C  15.41300 -0.31000 26.07300
N  17.89000 -2.23700 30.21500
C  17.30100 -1.41100 31.18900
C  17.60400 -1.96700 32.60500
C  18.75700 -3.01000 32.29700
C  18.71300 -3.12700 30.77900
C  20.10600 -2.61900 32.82800
C  16.31600 -2.60000 33.17300
C  15.93500 -2.21000 34.56500
H  17.00400 -1.64400 35.54200
N  18.91200 -3.81000 27.76500
C  19.56600 -4.48700 28.76700
C  20.32900 -5.56500 28.19100
C  20.16200 -5.48700 26.77100
C  19.33100 -4.27400 26.52800
C  21.06500 -6.55900 29.07200
C  20.80100 -6.30600 25.68400
O  20.64800 -6.11000 24.50600
C  21.95300 -7.29100 26.05900
N  17.37200 -1.80100 26.04400
C  18.03600 -2.55500 25.09600
C  17.64600 -2.11000 23.71100
C  16.49300 -1.07000 23.87700
C  16.38800 -1.06100 25.43300
C  18.82000 -1.68200 22.86200
C  15.20100 -1.47400 23.07000
C  14.75600 -0.55200 21.91200
N  16.20200 -0.67400 28.36000
C  15.32100 -0.05300 27.47100
C  14.48700 0.92400 28.14100
C  14.89200 0.89100 29.47000
C  15.83400 -0.13000 29.55400
C  13.53600 1.76200 27.49500
C  14.72700 1.43800 30.81700
O  14.04500 2.42000 31.20700
C  15.63800 0.57600 31.75800
C  16.62500 1.46200 32.42400
O  17.66900 1.91700 31.83800
O  16.17300 1.81600 33.68700
C  16.99100 2.90300 34.26500
H  20.01000 -4.74800 30.82500
H  19.22700 -4.28000 24.53600
H  14.65700 0.16100 25.44100
H  18.04100 -1.24300 33.29200
H  18.61700 -4.04200 32.61700
H  20.47500 -1.95700 32.04500
H  20.69100 -3.49800 33.10200
H  19.99200 -1.99700 33.71600
H  16.45800 -3.68100 33.15100
H  15.54100 -2.28200 32.47600
H  15.63300 -3.08000 35.14800
H  15.07000 -1.54900 34.52200
H  21.06500 -7.59100 28.72300
H  20.59400 -6.57100 30.05500
H  22.09800 -6.22100 29.15100
H  21.63100 -8.26400 26.43100
H  22.54100 -6.80200 26.83600
H  22.56400 -7.46700 25.17400
H  17.18600 -3.00300 23.28600
H  16.92800 -0.14500 23.49900
H  18.94500 -2.43200 22.08100
H  19.75400 -1.56200 23.41100
H  18.58900 -0.75100 22.34400
H  14.39500 -1.31800 23.78800
H  15.05300 -2.50200 22.73700
H  14.33300 -1.19100 21.13700
H  15.45600 0.15800 21.47100
H  13.84800 -0.00400 22.16700
H  12.75800 2.02100 28.21300
H  13.26900 1.23000 26.58200
H  14.08200 2.68300 27.29100
H  15.04800 0.11400 32.55000
H  17.17600 3.67400 33.51800
H  17.94300 2.55700 34.66800
H  16.45700 3.35500 35.10100

