158

Mg 43.23900 4.22100 47.38600
C  40.70000 6.61000 46.98800
C  40.74900 1.72600 47.23800
C  45.65800 1.95600 47.25800
C  45.59000 6.88800 47.53200
N  41.02100 4.19000 47.05100
C  40.18900 5.26400 46.86800
C  38.69300 4.94400 46.65200
C  38.77700 3.43300 47.03300
C  40.27400 3.01700 47.12500
C  38.12700 3.02700 48.35400
C  38.29200 5.30200 45.19500
C  37.12500 6.32500 44.96500
H  37.25900 7.41500 43.84300
N  43.17600 2.14100 47.18300
C  42.07500 1.28700 47.09100
C  42.55900 -0.05800 46.84900
C  43.98200 -0.03200 46.76400
C  44.32300 1.39000 47.08800
C  41.70000 -1.22300 46.63500
C  44.84400 -1.20600 46.58100
O  44.43400 -2.32000 46.48100
C  46.29100 -0.96500 46.41000
N  45.37400 4.43500 47.31500
C  46.10400 3.29600 47.44400
C  47.58700 3.65200 47.66200
C  47.53300 5.19400 47.93600
C  46.08100 5.55000 47.60900
C  48.19100 2.88200 48.85600
C  48.56800 6.09300 47.20300
C  49.96800 5.40100 46.93600
N  43.22800 6.36200 47.24700
C  44.24700 7.26000 47.32800
C  43.70500 8.64000 47.15200
C  42.27300 8.42700 47.04800
C  42.04100 6.97900 47.08500
C  44.63200 9.86200 47.14900
C  41.03500 9.08300 46.99000
O  40.78200 10.30000 47.05900
C  39.99000 7.93000 46.92900
C  39.05300 8.04700 48.15700
O  39.20900 7.43800 49.23700
O  37.91500 8.71900 47.77800
C  36.78200 8.34200 48.62200
H  39.99800 0.94800 47.39100
H  46.52600 1.29300 47.27400
H  46.41000 7.60500 47.61900
H  38.20200 5.64400 47.32800
H  38.28200 2.84100 46.26300
H  37.75100 3.88800 48.90700
H  38.75500 2.42600 49.01200
H  37.17500 2.49600 48.30800
H  38.01400 4.36600 44.71200
H  39.15700 5.71900 44.68000
H  36.70300 6.84800 45.82300
H  36.39400 5.63100 44.55100
H  41.64100 -1.69900 47.61400
H  41.96600 -1.93800 45.85700
H  40.65900 -0.97600 46.42800
H  46.41200 -0.14400 45.70400
H  46.78100 -1.86100 46.03000
H  46.63400 -0.78800 47.42900
H  48.13700 3.37600 46.76200
H  47.63500 5.48400 48.98200
H  47.50600 2.17100 49.31700
H  48.69500 3.55400 49.55200
H  48.96700 2.21100 48.48800
H  48.73200 6.91500 47.90000
H  48.18000 6.52400 46.28000
H  49.81600 4.78100 46.05300
H  50.32100 4.79300 47.76900
H  50.74700 6.15500 46.82500
H  44.37700 10.49000 46.29500
H  45.70100 9.71900 46.98800
H  44.35700 10.44300 48.02900
H  39.44800 8.13300 46.00500
H  36.57900 7.27700 48.50600
H  35.86400 8.77200 48.22400
H  36.88800 8.61100 49.67300
Mg 9.29200 48.60600 27.73100
C  7.61900 47.82200 30.70500
C  12.14600 48.96200 29.62500
C  10.93900 49.23300 24.93100
C  6.28900 48.64900 25.94000
N  9.76900 48.65900 29.97600
C  8.95400 48.22500 30.98500
C  9.60800 48.31800 32.35300
C  11.10200 48.79100 31.93000
C  11.03300 48.92400 30.43100
C  11.55400 50.05600 32.74000
C  9.59300 46.93900 33.19500
C  10.60200 46.62500 34.36200
H  10.08900 45.77800 35.58700
N  11.32100 48.82300 27.29800
C  12.34400 48.90600 28.20900
C  13.58900 48.77100 27.47100
C  13.21800 48.86200 26.02600
C  11.77200 49.02000 26.06800
C  14.94400 48.49200 28.06200
C  14.13500 48.66300 24.83100
O  13.85600 48.45800 23.66600
C  15.61700 48.62200 25.11100
N  8.65800 49.04100 25.78200
C  9.58500 49.31000 24.78100
C  8.99800 49.30000 23.31100
C  7.44000 49.37300 23.70400
C  7.40800 48.94000 25.22800
C  9.52200 50.41100 22.42300
C  6.59600 48.35000 22.74600
C  5.92200 48.96900 21.55000
N  7.33200 48.34600 28.22800
C  6.19700 48.39000 27.38400
C  4.99500 47.98400 28.19500
C  5.55200 47.71300 29.46300
C  6.96300 47.95600 29.46500
C  3.62900 47.94000 27.60000
C  5.19100 47.33700 30.84100
O  4.06200 47.05800 31.24700
C  6.50600 47.36600 31.64300
C  6.60700 46.04800 32.22400
O  7.22300 45.04700 31.84200
O  5.82000 46.11000 33.33900
C  5.73300 44.86100 34.05900
H  13.09800 48.95900 30.15900
H  11.52100 49.38200 24.01900
H  5.35600 48.68600 25.37400
H  9.10300 49.09300 32.92900
H  11.90600 48.09500 32.16600
H  11.06700 50.14900 33.71000
H  11.38900 50.99700 32.21500
H  12.58900 49.85000 33.01400
H  9.60300 46.07700 32.52900
H  8.62800 47.08800 33.68100
H  11.05200 47.54400 34.73900
H  11.41200 45.98100 34.02000
H  14.96100 48.40100 29.14800
H  15.57800 49.36600 27.91300
H  15.49400 47.72600 27.51500
H  15.97400 49.37900 25.80900
H  16.12200 48.95100 24.20300
H  15.96000 47.66700 25.50900
H  9.21200 48.33500 22.85300
H  7.02600 50.38100 23.71500
H  9.48100 49.91800 21.45100
H  10.55000 50.65400 22.69000
H  8.85600 51.27300 22.44400
H  5.81500 47.81100 23.28200
H  7.27600 47.61200 22.32100
H  6.69600 49.42900 20.93600
H  5.25300 49.78500 21.82300
H  5.33800 48.13400 21.16300
H  3.03100 47.13600 28.03000
H  3.62300 47.79300 26.52000
H  3.17600 48.91500 27.77800
H  6.48300 48.13800 32.41100
H  6.08300 44.98900 35.08400
H  6.23000 44.00600 33.60000
H  4.68100 44.57600 34.06200

