158

Mg 27.98300 49.97600 26.24100
C  25.87700 50.84600 28.90500
C  30.33300 49.32100 28.65900
C  30.12400 49.21900 23.81600
C  25.39500 50.66200 24.12400
N  28.09500 50.20100 28.50600
C  27.13200 50.45500 29.39900
C  27.51200 50.31700 30.82300
C  29.02500 49.92300 30.74800
C  29.13200 49.80000 29.22200
C  29.97300 50.88300 31.57300
C  26.53000 49.40200 31.65700
C  25.93400 50.00600 32.91700
H  26.01200 49.17900 34.20700
N  29.87600 49.29300 26.19700
C  30.67000 48.99300 27.31100
C  31.97200 48.46700 26.84100
C  31.92700 48.50900 25.41600
C  30.59600 49.02100 25.06400
C  33.10400 48.07800 27.77900
C  33.04600 48.12000 24.45300
O  32.94700 48.34900 23.28500
C  34.30700 47.55000 24.94000
N  27.80900 50.08100 24.27900
C  28.82900 49.56100 23.45600
C  28.29900 49.54500 21.99300
C  26.74600 49.67500 22.20500
C  26.56400 50.07800 23.67800
C  28.97200 50.65600 21.12000
C  26.02800 48.25800 21.92300
C  25.17200 48.12400 20.59200
N  26.07700 50.76400 26.46500
C  25.10500 51.02100 25.49200
C  23.88400 51.57000 26.06000
C  24.18700 51.47300 27.41400
C  25.47700 50.97500 27.60300
C  22.68600 52.02700 25.37800
C  23.68300 51.76000 28.71700
O  22.57300 52.08500 29.06500
C  24.71100 51.41700 29.69200
C  25.03100 52.64300 30.48200
O  25.83400 53.49200 30.13100
O  24.29900 52.70700 31.62200
C  24.65200 53.81400 32.52900
H  31.03300 49.07400 29.46000
H  30.79200 48.82300 23.04800
H  24.57900 50.60500 23.40000
H  27.40000 51.31900 31.23700
H  29.17600 48.88200 31.03100
H  30.86800 51.11100 30.99600
H  30.35500 50.36300 32.45200
H  29.47600 51.77400 31.95700
H  27.01400 48.46900 31.94600
H  25.66700 49.04800 31.09500
H  24.88000 50.26400 32.81100
H  26.36600 50.98400 33.12900
H  33.87600 48.82900 27.61000
H  33.37700 47.05000 27.54100
H  32.75600 48.26400 28.79500
H  34.83000 48.17100 25.66800
H  34.91800 47.52000 24.03800
H  34.11600 46.54000 25.30300
H  28.52100 48.55000 21.60500
H  26.29900 50.48800 21.63500
H  29.64800 51.37700 21.57900
H  28.19400 51.17900 20.56400
H  29.46600 50.08800 20.33300
H  25.54900 48.08300 22.88600
H  26.78200 47.47300 21.98300
H  25.21200 48.95500 19.88800
H  24.15300 47.99600 20.95500
H  25.49000 47.24600 20.03000
H  22.24500 51.38300 24.61800
H  23.03300 52.96600 24.94500
H  21.93300 52.09200 26.16300
H  24.20800 50.75400 30.39600
H  25.45800 53.53200 33.20600
H  23.76200 53.97300 33.13800
H  24.74900 54.73000 31.94600
Mg -11.55100 15.58600 42.07400
C  -8.51100 13.90700 42.01100
C  -9.99600 18.27000 40.39700
C  -14.49600 17.08300 41.76400
C  -13.06500 12.71900 43.20800
N  -9.47600 15.96000 41.23000
C  -8.43200 15.08600 41.34500
C  -7.21400 15.66800 40.59400
C  -7.63000 17.19500 40.39400
C  -9.08400 17.16800 40.67500
C  -6.77500 18.20100 41.22700
C  -6.78100 14.85900 39.29700
C  -5.34400 14.73700 38.97900
H  -4.86900 15.30200 37.66300
N  -12.20600 17.45000 41.29100
C  -11.41100 18.40600 40.68200
C  -12.20600 19.56700 40.34600
C  -13.52900 19.34100 40.72000
C  -13.45900 17.91000 41.28800
C  -11.68900 20.72200 39.61600
C  -14.70100 20.30200 40.67800
O  -14.52800 21.50400 40.35300
C  -16.11300 19.87300 41.06100
N  -13.49100 14.88200 42.14000
C  -14.54500 15.71800 42.20000
C  -15.85600 14.99300 42.70100
C  -15.40400 13.49100 42.83900
C  -13.87000 13.71000 42.72300
C  -16.32300 15.60500 43.99900
C  -15.93000 12.46400 41.69000
C  -16.67700 11.23200 42.29600
N  -10.94600 13.62200 42.55300
C  -11.68600 12.56800 43.05800
C  -10.77700 11.51700 43.35800
C  -9.52300 12.01500 43.04100
C  -9.73000 13.33400 42.49100
C  -11.10000 10.21700 44.09100
C  -8.11500 11.78300 43.09800
O  -7.49800 10.80900 43.50200
C  -7.42100 12.95200 42.41600
C  -6.36600 13.55500 43.29600
O  -6.63700 14.42000 44.13800
O  -5.21900 12.84000 43.16500
C  -4.25600 13.31900 44.22600
H  -9.54500 19.18100 39.99600
H  -15.41300 17.67400 41.81200
H  -13.51900 11.80800 43.60400
H  -6.39700 15.62600 41.31400
H  -7.49500 17.32800 39.32100
H  -6.00900 17.66600 41.78800
H  -7.40800 18.67700 41.97600
H  -6.29100 18.92200 40.56800
H  -7.12300 15.37500 38.40000
H  -7.27900 13.89300 39.38700
H  -5.21700 13.65600 38.92500
H  -4.70800 15.11900 39.77800
H  -12.24000 20.82500 38.68100
H  -10.60500 20.69600 39.50200
H  -11.87500 21.60300 40.22900
H  -16.83300 20.63700 40.76600
H  -16.19800 19.78000 42.14400
H  -16.38400 18.94400 40.56200
H  -16.61900 15.03800 41.92300
H  -15.66900 13.10200 43.82300
H  -16.91500 16.50500 43.83300
H  -15.49500 15.60000 44.70700
H  -17.06700 14.90100 44.37100
H  -15.12700 12.05700 41.07600
H  -16.62500 12.88300 40.96300
H  -16.67400 11.39600 43.37400
H  -16.09500 10.33900 42.07200
H  -17.71400 11.18200 41.96400
H  -10.62200 10.08300 45.06200
H  -10.98200 9.28700 43.53500
H  -12.17900 10.16800 44.24100
H  -6.94500 12.50900 41.54100
H  -4.66000 13.30200 45.23800
H  -3.98100 14.33100 43.93100
H  -3.44800 12.60400 44.06800

