158

Mg 0.41100 7.56800 26.63200
C  1.20200 9.29200 29.55300
C  0.59300 4.56800 28.53300
C  -0.01500 5.81300 23.81700
C  1.34400 10.39900 24.77000
N  0.82400 7.07400 28.78700
C  0.91100 7.97900 29.79900
C  0.72400 7.36300 31.18100
C  0.93200 5.81900 30.88500
C  0.84600 5.80500 29.29500
C  2.12500 4.97700 31.45900
C  -0.67600 7.74300 31.75300
C  -0.78500 8.04000 33.23900
H  0.31700 7.63200 34.23900
N  0.15600 5.51400 26.26100
C  0.09800 4.47900 27.14400
C  -0.16800 3.19400 26.50300
C  -0.28800 3.52700 25.10400
C  0.02400 4.99000 24.99400
C  -0.07000 1.85800 27.28700
C  -0.50700 2.63400 23.93100
O  -0.44000 3.06800 22.75100
C  -0.89500 1.24000 24.06700
N  0.59100 8.05600 24.62600
C  0.21700 7.18800 23.64900
C  0.30600 7.81600 22.24600
C  0.58600 9.32300 22.62200
C  0.83300 9.30100 24.13200
C  1.39300 7.22700 21.28900
C  -0.77100 10.31900 22.40200
C  -0.56400 11.64400 21.69300
N  1.00600 9.49900 27.00300
C  1.36500 10.53200 26.17400
C  1.74600 11.62200 26.94200
C  1.63600 11.22300 28.26000
C  1.25400 9.87800 28.26900
C  2.14900 12.99400 26.42100
C  1.82500 11.66400 29.62400
O  2.17500 12.75200 29.98800
C  1.45900 10.44400 30.51700
C  2.61000 10.26600 31.39000
O  3.58100 9.49500 31.25000
O  2.56500 11.26300 32.33300
C  3.76900 11.51900 33.11000
H  0.55100 3.68900 29.18000
H  -0.29900 5.33800 22.87600
H  1.49900 11.33000 24.22100
H  1.49600 7.83500 31.78900
H  0.06700 5.31400 31.31500
H  1.70000 4.06100 31.87000
H  2.67900 5.53200 32.21700
H  2.76900 4.81000 30.59600
H  -1.42100 6.95900 31.61900
H  -0.88600 8.59200 31.10200
H  -1.70400 7.48600 33.42600
H  -1.11500 9.06900 33.37400
H  0.96900 1.67700 27.56200
H  -0.55600 0.97700 26.86700
H  -0.63400 2.11400 28.18300
H  -1.83200 1.16700 24.61800
H  -0.17700 0.65900 24.64500
H  -1.13200 0.76000 23.11700
H  -0.64000 7.75800 21.70700
H  1.46200 9.73500 22.12200
H  1.99200 7.96400 20.75400
H  1.10100 6.46500 20.56500
H  2.18000 6.76700 21.88500
H  -1.20600 10.48400 23.38800
H  -1.55400 9.84900 21.80700
H  -0.81100 11.41500 20.65600
H  0.44900 12.03400 21.79200
H  -1.29400 12.39700 21.99000
H  1.84300 13.72700 27.16700
H  1.51400 13.17700 25.55400
H  3.18500 13.15900 26.12700
H  0.61100 10.70700 31.14900
H  3.45900 11.74400 34.13100
H  4.34000 12.36700 32.73400
H  4.40400 10.63500 33.16800
Mg -5.23400 24.52600 25.68200
C  -4.09200 25.77700 28.70700
C  -7.35700 22.51300 27.40800
C  -6.50200 23.42300 22.68700
C  -3.21900 26.78200 23.95800
N  -5.57800 24.15800 27.83400
C  -5.16900 24.88200 28.82900
C  -5.85200 24.66300 30.16400
C  -6.71200 23.43400 29.76100
C  -6.58100 23.31400 28.26300
C  -6.55800 22.13100 30.50100
C  -6.58800 25.92000 30.77700
C  -6.37700 26.09400 32.37100
H  -5.71600 25.06300 33.24700
N  -6.68300 23.06300 25.15000
C  -7.44800 22.42600 26.01900
C  -8.30400 21.59700 25.33800
C  -8.12500 21.81900 23.91300
C  -7.10700 22.87600 23.84700
C  -9.36400 20.73100 26.00100
C  -8.78700 21.18000 22.73500
O  -8.69900 21.59500 21.58800
C  -9.74200 19.97700 22.94300
N  -4.96200 25.12600 23.61300
C  -5.42200 24.38700 22.57000
C  -5.02100 25.06900 21.19500
C  -4.05800 26.18000 21.65000
C  -4.14200 26.06600 23.19400
C  -4.27400 24.04000 20.28200
C  -4.46700 27.49700 21.00000
C  -3.31700 28.41200 20.63100
N  -3.89400 25.98000 26.19200
C  -3.13500 26.77400 25.38900
C  -2.31900 27.63500 26.24200
C  -2.64300 27.24300 27.55100
C  -3.59800 26.18900 27.46300
C  -1.40300 28.65600 25.76200
C  -2.46900 27.58100 29.00100
O  -1.82600 28.47600 29.46600
C  -3.40100 26.53400 29.81800
C  -2.53600 25.74900 30.77100
O  -2.00500 24.66400 30.50800
O  -2.36700 26.39700 31.98900
C  -1.42600 25.84300 32.95900
H  -8.00200 21.84200 27.97900
H  -6.90800 23.12100 21.71900
H  -2.51400 27.45600 23.46700
H  -5.02900 24.36700 30.81500
H  -7.75500 23.71600 29.90700
H  -7.16700 21.29200 30.16400
H  -6.64500 22.30600 31.57300
H  -5.53200 21.77300 30.42300
H  -7.65400 25.74300 30.62900
H  -6.21200 26.74600 30.17300
H  -7.38000 26.32000 32.73400
H  -5.70700 26.92300 32.60200
H  -9.13900 19.68500 25.79000
H  -10.35000 20.89600 25.56600
H  -9.49600 20.78600 27.08200
H  -9.25500 19.32000 23.66300
H  -9.96100 19.63400 21.93200
H  -10.62400 20.43600 23.39000
H  -5.99000 25.30100 20.75300
H  -3.05600 25.99800 21.26100
H  -3.48300 24.53000 19.71400
H  -4.99600 23.63300 19.57300
H  -3.89500 23.24500 20.92400
H  -5.08600 28.05400 21.70300
H  -4.96200 27.32100 20.04500
H  -3.10300 28.26500 19.57200
H  -2.37400 28.05100 21.04300
H  -3.44600 29.44700 20.94700
H  -0.65400 28.37800 25.02000
H  -0.89500 29.11900 26.60800
H  -1.98200 29.39100 25.20300
H  -4.11700 27.18600 30.31900
H  -1.91600 24.99200 33.43200
H  -1.05000 26.48100 33.75800
H  -0.63600 25.35500 32.38800

