158

Mg -2.06700 17.13300 25.99000
C  -2.50800 14.88300 28.69900
C  -2.35500 19.68800 28.33800
C  -2.44900 19.25000 23.51800
C  -2.31300 14.42900 23.82000
N  -2.63500 17.18900 28.23400
C  -2.39800 16.21500 29.17800
C  -2.41500 16.76200 30.61200
C  -2.61900 18.31300 30.37000
C  -2.54600 18.42700 28.88000
C  -3.91900 18.86900 30.88500
C  -1.25900 16.24700 31.48300
C  -0.34400 17.07900 32.50200
H  -0.02200 16.47400 33.87000
N  -2.12500 19.21100 25.92500
C  -2.23500 20.06300 27.00000
C  -2.15500 21.46100 26.39200
C  -2.32800 21.34400 25.01300
C  -2.27100 19.91300 24.78300
C  -2.10100 22.69500 27.21800
C  -2.33700 22.37700 23.93400
O  -2.36000 22.08300 22.72300
C  -2.23700 23.82800 24.35000
N  -2.21700 16.83500 23.98500
C  -2.32200 17.91200 23.10800
C  -2.24700 17.40900 21.66000
C  -1.93300 15.88000 21.79800
C  -2.19900 15.68200 23.31800
C  -3.45500 17.66200 20.68400
C  -0.53800 15.44500 21.24400
C  -0.32300 15.58000 19.71700
N  -2.37700 15.06100 26.15800
C  -2.48500 14.07700 25.14600
C  -2.68800 12.81200 25.73300
C  -2.67300 13.09100 27.11300
C  -2.47300 14.45900 27.34300
C  -2.99700 11.53200 25.01300
C  -2.83000 12.40000 28.32200
O  -2.93100 11.20500 28.56900
C  -2.77400 13.60500 29.43200
C  -1.61700 13.29600 30.32100
O  -0.41900 13.18600 30.00900
O  -2.20600 12.90900 31.53600
C  -1.29200 12.24500 32.47200
H  -2.34100 20.59900 28.94000
H  -2.57700 19.82800 22.60000
H  -2.39200 13.66600 23.04300
H  -3.31800 16.40600 31.10800
H  -1.82900 18.91300 30.82300
H  -4.29900 18.35000 31.76500
H  -4.62300 18.90200 30.05300
H  -3.75600 19.90900 31.16600
H  -0.57200 15.81800 30.75300
H  -1.71800 15.40700 32.00400
H  -0.86700 18.02500 32.64300
H  0.64900 17.34900 32.14300
H  -1.17700 23.19800 26.93400
H  -1.96100 22.40300 28.25900
H  -3.07200 23.18700 27.15800
H  -2.59400 24.51000 23.57900
H  -1.19400 24.03900 24.58500
H  -2.96600 23.98000 25.14600
H  -1.40400 17.86600 21.14300
H  -2.66100 15.30800 21.22300
H  -3.77600 18.69900 20.58500
H  -4.36600 17.24800 21.11600
H  -3.38500 17.33800 19.64500
H  -0.38300 14.38100 21.42000
H  0.25000 15.91800 21.83000
H  0.71400 15.88500 19.57400
H  -1.08400 16.24500 19.30900
H  -0.36800 14.59500 19.25200
H  -3.15700 10.88900 25.87900
H  -2.23300 11.16700 24.32700
H  -3.79100 11.68500 24.28200
H  -3.73100 13.54500 29.95000
H  -0.64800 11.50600 31.99600
H  -1.91500 11.92700 33.30800
H  -0.59300 13.02000 32.79000
Mg 37.21100 49.95300 25.15700
C  37.47600 47.90700 28.02400
C  36.26100 52.63400 27.15400
C  36.40600 51.43400 22.36400
C  37.96600 47.03800 23.25100
N  36.88700 50.20900 27.28400
C  37.07400 49.23500 28.27600
C  36.89500 49.81100 29.69700
C  36.36600 51.26500 29.43500
C  36.48700 51.35800 27.89600
C  34.96700 51.62700 30.08300
C  38.23100 49.82400 30.48600
C  38.25500 49.14900 31.87500
H  37.06000 49.53200 32.76900
N  36.48900 51.75300 24.78600
C  36.16100 52.79200 25.74000
C  35.70300 53.92000 25.03600
C  35.67800 53.54600 23.62500
C  36.26500 52.20600 23.52800
C  35.08600 55.12100 25.67900
C  35.34200 54.42100 22.49600
O  35.38700 54.00900 21.36300
C  35.01400 55.87800 22.65900
N  37.21800 49.33400 23.12300
C  36.92200 50.18500 22.11000
C  37.14900 49.58000 20.70500
C  37.94800 48.27500 21.00600
C  37.69300 48.18400 22.59400
C  35.73700 49.40800 19.93700
C  39.50400 48.30200 20.84100
C  40.10900 47.01600 20.25400
N  37.68300 47.86200 25.54400
C  37.97300 46.87200 24.64900
C  38.12800 45.60300 25.37700
C  37.99000 45.95400 26.73900
C  37.67800 47.33100 26.81300
C  38.24500 44.25700 24.64700
C  38.08500 45.45100 28.10300
O  38.32500 44.36600 28.64700
C  37.58100 46.71700 28.96500
C  36.28400 46.36000 29.49700
O  35.18000 46.43700 28.93600
O  36.43300 46.03600 30.85000
C  35.27800 45.66000 31.59400
H  36.00600 53.57700 27.64200
H  36.11600 52.02900 21.49400
H  38.20900 46.20500 22.58700
H  36.14800 49.22500 30.23200
H  37.02400 51.98100 29.92800
H  35.07300 52.47000 30.76500
H  34.52300 50.77300 30.59500
H  34.21100 51.86000 29.33300
H  38.65400 50.79400 30.74700
H  38.98400 49.25000 29.94600
H  39.20300 49.35600 32.37200
H  38.28900 48.08800 31.62800
H  34.21100 55.50600 25.15500
H  35.82700 55.85400 25.99800
H  34.58900 54.75000 26.57400
H  34.02400 56.02400 23.09100
H  35.08900 56.36700 21.68800
H  35.73900 56.37600 23.30300
H  37.77900 50.29500 20.17600
H  37.50200 47.43100 20.47900
H  35.81900 49.72400 18.89700
H  34.99000 49.97900 20.48800
H  35.42200 48.36800 20.01600
H  39.97800 48.50500 21.80100
H  39.71700 49.15900 20.20300
H  39.48400 46.14200 20.43800
H  41.04300 46.78800 20.76800
H  40.31500 47.30100 19.22200
H  37.93800 43.48200 25.35000
H  39.32500 44.24000 24.50300
H  37.73500 44.10600 23.69500
H  38.31600 46.84800 29.75900
H  35.48800 45.36500 32.62200
H  34.86900 44.87800 30.95300
H  34.63800 46.53900 31.52600

