158

Mg 0.96500 8.35900 24.15400
C  1.46700 10.00800 27.23600
C  0.97200 5.41800 25.93000
C  0.99000 6.64800 21.25400
C  1.37900 11.28800 22.57000
N  1.13700 7.83500 26.38200
C  1.15200 8.63900 27.36700
C  1.14600 7.82400 28.73400
C  1.02700 6.31600 28.28500
C  1.06400 6.51900 26.78800
C  2.05000 5.27900 28.80600
C  0.16300 8.33300 29.89200
C  0.87400 8.71900 31.23700
H  2.09400 7.86700 31.64700
N  0.91400 6.33900 23.65100
C  0.92200 5.28400 24.49200
C  0.87500 3.99800 23.81600
C  0.84400 4.33200 22.41700
C  0.86000 5.82000 22.40000
C  0.71100 2.63500 24.54800
C  0.63400 3.44500 21.16100
O  0.55300 3.86200 20.02300
C  0.74800 2.00200 21.39500
N  1.09200 8.89100 22.14700
C  1.07800 8.03400 21.12300
C  1.23000 8.78900 19.74600
C  1.09300 10.23800 20.22100
C  1.18100 10.19900 21.75900
C  2.55400 8.45400 18.97900
C  -0.24700 10.99900 19.85100
C  -0.05500 12.43000 19.30700
N  1.30000 10.31200 24.78500
C  1.49700 11.39000 23.97000
C  1.89400 12.53600 24.75400
C  1.80400 12.04700 26.03000
C  1.43100 10.68100 25.99800
C  2.29800 13.92300 24.47500
C  1.99500 12.43300 27.44200
O  2.34300 13.46900 28.00600
C  1.69400 11.12400 28.22500
C  2.85100 10.90300 29.16100
O  3.91600 10.32300 28.96400
O  2.63100 11.55300 30.33200
C  3.56800 11.33400 31.49700
H  0.92100 4.52900 26.56200
H  1.14800 6.23800 20.25500
H  1.44200 12.27100 22.09900
H  2.10100 8.06600 29.20100
H  0.04300 6.00800 28.63800
H  2.63200 5.66200 29.64400
H  2.74200 5.01800 28.00600
H  1.47900 4.43300 29.18900
H  -0.61600 7.59700 30.09200
H  -0.37200 9.21900 29.55100
H  0.10700 8.62300 32.00500
H  1.15500 9.76800 31.13900
H  0.68600 2.73600 25.63300
H  1.54900 1.96400 24.35900
H  -0.17800 2.08100 24.24800
H  -0.20700 1.60200 21.73500
H  1.48600 1.73400 22.15100
H  0.94500 1.48600 20.45500
H  0.36600 8.44200 19.17900
H  1.99000 10.82000 20.01000
H  3.41000 8.73100 19.59400
H  2.52500 8.98100 18.02600
H  2.74200 7.40200 18.76700
H  -0.91200 11.09100 20.71000
H  -0.79600 10.49300 19.05800
H  -0.69100 12.63800 18.44600
H  0.93900 12.74400 18.99000
H  -0.37800 13.08500 20.11700
H  3.33100 14.06400 24.15600
H  2.04700 14.51000 25.35900
H  1.71200 14.17200 23.59000
H  0.78400 11.30000 28.80000
H  4.04600 12.31100 31.56500
H  4.28400 10.52800 31.34000
H  3.00500 11.05600 32.38800
Mg 0.03400 43.86900 25.90600
C  2.00100 43.21100 28.74900
C  -2.65100 42.27700 27.53900
C  -1.64600 43.81000 23.07300
C  2.97500 44.66200 24.18500
N  -0.23300 42.79100 27.83600
C  0.64900 42.87500 28.89500
C  0.00200 42.61600 30.26700
C  -1.40400 42.06800 29.85800
C  -1.44200 42.36000 28.30200
C  -1.80200 40.67100 30.25700
C  0.02700 43.87200 31.25700
C  0.34300 43.61000 32.74600
H  0.07400 42.22100 33.50300
N  -1.88800 43.21200 25.35300
C  -2.83400 42.57100 26.17600
C  -4.08900 42.35500 25.38900
C  -3.78100 42.83000 24.07100
C  -2.35200 43.32300 24.10800
C  -5.34000 41.68300 25.97300
C  -4.61600 42.94500 22.84200
O  -4.31000 43.44700 21.79100
C  -5.99100 42.37100 22.94700
N  0.62000 44.24700 23.89900
C  -0.33000 44.32900 22.94800
C  0.17500 44.87500 21.66900
C  1.66100 44.99400 21.93900
C  1.76500 44.61600 23.42500
C  -0.02800 43.92100 20.48000
C  2.20200 46.34200 21.46800
C  2.16200 47.43700 22.59000
N  2.02700 44.12000 26.32800
C  3.16700 44.41700 25.52500
C  4.38600 44.56600 26.32700
C  3.92200 44.08400 27.58500
C  2.58300 43.78400 27.59000
C  5.72000 45.08600 25.96000
C  4.31300 43.75100 28.94300
O  5.41200 43.78300 29.33600
C  3.11500 43.22900 29.74500
C  3.46700 41.88600 30.27700
O  3.49100 40.85600 29.56100
O  3.65200 41.92400 31.66100
C  4.09900 40.63700 32.32900
H  -3.55700 41.89500 28.01500
H  -2.16800 43.83500 22.11500
H  3.76900 45.13300 23.60100
H  0.58700 41.75900 30.60200
H  -2.08700 42.80500 30.28200
H  -2.48200 40.09900 29.62500
H  -2.21400 40.78900 31.25900
H  -0.87900 40.10300 30.37400
H  -0.89700 44.43900 31.14000
H  0.75300 44.53400 30.78400
H  -0.39000 44.26200 33.22200
H  1.37000 43.87800 32.99200
H  -6.15500 42.37500 25.76000
H  -5.30300 41.44900 27.03700
H  -5.40200 40.74700 25.41800
H  -5.83900 41.30800 23.13500
H  -6.49400 42.52100 21.99200
H  -6.58000 42.87300 23.71500
H  -0.43000 45.74700 21.42100
H  2.17500 44.16300 21.45700
H  -0.32400 44.46600 19.58400
H  -0.87700 43.23800 20.48100
H  0.87100 43.45100 20.08100
H  1.70300 46.72000 20.57600
H  3.18200 46.18400 21.01800
H  3.13900 47.88900 22.76100
H  1.71200 47.09400 23.52200
H  1.40200 48.17400 22.33000
H  6.30000 45.30600 26.85600
H  5.64800 46.06800 25.49300
H  6.36100 44.44200 25.35700
H  2.90900 43.87900 30.59500
H  4.06700 39.85600 31.56900
H  3.41800 40.40000 33.14600
H  5.12800 40.87300 32.60100

