158

Mg 48.12700 16.36300 29.00500
C  46.13900 16.11300 31.88700
C  50.51200 17.84200 30.80500
C  49.77700 16.81400 26.12000
C  45.43900 14.95800 27.19600
N  48.24300 16.97500 31.15700
C  47.38400 16.74200 32.15000
C  47.82300 17.24300 33.43900
C  49.20900 18.01300 33.09000
C  49.34800 17.58800 31.59700
C  49.29900 19.53500 33.23200
C  47.92200 16.26800 34.64800
C  47.31400 16.84700 35.98200
H  47.05400 18.27500 36.22900
N  49.97500 17.19000 28.52400
C  50.77300 17.83700 29.43500
C  52.00800 18.18800 28.74100
C  51.82300 17.99900 27.36100
C  50.52200 17.25700 27.27500
C  53.12300 18.84800 29.41800
C  52.72400 18.39800 26.15600
O  52.43800 17.92700 25.06200
C  54.02900 19.20800 26.29400
N  47.63900 16.00700 26.94500
C  48.48600 16.21700 25.93300
C  48.08900 15.59500 24.61100
C  46.73600 14.86200 25.02900
C  46.60800 15.21000 26.52800
C  47.76000 16.53100 23.45000
C  46.86600 13.28900 24.90400
C  45.83300 12.71700 23.89600
N  46.18100 15.63300 29.40700
C  45.21800 15.15600 28.54700
C  44.05000 14.82200 29.29800
C  44.36600 15.13400 30.59400
C  45.67900 15.63800 30.64300
C  42.81100 14.10300 28.76500
C  43.89800 15.08100 31.90800
O  42.92400 14.58300 32.42700
C  45.02900 15.77000 32.81000
C  44.39600 16.95800 33.50500
O  44.34700 18.10400 33.15500
O  43.79000 16.45900 34.65700
C  42.70100 17.31100 35.27900
H  51.17800 18.46400 31.40800
H  50.37900 16.82300 25.20900
H  44.67700 14.44000 26.61100
H  47.07700 17.99800 33.68700
H  49.99900 17.53400 33.66900
H  49.38200 19.89200 32.20500
H  50.22800 19.60700 33.79700
H  48.37200 19.90300 33.67200
H  48.94300 16.02300 34.94000
H  47.32000 15.39700 34.38700
H  48.07200 16.54000 36.70100
H  46.42100 16.27300 36.23000
H  54.03400 18.33300 29.11500
H  53.10500 18.89800 30.50700
H  53.16400 19.85800 29.01000
H  54.14600 19.75600 27.22900
H  54.20200 19.75200 25.36600
H  54.78500 18.42800 26.38900
H  48.88600 14.89200 24.36800
H  45.82000 15.22200 24.56100
H  48.36300 16.56700 22.54200
H  47.92600 17.55900 23.77100
H  46.74200 16.39400 23.08600
H  46.80400 12.83000 25.89100
H  47.78500 13.08600 24.35500
H  46.48300 12.38400 23.08700
H  45.07300 13.41200 23.54000
H  45.37400 11.88300 24.42500
H  42.58000 13.19900 29.33000
H  42.98300 13.73000 27.75600
H  41.98900 14.81600 28.82900
H  45.26900 15.19800 33.70700
H  42.03500 16.76400 35.94600
H  42.01100 17.65200 34.50700
H  43.21100 18.12300 35.79700
Mg 26.98600 49.62500 25.71200
C  25.22200 50.87300 28.61700
C  29.52900 48.45900 27.91100
C  28.90400 48.99200 23.06800
C  24.73700 51.30500 23.70300
N  27.42100 49.87400 27.97700
C  26.44100 50.20600 28.95700
C  26.93600 49.81300 30.38400
C  28.47800 49.39000 30.15600
C  28.53200 49.23300 28.55800
C  29.51900 50.57200 30.54900
C  25.94800 48.83000 31.06400
C  25.48300 49.11000 32.52100
H  26.46900 49.51500 33.54700
N  28.78100 48.56900 25.53000
C  29.66300 48.15100 26.54700
C  30.85300 47.56700 25.91700
C  30.73200 47.83100 24.49400
C  29.44700 48.49800 24.31500
C  31.88200 46.78900 26.65300
C  31.69700 47.46200 23.40700
O  31.53500 47.77200 22.22700
C  32.96100 46.80500 23.67600
N  26.89000 50.20000 23.63700
C  27.76300 49.76000 22.75800
C  27.34700 50.03600 21.30400
C  25.91800 50.75100 21.59200
C  25.82100 50.72900 23.09200
C  28.29500 50.95300 20.56100
C  24.71600 50.10400 20.86800
C  24.23300 48.66200 21.18100
N  25.30000 50.83600 26.07500
C  24.50700 51.41600 25.10300
C  23.48400 52.09600 25.75400
C  23.65900 51.86800 27.08800
C  24.85100 51.18500 27.26400
C  22.26800 52.84000 25.17300
C  23.13400 52.08200 28.50200
O  22.07600 52.65100 28.77900
C  24.14300 51.38700 29.46700
C  24.49700 52.32500 30.57900
O  25.38200 53.10200 30.62800
O  23.67200 52.12100 31.61800
C  23.87200 53.07500 32.74700
H  30.23300 48.11600 28.67100
H  29.55200 48.80500 22.20900
H  24.06500 51.81900 23.01300
H  26.97900 50.74500 30.94700
H  28.80900 48.51500 30.71400
H  29.97400 51.02700 29.66800
H  30.34400 50.12900 31.10600
H  29.02200 51.35800 31.11800
H  26.27900 47.79100 31.03800
H  25.08800 48.90700 30.39800
H  25.10600 48.15100 32.87600
H  24.66700 49.82700 32.43400
H  32.11200 45.80200 26.25200
H  31.44800 46.64000 27.64200
H  32.82600 47.32700 26.74600
H  33.44500 47.38000 24.46500
H  33.55500 46.63800 22.77700
H  32.77100 45.86000 24.18600
H  27.19100 49.01800 20.94700
H  25.96600 51.82400 21.40600
H  28.50200 50.53400 19.57600
H  29.18900 51.20400 21.13300
H  27.92700 51.95100 20.32300
H  24.92800 50.04200 19.80100
H  23.95100 50.88100 20.85100
H  24.78100 47.92600 20.59300
H  23.21000 48.43400 20.88000
H  24.34300 48.39700 22.23300
H  22.56400 53.76500 24.68000
H  21.48900 52.99600 25.92000
H  21.74600 52.27700 24.39900
H  23.68900 50.52700 29.95900
H  24.58400 52.59300 33.41800
H  22.91700 53.07000 33.27200
H  24.27500 54.03500 32.42500

