158

Mg 47.23300 24.51300 27.52100
C  48.32400 26.80400 30.04500
C  46.54700 22.25400 30.06300
C  46.50200 22.42900 25.02300
C  48.67200 26.73900 25.21700
N  47.27600 24.62500 29.83600
C  47.74100 25.69500 30.63400
C  47.57300 25.27000 32.13400
C  47.22700 23.69400 32.09600
C  46.97100 23.50000 30.56000
C  48.30400 22.73200 32.75000
C  46.57600 26.13100 32.94000
C  46.29700 25.65700 34.38800
H  46.81400 26.54500 35.60500
N  46.57900 22.62200 27.50400
C  46.40000 21.78800 28.66000
C  46.12400 20.44100 28.15800
C  46.06400 20.49400 26.70300
C  46.30300 21.88200 26.32800
C  46.01200 19.30400 29.15600
C  45.80500 19.29900 25.77400
O  45.65800 19.42900 24.54600
C  45.68900 17.89900 26.30700
N  47.68100 24.53200 25.42200
C  47.20500 23.57700 24.57800
C  47.33800 24.04500 23.13200
C  48.02500 25.44500 23.13200
C  48.11600 25.57500 24.68300
C  48.00700 23.04800 22.14900
C  47.28100 26.57400 22.45100
C  48.13700 27.71100 21.77800
N  48.31300 26.40300 27.47300
C  48.82200 27.16400 26.49900
C  49.53500 28.36300 26.99000
C  49.29000 28.17700 28.41900
C  48.57400 27.04400 28.63300
C  50.20500 29.48900 26.19500
C  49.51700 28.91200 29.62000
O  50.09500 29.91900 29.86400
C  48.81300 28.05600 30.74800
C  49.79800 27.83400 31.83500
O  50.69800 26.96300 31.80900
O  49.51000 28.60000 32.94500
C  50.37200 28.52200 34.15200
H  46.30900 21.50500 30.82200
H  46.24200 21.75700 24.20200
H  48.95600 27.52700 24.51700
H  48.55800 25.43500 32.57200
H  46.24400 23.44000 32.49200
H  48.76700 22.24600 31.89100
H  47.79700 21.99500 33.37300
H  48.92500 23.26800 33.46700
H  45.65300 26.23700 32.37100
H  46.96900 27.14500 33.01200
H  46.69600 24.66100 34.58200
H  45.23200 25.64100 34.62200
H  46.57100 19.47400 30.07600
H  46.51000 18.39700 28.81300
H  45.00400 18.95600 29.37700
H  44.96700 17.96500 27.12100
H  46.70700 17.62400 26.58600
H  45.34900 17.25200 25.49900
H  46.28900 24.19100 22.87200
H  49.05800 25.43200 22.78600
H  48.42700 23.62600 21.32600
H  47.26600 22.36700 21.73200
H  48.66300 22.30800 22.60700
H  46.67800 27.11600 23.17900
H  46.70000 26.16000 21.62800
H  47.70200 28.61600 22.20100
H  48.06800 27.54200 20.70400
H  49.19600 27.69700 22.03600
H  49.65900 29.71600 25.27900
H  51.22500 29.24200 25.90000
H  50.20100 30.30100 26.92200
H  47.95700 28.59800 31.15000
H  49.93300 27.90600 34.93700
H  50.69600 29.48700 34.54100
H  51.25900 27.96700 33.84700
Mg -0.30000 42.89000 26.54800
C  1.92600 43.12600 29.26100
C  -2.80900 42.66600 28.76200
C  -2.28500 42.19900 23.95100
C  2.47600 43.19300 24.30200
N  -0.40800 42.62900 28.81100
C  0.61700 42.90900 29.65200
C  0.04900 42.87500 31.12900
C  -1.48100 42.47900 30.90700
C  -1.59600 42.56900 29.41100
C  -1.86700 41.02700 31.47800
C  0.36000 44.23100 31.90100
C  1.00700 44.39700 33.33400
H  0.71400 43.24300 34.36200
N  -2.30500 42.59200 26.33700
C  -3.12700 42.61800 27.36700
C  -4.47800 42.51400 26.85400
C  -4.39500 42.16500 25.46000
C  -2.94000 42.33900 25.15100
C  -5.77100 42.83800 27.72900
C  -5.46800 41.73700 24.40700
O  -5.15600 41.46100 23.25200
C  -6.86700 41.73000 24.86800
N  0.06800 42.78900 24.35300
C  -0.93700 42.38900 23.56200
C  -0.37700 42.42400 22.06800
C  1.10400 42.88000 22.16600
C  1.22300 42.98000 23.68600
C  -0.49100 40.94600 21.58200
C  1.28900 44.19700 21.41500
C  1.97000 44.12900 20.00100
N  1.74100 43.04300 26.67500
C  2.75400 43.21200 25.74200
C  4.01500 43.41200 26.46000
C  3.73100 43.26700 27.81500
C  2.37400 43.12700 27.90500
C  5.26400 43.83700 25.72900
C  4.26800 43.43400 29.13300
O  5.44200 43.61100 29.45600
C  3.10000 43.36200 30.15300
C  3.44200 42.17900 30.97000
O  3.68600 41.02400 30.54100
O  3.71200 42.62700 32.25000
C  4.28500 41.50300 33.11100
H  -3.69500 42.57700 29.39400
H  -2.88900 42.04400 23.05400
H  3.29900 43.41100 23.61700
H  0.58900 42.04700 31.58800
H  -2.16500 43.27600 31.19700
H  -0.94900 40.53000 31.79100
H  -2.38900 40.41800 30.73900
H  -2.54300 41.05000 32.33300
H  -0.56600 44.80600 31.91500
H  1.04400 44.84900 31.32000
H  0.60300 45.31100 33.77000
H  2.08100 44.56600 33.25600
H  -6.40800 43.46900 27.10900
H  -5.68500 43.43600 28.63600
H  -6.30500 41.92400 27.98700
H  -6.85500 41.55800 25.94400
H  -7.52900 41.03800 24.34700
H  -7.36600 42.68800 24.73000
H  -1.04900 42.99900 21.43100
H  1.83200 42.12300 21.87300
H  0.23200 40.44100 22.22300
H  -0.23300 40.74100 20.54300
H  -1.41700 40.38900 21.72000
H  1.96200 44.82800 21.99500
H  0.36900 44.75300 21.23600
H  1.16900 44.39000 19.31000
H  2.35100 43.14000 19.74700
H  2.75800 44.86600 19.84500
H  5.63000 42.96200 25.19200
H  6.02300 44.27300 26.37900
H  4.84000 44.55400 25.02500
H  2.96700 44.36700 30.55300
H  4.58400 40.55100 32.67200
H  3.50200 41.23800 33.82100
H  5.08600 41.96300 33.69000

