158

Mg 15.78300 -1.87200 27.38400
C  14.80000 0.21800 30.37400
C  17.87300 -3.57700 29.48200
C  16.96300 -3.30700 24.75000
C  13.88900 0.37900 25.52000
N  16.32100 -1.60500 29.69100
C  15.75700 -0.80400 30.68000
C  16.32800 -1.23900 32.00700
C  17.19100 -2.50900 31.72200
C  17.11600 -2.58600 30.21700
C  18.64800 -2.40600 32.32900
C  15.30100 -1.59200 33.12000
C  15.53800 -0.83300 34.49200
H  16.86800 -0.28000 34.94700
N  17.23600 -3.36800 27.12600
C  17.98700 -3.93500 28.06300
C  18.83400 -4.92200 27.48100
C  18.50900 -4.89200 26.09300
C  17.54100 -3.81000 25.89100
C  19.80000 -5.84800 28.24900
C  19.12900 -5.66400 25.00700
O  18.82800 -5.53600 23.81800
C  20.09600 -6.78100 25.28100
N  15.32400 -1.59600 25.39200
C  15.99900 -2.31100 24.44500
C  15.61100 -1.75300 23.05600
C  14.39700 -0.79600 23.30300
C  14.44200 -0.70600 24.82700
C  16.81700 -1.08200 22.33800
C  13.08900 -1.41600 22.87900
C  12.81500 -1.23200 21.37600
N  14.69200 -0.07300 27.76700
C  14.01600 0.64300 26.87500
C  13.34500 1.75200 27.53600
C  13.59500 1.63200 28.89200
C  14.36300 0.47500 29.03800
C  12.64100 2.88800 26.85400
C  13.34000 2.28400 30.22500
O  12.97600 3.39100 30.57200
C  14.10900 1.34100 31.24200
C  15.00400 2.22700 32.04300
O  15.99000 2.77000 31.59900
O  14.49800 2.50500 33.23100
C  15.20000 3.39800 34.13300
H  18.44300 -4.18100 30.19100
H  17.37900 -3.65900 23.80400
H  13.25300 1.05800 24.94900
H  16.96300 -0.45900 32.42600
H  16.59700 -3.37900 32.00500
H  18.71100 -1.47200 32.88700
H  19.39700 -2.40800 31.53700
H  18.67900 -3.35700 32.86100
H  15.33000 -2.66600 33.30600
H  14.31200 -1.33000 32.74600
H  15.15900 -1.43200 35.32000
H  14.96400 0.06800 34.27400
H  20.77100 -5.37600 28.40100
H  19.91000 -6.88900 27.94300
H  19.40700 -5.90000 29.26400
H  21.02200 -6.32800 25.63500
H  20.27600 -7.42700 24.42100
H  19.64400 -7.38600 26.06700
H  15.21500 -2.50700 22.37600
H  14.58300 0.23100 22.98800
H  16.77100 -0.02800 22.61200
H  16.76000 -1.23800 21.26100
H  17.79000 -1.47000 22.64000
H  12.25500 -0.95600 23.40900
H  12.93300 -2.43000 23.24700
H  13.76800 -0.91200 20.95400
H  12.17300 -0.37400 21.17700
H  12.39800 -2.08300 20.83900
H  13.30100 3.45400 26.19600
H  12.25400 3.55300 27.62600
H  11.81500 2.54400 26.23100
H  13.41800 0.91200 31.96700
H  15.04200 4.45400 33.91500
H  16.24500 3.11100 34.25600
H  14.72200 3.28700 35.10600
Mg 47.74200 16.68800 28.52200
C  45.93000 16.93500 31.50000
C  50.26800 18.46000 30.07700
C  49.29400 16.96900 25.49400
C  44.84700 15.78800 26.76800
N  47.92600 17.68600 30.60200
C  47.20000 17.50100 31.71800
C  47.83500 18.07200 32.94900
C  49.20300 18.54200 32.38700
C  49.09400 18.33700 30.92800
C  49.69700 19.99200 32.68200
C  47.98600 16.99900 34.03000
C  48.71300 17.62600 35.23400
H  48.12900 18.97400 35.90700
N  49.59100 17.49300 27.90200
C  50.45900 18.27300 28.69700
C  51.59700 18.60000 27.82900
C  51.34500 18.03300 26.52800
C  50.00800 17.44000 26.57600
C  52.78100 19.36400 28.29200
C  52.27900 17.89500 25.33000
O  51.93400 17.44600 24.25600
C  53.72700 18.40700 25.40800
N  47.21800 16.26300 26.46700
C  48.01200 16.37500 25.43800
C  47.32900 15.97900 24.09400
C  45.91300 15.61500 24.49400
C  46.04200 15.79500 25.99200
C  47.33000 17.09700 23.05000
C  45.24200 14.28000 24.06900
C  45.69400 13.53600 22.81300
N  45.84200 16.40500 28.95900
C  44.76600 15.95700 28.18900
C  43.58400 15.78100 28.97000
C  43.99600 16.10500 30.30000
C  45.39400 16.49400 30.21300
C  42.19900 15.24400 28.56900
C  43.63600 16.14300 31.68600
O  42.55700 15.90800 32.17300
C  44.87700 16.65300 32.52300
C  44.50700 17.84400 33.36200
O  44.70600 19.00600 33.07000
O  43.80100 17.41900 34.46500
C  43.26600 18.39000 35.33400
H  51.10400 19.02400 30.49500
H  49.73200 17.00600 24.49400
H  43.95800 15.61300 26.15700
H  47.28600 18.94600 33.30000
H  49.99700 17.86600 32.70600
H  48.88500 20.58500 33.10300
H  50.16000 20.49900 31.83500
H  50.45500 19.88400 33.45800
H  48.62600 16.17300 33.72200
H  47.00200 16.75200 34.43000
H  49.76600 17.86300 35.08500
H  48.56800 16.95900 36.08300
H  53.73200 18.83200 28.33400
H  52.58900 19.86900 29.23900
H  52.87600 20.22100 27.62400
H  53.75300 19.47400 25.63000
H  54.11800 18.14100 24.42600
H  54.25700 17.75500 26.10200
H  47.87200 15.18800 23.57700
H  45.25200 16.42700 24.19100
H  48.38900 17.18900 22.80800
H  46.93500 18.05700 23.38300
H  46.85200 16.67000 22.16800
H  44.15900 14.24200 23.95100
H  45.51800 13.64400 24.91000
H  46.25900 14.22700 22.18900
H  44.88100 13.36700 22.10700
H  46.14700 12.59200 23.11400
H  41.80900 15.81500 27.72500
H  41.45500 15.33700 29.35900
H  42.37900 14.18000 28.41800
H  45.09500 15.82800 33.20200
H  43.10500 19.41500 34.99900
H  43.79300 18.30300 36.28400
H  42.29400 17.94600 35.55200

