158

Mg 46.42600 34.34700 28.18000
C  44.87000 32.30100 30.45500
C  46.42900 36.93100 30.30300
C  47.35300 36.52500 25.58800
C  46.08200 31.91300 25.71800
N  45.79900 34.49200 30.14300
C  45.33100 33.53800 30.98000
C  45.25600 33.95800 32.44000
C  45.60400 35.53600 32.33800
C  45.89200 35.70000 30.82100
C  44.66500 36.55600 32.90800
C  46.39100 33.25300 33.34200
C  46.21800 33.35000 34.86000
H  45.23800 34.27500 35.56600
N  47.06200 36.38700 28.09400
C  46.94500 37.27800 29.09400
C  47.37800 38.59000 28.69100
C  47.75200 38.54200 27.30400
C  47.39400 37.08600 26.93100
C  47.38400 39.88000 29.56100
C  48.39100 39.59900 26.33500
O  48.83100 39.30400 25.23300
C  48.71100 41.01200 26.76000
N  46.83300 34.16100 26.04500
C  47.02000 35.24900 25.18100
C  47.10000 34.90900 23.74200
C  46.84600 33.35500 23.80600
C  46.52900 33.10300 25.34200
C  46.24600 35.72200 22.78200
C  47.98000 32.47500 23.24900
C  49.24100 32.38100 24.17500
N  45.68000 32.46000 28.06000
C  45.56700 31.58800 26.95000
C  44.89800 30.34700 27.40300
C  44.49200 30.63000 28.73600
C  45.08600 31.88600 29.11100
C  44.62900 29.07800 26.51900
C  43.84200 30.09400 29.83600
O  43.26800 29.07200 30.02900
C  43.87600 31.28600 30.94700
C  44.09600 30.91300 32.42900
O  45.00800 30.27500 32.87000
O  42.96200 31.34700 33.12800
C  43.03900 31.08300 34.57900
H  46.53200 37.71500 31.05700
H  47.46200 37.32300 24.85100
H  45.88800 31.18600 24.92700
H  44.28200 33.74300 32.87900
H  46.53500 35.70300 32.87900
H  44.40800 37.36200 32.21900
H  45.00400 36.91700 33.87900
H  43.77900 35.94400 33.07500
H  47.32700 33.77900 33.15600
H  46.48900 32.20600 33.05700
H  47.23400 33.63900 35.13100
H  45.85800 32.35200 35.11000
H  48.37100 40.32300 29.42500
H  47.18800 39.65400 30.60900
H  46.69000 40.64700 29.21800
H  47.81100 41.31800 27.29400
H  48.83800 41.67100 25.90200
H  49.67300 41.00100 27.27300
H  48.07700 34.94100 23.26000
H  45.90800 33.06600 23.33200
H  46.81400 36.54100 22.34000
H  45.29100 36.02600 23.21100
H  46.09200 35.00200 21.97900
H  48.25300 32.90600 22.28500
H  47.60900 31.46200 23.09700
H  50.15400 32.79200 23.74400
H  49.55600 31.38700 24.49300
H  49.05600 32.92500 25.10100
H  45.60400 28.82000 26.10400
H  44.01400 29.45200 25.70000
H  44.31900 28.23400 27.13500
H  42.96200 31.86000 30.79300
H  42.37400 31.82400 35.02400
H  44.03000 31.25800 34.99700
H  42.78200 30.09400 34.95900
Mg -9.14500 18.42800 42.79100
C  -5.59300 18.18600 42.94200
C  -8.77300 21.73500 42.30000
C  -12.46800 18.49200 42.05500
C  -9.26100 14.88800 42.72000
N  -7.28800 19.77800 42.55100
C  -5.95200 19.46500 42.65600
C  -5.05600 20.72400 42.67200
C  -6.08800 21.82100 42.64900
C  -7.45500 21.08800 42.39600
C  -5.95500 22.75000 43.90900
C  -4.08200 20.82100 41.47400
C  -4.67600 20.13600 40.26400
H  -4.03300 20.13700 38.82800
N  -10.46200 20.01200 42.33800
C  -10.14700 21.27400 42.16200
C  -11.33500 21.98500 41.83300
C  -12.43900 21.08600 41.74300
C  -11.82400 19.81900 42.13100
C  -11.26900 23.45300 41.52900
C  -13.82600 21.34600 41.35200
O  -14.16600 22.46400 41.01300
C  -14.92500 20.33700 41.38500
N  -10.59200 16.91200 42.17200
C  -11.91100 17.21500 42.11600
C  -12.83000 16.02000 42.26900
C  -11.71900 14.84200 42.31500
C  -10.40900 15.58700 42.32400
C  -13.86700 16.06300 43.42300
C  -11.60400 13.70600 41.20000
C  -12.84800 12.71600 41.10600
N  -7.73600 16.83400 42.89500
C  -7.95900 15.47400 42.92100
C  -6.66900 14.78100 43.17800
C  -5.73000 15.80800 43.27500
C  -6.46600 17.02300 43.07900
C  -6.41100 13.28300 43.03900
C  -4.31000 16.10000 43.41700
O  -3.34400 15.40400 43.67700
C  -4.16100 17.69500 43.30600
C  -3.85200 18.21600 44.68800
O  -4.52100 18.15900 45.70000
O  -2.51100 18.65000 44.77700
C  -2.08500 18.85800 46.17300
H  -8.68300 22.80900 42.12400
H  -13.53600 18.33700 41.88900
H  -9.37500 13.80400 42.66300
H  -4.46100 20.67900 43.58400
H  -5.92900 22.59000 41.89300
H  -5.42200 23.64300 43.58400
H  -5.58100 22.11100 44.70900
H  -6.97300 22.97400 44.22700
H  -3.13700 20.29900 41.62400
H  -3.88900 21.86000 41.20400
H  -5.73400 20.38900 40.19700
H  -4.61800 19.06500 40.45600
H  -11.90900 24.03800 42.19000
H  -11.58800 23.44800 40.48700
H  -10.27400 23.89200 41.45600
H  -15.09700 19.93800 42.38500
H  -14.74700 19.53400 40.67000
H  -15.82900 20.89900 41.14700
H  -13.37300 16.02200 41.32400
H  -11.84200 14.34000 43.27500
H  -14.34700 15.08500 43.40300
H  -14.61200 16.84600 43.28600
H  -13.28300 16.33700 44.30200
H  -10.77400 13.01600 41.35300
H  -11.49900 14.14800 40.20900
H  -12.75400 11.88700 41.80800
H  -12.92800 12.35000 40.08200
H  -13.74900 13.29700 41.30000
H  -5.72800 12.92200 43.80800
H  -6.07500 13.05200 42.02900
H  -7.40200 12.82900 43.04800
H  -3.31500 17.97400 42.67700
H  -2.59500 19.68400 46.66800
H  -1.02100 19.08600 46.24000
H  -2.13500 17.92200 46.73000

