158

Mg 42.66600 41.76500 25.89000
C  41.72400 44.09400 28.15300
C  43.45800 39.52100 28.41100
C  43.43900 39.34600 23.57000
C  42.17700 44.02400 23.15100
N  42.52100 41.81100 28.01600
C  42.03000 42.84200 28.77400
C  42.19500 42.53200 30.31800
C  43.11800 41.19300 30.22700
C  43.00300 40.83500 28.75700
C  44.57400 41.47400 30.72700
C  40.82800 42.34700 30.93600
C  40.81900 41.82600 32.41700
H  40.18000 42.75600 33.44900
N  43.52800 39.69300 25.93100
C  43.58500 38.94400 27.07800
C  44.01200 37.61000 26.73800
C  43.94900 37.53200 25.29700
C  43.65900 38.89800 24.86600
C  44.54100 36.58100 27.80600
C  44.05100 36.35600 24.34000
O  43.98400 36.32500 23.10600
C  44.21300 35.01600 25.01300
N  42.87500 41.69900 23.70600
C  43.13800 40.58900 22.95700
C  43.16200 40.93300 21.44100
C  42.43000 42.26200 21.34200
C  42.51200 42.70200 22.83600
C  44.46300 40.66200 20.65300
C  41.00600 42.08300 20.88100
C  39.83100 41.77200 21.81300
N  42.02500 43.70200 25.61900
C  41.89300 44.53700 24.49100
C  41.39000 45.75500 24.98700
C  41.32500 45.70600 26.38100
C  41.68300 44.41100 26.73800
C  40.98400 46.90300 24.16500
C  41.04000 46.37500 27.65000
O  40.73800 47.49600 27.90400
C  41.31000 45.35900 28.77500
C  42.17200 45.88300 29.81300
O  43.16000 46.59200 29.65000
O  41.59700 45.78800 31.05800
C  42.59300 46.01000 32.16700
H  43.65000 38.84000 29.24300
H  43.57100 38.58800 22.79500
H  42.04900 44.86400 22.46500
H  42.77100 43.39100 30.65900
H  42.68200 40.40100 30.83600
H  44.78200 40.61400 31.36400
H  44.66300 42.39900 31.29600
H  45.28700 41.41400 29.90500
H  40.32200 41.49200 30.48900
H  40.16800 43.16100 30.63500
H  41.84500 41.61300 32.72100
H  40.28000 40.87900 32.44500
H  44.99300 37.18800 28.59100
H  45.22900 35.82100 27.43900
H  43.63000 36.09500 28.15600
H  45.21600 34.69700 25.29600
H  43.83400 34.17200 24.43800
H  43.66800 35.05100 25.95600
H  42.44800 40.17800 21.11100
H  42.95100 42.95100 20.67600
H  45.16600 40.22200 21.36000
H  44.94400 41.58100 20.31800
H  44.27500 39.94500 19.85400
H  40.94500 41.40500 20.03000
H  40.68900 42.98200 20.35400
H  39.49900 40.73600 21.75100
H  38.95900 42.39800 21.62500
H  40.08600 41.87400 22.86800
H  41.88600 47.49500 24.01500
H  40.27600 47.46100 24.77900
H  40.45200 46.60200 23.26200
H  40.33400 45.07700 29.17100
H  42.23000 45.81300 33.17600
H  42.95200 47.03600 32.09300
H  43.50200 45.41100 32.11400
Mg -2.19400 35.66400 27.21500
C  -3.54900 33.45800 29.51400
C  -0.62700 37.30900 29.64200
C  -1.11100 37.77900 24.85000
C  -3.99400 33.84600 24.71000
N  -2.29800 35.55900 29.34000
C  -2.79700 34.50000 30.09200
C  -2.59500 34.65600 31.59300
C  -1.64300 35.95000 31.61200
C  -1.60700 36.38900 30.18100
C  -2.01700 37.10700 32.69800
C  -1.89500 33.39100 32.20700
C  -2.63600 32.76100 33.40800
H  -1.75100 32.75700 34.67100
N  -1.03400 37.30400 27.20100
C  -0.42700 37.79000 28.32200
C  0.50200 38.87000 27.96500
C  0.52500 38.84900 26.57500
C  -0.58500 38.01800 26.16700
C  1.18800 39.63400 29.03500
C  1.26100 39.67900 25.63400
O  1.16800 39.67000 24.44600
C  2.39100 40.58100 26.20600
N  -2.61600 35.81700 25.12400
C  -2.04800 36.83600 24.36300
C  -2.32500 36.68900 22.85600
C  -3.20700 35.42200 22.78300
C  -3.32600 34.98900 24.31300
C  -2.93300 37.92300 22.16100
C  -2.61300 34.26700 21.93300
C  -1.45400 33.47000 22.52200
N  -3.66600 34.14400 27.12300
C  -4.24300 33.47200 26.07100
C  -4.98400 32.30900 26.58900
C  -4.79000 32.26800 27.97200
C  -3.85700 33.37300 28.23300
C  -5.83000 31.51100 25.66600
C  -4.97900 31.52800 29.19800
O  -5.43000 30.39900 29.39300
C  -4.35800 32.41300 30.25900
C  -5.50200 33.00600 31.05000
O  -6.26600 33.88400 30.64900
O  -5.58000 32.31800 32.23400
C  -6.52300 32.83200 33.17400
H  -0.04700 37.69800 30.48200
H  -0.70100 38.40900 24.05800
H  -4.58300 33.33000 23.94900
H  -3.56600 34.78000 32.07200
H  -0.59200 35.70200 31.76400
H  -2.23400 36.71500 33.69100
H  -2.83000 37.68600 32.26000
H  -1.09400 37.67500 32.81200
H  -0.94300 33.76900 32.58200
H  -1.55300 32.57100 31.57600
H  -2.91400 31.71500 33.27400
H  -3.52700 33.35200 33.61900
H  1.10500 39.20400 30.03400
H  0.75100 40.63000 28.97100
H  2.25600 39.81200 28.90600
H  2.86000 41.07800 25.35700
H  3.17700 40.10300 26.78900
H  1.91700 41.25400 26.92100
H  -1.41600 36.32400 22.37800
H  -4.26200 35.52900 22.52900
H  -3.80600 37.73700 21.53500
H  -2.19100 38.47400 21.58400
H  -3.23900 38.63900 22.92300
H  -2.22300 34.62600 20.98100
H  -3.42700 33.59600 21.65900
H  -0.65800 33.26500 21.80700
H  -1.82100 32.53800 22.95200
H  -1.02600 33.99000 23.37900
H  -5.39600 31.38200 24.67400
H  -6.62900 32.19000 25.36700
H  -6.32100 30.64900 26.11600
H  -3.73600 31.79500 30.90600
H  -7.35500 33.41200 32.77500
H  -6.04600 33.41700 33.96000
H  -7.16600 32.04100 33.56100

