158

Mg 2.55700 -1.31400 44.24300
C  6.05200 -1.22500 43.81400
C  2.23200 1.37300 42.21600
C  -0.74200 -1.95500 44.25000
C  3.12000 -4.20300 46.24300
N  4.01600 -0.21900 43.03200
C  5.39800 -0.24900 43.04100
C  5.98200 0.85300 42.25800
C  4.69000 1.92700 42.16500
C  3.53500 1.00900 42.53200
C  4.78900 3.09100 43.18700
C  6.54900 0.54500 40.84200
C  7.68600 1.37000 40.26200
H  7.41700 2.43300 39.18600
N  0.93700 -0.42600 43.33700
C  1.04800 0.67300 42.51900
C  -0.32500 1.03900 42.20700
C  -1.16600 0.11600 42.72400
C  -0.37400 -0.84500 43.47400
C  -0.53700 2.42100 41.50000
C  -2.75200 0.16300 42.62000
O  -3.29600 1.14300 42.05800
C  -3.61300 -0.77800 43.27600
N  1.35500 -2.97200 44.89300
C  -0.01100 -2.81400 44.96400
C  -0.69400 -3.92000 45.75300
C  0.56700 -4.69600 46.35300
C  1.82600 -3.92800 45.81300
C  -1.69900 -3.50100 46.80900
C  0.57200 -6.24300 46.16400
C  1.11000 -7.01600 47.38600
N  4.22000 -2.42000 44.92400
C  4.27300 -3.53200 45.75500
C  5.65000 -3.91900 46.05700
C  6.41400 -2.92500 45.37600
C  5.49800 -2.12900 44.63800
C  6.26900 -5.09400 46.94400
C  7.76700 -2.51400 45.10700
O  8.79900 -2.89700 45.67800
C  7.53300 -1.41500 43.99400
C  8.16900 -0.20300 44.69400
O  8.14200 0.02800 45.88500
O  8.89700 0.60600 43.81600
C  9.36200 1.95300 44.36600
H  2.21200 2.25200 41.56900
H  -1.80700 -1.98400 44.48900
H  3.32900 -5.09500 46.83700
H  6.63200 1.35800 42.97200
H  4.56700 2.31500 41.15400
H  5.28200 3.87900 42.61800
H  5.25200 2.64200 44.06600
H  3.82200 3.46300 43.52600
H  5.73000 0.60000 40.12600
H  6.88100 -0.49300 40.81200
H  8.52200 0.72700 39.98700
H  8.00100 1.87600 41.17400
H  -1.53600 2.79600 41.27500
H  -0.14900 2.33700 40.48500
H  0.00900 3.21500 42.01000
H  -4.58000 -0.65900 42.78700
H  -3.60200 -0.44800 44.31500
H  -3.34500 -1.82300 43.12500
H  -1.27300 -4.50700 45.04000
H  0.46100 -4.35300 47.38300
H  -1.83300 -2.42100 46.75000
H  -1.41400 -3.83200 47.80700
H  -2.66600 -3.97500 46.64000
H  1.24200 -6.50800 45.34600
H  -0.42500 -6.58900 45.89000
H  0.50100 -7.90800 47.53500
H  1.16000 -6.35200 48.24900
H  2.11700 -7.31400 47.09200
H  6.72100 -5.80400 46.25100
H  5.43700 -5.59900 47.43500
H  6.98300 -4.67500 47.65300
H  8.17700 -1.57000 43.12800
H  10.19900 1.75400 45.03500
H  8.58200 2.46700 44.92900
H  9.72700 2.61600 43.58100
Mg 48.19200 15.00900 28.57100
C  45.96800 15.49500 31.27400
C  50.39800 17.25000 30.09200
C  50.08900 14.91900 25.81600
C  45.54900 13.42100 26.83400
N  48.18400 16.36600 30.47600
C  47.23700 16.14600 31.41900
C  47.70900 16.72900 32.77400
C  48.98900 17.59100 32.30100
C  49.22900 17.08200 30.90200
C  48.97300 19.12700 32.47000
C  48.00900 15.70400 33.85700
C  47.34600 15.85400 35.26200
H  47.36400 17.28200 35.86000
N  49.96500 15.91400 27.98300
C  50.70900 16.76900 28.75400
C  51.94500 17.11200 27.97900
C  51.82500 16.48000 26.71000
C  50.61900 15.73300 26.78400
C  52.97100 18.09200 28.54800
C  52.86200 16.56000 25.51100
O  52.66200 15.96300 24.45500
C  54.13300 17.40300 25.67200
N  47.84900 14.39400 26.54600
C  48.85600 14.27000 25.66600
C  48.43500 13.68800 24.27900
C  46.98300 13.18200 24.70600
C  46.75300 13.71100 26.09900
C  48.43100 14.69000 23.12100
C  47.02400 11.60400 24.64800
C  47.45500 10.81300 25.86700
N  46.15800 14.52300 28.91900
C  45.26000 13.82200 28.17900
C  44.11400 13.50300 29.01600
C  44.38700 14.04100 30.28200
C  45.62300 14.72400 30.13100
C  42.94000 12.77900 28.42400
C  43.85800 14.19600 31.71000
O  42.85800 13.71100 32.23800
C  44.89100 15.14800 32.35000
C  44.09200 16.26700 32.99500
O  43.59300 17.17800 32.40900
O  44.06800 16.07500 34.38000
C  43.39800 17.05100 35.20300
H  51.09500 17.90000 30.62500
H  50.78000 14.78900 24.98100
H  44.87000 12.77600 26.27300
H  46.94800 17.41300 33.15000
H  49.87400 17.26800 32.85000
H  48.71600 19.53100 31.49000
H  49.92000 19.53200 32.82600
H  48.12500 19.36400 33.11300
H  49.07400 15.50200 33.97500
H  47.67400 14.73800 33.47800
H  47.97400 15.14400 35.80100
H  46.31300 15.51500 35.19400
H  53.81800 17.41400 28.65400
H  52.72700 18.57500 29.49400
H  53.13800 18.81600 27.75100
H  53.89700 18.45600 25.51900
H  54.85000 17.11600 24.90400
H  54.45000 17.17000 26.68900
H  49.10000 12.87100 24.00000
H  46.23800 13.50400 23.97900
H  47.93800 14.38300 22.19900
H  49.44600 14.90700 22.78600
H  47.85500 15.56900 23.41100
H  47.65500 11.18100 23.86600
H  45.99900 11.28000 24.46800
H  48.00500 9.94000 25.51500
H  46.57300 10.50000 26.42600
H  48.09700 11.43400 26.49300
H  42.10000 13.26700 27.93000
H  42.56400 12.21000 29.27400
H  43.33000 12.03200 27.73100
H  45.42400 14.67800 33.17600
H  43.45600 18.05900 34.79400
H  43.98100 16.98300 36.12100
H  42.34200 16.78400 35.20600

