158

Mg 9.26200 4.20700 27.67600
C  10.66300 2.69100 30.64700
C  7.74000 6.51700 29.77600
C  7.93200 5.42600 24.94400
C  10.90800 1.72700 25.81000
N  9.25600 4.53300 29.92600
C  9.92500 3.85600 30.86800
C  9.61700 4.46300 32.24400
C  8.73200 5.62800 31.99000
C  8.54800 5.56100 30.46100
C  7.37400 5.79500 32.73000
C  10.83200 4.94500 33.21600
C  10.79700 4.35900 34.65900
H  11.41000 5.17800 35.85300
N  7.98500 5.74600 27.36700
C  7.45400 6.60700 28.35800
C  6.62500 7.58200 27.71800
C  6.70500 7.25100 26.32000
C  7.61000 6.13300 26.12100
C  5.84300 8.63600 28.50200
C  5.87800 7.95000 25.22000
O  5.90300 7.63100 24.04300
C  4.94000 8.96900 25.62200
N  9.42300 3.59600 25.70700
C  8.74800 4.31800 24.73200
C  9.03500 3.82200 23.34600
C  10.18400 2.81300 23.62800
C  10.12600 2.66300 25.14700
C  7.85100 3.02700 22.69700
C  11.58700 3.47100 23.37700
C  12.10100 3.20700 21.92700
N  10.35900 2.44600 28.15600
C  10.99900 1.65400 27.25800
C  11.71500 0.62100 28.01100
C  11.64900 1.04000 29.37500
C  10.83500 2.16400 29.36500
C  12.47600 -0.58500 27.40500
C  12.03700 0.71000 30.68700
O  12.57900 -0.27400 31.14000
C  11.45000 1.80000 31.59900
C  10.74200 1.17700 32.69100
O  9.52300 0.94500 32.58500
O  11.46100 0.99200 33.83400
C  10.71400 0.38900 34.94700
H  7.22700 7.20200 30.45500
H  7.60800 5.91800 24.02400
H  11.47000 0.98400 25.23900
H  9.11100 3.74400 32.88800
H  9.39900 6.48300 32.10400
H  7.21100 5.01100 33.47000
H  6.51900 5.93700 32.06900
H  7.42100 6.67500 33.37100
H  10.82400 6.02700 33.34800
H  11.72300 4.52800 32.74800
H  11.36800 3.43100 34.66700
H  9.80500 4.12200 35.04500
H  6.02700 9.60600 28.04100
H  6.25700 8.74800 29.50400
H  4.77600 8.42600 28.42500
H  5.48200 9.82600 26.02000
H  4.24900 8.41300 26.25600
H  4.33300 9.28100 24.77200
H  9.31400 4.62000 22.65600
H  10.13000 1.86800 23.08800
H  7.40200 3.64700 21.92100
H  7.06800 2.99800 23.45500
H  8.05600 2.02100 22.33000
H  12.32400 2.99900 24.02600
H  11.71200 4.52300 23.63300
H  12.98000 2.56500 21.96900
H  12.46900 4.10000 21.42200
H  11.35000 2.71200 21.31100
H  12.48200 -1.42900 28.09400
H  13.52600 -0.30700 27.32200
H  12.09300 -0.78200 26.40300
H  12.32900 2.38200 31.87400
H  10.22100 -0.54100 34.66400
H  10.06800 1.14800 35.39000
H  11.38700 0.16400 35.77400
Mg 35.66500 48.64500 24.73200
C  35.83400 47.12400 27.90500
C  34.47500 51.47900 26.28400
C  35.48300 50.11000 21.71500
C  36.31300 45.61300 23.24300
N  35.04100 49.18700 26.77400
C  35.35600 48.47200 27.92900
C  35.14600 49.29300 29.20100
C  34.52500 50.68400 28.68100
C  34.57900 50.42700 27.15200
C  33.11500 51.04200 29.19000
C  36.48700 49.52200 29.98900
C  36.52500 49.33500 31.45800
H  35.22800 49.12400 32.26100
N  35.06700 50.57600 24.07600
C  34.63400 51.58300 24.89400
C  34.50300 52.81000 24.11800
C  34.65100 52.43600 22.71100
C  35.04300 50.97700 22.76100
C  34.24900 54.15700 24.72600
C  34.52200 53.20800 21.43100
O  34.85600 52.73100 20.31500
C  34.03400 54.62700 21.49000
N  35.82000 47.94800 22.76900
C  35.78900 48.74800 21.68100
C  36.11200 48.06800 20.38500
C  36.62700 46.67000 20.93000
C  36.22700 46.73000 22.41800
C  34.83000 47.90600 19.49000
C  38.11700 46.41500 20.75200
C  39.19500 47.52500 20.88900
N  35.88700 46.70500 25.41100
C  36.22400 45.56600 24.72200
C  36.41300 44.45000 25.62000
C  36.23000 44.98200 26.90700
C  35.97700 46.38500 26.74700
C  36.86000 43.01400 25.31600
C  36.17700 44.69600 28.35600
O  36.25500 43.62500 29.01600
C  35.98500 46.14200 29.08400
C  34.77800 45.97600 30.00500
O  33.65800 46.32000 29.72700
O  35.11400 45.19400 31.05700
C  33.95300 44.59800 31.74300
H  34.22200 52.41200 26.79400
H  35.49300 50.52500 20.70500
H  36.59700 44.68400 22.74400
H  34.33600 48.95500 29.84700
H  35.20900 51.52000 28.82800
H  33.27300 52.01400 29.65800
H  32.72600 50.34600 29.93300
H  32.37700 51.31000 28.43300
H  36.62800 50.59900 29.89900
H  37.31400 48.97100 29.54200
H  37.06500 50.19400 31.85900
H  37.10000 48.41100 31.51400
H  34.53600 54.99800 24.09500
H  34.53400 54.22500 25.77600
H  33.16100 54.11500 24.67500
H  33.61500 54.87500 20.51500
H  34.91400 55.23400 21.70400
H  33.23300 54.59800 22.22900
H  36.79100 48.63500 19.74700
H  36.14300 45.90200 20.32700
H  34.26200 48.83000 19.60000
H  34.26800 47.04000 19.84000
H  35.16700 47.92600 18.45400
H  38.29500 45.99000 19.76400
H  38.49200 45.57000 21.33000
H  39.46300 47.35400 21.93200
H  39.00400 48.57000 20.64400
H  40.15500 47.39100 20.39000
H  37.86200 42.79700 25.68500
H  36.86300 42.76100 24.25500
H  36.13600 42.32300 25.74700
H  36.91900 46.33500 29.61200
H  33.30300 43.94700 31.15700
H  33.32500 45.28600 32.30900
H  34.45200 44.05500 32.54600

