158

Mg 44.55800 5.04900 47.50300
C  42.42800 7.58000 46.58200
C  41.93400 2.75800 46.82800
C  46.80000 2.51300 47.48300
C  47.15600 7.37100 47.71300
N  42.48100 5.18400 46.52000
C  41.81400 6.39100 46.34100
C  40.35600 6.04600 45.88200
C  40.12300 4.55600 46.39700
C  41.58800 4.12200 46.60300
C  39.21600 4.47000 47.71500
C  40.26000 6.26100 44.35600
C  39.13300 7.31100 43.91900
H  39.50100 8.15400 42.73500
N  44.37000 2.95500 47.21300
C  43.23200 2.24000 46.97700
C  43.52000 0.82500 46.99900
C  44.90900 0.70300 47.20800
C  45.44500 2.11400 47.28800
C  42.55000 -0.19500 46.84500
C  45.62000 -0.63100 47.35600
O  45.05900 -1.69000 47.16000
C  47.09900 -0.67300 47.81300
N  46.73500 4.95800 47.24900
C  47.40900 3.79900 47.49800
C  48.86400 3.99800 47.79600
C  48.93800 5.55400 48.04000
C  47.54600 6.00800 47.60400
C  49.54300 3.13300 48.95700
C  50.14500 6.28800 47.49200
C  51.28500 6.47700 48.57300
N  44.79100 7.06300 47.21100
C  45.90500 7.86300 47.42900
C  45.47200 9.27100 47.34500
C  44.12000 9.20900 47.02700
C  43.78500 7.82500 46.90600
C  46.42400 10.43600 47.39000
C  43.00900 9.94700 46.68100
O  42.87200 11.14100 46.42900
C  41.81500 8.97200 46.49900
C  40.86700 9.32200 47.61500
O  40.86700 8.83500 48.74700
O  39.91600 10.22400 47.12100
C  38.70700 10.51000 47.91800
H  41.04300 2.12600 46.81200
H  47.53100 1.70300 47.53600
H  47.93400 8.08100 48.00300
H  39.75200 6.74300 46.46300
H  39.65600 3.86300 45.69800
H  38.67400 5.34600 48.07200
H  39.81500 4.33500 48.61500
H  38.45500 3.70800 47.54500
H  40.05000 5.26500 43.96800
H  41.20200 6.62400 43.94300
H  38.81300 7.84800 44.81200
H  38.32000 6.67000 43.57900
H  41.72400 0.11400 46.20400
H  42.23900 -0.71800 47.75000
H  42.92900 -0.91900 46.12400
H  47.41300 -1.71200 47.71100
H  47.25200 -0.20000 48.78300
H  47.80800 -0.23700 47.10900
H  49.41700 3.66900 46.91700
H  48.84400 5.62000 49.12300
H  50.54300 3.48800 49.20700
H  49.73600 2.09900 48.67100
H  48.99500 3.19000 49.89800
H  49.87000 7.28000 47.13300
H  50.51100 5.73100 46.63000
H  51.10500 5.82700 49.43000
H  51.25100 7.51900 48.89000
H  52.30100 6.36600 48.19500
H  47.25900 10.28700 46.70600
H  46.77000 10.68100 48.39400
H  46.00000 11.36900 47.02000
H  41.28700 9.11500 45.55700
H  37.90200 10.06600 47.33400
H  38.56900 11.58300 48.05800
H  38.64200 10.03000 48.89500
Mg 52.60400 25.10000 44.93300
C  50.07700 27.27100 43.90600
C  51.04600 22.46700 43.40800
C  55.58800 23.38800 44.58000
C  54.36900 27.87800 46.15700
N  50.69500 24.94000 43.87800
C  49.82400 25.92100 43.56100
C  48.69300 25.33300 42.63800
C  48.80600 23.82700 42.99200
C  50.29600 23.69500 43.47300
C  47.76700 23.22100 44.02400
C  49.05200 25.78900 41.22100
C  47.85700 25.89200 40.29900
H  48.27300 26.30100 38.88000
N  53.20700 23.10100 44.37800
C  52.39400 22.14300 43.79800
C  53.18800 20.91200 43.66100
C  54.51100 21.23500 43.98700
C  54.47200 22.62800 44.37800
C  52.61900 19.66600 43.08800
C  55.71800 20.21900 43.96800
O  55.49500 19.01100 43.82900
C  57.15000 20.57700 44.21800
N  54.73400 25.58000 45.29900
C  55.71100 24.68900 45.14500
C  57.00500 25.22800 45.75900
C  56.64800 26.72000 46.22300
C  55.15800 26.70800 45.98200
C  57.64900 24.38400 46.90300
C  57.37400 27.81500 45.36600
C  57.32400 29.17500 45.88700
N  52.33200 27.20000 44.95900
C  53.04200 28.14200 45.67100
C  52.31400 29.39400 45.69600
C  51.17500 29.10200 44.94400
C  51.22100 27.76100 44.52100
C  52.69700 30.66300 46.34800
C  49.97100 29.62100 44.52700
O  49.55900 30.75200 44.71100
C  49.17500 28.56700 43.74600
C  48.94800 29.07200 42.33700
O  49.73800 29.24300 41.39300
O  47.58200 29.29900 42.29200
C  47.12400 29.79000 41.02700
H  50.57700 21.54900 43.04800
H  56.60000 22.97800 44.59700
H  54.94300 28.69400 46.60000
H  47.66100 25.67000 42.73200
H  48.71200 23.24900 42.07200
H  47.27100 24.02600 44.56700
H  48.29800 22.57700 44.72500
H  47.03600 22.70800 43.39900
H  49.75400 25.04400 40.84700
H  49.47800 26.79100 41.27900
H  47.34700 26.76900 40.69600
H  47.19800 25.02500 40.33700
H  51.67800 19.94600 42.61400
H  52.48500 18.94200 43.89200
H  53.22400 19.27000 42.27300
H  57.85200 19.74300 44.24200
H  57.24900 21.03100 45.20400
H  57.38000 21.27600 43.41500
H  57.74200 25.42500 44.98000
H  56.63200 26.99400 47.27800
H  57.59800 24.91300 47.85500
H  58.68200 24.24400 46.58500
H  57.24600 23.38000 47.03400
H  56.91400 27.74500 44.38100
H  58.42200 27.51500 45.38500
H  58.30100 29.64200 46.01100
H  56.92200 29.09200 46.89700
H  56.62700 29.78400 45.31200
H  52.09800 30.80700 47.24800
H  52.46800 31.51100 45.70200
H  53.77800 30.80200 46.37500
H  48.16800 28.44400 44.14500
H  46.23000 30.41400 41.01500
H  46.86800 29.08100 40.23900
H  47.79700 30.60400 40.75700

