158

Mg 46.58100 45.10000 44.43600
C  43.17800 44.68300 43.28100
C  47.22600 41.91500 43.09000
C  49.84100 45.81000 44.40200
C  45.75500 48.35900 44.98300
N  45.30000 43.54900 43.36400
C  43.97100 43.56500 43.05800
C  43.59600 42.36500 42.18800
C  44.75700 41.33900 42.49400
C  45.89600 42.33500 43.00500
C  44.44600 40.22700 43.62200
C  43.47100 42.87700 40.73700
C  42.25800 42.27500 39.90000
H  42.56200 41.56900 38.63900
N  48.32100 43.90200 44.11600
C  48.39500 42.60700 43.54200
C  49.75000 42.11800 43.69400
C  50.55900 43.28000 44.05500
C  49.61800 44.39800 44.18300
C  50.16300 40.63400 43.35100
C  52.07800 43.31900 44.22700
O  52.65800 42.27700 43.99000
C  52.82300 44.52100 44.66000
N  47.60200 46.79100 44.64800
C  48.96500 46.89200 44.67300
C  49.51300 48.31200 45.03200
C  48.18200 49.06600 45.25200
C  47.07400 48.02900 44.92700
C  50.50000 48.44700 46.26000
C  47.98300 50.36200 44.38600
C  47.81700 51.68800 45.13300
N  44.79900 46.31600 44.27300
C  44.56900 47.61500 44.67200
C  43.20500 48.00100 44.49100
C  42.60900 46.90800 43.89900
C  43.58700 45.92100 43.83000
C  42.70300 49.45200 44.63300
C  41.37200 46.32600 43.36300
O  40.28600 46.86000 43.20000
C  41.67200 44.82800 43.14500
C  40.99200 43.99800 44.15300
O  40.50500 42.93500 43.93500
O  41.27600 44.52100 45.36000
C  40.94700 43.64500 46.47900
H  47.27500 40.89800 42.69600
H  50.92000 45.96900 44.34200
H  45.39300 49.32700 45.33400
H  42.64500 41.91400 42.47400
H  45.05600 40.91000 41.53700
H  44.22500 39.37200 42.98300
H  43.55800 40.42300 44.22200
H  45.29000 40.09900 44.29900
H  44.35500 42.67100 40.13500
H  43.28400 43.94200 40.59700
H  41.72100 43.18000 39.61400
H  41.65600 41.54500 40.44100
H  50.86900 40.16700 44.03900
H  50.54000 40.59000 42.32900
H  49.34400 39.92500 43.46800
H  52.95600 45.16800 43.79300
H  53.75400 44.09500 45.03500
H  52.31400 44.98300 45.50500
H  50.02000 48.58600 44.10600
H  48.06400 49.37800 46.29000
H  51.02400 47.49300 46.31200
H  49.96700 48.50400 47.20900
H  51.25800 49.22200 46.14200
H  47.13400 50.24700 43.71300
H  48.78400 50.37800 43.64700
H  48.62200 52.37100 44.86500
H  47.86000 51.51200 46.20800
H  46.87100 52.17900 44.90400
H  43.07000 50.06500 45.45600
H  41.61600 49.41200 44.70900
H  42.99900 49.84000 43.65900
H  41.25200 44.57700 42.17100
H  41.48500 43.99200 47.36100
H  41.36600 42.63900 46.44200
H  39.87800 43.55400 46.67400
Mg 35.14600 49.90500 25.46600
C  35.04900 48.16300 28.53300
C  33.80800 52.59200 27.19500
C  35.04700 51.51300 22.63000
C  36.61900 47.10200 23.92500
N  34.65200 50.38100 27.67000
C  34.70500 49.49000 28.68300
C  34.48900 50.33500 30.04600
C  33.91800 51.70000 29.58500
C  34.05100 51.56000 28.06500
C  32.48800 52.00700 30.07200
C  35.71500 50.36700 31.02300
C  35.41900 49.87000 32.45000
H  34.01500 49.92700 33.07200
N  34.40800 51.74500 25.00000
C  33.96600 52.72400 25.79600
C  33.59000 53.92500 25.07200
C  33.86600 53.53100 23.71600
C  34.51100 52.24200 23.72900
C  32.87600 55.21000 25.69800
C  33.50600 54.25300 22.37300
O  33.68800 53.80600 21.25100
C  32.91200 55.55700 22.41400
N  35.61300 49.37900 23.50400
C  35.55000 50.19700 22.54100
C  35.91900 49.56600 21.19600
C  36.73800 48.29300 21.71200
C  36.30900 48.25700 23.12300
C  34.61900 49.11900 20.50400
C  38.23800 48.37600 21.57200
C  38.92300 49.79300 21.76600
N  35.62600 48.00900 26.03100
C  36.26600 47.01500 25.35500
C  36.55600 45.91000 26.24200
C  35.98100 46.26400 27.50400
C  35.50600 47.60100 27.34500
C  37.16200 44.63100 25.84600
C  35.85700 45.83600 28.85700
O  36.18800 44.76100 29.45300
C  35.13400 47.12000 29.57300
C  33.81900 46.72400 30.13000
O  32.77500 46.71800 29.52500
O  33.92800 46.30600 31.44300
C  32.82800 45.80100 32.31300
H  33.34100 53.43500 27.70800
H  35.11500 52.14100 21.74000
H  37.09400 46.23400 23.46300
H  33.68700 49.75500 30.50200
H  34.63400 52.50200 29.76700
H  32.36600 52.75700 30.85400
H  32.02700 51.07700 30.40400
H  31.88000 52.38100 29.24800
H  36.07800 51.39200 31.09900
H  36.51300 49.70100 30.69300
H  36.08900 50.36100 33.15500
H  35.56300 48.79100 32.39700
H  33.43100 55.71500 26.48800
H  31.89600 54.88500 26.04700
H  32.89300 55.97900 24.92500
H  32.09500 55.57900 23.13500
H  32.44100 55.75400 21.45100
H  33.67200 56.32700 22.54700
H  36.45300 50.23400 20.52000
H  36.44300 47.31500 21.33200
H  33.74500 48.84900 21.09700
H  34.75300 48.22400 19.89700
H  34.47200 49.87400 19.73200
H  38.65500 47.93000 20.66900
H  38.68900 47.81100 22.38800
H  39.80200 49.69700 22.40400
H  38.26200 50.58700 22.11400
H  39.35500 50.06300 20.80300
H  37.48900 44.00600 26.67700
H  37.94900 44.80400 25.11200
H  36.34500 44.09500 25.36200
H  35.88100 47.38200 30.32300
H  31.87600 46.20800 31.97300
H  33.01900 46.10500 33.34200
H  32.71500 44.71800 32.34600

