158

Mg 35.47800 48.13200 24.78300
C  36.28000 46.55800 27.87200
C  34.48300 50.91400 26.57700
C  34.41600 49.46500 21.88200
C  36.65400 45.29100 23.20700
N  35.36100 48.63300 27.05600
C  35.74500 47.84700 28.08500
C  35.46700 48.61900 29.37400
C  34.76400 49.95300 29.00300
C  34.88600 49.86600 27.46000
C  33.23400 50.04400 29.40900
C  36.72900 48.88600 30.22700
C  36.73900 48.70500 31.85800
H  35.34800 48.66200 32.50400
N  34.61700 49.95200 24.30100
C  34.33700 51.00200 25.15500
C  33.69200 52.04000 24.47400
C  33.46500 51.61000 23.12700
C  34.20300 50.35300 22.99100
C  33.39300 53.34100 25.10400
C  32.63100 52.23200 22.05400
O  32.45600 51.78400 20.94700
C  31.88500 53.55100 22.37200
N  35.32000 47.42700 22.87200
C  34.98200 48.18400 21.76400
C  35.52200 47.59200 20.48200
C  36.40800 46.40800 20.86200
C  36.21200 46.37100 22.40800
C  34.35100 47.20600 19.48500
C  37.90400 46.30800 20.44800
C  39.09900 46.80700 21.30400
N  36.32300 46.24700 25.35500
C  36.69700 45.17600 24.67900
C  37.11500 44.15300 25.47800
C  36.91200 44.59800 26.83500
C  36.42900 45.91400 26.65600
C  37.73600 42.94500 24.94700
C  37.06300 44.27100 28.23200
O  37.41600 43.25400 28.83300
C  36.44300 45.52300 28.96400
C  35.17200 45.10000 29.59800
O  34.04300 45.34800 29.08300
O  35.42400 44.67900 30.80900
C  34.24800 44.44600 31.62900
H  34.37400 51.85700 27.11700
H  34.10800 49.89600 20.92700
H  37.14500 44.40500 22.79900
H  34.74500 47.96500 29.86400
H  35.22100 50.88700 29.33000
H  33.21400 50.89300 30.09200
H  32.95900 49.15300 29.97400
H  32.65500 50.21000 28.50100
H  37.16300 49.88600 30.19000
H  37.52900 48.22800 29.88900
H  37.22800 49.56700 32.31100
H  37.40400 47.84900 31.97300
H  33.76300 54.13800 24.45900
H  33.85900 53.55800 26.06500
H  32.33500 53.47100 25.32800
H  32.52400 54.42200 22.51600
H  31.27900 53.46800 23.27400
H  31.26600 53.79900 21.50900
H  36.13100 48.37500 20.02900
H  36.01600 45.44100 20.54800
H  34.19400 47.99300 18.74800
H  33.44600 47.14000 20.08800
H  34.67000 46.31900 18.93600
H  37.84100 46.88900 19.52800
H  38.14800 45.29800 20.11700
H  39.59500 47.65300 20.82800
H  39.87700 46.07200 21.51400
H  38.75400 47.25300 22.23700
H  37.86400 42.23900 25.76800
H  38.76300 43.19500 24.68200
H  37.13900 42.62800 24.09200
H  37.08400 45.86900 29.77500
H  33.66600 43.70800 31.07600
H  33.71300 45.39300 31.70200
H  34.47400 44.02700 32.60900
Mg 26.89700 49.71400 26.34600
C  24.69300 51.06100 28.96500
C  28.77600 48.38900 28.61000
C  28.81300 48.71900 23.76400
C  24.97200 51.62000 24.17000
N  26.68400 49.70600 28.51400
C  25.73900 50.24900 29.40600
C  26.09400 49.88600 30.93300
C  27.46700 49.16600 30.69800
C  27.65900 49.03100 29.20900
C  28.67900 49.87300 31.49100
C  25.03600 48.87700 31.46700
C  24.37800 49.35300 32.82400
H  24.74300 48.61500 34.18000
N  28.51600 48.55600 26.15900
C  29.20800 48.12400 27.24200
C  30.35000 47.35100 26.83100
C  30.52200 47.63200 25.44600
C  29.31200 48.36400 25.03300
C  31.31500 46.62300 27.81000
C  31.65700 47.29200 24.57800
O  31.59800 47.62400 23.39200
C  32.84800 46.52400 25.11900
N  26.87500 50.03700 24.23500
C  27.71700 49.53500 23.31400
C  27.37700 49.83000 21.84400
C  26.10700 50.61600 22.11300
C  25.95900 50.77500 23.59500
C  28.47900 50.69200 21.24900
C  24.78900 50.12200 21.46000
C  24.50400 48.67800 21.69700
N  25.09600 50.97600 26.49200
C  24.54500 51.68200 25.50100
C  23.43200 52.44200 26.01500
C  23.49200 52.24400 27.36400
C  24.52500 51.39500 27.62500
C  22.30600 53.23400 25.26800
C  22.81600 52.51200 28.67600
O  21.87800 53.22300 28.93800
C  23.67300 51.84600 29.77200
C  24.22500 52.80500 30.71200
O  25.09800 53.66200 30.55900
O  23.38300 52.74300 31.84900
C  23.71600 53.70100 32.94200
H  29.34600 47.97900 29.44600
H  29.47600 48.56600 22.91000
H  24.41100 52.26000 23.48600
H  26.16800 50.78200 31.54900
H  27.52400 48.17000 31.13800
H  28.26600 50.67000 32.10800
H  29.40400 50.37800 30.85300
H  29.18700 49.21000 32.19200
H  25.48400 47.93700 31.78800
H  24.29400 48.67300 30.69400
H  23.30600 49.48000 32.67100
H  24.81200 50.35300 32.85300
H  32.34600 46.96400 27.72000
H  31.33000 45.57600 27.50700
H  30.88400 46.73500 28.80500
H  33.47600 47.25800 25.62400
H  33.34700 46.14300 24.22800
H  32.55100 45.65000 25.69800
H  27.20700 49.03100 21.12300
H  26.31500 51.66100 21.88400
H  29.24700 50.95000 21.97800
H  28.13300 51.64400 20.84700
H  29.01300 50.20100 20.43600
H  24.79700 50.31700 20.38800
H  23.90200 50.73900 21.60100
H  23.47200 48.58600 22.03500
H  25.20600 48.25800 22.41700
H  24.57700 48.16000 20.74100
H  21.40300 53.23000 25.87900
H  22.04000 52.67700 24.36900
H  22.65400 54.22800 24.98700
H  23.24100 51.08000 30.41700
H  22.83900 53.77200 33.58500
H  23.92000 54.71800 32.60900
H  24.57000 53.43600 33.56600

