158

Mg 40.76300 7.95300 30.08100
C  42.77000 9.29500 32.65700
C  38.41200 7.22200 32.43700
C  39.18300 6.25300 27.75500
C  43.42900 8.46500 27.91000
N  40.78300 8.05200 32.36700
C  41.55300 8.85200 33.11200
C  40.98100 9.15900 34.53700
C  39.64800 8.25500 34.53500
C  39.57000 7.71300 33.04200
C  39.53600 7.09200 35.57800
C  40.73900 10.68800 34.83100
C  39.99200 10.87400 36.15100
H  40.48200 11.91100 37.14100
N  38.98000 6.88100 30.11300
C  38.10400 6.75200 31.12400
C  36.88400 6.12600 30.63700
C  37.04700 5.99300 29.20600
C  38.40000 6.40600 28.94300
C  35.74400 5.79600 31.56500
C  36.09500 5.48000 28.14400
O  36.32700 5.55100 26.94000
C  34.77100 4.88100 28.58200
N  41.25800 7.36000 28.15800
C  40.40300 6.68800 27.36000
C  40.93800 6.46900 25.93700
C  42.21900 7.34200 25.94300
C  42.34100 7.74000 27.44900
C  41.17700 5.03100 25.40300
C  42.07800 8.51000 24.93200
C  41.28700 9.76500 25.40100
N  42.61800 8.88100 30.18000
C  43.62500 9.08900 29.22000
C  44.81100 9.63800 29.79900
C  44.49300 9.85400 31.10500
C  43.17000 9.34000 31.30800
C  46.14200 9.82700 29.16500
C  44.94300 10.46000 32.32300
O  45.95900 11.07900 32.62900
C  43.78300 10.15400 33.33000
C  44.36600 9.50200 34.61400
O  44.94200 8.41100 34.69500
O  44.15400 10.29800 35.65100
C  44.58000 9.76200 36.97900
H  37.56200 7.29700 33.11800
H  38.61500 5.85700 26.91100
H  44.25000 8.38100 27.19500
H  41.73700 8.80500 35.23700
H  38.79900 8.88100 34.80600
H  39.70600 6.18600 34.99600
H  38.54500 7.12300 36.03100
H  40.36200 7.24000 36.27300
H  40.26000 11.23400 34.01800
H  41.67300 11.11200 35.20000
H  39.77900 9.92200 36.63700
H  39.02800 11.34900 35.97000
H  36.10400 5.82500 32.59300
H  35.51500 4.75600 31.33100
H  34.92400 6.49400 31.39400
H  34.21100 4.55200 27.70600
H  34.14800 5.63400 29.06400
H  34.88000 3.99300 29.20400
H  40.26400 6.95300 25.23000
H  43.10400 6.71900 25.81400
H  40.63800 4.29200 25.99700
H  42.23300 4.83200 25.22400
H  40.82000 4.94700 24.37600
H  41.60300 8.12000 24.03100
H  43.12600 8.63600 24.66100
H  41.81700 10.68600 25.15900
H  41.15900 9.75600 26.48400
H  40.26100 9.81000 25.03700
H  46.27000 10.78300 28.65700
H  46.26300 9.09200 28.36800
H  46.91600 9.75500 29.92900
H  43.31900 11.11200 33.56300
H  43.94500 8.90400 37.19800
H  44.32400 10.50300 37.73700
H  45.63600 9.53400 37.12300
Mg -0.65100 44.15800 25.81600
C  1.42200 43.89400 28.65400
C  -3.20500 42.81400 27.90700
C  -2.60600 44.06700 23.16300
C  2.11400 45.16700 23.95000
N  -0.92700 43.66300 28.13300
C  0.04000 43.66800 29.01500
C  -0.39600 43.19500 30.41300
C  -1.83800 42.62000 30.05700
C  -2.01000 43.02200 28.62800
C  -2.07700 41.04100 30.28900
C  -0.40500 44.42000 31.39700
C  -0.07500 44.20100 32.89700
H  -0.22800 42.77200 33.52500
N  -2.63900 43.64100 25.60200
C  -3.48500 43.11000 26.52400
C  -4.73200 42.73500 25.83600
C  -4.59400 42.94800 24.47300
C  -3.22900 43.50700 24.34800
C  -5.96800 42.20600 26.48000
C  -5.54200 42.65800 23.30300
O  -5.19000 42.80400 22.11400
C  -6.86600 42.02000 23.42300
N  -0.30400 44.54400 23.87400
C  -1.31200 44.63600 22.95600
C  -0.79600 45.13700 21.66900
C  0.60800 45.72200 21.98500
C  0.86200 45.13300 23.36300
C  -0.68400 44.09400 20.52900
C  0.50100 47.28800 21.95000
C  1.12200 47.89400 20.76200
N  1.43000 44.45900 26.15500
C  2.41800 44.77700 25.27000
C  3.69900 44.77000 25.97100
C  3.33600 44.38300 27.30600
C  1.94600 44.24100 27.37200
C  5.07600 45.06600 25.44400
C  3.90400 44.16600 28.60000
O  5.08500 44.24200 28.97100
C  2.71100 43.89300 29.53300
C  2.85600 42.57300 30.16500
O  2.83700 41.53400 29.53100
O  3.23900 42.68600 31.46600
C  3.76700 41.46100 32.07700
H  -3.95500 42.26900 28.48500
H  -3.22800 44.31200 22.30000
H  3.00000 45.53300 23.42600
H  0.26100 42.37800 30.71000
H  -2.57600 43.05900 30.72900
H  -2.80000 40.87600 31.08800
H  -1.13000 40.67900 30.69000
H  -2.28100 40.36400 29.45900
H  -1.46000 44.68900 31.43700
H  0.05100 45.30600 30.95400
H  -0.72400 44.90300 33.42000
H  0.94800 44.56400 33.00200
H  -6.72200 42.98800 26.39000
H  -5.73000 41.95400 27.51300
H  -6.44100 41.36100 25.97900
H  -6.85600 41.06000 23.94000
H  -7.03300 41.72000 22.38900
H  -7.68900 42.67400 23.71300
H  -1.43000 45.94200 21.29900
H  1.51300 45.37700 21.48400
H  -0.67800 43.11900 21.01600
H  0.23500 44.26500 19.97000
H  -1.41800 44.17200 19.72700
H  1.10200 47.51600 22.83000
H  -0.46600 47.75600 22.12900
H  2.03200 48.41900 21.05200
H  0.39500 48.51000 20.23100
H  1.39500 47.05800 20.11800
H  5.85300 44.54100 26.00100
H  5.28300 46.13600 25.40600
H  5.11200 44.62900 24.44700
H  2.66800 44.58000 30.37700
H  4.85100 41.49600 31.96600
H  3.41700 40.52100 31.65100
H  3.48400 41.46500 33.12900

