158

Mg 42.87300 4.27100 47.52600
C  40.38400 6.67600 46.96600
C  40.44600 1.86900 47.44100
C  45.18500 1.91400 47.05900
C  45.17300 6.74300 46.32800
N  40.69100 4.30500 47.16300
C  39.84800 5.34600 47.00000
C  38.37700 4.97000 46.74800
C  38.43100 3.43900 47.36800
C  39.96900 3.11800 47.30900
C  37.92900 3.35900 48.80200
C  37.90000 5.10400 45.26600
C  36.91300 6.24200 44.83500
H  37.36700 6.97800 43.59600
N  42.83400 2.15300 47.47500
C  41.75000 1.33800 47.50600
C  42.18500 -0.05300 47.36300
C  43.57400 -0.08300 47.31100
C  43.90800 1.33600 47.22700
C  41.20400 -1.11500 47.28000
C  44.48000 -1.27300 47.24800
O  43.98000 -2.40600 47.37000
C  45.96600 -1.24400 47.12200
N  44.93000 4.36500 46.67000
C  45.67700 3.22900 46.84700
C  47.14200 3.49000 46.37000
C  47.13600 5.09000 46.20800
C  45.68300 5.40900 46.37100
C  48.42200 3.02700 47.08800
C  47.75400 5.67700 44.93100
C  46.98400 5.86300 43.54200
N  42.83400 6.36500 47.09300
C  43.88100 7.24300 46.70300
C  43.34500 8.61200 46.69000
C  41.94000 8.45000 46.73900
C  41.72300 7.06600 47.01200
C  44.13900 9.81700 46.47200
C  40.74200 9.17000 46.78500
O  40.55500 10.39600 46.69000
C  39.64300 8.06600 46.83700
C  38.60500 8.34700 47.86900
O  38.73800 8.28700 49.11800
O  37.48000 8.92200 47.27000
C  36.64200 9.64100 48.24000
H  39.61000 1.17700 47.56200
H  45.91300 1.13500 46.82100
H  45.89700 7.48300 45.98200
H  37.75100 5.62400 47.35600
H  37.90100 2.69500 46.77400
H  37.44500 4.30200 49.05500
H  38.73800 3.11400 49.49000
H  37.23100 2.52200 48.83500
H  37.46700 4.13200 45.03100
H  38.79300 5.19400 44.64600
H  36.68400 7.01000 45.57300
H  35.97600 5.71800 44.64600
H  41.45600 -1.71000 46.40300
H  40.17800 -0.77300 47.14000
H  41.34200 -1.70700 48.18500
H  46.38800 -0.53500 47.83500
H  46.10600 -0.86700 46.10900
H  46.37600 -2.22000 47.38200
H  47.21300 3.14500 45.33800
H  47.67300 5.63100 46.98800
H  49.26700 2.98200 46.40000
H  48.40100 1.98800 47.41700
H  48.71600 3.72000 47.87600
H  48.60100 5.04800 44.65700
H  48.10800 6.67300 45.19900
H  45.93200 5.72900 43.79200
H  47.26100 5.08100 42.83500
H  47.32400 6.79600 43.09200
H  44.90100 9.75800 47.24800
H  43.67700 10.78800 46.65200
H  44.51000 9.85500 45.44700
H  39.11200 7.99100 45.88700
H  36.24300 8.85800 48.88400
H  35.82200 10.17300 47.75600
H  37.09500 10.42400 48.84900
Mg 29.67600 59.49100 40.86700
C  26.67600 58.00100 39.66700
C  31.35800 56.83000 39.38100
C  32.46800 61.23400 41.17200
C  27.71900 62.30800 41.57000
N  29.07200 57.67100 39.63900
C  27.79800 57.27200 39.32000
C  27.76600 55.99600 38.36600
C  29.27700 55.58500 38.35600
C  29.94600 56.74800 39.16900
C  29.57400 54.21000 38.95600
C  27.24700 56.24600 36.87600
C  25.92600 55.54800 36.37300
H  26.06800 54.78200 35.03900
N  31.67700 59.05200 40.48700
C  32.14800 57.86700 39.94900
C  33.57200 57.89300 39.99400
C  33.96800 59.17400 40.47300
C  32.68100 59.90900 40.70400
C  34.38100 56.70200 39.58700
C  35.39300 59.55300 40.63600
O  36.32000 58.81300 40.32200
C  35.72900 60.84800 41.35100
N  30.04700 61.50900 41.32100
C  31.31800 62.03200 41.42000
C  31.26000 63.51000 41.86400
C  29.74500 63.86500 41.86600
C  29.11700 62.48100 41.64500
C  32.05400 63.89900 43.12900
C  29.53200 64.99400 40.81300
C  29.32200 66.40900 41.33500
N  27.57800 60.00000 40.98700
C  26.97700 61.23200 41.23000
C  25.53000 61.01800 41.17300
C  25.35800 59.80300 40.55600
C  26.64000 59.20700 40.43100
C  24.44900 61.99300 41.51100
C  24.39800 58.82000 39.94700
O  23.19700 58.90300 39.84300
C  25.24000 57.66300 39.34800
C  24.69200 56.44800 39.96200
O  24.89900 56.06900 41.08600
O  24.00600 55.79800 38.96900
C  23.49200 54.46000 39.29500
H  31.77800 55.88600 39.03000
H  33.27900 61.95800 41.27200
H  27.18600 63.20700 41.88700
H  27.21100 55.28000 38.97100
H  29.75600 55.56900 37.37700
H  29.89600 54.39800 39.98100
H  30.41700 53.73800 38.45200
H  28.68800 53.57700 38.93200
H  28.05200 56.13100 36.15100
H  27.06600 57.31800 36.80000
H  25.12300 56.27000 36.22200
H  25.61800 54.75500 37.05400
H  35.25700 56.61700 40.23000
H  34.74900 56.84600 38.57100
H  33.93300 55.72600 39.77300
H  36.77400 60.79300 41.65800
H  35.08200 60.68100 42.21200
H  35.57800 61.71400 40.70800
H  31.82900 63.98000 41.06300
H  29.46400 64.28600 42.83100
H  31.55800 64.66900 43.72100
H  32.99400 64.28800 42.73800
H  32.19800 62.97300 43.68500
H  28.76000 64.71100 40.09800
H  30.43100 65.14900 40.21700
H  29.21000 66.31500 42.41600
H  28.44900 66.89400 40.89800
H  30.19100 67.00100 41.04700
H  24.72100 62.93200 41.02900
H  24.46600 62.02500 42.60000
H  23.46200 61.74800 41.11800
H  25.07700 57.62800 38.27100
H  23.70500 53.83800 38.42600
H  22.43300 54.71200 39.35900
H  23.83300 54.03800 40.24000

