158

Mg 43.07700 4.49200 46.98000
C  40.83000 7.26200 46.56700
C  40.43000 2.28400 46.94600
C  45.29400 1.94500 46.51600
C  45.64100 6.74700 45.87400
N  40.95600 4.79700 46.74600
C  40.21300 6.02700 46.66400
C  38.76200 5.74200 46.53500
C  38.64900 4.20900 46.78700
C  40.06500 3.70200 46.91100
C  37.86200 3.72000 48.05100
C  38.01500 6.23300 45.20500
C  38.71700 5.67400 43.96900
H  39.30300 6.78600 42.99800
N  42.89600 2.38200 46.83300
C  41.73600 1.67700 46.87500
C  42.05800 0.23400 46.88900
C  43.50700 0.09800 46.88100
C  43.95800 1.50400 46.78700
C  40.94200 -0.88000 47.00900
C  44.36600 -1.13200 46.91200
O  43.88900 -2.22000 47.13900
C  45.88700 -1.17400 46.63900
N  45.18600 4.40800 46.32700
C  45.85900 3.25700 46.38400
C  47.36600 3.45000 46.00800
C  47.47900 4.98100 45.74200
C  46.01000 5.44500 46.01100
C  48.27400 2.94200 47.13400
C  48.01400 5.33100 44.38300
C  47.22000 5.04800 43.16200
N  43.27200 6.61600 46.54400
C  44.37500 7.34600 46.16900
C  44.03700 8.75600 46.12800
C  42.73700 8.75500 46.30000
C  42.23300 7.44100 46.53600
C  44.96000 9.94700 45.85200
C  41.59200 9.61400 46.48600
O  41.57600 10.82500 46.43500
C  40.29200 8.70000 46.55000
C  39.38600 8.88800 47.68700
O  39.25200 8.11700 48.64500
O  38.51500 9.85100 47.39300
C  37.25300 9.97800 48.01300
H  39.55700 1.62800 46.97300
H  46.07500 1.19700 46.36100
H  46.46700 7.44700 45.72900
H  38.20700 6.18800 47.36000
H  38.11300 3.65400 46.01600
H  38.56500 3.28100 48.76000
H  37.04600 3.06000 47.75800
H  37.61400 4.64100 48.57900
H  37.89500 7.31700 45.20000
H  36.97600 5.90700 45.23400
H  37.92600 5.20800 43.38200
H  39.47900 4.99900 44.35900
H  40.09600 -0.42800 47.52800
H  41.34200 -1.76000 47.51200
H  40.63500 -1.10000 45.98600
H  46.53700 -0.69800 47.37400
H  46.00100 -0.74500 45.64400
H  46.22800 -2.20000 46.50700
H  47.51300 2.89800 45.07900
H  48.08200 5.40900 46.54400
H  49.07800 2.31100 46.75700
H  47.59500 2.32900 47.72700
H  48.81400 3.67900 47.72800
H  48.95700 4.81100 44.20900
H  48.17500 6.40300 44.26800
H  47.68500 4.36800 42.44800
H  47.02200 5.92800 42.55100
H  46.25300 4.72900 43.55200
H  45.34500 10.07400 44.84000
H  45.87900 9.77600 46.41400
H  44.43300 10.85700 46.13800
H  39.72300 8.76500 45.62300
H  36.46800 9.96900 47.25700
H  37.27600 10.89500 48.60100
H  37.04500 9.14500 48.68500
Mg 35.00600 3.07800 30.18000
C  32.69500 3.98300 32.80900
C  37.35300 3.18000 32.45600
C  37.07500 2.62800 27.63100
C  32.29200 3.45300 27.97500
N  34.99400 3.41400 32.37300
C  33.96100 3.60900 33.26100
C  34.41100 3.63900 34.71500
C  35.97000 3.68200 34.54100
C  36.15000 3.45600 33.02900
C  36.76100 4.97100 34.87800
C  33.91200 2.40800 35.46100
C  33.61400 2.56000 36.96200
H  34.34500 3.63900 37.78700
N  36.90400 2.84800 30.03600
C  37.79100 2.81600 31.09400
C  39.11200 2.63300 30.61300
C  39.04600 2.43300 29.19900
C  37.61000 2.58300 28.89000
C  40.25800 2.50900 31.54100
C  40.20200 2.06400 28.16000
O  40.03400 1.91200 26.94000
C  41.61900 1.85000 28.67300
N  34.76900 3.03000 28.07300
C  35.75800 2.79900 27.22100
C  35.25700 2.50900 25.79800
C  33.70100 2.72000 25.88900
C  33.54200 3.09600 27.40400
C  36.02100 3.33100 24.71000
C  32.80700 1.52800 25.50000
C  33.16400 0.15600 26.14700
N  32.99100 3.67100 30.28100
C  31.99800 3.76700 29.34600
C  30.82200 4.29500 29.93500
C  31.06400 4.31000 31.27800
C  32.39300 3.95700 31.47800
C  29.59400 4.57100 29.12900
C  30.35700 4.67500 32.47300
O  29.20700 5.11800 32.68500
C  31.41000 4.40600 33.61100
C  31.53900 5.61900 34.50700
O  31.92500 6.67400 34.13400
O  30.94800 5.36000 35.72000
C  30.65900 6.45100 36.69000
H  38.04300 2.99600 33.28200
H  37.76600 2.42300 26.81100
H  31.49200 3.50000 27.23200
H  34.27400 4.60100 35.21000
H  36.49400 2.97400 35.18400
H  37.76000 4.83500 35.29200
H  36.11800 5.54400 35.54500
H  36.92500 5.56700 33.98000
H  34.60600 1.60600 35.20900
H  32.96500 2.22700 34.95400
H  33.60000 1.62400 37.51900
H  32.56700 2.86200 36.98500
H  40.87100 3.41100 31.53000
H  40.86100 1.66000 31.22000
H  39.86600 2.37300 32.54900
H  42.27800 1.88500 27.80600
H  41.61300 0.85500 29.11800
H  41.93400 2.61200 29.38600
H  35.49800 1.47100 25.56800
H  33.40800 3.52200 25.21200
H  36.65600 4.08900 25.17000
H  35.35900 3.76200 23.95900
H  36.70800 2.59300 24.29700
H  32.89400 1.36600 24.42600
H  31.75000 1.66500 25.72900
H  32.40900 -0.31500 26.77600
H  34.02000 0.36700 26.78700
H  33.44700 -0.58900 25.40400
H  29.55500 3.96300 28.22500
H  29.53700 5.62700 28.86600
H  28.74100 4.37400 29.78000
H  31.05000 3.50800 34.11300
H  31.20700 6.32400 37.62300
H  29.64200 6.45500 37.08100
H  30.79600 7.42700 36.22300

