158

Mg 24.90600 1.40400 29.98500
C  27.10200 1.37200 32.62300
C  22.29100 1.81800 32.20000
C  22.76700 1.14500 27.36400
C  27.61500 0.71300 27.81900
N  24.76900 1.53500 32.16200
C  25.81800 1.56900 33.04900
C  25.33700 1.92100 34.44200
C  23.79100 1.76300 34.34900
C  23.55900 1.73600 32.86000
C  23.12200 0.55900 35.15800
C  25.84900 3.23200 35.09100
C  26.50600 3.11600 36.49200
H  26.19100 4.09000 37.62600
N  22.88200 1.45300 29.81800
C  21.96000 1.57400 30.85600
C  20.60000 1.38800 30.37400
C  20.70500 1.16000 28.98100
C  22.17500 1.20300 28.62600
C  19.47500 1.09800 31.36300
C  19.60400 0.71100 27.99500
O  19.85800 0.37400 26.87200
C  18.22700 0.66700 28.51100
N  25.11300 1.13100 27.90000
C  24.12200 1.16600 26.98100
C  24.63900 1.03500 25.55500
C  26.19800 1.20300 25.73500
C  26.34800 0.95500 27.24500
C  24.19300 -0.19800 24.76600
C  26.69700 2.58300 25.26400
C  28.18500 2.60200 24.90100
N  26.96400 1.07000 30.13900
C  27.94600 0.79600 29.22100
C  29.19400 0.60000 29.85900
C  28.94100 0.82800 31.23900
C  27.57800 1.06000 31.32100
C  30.50400 0.28900 29.20300
C  29.60800 0.88500 32.51800
O  30.78200 0.67300 32.91000
C  28.37900 1.35200 33.50100
C  28.42900 0.37600 34.65500
O  28.21800 -0.82400 34.55000
O  28.84500 1.02900 35.78300
C  28.92900 0.17700 36.93300
H  21.50400 2.26700 32.81000
H  22.08500 0.89700 26.54900
H  28.48000 0.65400 27.15500
H  25.74800 1.12800 35.06600
H  23.31300 2.69900 34.64000
H  23.94000 0.02400 35.64200
H  22.51200 -0.14300 34.59100
H  22.49800 1.02600 35.92000
H  25.05800 3.96700 35.24000
H  26.57000 3.67800 34.40600
H  27.57900 3.24200 36.34900
H  26.44300 2.14300 36.97800
H  18.98200 2.05000 31.56100
H  19.88500 0.77500 32.31900
H  18.75800 0.33700 31.05500
H  17.85900 1.58900 28.96100
H  18.27200 -0.25100 29.09600
H  17.58200 0.48100 27.65200
H  24.09100 1.78400 24.98200
H  26.52900 0.39800 25.07900
H  23.58800 0.06700 23.89900
H  23.59600 -0.83300 25.42200
H  25.10400 -0.75200 24.54200
H  26.52600 3.36000 26.00900
H  26.11500 2.88400 24.39300
H  28.81200 3.19500 25.56700
H  28.25000 2.94800 23.87000
H  28.64900 1.62800 24.73800
H  30.16500 -0.33600 28.37600
H  31.14300 -0.32700 29.83600
H  30.99500 1.17500 28.80200
H  28.61700 2.35100 33.86500
H  28.10000 0.22100 37.64000
H  29.77300 0.38500 37.59100
H  29.01600 -0.90300 36.82000
Mg 45.70400 17.34100 29.17700
C  43.65800 16.90400 31.93300
C  47.61100 19.47400 31.23900
C  47.50900 18.45400 26.37800
C  43.39900 15.86600 27.06000
N  45.55700 18.18800 31.35200
C  44.78400 17.57000 32.31000
C  45.18600 17.97400 33.66300
C  46.27100 19.03900 33.34200
C  46.50600 18.87800 31.87200
C  46.05600 20.46500 33.80300
C  45.55100 16.85000 34.65200
C  46.30100 17.19300 35.84600
H  46.07000 18.57900 36.60200
N  47.30800 18.67300 28.91600
C  47.90100 19.47300 29.90200
C  48.95900 20.16900 29.30900
C  48.95000 20.01000 27.86300
C  47.91600 18.99600 27.65100
C  50.00200 21.01900 30.12400
C  49.77600 20.66200 26.82300
O  49.69300 20.44900 25.62800
C  50.78600 21.71900 27.25300
N  45.60200 17.08900 26.91700
C  46.43400 17.61000 26.07000
C  46.08500 17.19400 24.64500
C  44.87200 16.31900 24.87500
C  44.56800 16.41100 26.36600
C  45.89900 18.34000 23.54000
C  45.02000 14.90900 24.46900
C  45.68800 13.95700 25.49200
N  43.93700 16.54000 29.34600
C  43.13700 15.92000 28.43200
C  41.98300 15.50000 29.12800
C  42.17800 15.74300 30.45600
C  43.36300 16.43800 30.58900
C  40.77500 14.81400 28.61400
C  41.49200 15.66000 31.75100
O  40.39900 15.19500 32.05900
C  42.54000 16.33300 32.75600
C  41.88400 17.29900 33.67700
O  41.14600 18.26400 33.38900
O  42.18400 16.94500 34.93900
C  41.58800 17.76300 36.07000
H  48.12600 20.05600 32.00700
H  47.90200 18.83500 25.43300
H  42.57200 15.39300 26.52700
H  44.29200 18.42500 34.09200
H  47.24800 18.75900 33.73400
H  45.85900 21.07800 32.92400
H  46.94000 20.72900 34.38400
H  45.19700 20.46700 34.47300
H  46.02300 16.08600 34.03200
H  44.61000 16.44500 35.02400
H  47.36700 17.02100 35.70300
H  45.99700 16.42100 36.55300
H  49.84000 22.09500 30.05500
H  51.07900 20.97400 29.96500
H  49.82500 20.84100 31.18500
H  51.28000 22.11100 26.36400
H  51.65700 21.37400 27.81000
H  50.26800 22.59200 27.64800
H  46.84200 16.48800 24.30500
H  44.03400 16.71300 24.30000
H  46.00500 19.35500 23.92100
H  44.87800 18.24900 23.16800
H  46.60800 18.24400 22.71700
H  45.42100 14.83500 23.45800
H  44.05000 14.43200 24.33000
H  44.95800 13.28700 25.94400
H  46.28500 14.35400 26.31300
H  46.31700 13.17900 25.05800
H  40.79500 13.74300 28.81300
H  40.70200 15.08600 27.56100
H  39.90100 15.29500 29.05400
H  43.01200 15.52100 33.30900
H  40.86900 17.08900 36.53400
H  41.12200 18.67500 35.69700
H  42.38500 18.00800 36.77300

