158

Mg 30.46800 58.19700 41.65500
C  27.61400 56.36700 40.26100
C  32.35100 55.55800 40.56600
C  33.04900 60.17400 41.73400
C  28.23600 60.78300 42.16800
N  30.03400 56.31100 40.39700
C  28.79900 55.69800 40.11500
C  28.99300 54.29100 39.53800
C  30.45500 53.98900 40.10500
C  31.02300 55.36000 40.31600
C  30.42300 53.24400 41.45600
C  28.87300 54.24200 37.96700
C  28.11700 53.02900 37.37800
H  27.13900 53.27500 36.20700
N  32.46100 57.89900 41.31100
C  33.07700 56.74600 40.87700
C  34.51100 56.89000 40.91400
C  34.73900 58.24400 41.20800
C  33.39400 58.88200 41.35900
C  35.41300 55.81000 40.54700
C  36.14400 58.94800 41.23400
O  37.19200 58.31900 41.24500
C  36.20600 60.44200 41.22500
N  30.56600 60.13000 41.89500
C  31.83500 60.73700 42.00800
C  31.69400 62.23500 42.28100
C  30.18400 62.40400 42.66000
C  29.58700 61.00200 42.21300
C  32.70200 62.84400 43.29600
C  29.46500 63.63500 42.04700
C  28.46400 64.44700 42.93300
N  28.32000 58.55400 41.39600
C  27.58000 59.68700 41.62700
C  26.25300 59.48500 41.27500
C  26.17000 58.27800 40.69100
C  27.51300 57.69100 40.87100
C  25.02400 60.40800 41.46100
C  25.34800 57.34900 40.02000
O  24.22600 57.34100 39.59400
C  26.22500 56.11800 39.71500
C  25.68500 54.91400 40.36900
O  26.31300 54.24700 41.21300
O  24.40200 54.63700 40.02300
C  23.84200 53.38200 40.65600
H  33.02600 54.69900 40.57500
H  33.82500 60.93300 41.86000
H  27.60900 61.59400 42.54300
H  28.38000 53.59600 40.11100
H  31.04100 53.32800 39.46600
H  29.41100 53.00200 41.78100
H  30.93000 53.80500 42.24100
H  30.89800 52.27000 41.33300
H  29.88100 54.02400 37.61200
H  28.63000 55.24100 37.60600
H  27.65000 52.51100 38.21500
H  28.80400 52.26400 37.01500
H  35.67600 56.03100 39.51300
H  35.00200 54.80200 40.61100
H  36.33200 55.75600 41.13000
H  37.22000 60.81900 41.09800
H  35.82200 60.73800 42.20100
H  35.59900 60.95700 40.48000
H  31.83700 62.77000 41.34200
H  30.23200 62.41900 43.74900
H  32.33400 63.75200 43.77300
H  33.58200 63.13000 42.71900
H  33.11500 62.16000 44.03700
H  28.79600 63.36900 41.22800
H  30.19300 64.32100 41.61400
H  27.68100 64.77400 42.24800
H  28.98000 65.31500 43.34500
H  28.13100 63.66600 43.61600
H  24.50800 60.21600 42.40200
H  24.30700 60.12900 40.68900
H  25.29500 61.44900 41.28800
H  26.15800 55.95200 38.64000
H  24.65100 52.65400 40.59500
H  23.01500 53.04400 40.03100
H  23.58400 53.59600 41.69300
Mg 6.27000 54.79000 40.87100
C  3.37900 52.96800 39.84100
C  8.25700 52.33100 39.82300
C  8.79100 57.01100 40.98000
C  4.09000 57.41100 41.69400
N  5.79900 53.00400 39.77300
C  4.57000 52.35900 39.56400
C  4.93000 51.01100 38.97100
C  6.38900 50.67500 39.40500
C  6.87700 52.11500 39.74500
C  6.56200 49.77300 40.64200
C  4.74100 50.79400 37.44700
C  4.21800 49.37100 37.10300
H  4.22000 48.81600 35.67000
N  8.23900 54.72000 40.30400
C  8.88500 53.54100 39.91600
C  10.28200 53.89300 39.80500
C  10.39400 55.24500 39.91500
C  9.14600 55.72700 40.42100
C  11.32100 52.81100 39.57000
C  11.65300 56.07000 39.72700
O  12.69900 55.59600 39.26200
C  11.61500 57.59600 39.85800
N  6.36600 56.92500 41.21700
C  7.57200 57.54800 41.32600
C  7.43700 58.91900 42.08100
C  5.86600 59.15400 42.09400
C  5.34100 57.77200 41.61600
C  8.12800 58.96800 43.44200
C  5.41600 60.26800 41.08200
C  4.80200 61.46800 41.73900
N  4.18000 55.08900 40.99800
C  3.47400 56.16300 41.43500
C  2.07000 55.85800 41.41100
C  1.95200 54.58300 40.82300
C  3.27700 54.16800 40.50200
C  0.99500 56.78700 41.83500
C  0.99000 53.48900 40.35000
O  -0.22400 53.44600 40.33100
C  1.97100 52.30500 39.79500
C  1.49200 52.08200 38.39400
O  1.62000 52.93200 37.50800
O  0.98100 50.81600 38.17500
C  0.86500 50.47200 36.75600
H  8.96800 51.52400 39.63400
H  9.59300 57.56300 41.47400
H  3.44600 58.13600 42.19600
H  4.22600 50.29100 39.38700
H  6.88800 50.07800 38.64100
H  7.04000 48.84000 40.34400
H  5.56900 49.42900 40.93100
H  7.11900 50.31500 41.40500
H  5.70900 50.79500 36.94700
H  4.10000 51.57200 37.03200
H  3.20100 49.39100 37.49400
H  4.91000 48.76400 37.68700
H  12.30300 53.09600 39.94800
H  11.30400 52.40300 38.56000
H  11.03300 51.95600 40.18200
H  10.64200 58.00400 39.58500
H  12.34600 58.00000 39.15800
H  11.94300 57.84700 40.86600
H  7.94200 59.66700 41.47000
H  5.52400 59.29700 43.11900
H  8.04000 57.99400 43.92200
H  7.62700 59.78900 43.95500
H  9.17400 59.26900 43.38500
H  4.80300 59.82100 40.30000
H  6.32400 60.63500 40.60400
H  3.81700 61.72100 41.34600
H  5.46700 62.32700 41.64800
H  4.68600 61.33800 42.81400
H  0.07700 56.32800 41.46800
H  1.02700 57.78300 41.39600
H  1.01100 56.84400 42.92400
H  1.84800 51.41400 40.41100
H  0.82500 49.39400 36.59900
H  1.71600 50.86500 36.19900
H  0.03000 51.02500 36.32700

