158

Mg 36.31900 48.71300 26.44400
C  36.09400 46.85700 29.30100
C  35.63700 51.57600 28.21400
C  36.16500 50.43700 23.51500
C  36.69600 45.67600 24.53600
N  35.89000 49.12300 28.48800
C  35.92300 48.22300 29.53600
C  35.94700 48.90400 30.87800
C  35.35700 50.38800 30.48300
C  35.59700 50.40500 28.94900
C  33.81600 50.62400 30.82700
C  37.36400 48.83800 31.59900
C  37.47200 48.88900 33.18900
H  36.13400 48.92000 33.96700
N  35.80400 50.76900 25.93900
C  35.73700 51.79000 26.81500
C  35.76900 53.02900 26.09200
C  35.92800 52.68700 24.73200
C  35.95600 51.28400 24.63800
C  35.60500 54.40600 26.76100
C  36.00100 53.58300 23.51600
O  36.06000 53.14200 22.34400
C  36.05300 55.13000 23.79900
N  36.23500 48.07200 24.33400
C  36.27100 49.06600 23.37900
C  36.58300 48.41100 21.92900
C  36.99900 46.98400 22.26500
C  36.63400 46.90900 23.80500
C  35.40000 48.60400 20.93300
C  38.51700 46.66400 21.97900
C  38.87800 46.10200 20.60700
N  36.56600 46.72200 26.79600
C  36.63300 45.56000 25.96200
C  36.68700 44.35400 26.80600
C  36.54500 44.83200 28.10900
C  36.39600 46.25400 28.04800
C  36.82300 42.95200 26.32400
C  36.39900 44.42500 29.51400
O  36.48000 43.32400 30.06900
C  36.09000 45.66800 30.37900
C  34.82000 45.42600 31.05800
O  33.74100 45.55000 30.45400
O  34.94800 45.06100 32.38700
C  33.68700 44.70600 33.10500
H  35.39200 52.44500 28.82800
H  36.39900 50.91400 22.56100
H  36.77900 44.74100 23.97800
H  35.22000 48.31500 31.43800
H  36.00000 51.07800 31.02900
H  33.26800 50.93200 29.93600
H  33.57800 51.47000 31.47200
H  33.38800 49.74100 31.30100
H  37.97300 49.68500 31.28200
H  37.86600 47.96900 31.17300
H  38.07500 49.72900 33.53700
H  37.98900 47.96700 33.45600
H  36.60800 54.83100 26.73600
H  35.29900 54.47100 27.80600
H  34.92300 54.89400 26.06400
H  35.08000 55.57300 24.01200
H  36.38100 55.57300 22.85800
H  36.84800 55.39900 24.49500
H  37.44400 48.95400 21.54000
H  36.33900 46.23400 21.83000
H  35.81200 48.82300 19.94800
H  34.79300 49.48400 21.14500
H  34.79500 47.69800 20.89600
H  38.79600 45.95100 22.75500
H  39.09500 47.58100 22.09100
H  39.51400 46.79500 20.05600
H  38.01700 45.66900 20.09700
H  39.59000 45.29400 20.77200
H  36.44200 42.80100 25.31300
H  36.34800 42.39100 27.12900
H  37.88800 42.73400 26.39400
H  36.84500 45.89700 31.13000
H  33.56700 43.64000 33.29500
H  32.85900 45.05600 32.49000
H  33.74100 45.27000 34.03600
Mg -9.72900 40.03900 39.01500
C  -8.60200 36.88900 38.36700
C  -6.64500 41.17700 38.59900
C  -11.03200 43.08800 38.59500
C  -13.03500 38.81900 38.86100
N  -7.88400 39.08700 38.35900
C  -7.61600 37.76500 38.15600
C  -6.14700 37.47500 38.00800
C  -5.50500 38.85400 38.36500
C  -6.73200 39.80400 38.46000
C  -4.63800 38.83800 39.63200
C  -5.66600 36.87800 36.61300
C  -6.07500 37.59100 35.28300
H  -6.97500 36.81600 34.35300
N  -8.93500 41.99800 38.84200
C  -7.62500 42.24300 38.70000
C  -7.39700 43.65000 38.64600
C  -8.67800 44.26300 38.72100
C  -9.64400 43.12400 38.68700
C  -6.04700 44.32600 38.44500
C  -8.95400 45.76200 38.66700
O  -8.06500 46.58900 38.58000
C  -10.31000 46.34600 38.59000
N  -11.76500 40.79700 38.54400
C  -12.00800 42.12100 38.50600
C  -13.54900 42.42300 38.29300
C  -14.15300 41.03200 38.60000
C  -12.94800 40.19900 38.75700
C  -14.21500 43.60300 39.09000
C  -15.13700 40.59000 37.44400
C  -16.55400 41.04700 37.72700
N  -10.56600 38.27800 38.85100
C  -11.98100 37.88900 38.83000
C  -12.14600 36.45700 38.63300
C  -10.80700 36.05000 38.44100
C  -9.94700 37.11200 38.62700
C  -13.47500 35.73200 38.55800
C  -9.99600 34.84900 38.14200
O  -10.33800 33.70100 37.95400
C  -8.46100 35.37700 38.14800
C  -7.58700 34.62200 39.17200
O  -7.74300 34.56200 40.36400
O  -6.59000 33.98700 38.44900
C  -5.52700 33.50100 39.34900
H  -5.60100 41.47300 38.47800
H  -11.51100 44.05200 38.40700
H  -14.03000 38.37500 38.92300
H  -5.74200 36.74800 38.71200
H  -5.00300 39.27100 37.49100
H  -3.61700 39.18100 39.46600
H  -4.73000 37.94000 40.24300
H  -5.12800 39.57000 40.27300
H  -5.89400 35.82000 36.48800
H  -4.59200 37.03100 36.50600
H  -5.12500 37.84500 34.81300
H  -6.69200 38.46800 35.47700
H  -5.31000 43.57100 38.72000
H  -5.89600 45.23000 39.03500
H  -5.94500 44.63600 37.40500
H  -10.93200 46.18700 39.47100
H  -10.77800 46.10900 37.63500
H  -10.29400 47.43600 38.58500
H  -13.68400 42.60800 37.22700
H  -14.67500 41.06800 39.55600
H  -13.52400 44.06200 39.79700
H  -15.09800 43.25900 39.62800
H  -14.60700 44.34000 38.39000
H  -15.00400 39.53500 37.20400
H  -15.01800 41.02100 36.44900
H  -17.16300 40.14600 37.80400
H  -17.04100 41.69000 36.99500
H  -16.65000 41.59900 38.66200
H  -13.96500 36.21000 37.70900
H  -13.94300 35.80300 39.54000
H  -13.27200 34.74400 38.14400
H  -8.04900 35.11200 37.17500
H  -5.35200 32.43200 39.23200
H  -5.55300 33.79400 40.39900
H  -4.56900 33.86100 38.97400

