158

Mg 47.34200 44.37700 43.13000
C  43.92700 43.58000 43.09300
C  47.95700 41.12400 42.68000
C  50.48100 45.32400 42.65700
C  46.34000 47.86100 42.95200
N  46.12300 42.57800 42.70100
C  44.79500 42.46400 42.80000
C  44.24400 41.06300 42.65100
C  45.55200 40.29100 43.05600
C  46.63900 41.37100 42.72200
C  45.45400 39.64300 44.50000
C  43.62100 40.70200 41.32400
C  43.81400 41.55700 40.06200
H  43.65300 40.89800 38.69500
N  49.09400 43.30200 42.70500
C  49.09700 41.98200 42.56700
C  50.52100 41.63900 42.25900
C  51.27100 42.86700 42.18100
C  50.33600 43.93000 42.43400
C  50.98700 40.17800 41.96900
C  52.75000 42.99800 41.93600
O  53.45600 42.00700 41.96700
C  53.35900 44.35500 41.98100
N  48.25100 46.31700 42.69000
C  49.57700 46.43800 42.79900
C  49.99500 47.93500 42.84500
C  48.70600 48.67100 42.85900
C  47.68400 47.52400 42.89600
C  50.88700 48.40200 44.00500
C  48.49500 49.77500 41.74900
C  48.30200 51.14900 42.41000
N  45.54300 45.55500 43.11700
C  45.31700 46.92100 43.03300
C  43.89900 47.11700 42.81800
C  43.35400 45.83500 43.05500
C  44.37400 44.90800 43.05300
C  43.12200 48.42700 42.48600
C  42.09400 45.16400 43.13600
O  40.99300 45.72800 43.26700
C  42.39100 43.62400 43.04800
C  41.81400 43.10900 44.25200
O  42.19300 43.38300 45.35300
O  40.69200 42.36200 43.99200
C  39.78300 42.04200 45.11400
H  48.18100 40.07800 42.90200
H  51.48300 45.75800 42.63900
H  46.04500 48.90800 42.85500
H  43.43900 40.87800 43.36100
H  45.85000 39.49600 42.37200
H  44.45400 39.49200 44.90600
H  46.08100 40.09500 45.26900
H  45.78500 38.62100 44.31300
H  42.55800 40.52600 41.48500
H  44.08800 39.75700 41.04400
H  44.69900 42.19200 40.11700
H  43.00100 42.28200 40.10100
H  51.19400 40.24400 40.90100
H  50.10700 39.56500 42.16200
H  51.88100 39.88500 42.51800
H  52.82800 44.98000 41.26300
H  54.43500 44.34300 41.80200
H  53.36000 44.74400 43.00000
H  50.44700 48.07500 41.86300
H  48.46100 49.03200 43.85900
H  50.63500 49.27200 44.61100
H  51.92100 48.53700 43.68900
H  50.84400 47.55500 44.69000
H  47.65700 49.54600 41.09100
H  49.31600 49.81900 41.03400
H  48.59800 51.08200 43.45700
H  47.29100 51.52200 42.24700
H  48.93100 51.89400 41.92100
H  42.76900 48.42000 41.45500
H  43.77800 49.29500 42.54700
H  42.28200 48.48600 43.17700
H  41.93700 43.30200 42.11100
H  40.13400 41.09900 45.53400
H  38.74100 42.03100 44.79600
H  39.85000 42.79800 45.89700
Mg -1.54900 34.72700 26.72700
C  -3.02100 32.69100 29.38000
C  -0.30500 36.77300 29.11500
C  -0.60800 36.67200 24.35300
C  -3.29300 32.63700 24.49000
N  -1.65600 34.65100 28.98800
C  -2.28900 33.76400 29.90300
C  -1.87800 34.05500 31.35100
C  -1.11000 35.46300 31.18200
C  -1.04500 35.66900 29.64400
C  -1.75700 36.76400 31.81400
C  -0.94600 32.90400 32.00400
C  -1.55300 32.07200 33.21200
H  -0.63800 32.02300 34.50100
N  -0.56500 36.46800 26.70700
C  -0.02400 37.08700 27.75800
C  0.87500 38.13000 27.33500
C  0.79700 38.18100 25.90700
C  -0.14000 37.06100 25.59500
C  1.68800 39.05300 28.32800
C  1.55100 39.06800 24.87000
O  1.37100 38.96100 23.67800
C  2.56200 40.08500 25.32700
N  -1.86200 34.65300 24.71200
C  -1.39200 35.58200 23.92300
C  -1.87900 35.55400 22.52100
C  -2.65800 34.18600 22.55700
C  -2.68800 33.80000 24.05900
C  -2.64500 36.77100 21.94000
C  -2.17600 32.97100 21.67000
C  -0.68700 32.55300 21.91500
N  -2.72700 32.97200 26.82000
C  -3.37800 32.23100 25.83600
C  -4.21000 31.20500 26.35400
C  -3.97400 31.31700 27.74000
C  -3.23900 32.44700 27.99500
C  -5.00300 30.11500 25.72800
C  -4.21200 30.62700 29.01500
O  -4.79300 29.54100 29.19500
C  -3.71400 31.59200 30.19400
C  -4.86700 32.03800 31.05900
O  -5.79000 32.76400 30.74600
O  -4.81400 31.31400 32.15300
C  -5.77700 31.59300 33.20300
H  0.16100 37.41000 29.87000
H  -0.19000 37.27900 23.54700
H  -4.00100 32.17200 23.80100
H  -2.71600 34.20700 32.03200
H  -0.13000 35.40800 31.65800
H  -1.11700 37.39400 32.43100
H  -2.55900 36.42500 32.47000
H  -2.15200 37.39300 31.01600
H  -0.00100 33.38200 32.26400
H  -0.76900 32.19200 31.19800
H  -1.68600 31.04200 32.88000
H  -2.57000 32.42200 33.39100
H  1.97000 38.58400 29.27000
H  0.96600 39.82800 28.58700
H  2.55200 39.51700 27.85300
H  3.36100 39.65900 25.93400
H  2.15200 40.85200 25.98500
H  3.12700 40.40400 24.45100
H  -1.00800 35.48100 21.86900
H  -3.71300 34.34600 22.33400
H  -3.43300 36.43300 21.26700
H  -1.94200 37.36400 21.35400
H  -3.02900 37.34900 22.78100
H  -2.23800 33.27500 20.62500
H  -2.81500 32.09000 21.72800
H  -0.05500 33.01400 21.15600
H  -0.61600 31.46700 21.98700
H  -0.42000 32.87900 22.92000
H  -4.46700 29.66300 24.89400
H  -5.88900 30.53600 25.25400
H  -5.11300 29.28800 26.42900
H  -3.02400 30.97300 30.76800
H  -6.70200 31.83800 32.68200
H  -5.40500 32.37000 33.87200
H  -5.94300 30.69200 33.79300

