158

Mg 7.45800 52.92200 41.84400
C  7.43900 49.43600 41.79100
C  10.70000 52.77200 40.48400
C  7.10500 56.14000 41.04400
C  3.98700 52.67700 42.64100
N  8.84000 51.34500 41.20500
C  8.64500 49.96200 41.31500
C  9.94900 49.20000 40.90600
C  10.96500 50.26700 41.08600
C  10.14300 51.55700 40.88800
C  11.74500 50.29400 42.41000
C  9.95800 48.50700 39.49700
C  9.59900 49.26800 38.17500
H  8.25300 48.98000 37.47400
N  8.80100 54.29200 40.94400
C  10.05200 54.04600 40.49200
C  10.56200 55.26900 39.96600
C  9.59800 56.36800 40.23900
C  8.43400 55.66400 40.78200
C  11.99400 55.37700 39.44300
C  9.95800 57.83700 40.10900
O  10.98900 58.15600 39.56800
C  8.95800 58.88300 40.54900
N  5.84100 54.14600 41.80100
C  5.92300 55.45100 41.41300
C  4.42200 56.06600 41.44800
C  3.56700 55.00700 42.10500
C  4.53500 53.88700 42.26000
C  4.41700 57.53200 42.00300
C  2.25500 54.69700 41.37400
C  1.02900 54.55100 42.33400
N  6.11200 51.37100 42.34100
C  4.78700 51.47800 42.75000
C  4.31600 50.15400 43.09700
C  5.31900 49.31500 42.81400
C  6.35900 50.10100 42.27500
C  2.96400 49.86600 43.71500
C  5.68400 47.90100 42.82900
O  5.08700 46.89800 43.24100
C  7.08900 47.91700 42.12900
C  7.00200 46.88700 41.01800
O  6.30200 46.94500 39.97700
O  7.71400 45.71000 41.44900
C  7.59500 44.55300 40.58700
H  11.76700 52.67600 40.27200
H  7.05500 57.17900 40.71200
H  2.92200 52.59500 42.87000
H  10.06900 48.40600 41.64200
H  11.62900 50.28800 40.22200
H  11.37200 49.55000 43.11400
H  11.54000 51.24500 42.90100
H  12.82300 50.20500 42.27100
H  9.41300 47.56500 39.55100
H  10.99100 48.16400 39.43900
H  10.40000 49.07900 37.46000
H  9.45900 50.32900 38.37800
H  11.88200 55.62200 38.38700
H  12.67000 54.53600 39.60300
H  12.48000 56.27100 39.83500
H  8.24400 58.92800 39.72600
H  9.43300 59.86300 40.60500
H  8.47900 58.76200 41.52100
H  4.29400 56.16600 40.37000
H  3.50300 55.47600 43.08700
H  4.45500 58.24200 41.17700
H  5.24800 57.71200 42.68500
H  3.41900 57.73500 42.39000
H  2.28300 53.79200 40.76700
H  2.06200 55.60100 40.79700
H  0.39500 55.42900 42.20600
H  1.46600 54.51900 43.33200
H  0.37600 53.69300 42.17200
H  2.70900 48.81000 43.80500
H  2.21500 50.24900 43.02100
H  2.78500 50.46900 44.60500
H  7.90800 47.53300 42.73700
H  7.72300 44.73900 39.52000
H  6.58600 44.16600 40.73100
H  8.27700 43.76600 40.90900
Mg -11.23700 39.15300 41.55900
C  -9.89600 36.05900 40.57400
C  -8.65300 40.73000 39.94400
C  -12.87600 42.09800 42.15100
C  -14.20600 37.42300 42.62500
N  -9.56700 38.42800 40.19700
C  -9.13400 37.16800 40.21100
C  -7.86100 37.06200 39.37000
C  -7.33100 38.45600 39.57100
C  -8.56200 39.31300 39.94600
C  -6.20100 38.62000 40.70000
C  -8.07000 36.57800 37.88500
C  -7.30800 35.31200 37.52600
H  -6.20100 35.64800 36.49700
N  -10.85000 41.11300 41.06900
C  -9.76800 41.52100 40.38400
C  -9.81800 42.96100 40.29800
C  -10.87900 43.44400 41.08100
C  -11.63500 42.22100 41.50800
C  -8.78600 43.70300 39.59700
C  -11.12900 44.89300 41.31500
O  -10.41400 45.75600 40.80700
C  -12.28600 45.41900 42.06000
N  -13.26500 39.70200 42.06500
C  -13.64000 40.99400 42.42300
C  -15.12500 41.06900 42.93600
C  -15.50700 39.58100 42.94200
C  -14.20800 38.86400 42.61700
C  -15.15700 41.81900 44.32900
C  -16.61000 39.28900 41.87300
C  -17.65400 38.26700 42.15500
N  -11.94800 37.17900 41.63200
C  -13.12900 36.59600 42.15000
C  -12.96700 35.08000 42.15400
C  -11.73400 34.85600 41.59100
C  -11.16900 36.16100 41.28700
C  -13.90900 34.03300 42.79500
C  -10.67000 33.88300 41.23500
O  -10.60700 32.68300 41.54900
C  -9.55200 34.61800 40.61400
C  -8.30800 34.59200 41.54200
O  -8.33400 34.87100 42.74200
O  -7.27700 33.98000 40.86400
C  -6.04200 34.14000 41.68000
H  -7.72400 41.13300 39.53500
H  -13.40700 43.02300 42.38700
H  -15.05800 36.84400 42.98900
H  -7.17600 36.37500 39.86500
H  -6.87400 38.78600 38.63800
H  -5.30300 39.03500 40.24100
H  -5.90300 37.62500 41.02900
H  -6.42000 39.28400 41.53600
H  -7.65200 37.30400 37.18700
H  -9.13700 36.44000 37.71200
H  -7.86000 34.45500 37.14100
H  -6.70500 34.99000 38.37500
H  -7.85800 43.22400 39.28400
H  -8.39700 44.46400 40.27300
H  -9.32500 44.15600 38.76400
H  -13.19900 45.16300 41.52300
H  -12.05100 46.47700 42.18100
H  -12.20700 44.85300 42.98800
H  -15.51200 41.61800 42.07700
H  -15.86400 39.22700 43.90900
H  -14.20500 41.91900 44.84900
H  -15.80200 41.26100 45.00800
H  -15.58400 42.80400 44.14200
H  -16.05700 39.07500 40.95800
H  -17.10200 40.21400 41.57100
H  -17.71900 37.80900 41.16800
H  -18.66700 38.66700 42.17800
H  -17.41900 37.55000 42.94200
H  -13.25300 33.34700 43.33000
H  -14.53600 33.51600 42.06800
H  -14.51600 34.49400 43.57400
H  -9.26500 34.34400 39.59900
H  -5.92200 35.17400 42.00400
H  -5.17700 33.95800 41.04200
H  -5.90800 33.43400 42.50000

