158

Mg -0.41900 7.28900 26.30100
C  0.56000 9.29000 29.01600
C  -0.90600 4.72100 28.62900
C  -0.75100 5.22400 23.77500
C  0.38000 9.93600 24.21500
N  -0.08800 7.06100 28.55000
C  0.25700 8.01300 29.53300
C  0.19300 7.46600 31.00900
C  -0.09000 5.92400 30.68200
C  -0.45700 5.90600 29.15600
C  1.02600 4.95300 31.07800
C  -0.80900 8.16600 31.92600
C  -0.42000 8.07400 33.45900
H  0.73700 7.32200 33.99300
N  -0.76100 5.24400 26.19800
C  -1.05500 4.37700 27.25300
C  -1.56600 3.17500 26.72500
C  -1.49300 3.28700 25.29900
C  -1.00800 4.61700 25.01100
C  -1.97700 1.96200 27.66100
C  -1.72800 2.18500 24.27200
O  -1.43200 2.43200 23.11200
C  -2.38500 0.87800 24.63000
N  -0.17400 7.44200 24.30700
C  -0.37300 6.52700 23.37000
C  -0.42200 7.09900 21.95500
C  -0.44000 8.65900 22.24100
C  0.01500 8.71400 23.71000
C  0.79300 6.52500 21.05300
C  -1.87500 9.20500 21.86500
C  -1.88800 10.65800 21.19900
N  0.32200 9.20000 26.48600
C  0.60400 10.16700 25.59900
C  1.09400 11.38100 26.22000
C  1.07900 11.08700 27.53800
C  0.53300 9.75200 27.66800
C  1.48500 12.62400 25.59500
C  1.27400 11.64800 28.84900
O  1.60900 12.81900 29.11200
C  0.90700 10.51300 29.80300
C  2.01300 10.28400 30.81500
O  2.96500 9.59200 30.52600
O  1.69500 10.93600 31.97000
C  2.73900 10.90900 33.01400
H  -1.19300 3.93800 29.33400
H  -1.12200 4.65900 22.91800
H  0.69000 10.78900 23.60700
H  1.19200 7.47200 31.44500
H  -0.99200 5.60200 31.20400
H  0.55600 4.06500 31.50200
H  1.58400 5.42200 31.88900
H  1.65700 4.69300 30.22900
H  -1.74400 7.67000 31.66600
H  -0.94200 9.22900 31.72300
H  -1.34000 7.58800 33.78000
H  -0.44300 9.00600 34.02500
H  -1.97200 2.12500 28.73900
H  -1.40600 1.07100 27.40200
H  -2.97400 1.72000 27.29100
H  -3.39200 1.11600 24.97100
H  -1.83400 0.29000 25.36400
H  -2.45000 0.34000 23.68400
H  -1.35000 6.60500 21.66500
H  0.30600 9.23500 21.69400
H  1.35100 7.35200 20.61500
H  0.46100 5.73300 20.38100
H  1.49600 6.12700 21.78500
H  -2.47300 9.34000 22.76600
H  -2.47500 8.42000 21.40500
H  -2.35900 10.71200 20.21800
H  -0.85900 10.98300 21.04000
H  -2.46300 11.32800 21.83600
H  0.51000 13.09800 25.48500
H  1.87200 12.41300 24.59800
H  2.09300 13.22500 26.27100
H  0.01100 10.76300 30.37100
H  3.27200 9.95900 33.06300
H  2.25800 11.02700 33.98500
H  3.53200 11.57400 32.67400
Mg 17.03300 52.26900 25.87000
C  18.80300 51.20800 28.60600
C  14.43600 52.94100 27.92600
C  15.40600 53.42500 23.21100
C  19.73000 51.30000 23.84300
N  16.65000 52.06300 28.02800
C  17.57400 51.66700 28.94000
C  17.08900 51.98300 30.40200
C  15.52300 52.29200 30.17200
C  15.46300 52.45600 28.62900
C  14.57700 51.19300 30.78900
C  17.85200 53.11800 31.11500
C  18.18200 52.89900 32.62500
H  17.13600 51.92200 33.38900
N  15.12400 53.21100 25.66300
C  14.20100 53.29600 26.65300
C  13.13500 53.95600 26.06300
C  13.33200 54.12900 24.68400
C  14.66500 53.61200 24.45200
C  11.93700 54.41800 26.90400
C  12.46900 54.55100 23.51700
O  12.80300 54.89500 22.40400
C  11.03700 54.86300 23.77800
N  17.55600 52.54900 23.80300
C  16.69400 52.91100 22.92300
C  17.24600 52.88600 21.49100
C  18.67900 52.23400 21.71800
C  18.72600 52.07000 23.21500
C  16.29500 52.12200 20.52900
C  19.81300 53.17200 21.21100
C  21.00600 52.50000 20.46700
N  18.78700 51.22900 26.05100
C  19.84900 50.98700 25.17700
C  20.89500 50.28500 25.81900
C  20.55600 50.40400 27.18900
C  19.34100 50.98100 27.28800
C  22.19400 49.70300 25.27500
C  21.03300 50.21000 28.52100
O  22.07300 49.74800 28.91000
C  19.97400 50.78300 29.48000
C  19.63000 49.59100 30.20200
O  18.82000 48.72500 29.82600
O  20.33000 49.53900 31.36300
C  19.54200 49.12800 32.49500
H  13.61600 53.17300 28.60800
H  14.82300 53.65000 22.31600
H  20.50400 50.93400 23.16600
H  17.14300 51.01800 30.90600
H  15.27300 53.14400 30.80600
H  14.13400 50.66300 29.94600
H  13.75100 51.57900 31.38600
H  15.12800 50.55100 31.47600
H  17.24900 54.02600 31.12500
H  18.69700 53.25000 30.43900
H  18.24200 53.86800 33.12100
H  19.19800 52.50400 32.66400
H  11.70500 55.48000 26.82500
H  11.99800 54.26800 27.98200
H  11.13700 53.81000 26.48200
H  10.86700 55.77200 24.35600
H  10.48700 54.04300 24.23800
H  10.53900 55.07100 22.83100
H  17.40200 53.91200 21.15600
H  18.63800 51.25500 21.23900
H  15.35200 52.59100 20.24600
H  16.16200 51.16800 21.03800
H  16.74400 51.85300 19.57400
H  20.26400 53.76700 22.00500
H  19.40500 53.77000 20.39700
H  21.98900 52.76500 20.85500
H  21.01700 52.59100 19.38100
H  20.91000 51.41600 20.52900
H  23.02500 50.05000 25.88800
H  22.36300 50.09300 24.27100
H  21.97200 48.63600 25.27100
H  20.51000 51.49400 30.10900
H  20.04100 48.21600 32.82400
H  18.45900 49.00700 32.45600
H  19.56100 49.89600 33.26800

