158

Mg 26.09500 1.24100 29.22300
C  28.01300 0.86900 32.13100
C  23.35500 1.75600 31.30900
C  24.11700 1.62400 26.47000
C  28.66800 0.19800 27.31500
N  25.72000 1.23100 31.55000
C  26.74500 1.25000 32.52800
C  26.16500 1.47100 33.89100
C  24.58700 1.62400 33.58500
C  24.53100 1.53000 32.05000
C  23.51400 0.72300 34.29100
C  26.83600 2.66700 34.71800
C  27.23300 2.28000 36.12100
H  27.20300 3.27800 37.30700
N  24.05400 1.61500 28.96800
C  23.12300 1.88500 29.93500
C  21.84900 2.16600 29.33900
C  22.08900 2.18500 27.95100
C  23.48600 1.79200 27.73300
C  20.57600 2.39800 30.11700
C  21.10500 2.66000 26.89200
O  21.42700 2.93300 25.76100
C  19.61300 3.08400 27.24900
N  26.30900 1.03700 27.04900
C  25.43800 1.23700 26.10700
C  26.01800 1.15300 24.71300
C  27.59000 0.74500 24.97800
C  27.52800 0.63900 26.52000
C  25.31000 0.17100 23.68000
C  28.61800 1.80800 24.39400
C  29.72300 1.22400 23.48900
N  27.94300 0.71700 29.55900
C  28.97000 0.43800 28.69100
C  30.23000 0.25800 29.37900
C  29.92100 0.41000 30.74900
C  28.46700 0.66700 30.80300
C  31.54900 -0.01100 28.69000
C  30.44800 0.50600 32.08800
O  31.62100 0.40700 32.47700
C  29.21300 0.78600 32.99400
C  29.11800 -0.36200 33.92700
O  28.66600 -1.49000 33.65100
O  29.66800 0.07300 35.11900
C  29.61600 -0.95300 36.19100
H  22.55400 2.08400 31.97400
H  23.47400 1.79800 25.60500
H  29.47900 -0.20800 26.70700
H  26.18900 0.59900 34.54400
H  24.34600 2.66100 33.82200
H  22.96900 0.19400 33.50800
H  22.96300 1.41300 34.92900
H  24.00100 -0.03800 34.90100
H  26.15100 3.49000 34.92300
H  27.66200 3.03900 34.11100
H  28.30100 2.07300 36.05900
H  26.63200 1.44900 36.49100
H  20.28500 3.44800 30.14100
H  20.60400 2.12500 31.17200
H  19.67600 2.03200 29.62300
H  19.10200 2.13000 27.37500
H  19.15900 3.67200 26.45200
H  19.53600 3.67800 28.16000
H  25.98000 2.18300 24.35900
H  27.75900 -0.29500 24.69800
H  25.51200 -0.87500 23.91100
H  25.63100 0.35800 22.65500
H  24.22000 0.20400 23.66800
H  29.17200 2.21300 25.24100
H  28.20000 2.72100 23.97100
H  29.45400 0.19300 23.25700
H  30.73600 1.16300 23.88600
H  29.68200 1.82700 22.58200
H  31.52500 0.52200 27.74000
H  31.57800 -1.08700 28.52300
H  32.46200 0.32800 29.18000
H  29.43600 1.70500 33.53700
H  28.62700 -0.90700 36.64800
H  30.37900 -0.75900 36.94500
H  29.72500 -1.98200 35.84900
Mg -10.38500 41.05100 40.57500
C  -9.18700 37.76700 39.75400
C  -7.24200 42.19100 39.33200
C  -11.71600 43.95800 39.98500
C  -13.44900 39.60800 41.18200
N  -8.40700 40.03300 39.73200
C  -8.17800 38.72900 39.48800
C  -6.80400 38.45100 38.92900
C  -6.14200 39.86800 39.07900
C  -7.32400 40.76200 39.47400
C  -5.01700 39.96000 40.08600
C  -6.90100 37.95500 37.46300
C  -5.49600 37.61300 36.91600
H  -5.46200 36.63600 35.73800
N  -9.57000 42.88100 39.91700
C  -8.29600 43.14200 39.50500
C  -8.16600 44.54100 39.44800
C  -9.40300 45.07800 39.57300
C  -10.31700 43.97800 39.70500
C  -6.79100 45.13800 39.11100
C  -9.61300 46.58900 39.63900
O  -8.65100 47.32100 39.49500
C  -10.89300 47.29500 39.88200
N  -12.28600 41.71200 40.62800
C  -12.62400 42.98500 40.43000
C  -14.08500 43.28300 40.73300
C  -14.59500 41.88300 41.15900
C  -13.39100 41.01200 40.97600
C  -14.35700 44.54300 41.58800
C  -15.84400 41.50500 40.37400
C  -16.85400 40.72700 41.13000
N  -11.12500 39.03500 40.63700
C  -12.41100 38.63900 40.94000
C  -12.42800 37.23100 40.95400
C  -11.18600 36.76200 40.47900
C  -10.45400 37.95600 40.21700
C  -13.55200 36.28600 41.21400
C  -10.35700 35.63800 40.16300
O  -10.55100 34.44400 40.25400
C  -9.02700 36.28200 39.55600
C  -7.94300 35.82400 40.36900
O  -7.92900 35.92300 41.56700
O  -7.14000 34.96900 39.61800
C  -6.26500 34.08900 40.41800
H  -6.24000 42.54900 39.08400
H  -12.18400 44.93800 39.87200
H  -14.39300 39.08800 41.36200
H  -6.21700 37.65100 39.37900
H  -5.74800 40.21500 38.12400
H  -4.02800 40.04600 39.63500
H  -5.00300 39.10800 40.76600
H  -5.12200 40.77000 40.80800
H  -7.28000 38.69000 36.75200
H  -7.64800 37.18800 37.25600
H  -4.93800 37.24600 37.77700
H  -5.10100 38.61000 36.72100
H  -6.88800 46.07500 38.56200
H  -6.16400 44.52900 38.46000
H  -6.29000 45.33800 40.05800
H  -10.51700 48.29300 40.10500
H  -11.25900 46.80000 40.78200
H  -11.56500 47.19100 39.03000
H  -14.49100 43.46100 39.73700
H  -14.77400 41.93400 42.23300
H  -15.23000 44.36100 42.21400
H  -14.61000 45.34300 40.89300
H  -13.45500 44.84000 42.12500
H  -15.51300 40.97000 39.48400
H  -16.32800 42.40600 39.99600
H  -16.80600 39.71400 40.73100
H  -17.85200 41.16400 41.09000
H  -16.59500 40.72000 42.18800
H  -13.80000 35.58400 40.41900
H  -14.49200 36.74200 41.52800
H  -13.28900 35.68700 42.08600
H  -8.88600 36.07400 38.49600
H  -5.67100 33.48600 39.73100
H  -6.96900 33.46300 40.96600
H  -5.64600 34.70700 41.06800

