158

Mg 40.43100 9.36600 29.17200
C  42.06100 10.52500 32.12200
C  38.06000 7.85300 31.12600
C  39.01400 7.86600 26.23600
C  43.05900 10.58600 27.35200
N  40.24900 9.07500 31.42500
C  40.91200 9.80300 32.40700
C  40.13200 9.73800 33.79000
C  38.97800 8.76200 33.45000
C  39.08000 8.46500 31.92800
C  38.99700 7.39200 34.27600
C  39.71900 11.15500 34.34600
C  39.61900 11.22500 35.85700
H  40.64100 12.03200 36.58800
N  38.72400 8.10800 28.73000
C  37.89700 7.65700 29.74700
C  36.86400 6.87000 29.12700
C  37.06700 6.94900 27.67200
C  38.26900 7.71600 27.47000
C  35.90900 6.06200 29.96200
C  36.28000 6.39700 26.56500
O  36.47400 6.70500 25.38200
C  35.18200 5.45100 26.87800
N  40.89300 9.28000 27.17000
C  40.26500 8.56300 26.16800
C  41.11000 8.56500 24.82100
C  42.13200 9.66600 25.19000
C  42.08000 9.91200 26.65800
C  41.68300 7.27100 24.24700
C  42.04600 10.88500 24.32600
C  40.88600 11.90900 24.55100
N  42.25300 10.23200 29.61500
C  43.16600 10.78100 28.74700
C  44.11100 11.55000 29.46700
C  43.72700 11.52600 30.78500
C  42.62200 10.64600 30.82500
C  45.31400 12.19300 28.94700
C  44.03500 11.99700 32.13600
O  44.84700 12.80200 32.60700
C  42.90000 11.33900 33.06500
C  43.64100 10.49300 34.10000
O  44.23100 9.40300 33.91300
O  43.46400 11.03300 35.31300
C  43.77500 10.21900 36.48200
H  37.30800 7.38300 31.76300
H  38.68000 7.49100 25.26700
H  43.81500 10.98100 26.67000
H  40.88800 9.41100 34.50400
H  38.03700 9.29400 33.59000
H  39.80500 7.39300 35.00800
H  39.10000 6.56800 33.57000
H  38.04300 7.20800 34.77000
H  38.70400 11.43500 34.06700
H  40.41200 11.91400 33.98200
H  39.59900 10.22800 36.29600
H  38.66700 11.69300 36.11100
H  36.57100 5.22600 30.19100
H  35.08200 5.69800 29.35200
H  35.49200 6.56700 30.83300
H  34.77900 5.15900 25.90800
H  34.42000 6.07300 27.34700
H  35.40900 4.53500 27.42400
H  40.40000 8.87700 24.05600
H  43.15300 9.28300 25.17200
H  41.55000 6.51000 25.01500
H  42.74600 7.28900 24.00600
H  41.19600 6.92500 23.33500
H  41.93100 10.62500 23.27400
H  43.00900 11.39400 24.34800
H  41.33100 12.89600 24.68600
H  40.44400 11.55900 25.48300
H  40.14200 11.97200 23.75800
H  45.80900 11.32200 28.51900
H  45.87300 12.51600 29.82600
H  45.11300 12.98500 28.22600
H  42.42400 12.10900 33.67200
H  44.85800 10.20500 36.60300
H  43.47800 9.17600 36.37500
H  43.31700 10.56500 37.40800
Mg 30.35500 57.61900 39.93100
C  27.58000 55.63300 38.82600
C  32.39100 54.99000 39.07300
C  33.00200 59.61000 40.17200
C  28.18000 60.41600 40.12000
N  29.99900 55.53800 39.03200
C  28.80800 54.92400 38.73800
C  29.12100 53.60100 37.99700
C  30.55700 53.23400 38.63600
C  31.00300 54.67000 39.00100
C  30.50500 52.31600 39.93200
C  29.03300 53.65800 36.46700
C  27.98000 52.75700 35.84600
H  27.09800 53.28900 34.68000
N  32.34500 57.36000 39.74100
C  32.98800 56.19100 39.45800
C  34.45100 56.48000 39.53000
C  34.68100 57.83900 39.85800
C  33.30100 58.31800 39.92800
C  35.41800 55.30100 39.34900
C  36.09200 58.45300 39.99000
O  37.09600 57.80300 39.81400
C  36.23800 59.90400 40.22100
N  30.48500 59.71000 40.16100
C  31.76100 60.27500 40.31400
C  31.62600 61.84600 40.52000
C  30.07700 62.05600 40.74400
C  29.53900 60.64200 40.30200
C  32.44300 62.46200 41.71800
C  29.56100 63.37900 40.10600
C  28.36600 64.18300 40.70300
N  28.24600 58.01400 39.59800
C  27.56800 59.18400 39.74600
C  26.17400 58.88300 39.53400
C  26.10500 57.48800 39.13000
C  27.42000 56.99900 39.18100
C  24.96000 59.85000 39.63300
C  25.22600 56.40900 38.73200
O  24.00300 56.38000 38.56000
C  26.19500 55.12400 38.43200
C  25.79600 53.97700 39.29700
O  25.69100 53.97800 40.54200
O  25.42200 52.92600 38.56800
C  24.85200 51.71100 39.30700
H  33.07600 54.17500 38.82700
H  33.84600 60.30000 40.24000
H  27.46700 61.21000 40.35000
H  28.41200 52.80600 38.22700
H  31.05300 52.69000 37.83200
H  29.47100 51.97900 40.00100
H  30.70000 52.81500 40.88100
H  30.99400 51.34300 39.87800
H  29.94800 53.36800 35.94900
H  28.66800 54.62400 36.12100
H  27.23300 52.42300 36.56600
H  28.48400 51.86100 35.48400
H  36.40700 55.57900 38.98400
H  35.10400 54.41600 38.79500
H  35.54300 54.79400 40.30500
H  35.90900 60.28600 41.18700
H  35.97500 60.49300 39.34200
H  37.32000 60.03300 40.20900
H  31.90700 62.35100 39.59600
H  29.83000 62.02800 41.80500
H  33.14100 63.20700 41.33500
H  32.86700 61.66300 42.32600
H  31.72700 63.05600 42.28500
H  29.22100 63.11900 39.10400
H  30.34500 64.11200 39.91400
H  28.01400 63.63800 41.57900
H  27.52200 64.07700 40.02200
H  28.57100 65.24100 40.86600
H  25.10900 60.75600 39.04500
H  24.66800 60.01300 40.67000
H  24.10900 59.34300 39.17900
H  26.07400 54.90100 37.37200
H  23.83600 51.90200 39.65200
H  25.45300 51.39100 40.15800
H  24.76900 50.83200 38.66800

