158

Mg 47.03600 17.08400 28.04100
C  45.00700 16.31000 31.07000
C  49.32600 18.51900 30.00600
C  48.38700 17.94300 25.28000
C  44.19500 15.85700 26.22400
N  47.13400 17.36200 30.30000
C  46.20200 17.04100 31.30100
C  46.86100 17.33400 32.62700
C  47.90600 18.44300 32.25500
C  48.22600 18.02900 30.79700
C  47.51900 19.92300 32.25600
C  47.47400 16.00900 33.27000
C  47.56800 15.92600 34.78200
H  47.77900 17.07200 35.77300
N  48.69800 17.98600 27.73400
C  49.56300 18.52100 28.64000
C  50.71500 19.01200 28.01000
C  50.45600 18.87500 26.62000
C  49.14000 18.19900 26.51000
C  51.94000 19.52600 28.77100
C  51.35500 19.32800 25.40600
O  51.09100 18.98600 24.23100
C  52.51200 20.28600 25.69700
N  46.40300 16.85200 26.00800
C  47.16400 17.40800 25.01400
C  46.61200 17.07100 23.61200
C  45.33500 16.28000 23.89400
C  45.30400 16.29500 25.47000
C  46.54500 18.27000 22.58800
C  45.48000 14.81200 23.29700
C  46.46300 13.85700 23.98400
N  45.04800 16.12300 28.45500
C  44.05400 15.72800 27.62200
C  42.91700 15.12700 28.43100
C  43.27500 15.33800 29.71700
C  44.53600 15.96100 29.73100
C  41.62300 14.51100 27.86200
C  42.78800 15.24100 31.15500
O  41.77900 14.77800 31.59300
C  43.94000 15.78800 32.04500
C  43.33100 16.99200 32.76900
O  42.83600 17.92500 32.21500
O  43.35300 16.88900 34.11800
C  42.53100 17.78500 34.86300
H  50.05600 19.02700 30.64000
H  48.92200 18.25400 24.38000
H  43.36000 15.56600 25.58400
H  46.15600 17.71300 33.36700
H  48.76500 18.38700 32.92500
H  48.24100 20.40200 32.91700
H  46.63500 19.99600 32.88900
H  47.38500 20.40100 31.28600
H  48.52200 15.91800 32.98400
H  46.93100 15.15000 32.87500
H  48.46600 15.33800 34.96900
H  46.77600 15.34000 35.24800
H  52.69500 18.74000 28.78000
H  51.65200 19.65100 29.81500
H  52.28600 20.45800 28.32500
H  53.25300 19.94500 26.42100
H  52.11800 21.26500 25.96700
H  53.08800 20.38200 24.77600
H  47.25600 16.28100 23.22400
H  44.38400 16.72200 23.59800
H  45.49300 18.54500 22.52100
H  46.89900 18.11200 21.56900
H  47.10900 19.16300 22.85800
H  45.82500 14.99300 22.27900
H  44.46100 14.44400 23.17600
H  47.46500 14.28400 23.98100
H  46.55600 12.93100 23.41500
H  46.31900 13.56800 25.02500
H  40.79500 15.02900 28.34500
H  41.70300 13.42600 27.94100
H  41.44600 14.64500 26.79500
H  44.25200 15.07000 32.80300
H  42.51200 17.59400 35.93600
H  41.46700 17.66200 34.65900
H  42.76300 18.81500 34.59400
Mg 35.22700 49.01100 25.25800
C  35.58400 47.33200 28.36500
C  33.95300 51.69200 26.94900
C  34.89300 50.45700 22.27900
C  36.65700 46.19900 23.70200
N  34.71400 49.38000 27.43500
C  34.95000 48.58500 28.55600
C  34.52400 49.36400 29.79400
C  33.83000 50.66100 29.25500
C  34.17400 50.59700 27.79400
C  32.35900 50.99400 29.62400
C  35.74400 49.50400 30.85100
C  35.50000 49.82400 32.32900
H  34.05400 49.56500 32.89400
N  34.56400 50.79800 24.69300
C  34.13500 51.82500 25.52000
C  33.98700 53.04300 24.77500
C  34.09200 52.70200 23.42500
C  34.51700 51.24100 23.42300
C  33.83500 54.36600 25.39300
C  33.97700 53.58000 22.20000
O  34.38200 53.15700 21.12600
C  33.38200 54.98900 22.28100
N  35.79500 48.45000 23.21400
C  35.41300 49.17100 22.12500
C  35.98600 48.56500 20.79400
C  36.65200 47.27200 21.35800
C  36.36800 47.29600 22.83400
C  34.91500 48.30200 19.71200
C  38.17300 47.05900 20.93600
C  39.30100 47.63300 21.86700
N  35.91700 47.14100 25.83100
C  36.48700 46.09900 25.06400
C  36.68200 44.99400 25.94100
C  36.36400 45.45600 27.21900
C  35.95600 46.79100 27.13800
C  37.33000 43.66600 25.46800
C  36.31300 44.99300 28.59900
O  36.59200 43.91300 29.11900
C  35.86200 46.25500 29.43000
C  34.61000 45.88000 30.16200
O  33.49000 45.79700 29.64500
O  35.01000 45.45900 31.46200
C  33.81700 44.92500 32.14400
H  33.44700 52.43300 27.57100
H  34.84500 50.96900 21.31500
H  37.17500 45.35000 23.25100
H  33.73300 48.80000 30.28900
H  34.34500 51.52100 29.68400
H  31.86800 50.12700 30.06700
H  31.79000 51.10500 28.70100
H  32.30000 51.92300 30.19100
H  36.24300 50.41100 30.51000
H  36.39300 48.65200 30.64900
H  35.83200 50.82400 32.60500
H  36.10600 49.22800 33.01200
H  32.90900 54.89800 25.17400
H  34.68900 54.94800 25.04800
H  33.89800 54.21700 26.47100
H  33.93800 55.66500 22.93000
H  32.33000 54.87700 22.54300
H  33.41600 55.38200 21.26500
H  36.79300 49.23600 20.49800
H  36.19300 46.36100 20.97500
H  34.46400 47.32000 19.85700
H  35.43600 48.27200 18.75500
H  34.17500 49.10200 19.68900
H  38.38100 47.49300 19.95900
H  38.33300 45.98200 20.89200
H  39.80500 46.80700 22.37000
H  38.80600 48.30300 22.56900
H  39.96300 48.22200 21.23200
H  36.51800 43.22700 24.88800
H  37.43300 43.24100 26.46600
H  38.25300 43.84800 24.91700
H  36.66700 46.33600 30.16000
H  32.92900 45.55600 32.18500
H  34.09600 44.80800 33.19100
H  33.59000 43.91500 31.80200

