158

Mg 41.05800 9.47300 30.20300
C  43.10400 10.42900 32.86800
C  38.84900 8.16100 32.56100
C  39.41300 7.99800 27.71400
C  43.87200 9.97400 28.06300
N  41.02100 9.37800 32.46000
C  41.96500 9.81600 33.34800
C  41.44800 9.74000 34.79900
C  40.12800 8.80900 34.63500
C  39.96800 8.76100 33.08900
C  40.11200 7.43800 35.30500
C  41.29800 11.10800 35.52700
C  40.65200 11.05700 36.84500
H  41.11400 11.95900 37.96200
N  39.28100 8.48900 30.09800
C  38.55400 7.98900 31.16900
C  37.39300 7.25100 30.66500
C  37.46500 7.28600 29.25500
C  38.77500 7.91800 28.95600
C  36.38900 6.58100 31.58100
C  36.56700 6.77300 28.23300
O  36.84000 6.61700 27.02000
C  35.12700 6.37700 28.68600
N  41.66200 8.90900 28.20900
C  40.68200 8.46800 27.37600
C  41.15700 8.36000 25.89500
C  42.63900 8.89100 26.03200
C  42.76900 9.28100 27.52100
C  41.10400 6.87200 25.32900
C  42.96100 10.03700 25.07600
C  42.00700 11.32800 25.13500
N  43.05100 10.09300 30.41000
C  44.02500 10.33900 29.43600
C  45.12500 11.02100 29.98800
C  44.81900 11.07400 31.35600
C  43.54100 10.47700 31.57600
C  46.32800 11.45800 29.30800
C  45.28900 11.53400 32.64600
O  46.27600 12.18100 32.93500
C  44.19800 11.10100 33.69900
C  44.95400 10.17800 34.70800
O  45.85600 9.42600 34.34200
O  44.52600 10.39100 35.98600
C  45.17900 9.60900 37.01100
H  38.07100 7.88200 33.27500
H  38.99100 7.43600 26.87800
H  44.64400 10.25000 27.34200
H  42.24600 9.25200 35.36000
H  39.29000 9.38000 35.03600
H  40.79400 7.35200 36.15100
H  40.35100 6.74400 34.49900
H  39.10100 7.14200 35.58600
H  40.65500 11.79100 34.97400
H  42.30600 11.50100 35.65700
H  40.70100 10.04500 37.24900
H  39.60700 11.33300 36.70800
H  35.49700 7.20200 31.67000
H  36.82900 6.40600 32.56200
H  36.12000 5.62600 31.12800
H  34.70300 7.12100 29.36000
H  35.06000 5.39200 29.14700
H  34.45500 6.31000 27.83000
H  40.51500 9.00400 25.29400
H  43.35300 8.10900 25.77500
H  41.23000 6.15800 26.14300
H  41.74000 6.66300 24.46800
H  40.08000 6.73400 24.98100
H  43.07700 9.62100 24.07500
H  43.94400 10.36400 25.41500
H  42.57300 12.23300 25.35300
H  41.26100 11.33300 25.92900
H  41.42900 11.40500 24.21400
H  46.64800 12.47400 29.54100
H  46.08300 11.57200 28.25200
H  47.13700 10.74400 29.46100
H  43.83000 11.97000 34.24400
H  46.25800 9.73700 37.09400
H  45.01900 8.55300 36.79300
H  44.66700 9.80400 37.95300
Mg 16.86300 53.48700 27.00900
C  18.77500 51.65000 29.23900
C  14.46600 53.95200 29.47100
C  14.64700 54.46300 24.70000
C  19.13700 52.68900 24.50000
N  16.59100 52.76300 29.02400
C  17.54700 52.13100 29.78300
C  17.27600 52.25200 31.30800
C  15.82100 52.60000 31.28300
C  15.58900 53.16800 29.85100
C  14.79100 51.51600 31.62100
C  18.08100 53.47200 31.91400
C  17.99100 53.85500 33.36900
H  17.07100 52.97900 34.31300
N  14.85100 54.30500 27.15300
C  14.05700 54.45900 28.20800
C  12.73700 55.02100 27.78700
C  12.84000 55.21300 26.35900
C  14.16300 54.59300 25.99300
C  11.66600 55.30500 28.70100
C  11.82900 55.82900 25.43900
O  11.94800 55.87200 24.19800
C  10.47200 56.23000 25.99500
N  16.83300 53.33700 24.91700
C  15.85100 53.96200 24.22100
C  16.16700 53.98700 22.72000
C  17.67500 53.57000 22.66100
C  17.96600 53.26700 24.13100
C  15.13700 53.09700 21.93500
C  18.65400 54.44800 21.84900
C  18.61400 55.93600 22.04700
N  18.65900 52.41100 26.81800
C  19.48900 52.15700 25.72200
C  20.64000 51.38200 26.16500
C  20.46200 51.21700 27.55200
C  19.20100 51.78500 27.87200
C  21.70600 50.79700 25.32900
C  21.01500 50.64400 28.77900
O  21.96800 50.03000 28.96600
C  20.06100 51.11900 29.89800
C  19.84300 49.96500 30.78800
O  19.40500 48.92500 30.35900
O  19.95400 50.32400 32.10600
C  19.74700 49.21100 33.00800
H  13.91700 54.07400 30.40700
H  13.98800 54.72100 23.86800
H  19.85300 52.66100 23.67600
H  17.50900 51.35100 31.87500
H  15.63800 53.34700 32.05500
H  15.42100 50.81200 32.16500
H  14.31600 50.97100 30.80500
H  13.98900 51.82800 32.29000
H  17.92900 54.31300 31.23700
H  19.13300 53.27100 31.71300
H  17.55500 54.85200 33.42500
H  18.94600 53.90600 33.89000
H  10.72500 54.80800 28.46700
H  11.53000 56.38600 28.72800
H  11.83100 54.97600 29.72700
H  10.04600 55.47900 26.66100
H  9.83600 56.32300 25.11500
H  10.42100 57.14900 26.57900
H  16.06300 55.02400 22.40200
H  17.86500 52.57200 22.26600
H  14.77800 53.57600 21.02400
H  14.24400 52.94000 22.53900
H  15.59100 52.15100 21.63900
H  18.57400 54.13300 20.80900
H  19.64500 54.19800 22.22900
H  19.61300 56.35600 21.93000
H  18.21700 56.40800 22.94600
H  18.04100 56.32300 21.20400
H  21.58100 49.71400 25.35000
H  22.66500 50.98500 25.81200
H  21.77000 51.13100 24.29300
H  20.57100 51.80500 30.57400
H  20.20400 49.57400 33.92800
H  20.32400 48.35200 32.66400
H  18.67800 49.04100 33.14000

