158

Mg 47.35400 24.99100 29.18800
C  48.21100 27.43300 31.41200
C  46.61000 22.90200 31.76800
C  46.70100 22.56300 26.87300
C  49.01700 26.76800 26.68000
N  47.41200 25.19200 31.34200
C  47.59800 26.36300 32.01700
C  47.27800 26.08600 33.51700
C  47.18500 24.54500 33.69000
C  47.01900 24.19100 32.15500
C  48.41300 23.80800 34.27000
C  45.98400 26.86600 34.05500
C  46.06800 27.64800 35.39700
H  46.12900 26.74400 36.63700
N  46.48600 23.16000 29.27000
C  46.22200 22.44000 30.40100
C  45.58600 21.16300 30.04000
C  45.53400 21.09000 28.60400
C  46.24200 22.29200 28.19800
C  45.01500 20.17100 30.96500
C  44.99900 19.98400 27.63100
O  44.85100 20.22300 26.43600
C  44.44200 18.61600 28.07700
N  47.75200 24.68300 27.06500
C  47.39700 23.64900 26.31400
C  47.84400 23.76400 24.84100
C  48.45000 25.19600 24.77700
C  48.49100 25.54600 26.27300
C  48.78300 22.66300 24.30200
C  47.60300 26.16800 23.91500
C  48.33100 27.03700 22.88200
N  48.49700 26.71700 29.01500
C  48.97900 27.45200 27.93600
C  49.51700 28.77000 28.41700
C  49.18600 28.75200 29.78500
C  48.66200 27.47600 30.06800
C  50.15300 29.80100 27.58600
C  49.26000 29.58300 30.97100
O  49.71000 30.70500 31.08400
C  48.78000 28.71700 32.06600
C  49.95000 28.43800 32.90300
O  51.07500 28.06300 32.48400
O  49.65500 28.64500 34.27300
C  50.64300 28.25300 35.31500
H  46.32600 22.22900 32.57900
H  46.45800 21.75600 26.17900
H  49.49200 27.30400 25.85500
H  48.17800 26.51600 33.95700
H  46.29100 24.34300 34.27900
H  48.04000 23.22700 35.11300
H  49.18600 24.47700 34.64900
H  48.79200 23.22400 33.43100
H  45.20700 26.10600 33.97300
H  45.75500 27.52700 33.21900
H  45.21400 28.32200 35.46900
H  46.91400 28.32800 35.29700
H  45.23100 19.16600 30.60200
H  43.93900 20.33800 30.99800
H  45.26500 20.38700 32.00400
H  43.59700 18.82400 28.73300
H  45.25200 18.08100 28.57200
H  44.13000 17.98600 27.24400
H  46.92700 23.76100 24.25100
H  49.45000 25.10700 24.35100
H  48.96600 22.73600 23.23000
H  48.44200 21.64300 24.48000
H  49.63700 22.77400 24.96900
H  47.04400 26.81600 24.59000
H  46.83200 25.78400 23.24700
H  47.70600 27.06500 21.99000
H  49.37800 26.78500 22.71400
H  48.43600 28.03300 23.31400
H  49.44900 30.33800 26.95000
H  50.84300 29.24200 26.95400
H  50.76700 30.46400 28.19600
H  48.10300 29.31900 32.67100
H  50.47200 28.96600 36.12100
H  51.64700 28.37900 34.91000
H  50.52500 27.21300 35.61900
Mg 17.40800 51.01000 26.20700
C  19.03500 49.61000 28.89600
C  14.99800 52.14100 28.26800
C  15.60300 52.04900 23.43100
C  19.71400 49.51100 24.07900
N  17.00100 50.75500 28.34600
C  17.87800 50.28400 29.26800
C  17.38300 50.71800 30.62900
C  15.99000 51.27900 30.34900
C  15.99500 51.42200 28.92900
C  14.81300 50.53600 30.99400
C  18.46500 51.73300 31.27100
C  18.18900 52.28100 32.69800
H  17.28800 51.39300 33.60000
N  15.68000 52.09000 25.93000
C  14.82900 52.38900 26.92700
C  13.71000 53.21700 26.38100
C  13.86800 53.15200 24.96600
C  15.11400 52.41900 24.72700
C  12.58800 53.79800 27.20900
C  12.79600 53.68000 23.87500
O  12.96900 53.63300 22.64200
C  11.55100 54.28100 24.33800
N  17.58200 50.89100 24.05400
C  16.73100 51.33100 23.16500
C  17.17600 51.10800 21.74100
C  18.57300 50.34900 21.96200
C  18.64800 50.25700 23.49900
C  16.25600 50.25300 20.87700
C  19.83700 51.07100 21.33200
C  20.70200 52.03700 22.15600
N  19.07700 49.82700 26.40200
C  19.93100 49.28300 25.44800
C  20.94100 48.49300 26.05900
C  20.66300 48.57900 27.45800
C  19.50800 49.40400 27.58100
C  21.89900 47.63400 25.31600
C  21.01600 48.16300 28.79300
O  21.82000 47.37100 29.22200
C  20.08500 48.95200 29.75700
C  19.52200 48.12600 30.77800
O  18.62300 47.28000 30.70800
O  20.03400 48.44500 31.94700
C  19.58500 47.71700 33.09600
H  14.25900 52.51000 28.98200
H  14.95400 52.24000 22.57400
H  20.51500 49.09000 23.46800
H  17.26500 49.79500 31.19700
H  16.01900 52.33800 30.60700
H  14.97900 50.47200 32.06900
H  14.65700 49.52500 30.61900
H  13.87600 51.09300 30.97300
H  18.44700 52.58500 30.59100
H  19.46700 51.33900 31.10400
H  17.90700 53.31600 32.50400
H  19.16900 52.31500 33.17300
H  12.66200 53.66300 28.28800
H  11.58600 53.44700 26.96500
H  12.65600 54.84500 26.91400
H  11.85700 55.06200 25.03300
H  11.02200 53.54800 24.94600
H  10.95200 54.59500 23.48300
H  17.33400 52.08200 21.27700
H  18.48700 49.30700 21.65400
H  16.78400 49.60100 20.18100
H  15.51500 50.90400 20.41300
H  15.92200 49.56500 21.65300
H  19.38700 51.54000 20.45600
H  20.57300 50.36800 20.94200
H  20.99500 52.87900 21.53000
H  21.51000 51.51500 22.66900
H  20.11500 52.55100 22.91800
H  21.48700 47.04300 24.49700
H  22.44000 46.88100 25.89000
H  22.51600 48.43800 24.91500
H  20.58900 49.74300 30.31100
H  19.79500 46.65800 32.94500
H  18.52000 47.78300 33.31600
H  20.11700 48.07100 33.97900

