158

Mg 48.17400 35.13300 27.56800
C  46.22400 33.27900 29.82900
C  48.54400 37.50200 29.99900
C  49.71700 36.95600 25.21800
C  47.00600 32.94500 25.01600
N  47.48700 35.28900 29.61400
C  46.82200 34.36300 30.36300
C  46.94600 34.59700 31.83100
C  47.31900 36.14500 31.89800
C  47.85600 36.35700 30.40400
C  46.12100 37.13300 32.30000
C  48.06900 33.66500 32.35100
C  48.07800 33.38400 33.85000
H  47.20300 34.29900 34.79900
N  49.08800 36.95500 27.64800
C  49.17700 37.76600 28.75200
C  50.20400 38.76900 28.46000
C  50.63000 38.66000 27.10300
C  49.90200 37.44500 26.62700
C  50.67600 39.82600 29.55900
C  51.57600 39.46300 26.26500
O  51.79100 39.07300 25.09500
C  52.21100 40.66800 26.83800
N  48.24700 35.03500 25.36300
C  49.05200 35.90600 24.70600
C  48.96400 35.61500 23.21900
C  48.41900 34.10700 23.13000
C  47.83100 33.99400 24.59000
C  48.01800 36.58700 22.42700
C  49.39200 32.94300 22.75800
C  50.45400 32.43000 23.64000
N  46.99900 33.42700 27.36400
C  46.57800 32.65300 26.30200
C  45.56400 31.70400 26.67900
C  45.26300 31.99700 28.04700
C  46.24400 32.93800 28.43200
C  44.94500 30.65600 25.73500
C  44.43100 31.63400 29.26500
O  43.53400 30.83800 29.46600
C  45.13400 32.51600 30.48600
C  45.70200 31.34700 31.33700
O  46.45900 30.50000 30.84500
O  45.18200 31.35000 32.58000
C  45.74200 30.39000 33.51600
H  48.79500 38.10900 30.87100
H  50.07800 37.56000 24.38300
H  46.64400 32.20000 24.30500
H  46.06400 34.39000 32.43700
H  48.20300 36.29800 32.51700
H  46.29900 37.68100 33.22500
H  45.14000 36.66400 32.37900
H  46.05200 37.87400 31.50400
H  49.07600 34.03300 32.15500
H  47.84600 32.73400 31.82900
H  49.09700 33.46600 34.22800
H  47.72700 32.36700 34.02600
H  51.66000 39.53400 29.92500
H  49.96800 39.91800 30.38200
H  50.83900 40.78200 29.06100
H  53.02100 40.39700 27.51400
H  51.46500 41.30200 27.31700
H  52.72200 41.32600 26.13500
H  49.94500 35.55500 22.74800
H  47.57500 33.87500 22.48100
H  47.33400 36.95100 23.19400
H  47.59000 36.14600 21.52700
H  48.61400 37.44400 22.11300
H  49.83200 33.21900 21.80100
H  48.90800 32.01700 22.44600
H  51.29500 32.09700 23.03300
H  50.12500 31.56000 24.20800
H  50.72800 33.15200 24.41000
H  44.20800 29.99200 26.18600
H  45.65800 29.95100 25.30600
H  44.44700 31.24600 24.96500
H  44.38900 33.06300 31.06400
H  46.75400 30.11900 33.21600
H  45.05200 29.55300 33.62100
H  45.77900 30.96600 34.44000
Mg -0.04700 34.43500 26.85100
C  -2.23700 32.83000 29.17400
C  0.61700 36.78600 29.49000
C  1.47000 36.31700 24.63700
C  -1.48500 32.50200 24.22900
N  -0.71700 34.76000 29.04700
C  -1.52000 33.86600 29.75000
C  -1.54700 34.20700 31.21800
C  -0.70600 35.53400 31.28300
C  -0.27700 35.75300 29.83600
C  -1.51800 36.71900 31.89000
C  -1.04600 33.06800 32.07100
C  -1.88800 32.69000 33.25000
H  -1.44600 33.33900 34.64800
N  1.04300 36.15700 27.06200
C  1.22400 36.99800 28.20400
C  2.14800 38.07400 27.78800
C  2.50000 37.89100 26.41100
C  1.65900 36.75900 25.98500
C  2.58500 39.10300 28.81200
C  3.40800 38.67900 25.52700
O  3.56200 38.45000 24.33300
C  4.30300 39.69700 26.08800
N  -0.04000 34.41100 24.69700
C  0.80000 35.24400 24.07300
C  0.69800 34.99300 22.50200
C  -0.21200 33.67400 22.41500
C  -0.62700 33.51000 23.83900
C  0.06400 36.22400 21.79100
C  0.57300 32.49200 21.81200
C  1.51100 31.79800 22.71200
N  -1.47100 32.94900 26.70500
C  -1.90700 32.22400 25.57100
C  -2.83000 31.16600 26.05300
C  -2.94800 31.36600 27.46500
C  -2.19300 32.52300 27.76900
C  -3.63300 30.11000 25.25800
C  -3.67100 30.87500 28.63600
O  -4.56400 30.03300 28.69800
C  -3.11800 31.72300 29.79900
C  -4.36700 32.23900 30.46200
O  -5.06200 33.17200 30.08800
O  -4.48000 31.64200 31.68200
C  -5.55100 32.01700 32.56600
H  1.00600 37.50300 30.21500
H  1.94900 37.00500 23.93800
H  -1.91100 31.89600 23.42600
H  -2.60800 34.29100 31.45500
H  0.11800 35.39300 31.98100
H  -2.31200 36.43900 32.58200
H  -1.78400 37.35300 31.04400
H  -0.77300 37.14800 32.56000
H  -0.06800 33.35000 32.46200
H  -0.88100 32.21200 31.41600
H  -1.98200 31.60900 33.34800
H  -2.88600 33.07300 33.03500
H  1.73300 39.64000 29.22900
H  3.36300 39.78200 28.46200
H  2.90600 38.52600 29.67900
H  3.61700 40.49600 26.37200
H  4.98400 40.02900 25.30500
H  4.86300 39.41400 26.98000
H  1.63900 34.76000 22.00400
H  -1.06900 33.89500 21.77900
H  -0.52400 36.68900 22.58200
H  -0.61000 36.02400 20.95800
H  0.83900 36.92600 21.48200
H  1.16900 32.84600 20.97100
H  -0.12800 31.77600 21.38200
H  1.75700 32.28400 23.65600
H  2.50500 31.64700 22.29000
H  1.11600 30.79300 22.86500
H  -3.90200 29.32800 25.96800
H  -3.12400 29.80200 24.34500
H  -4.55300 30.59900 24.93600
H  -2.53800 31.12600 30.50300
H  -5.21300 32.73000 33.31800
H  -6.02000 31.14000 33.01200
H  -6.30500 32.48600 31.93300

