158

Mg 29.61100 57.36100 40.97400
C  26.74000 55.42800 39.95000
C  31.51200 54.84100 39.61500
C  32.02200 59.59300 40.80000
C  27.24100 59.94900 41.68300
N  29.14700 55.34700 39.86200
C  27.92000 54.77100 39.60100
C  28.02400 53.54100 38.62200
C  29.57600 53.19300 38.89100
C  30.11600 54.51300 39.44600
C  29.92500 52.10700 39.97000
C  27.88400 53.97300 37.15800
C  26.76700 53.25300 36.34900
H  25.96400 54.14800 35.48000
N  31.54400 57.24300 40.39700
C  32.15500 56.07100 39.95300
C  33.52900 56.39700 39.74500
C  33.77800 57.75600 40.17400
C  32.38900 58.28300 40.47700
C  34.54400 55.28600 39.26500
C  35.14500 58.45900 40.29300
O  36.14600 57.90900 39.87300
C  35.27600 59.73100 40.92300
N  29.63400 59.56100 41.05000
C  30.76600 60.19900 41.04200
C  30.59600 61.68400 41.40400
C  29.02900 61.77900 41.63600
C  28.55200 60.38400 41.46600
C  31.53700 62.26000 42.49600
C  28.23900 62.69900 40.65200
C  27.42800 63.90000 41.22700
N  27.44700 57.62100 41.09800
C  26.69300 58.70700 41.39100
C  25.28400 58.36400 41.17600
C  25.22200 57.06900 40.65300
C  26.59200 56.70500 40.52100
C  24.13100 59.29400 41.26100
C  24.42300 55.98000 40.15900
O  23.23200 55.79100 40.11800
C  25.33300 54.91500 39.59300
C  25.04000 53.67900 40.26000
O  25.19900 53.32600 41.45400
O  24.48400 52.89200 39.37700
C  23.66000 51.69000 39.82600
H  32.13000 53.98400 39.34000
H  32.82900 60.31200 40.64200
H  26.60600 60.77200 42.01700
H  27.35800 52.77900 39.02800
H  30.25300 52.85100 38.10900
H  30.47600 52.61000 40.76400
H  30.49600 51.22100 39.69300
H  28.98600 51.77600 40.41300
H  28.87600 53.83100 36.73000
H  27.60000 55.02300 37.22700
H  26.05500 52.72100 36.97900
H  27.28400 52.52600 35.72200
H  34.36000 54.87200 38.27300
H  34.52300 54.41100 39.91500
H  35.56100 55.65800 39.38200
H  35.20000 60.62500 40.30400
H  36.26800 59.75800 41.37300
H  34.66600 59.86200 41.81700
H  30.77300 62.31800 40.53500
H  28.85600 62.10500 42.66100
H  31.09000 63.06300 43.08100
H  32.54600 62.47600 42.14300
H  31.72900 61.46600 43.21800
H  27.52200 62.11800 40.07200
H  28.86600 63.16900 39.89500
H  27.25800 63.60000 42.26100
H  26.41400 63.93900 40.82800
H  27.88400 64.88300 41.11200
H  24.29300 59.70100 40.26200
H  24.03400 60.01500 42.07100
H  23.21300 58.71300 41.17500
H  25.31500 54.80700 38.50800
H  22.68400 51.99700 39.45100
H  23.53000 51.47500 40.88700
H  23.94600 50.77700 39.30400
Mg -0.13300 44.30200 27.29800
C  2.27200 44.29000 29.96600
C  -2.61400 43.63500 29.60400
C  -2.14500 43.63500 24.69200
C  2.62600 44.56500 25.03300
N  -0.15200 43.85500 29.53600
C  0.89900 44.10500 30.38400
C  0.40900 44.05000 31.86000
C  -1.04800 43.41900 31.66200
C  -1.33400 43.68600 30.16700
C  -1.34700 41.89800 32.06500
C  0.52500 45.44000 32.57700
C  0.82700 45.33600 34.07500
H  0.68200 43.97500 34.81700
N  -2.15100 43.83300 27.21900
C  -2.98700 43.68600 28.27800
C  -4.33700 43.62100 27.71100
C  -4.20400 43.56700 26.33000
C  -2.81000 43.73000 25.98300
C  -5.58400 43.56800 28.61200
C  -5.36400 43.45700 25.19600
O  -5.11900 43.42900 24.00800
C  -6.77300 43.44300 25.57300
N  0.19300 44.05600 25.12300
C  -0.80300 43.83800 24.27800
C  -0.34000 43.87500 22.82800
C  1.04700 44.53800 22.96300
C  1.33700 44.29100 24.47200
C  -0.17900 42.49700 22.10900
C  1.10900 46.01600 22.57700
C  1.05900 47.04100 23.71000
N  2.07800 44.44400 27.44100
C  3.01100 44.61600 26.43400
C  4.30800 44.71700 26.96500
C  4.04900 44.64000 28.36500
C  2.66700 44.43500 28.61600
C  5.58400 44.90600 26.20300
C  4.66700 44.66200 29.72900
O  5.84300 44.69100 30.12900
C  3.54100 44.58200 30.78600
C  3.84200 43.49000 31.75600
O  3.64200 42.26300 31.50800
O  4.18400 43.96100 32.94500
C  4.77200 42.84800 33.80000
H  -3.44200 43.42500 30.28300
H  -2.85300 43.63300 23.86200
H  3.50200 44.69400 24.39300
H  1.05500 43.33200 32.36600
H  -1.69400 44.07600 32.24500
H  -1.76000 41.39900 31.18800
H  -2.13800 41.81800 32.81000
H  -0.39800 41.40100 32.26600
H  -0.42800 45.96900 32.56900
H  1.27300 46.08700 32.11900
H  0.19400 46.02700 34.63100
H  1.89500 45.55500 34.09400
H  -5.34300 43.33900 29.65000
H  -6.13800 42.72400 28.20200
H  -6.23200 44.41800 28.39800
H  -6.81000 44.13000 26.41900
H  -7.15800 42.47200 25.88500
H  -7.35500 43.97100 24.81800
H  -1.02900 44.46900 22.22900
H  1.85100 44.03700 22.42300
H  -0.40100 41.67800 22.79400
H  0.74800 42.33600 21.55900
H  -0.91500 42.45100 21.30600
H  0.22100 46.28500 22.00500
H  1.99600 46.23000 21.98200
H  1.11600 46.81600 24.77500
H  0.31500 47.82800 23.59300
H  2.03000 47.51900 23.58200
H  5.62900 44.40500 25.23600
H  6.22200 44.49600 26.98600
H  5.95700 45.91900 26.04700
H  3.56100 45.57800 31.22800
H  4.11600 42.03100 34.09800
H  5.32600 43.15900 34.68500
H  5.55700 42.45400 33.15400

