158

Mg 49.23300 34.48700 26.10100
C  47.21300 33.24400 28.68300
C  50.15700 36.98200 28.07800
C  50.67700 35.77300 23.31600
C  48.07700 31.81700 24.14400
N  48.64600 35.04200 28.16800
C  47.90000 34.40800 29.04200
C  48.03100 35.08800 30.42700
C  48.69400 36.41100 30.13200
C  49.27200 36.12400 28.71300
C  47.77900 37.61500 30.14300
C  48.80100 34.18600 31.46600
C  48.10600 34.19000 32.86200
H  47.43700 35.41300 33.34600
N  50.36600 36.08800 25.79600
C  50.67400 36.99800 26.74400
C  51.56300 37.92600 26.16500
C  51.74900 37.55400 24.73200
C  50.86500 36.43900 24.53600
C  52.19600 39.09200 26.86600
C  52.62800 38.25800 23.63300
O  52.81500 37.80200 22.49200
C  53.38200 39.55300 24.10900
N  49.22900 33.95300 23.96800
C  49.97100 34.62500 23.00300
C  50.06300 33.81900 21.64800
C  49.42400 32.46900 22.03100
C  48.96300 32.74800 23.50500
C  49.31600 34.50000 20.39800
C  50.37400 31.27200 21.85100
C  49.82100 30.03700 21.13800
N  47.78400 32.89100 26.22100
C  47.50400 31.83500 25.38900
C  46.57000 30.88200 26.05700
C  46.29900 31.50600 27.31000
C  47.20500 32.60900 27.40600
C  45.96900 29.61700 25.57800
C  45.62600 31.30500 28.49400
O  44.78800 30.49000 28.83100
C  46.14800 32.49600 29.43400
C  46.47100 31.83300 30.77700
O  47.53400 31.30200 31.07200
O  45.33900 31.96300 31.54700
C  45.49600 31.27000 32.86100
H  50.39400 37.91000 28.60300
H  51.11500 36.19500 22.40900
H  47.95700 30.88800 23.58300
H  46.99400 35.23800 30.72600
H  49.42800 36.68900 30.88800
H  46.94400 37.62000 30.84300
H  47.39500 37.63600 29.12300
H  48.30000 38.56900 30.21500
H  49.75600 34.69500 31.59700
H  48.88800 33.19500 31.02200
H  48.93300 34.15100 33.57100
H  47.46000 33.33100 33.04200
H  52.11700 38.93700 27.94200
H  51.70300 40.06000 26.78700
H  53.26400 39.10800 26.64700
H  52.60100 40.13900 24.59300
H  53.85200 40.00300 23.23400
H  54.23200 39.30700 24.74500
H  51.11800 33.66700 21.42200
H  48.54800 32.23500 21.42700
H  50.09100 34.64400 19.64500
H  48.83700 35.44500 20.65600
H  48.54300 33.78400 20.11900
H  50.56100 30.84200 22.83500
H  51.35800 31.58100 21.50100
H  48.82400 30.21200 20.73400
H  49.83900 29.20000 21.83700
H  50.52600 29.89300 20.31900
H  46.52200 29.20200 24.73500
H  44.89000 29.68800 25.44300
H  46.23300 28.92500 26.37800
H  45.17700 32.97600 29.55300
H  46.40600 30.69900 33.04400
H  44.70000 30.52600 32.86700
H  45.44000 31.90600 33.74400
Mg 30.12800 57.67200 40.62100
C  27.42700 55.81900 39.31300
C  32.24900 55.69600 38.90700
C  32.64700 59.99900 40.89600
C  27.77600 60.24500 41.49800
N  29.82300 56.00300 39.25200
C  28.66600 55.33500 38.92500
C  28.84800 54.09200 37.96200
C  30.38200 53.85500 38.37300
C  30.91100 55.24100 38.86000
C  30.63900 52.64100 39.36300
C  28.51800 54.47400 36.46000
C  27.70400 53.36600 35.76000
H  26.52600 53.85000 34.84700
N  32.15300 57.74100 40.16600
C  32.83600 56.80600 39.43600
C  34.26300 57.15900 39.34300
C  34.44700 58.36900 40.07800
C  33.06500 58.77000 40.37100
C  35.40200 56.20100 38.66500
C  35.75600 59.02600 40.47800
O  36.82800 58.57600 40.12300
C  35.82100 60.16800 41.55500
N  30.19600 59.94800 40.86500
C  31.37900 60.61000 41.13000
C  31.20300 61.97000 41.88500
C  29.61000 62.08100 41.71500
C  29.08800 60.69800 41.35100
C  31.74400 62.08500 43.34000
C  29.22000 63.12800 40.63500
C  28.91100 64.54900 41.27000
N  28.07100 57.94200 40.65500
C  27.22900 59.05000 41.07900
C  25.86800 58.54300 41.07100
C  25.88600 57.30400 40.37000
C  27.23400 57.00300 40.07700
C  24.64400 59.30200 41.50300
C  25.02700 56.31800 39.73100
O  23.82300 56.17100 39.66900
C  26.08000 55.20700 39.09200
C  25.79700 53.82900 39.62200
O  26.30200 53.37000 40.63800
O  24.90100 53.15300 38.77200
C  24.56900 51.73600 39.19000
H  32.99400 55.03900 38.45300
H  33.47500 60.66900 41.13400
H  26.99600 60.94100 41.81300
H  28.28400 53.23300 38.32400
H  31.01300 53.70200 37.49800
H  30.98800 53.05800 40.30700
H  31.38700 52.05700 38.82700
H  29.72300 52.07200 39.52200
H  29.48700 54.49500 35.96000
H  28.11400 55.48600 36.43500
H  27.27600 52.69500 36.50500
H  28.26300 52.85200 34.97800
H  36.04300 55.63300 39.33900
H  36.10300 56.68700 37.98600
H  34.87300 55.47900 38.04400
H  35.51500 61.06400 41.01500
H  36.84800 60.34300 41.87600
H  35.19600 59.92500 42.41500
H  31.68500 62.75600 41.30400
H  29.26300 62.41200 42.69400
H  32.34700 61.18000 43.40900
H  30.95100 62.26500 44.06700
H  32.31600 63.01300 43.35100
H  28.26000 62.85000 40.20200
H  29.92400 63.13000 39.80200
H  27.87500 64.87500 41.17700
H  29.52400 65.29800 40.76900
H  29.12500 64.48400 42.33700
H  23.91500 58.63700 41.96700
H  24.27900 59.66800 40.54300
H  24.97500 60.08000 42.19100
H  25.82200 55.17500 38.03300
H  24.81100 51.11300 38.32900
H  23.50600 51.64000 39.41100
H  25.07800 51.48300 40.12100

