158

Mg 25.41100 1.40700 30.20700
C  27.71800 0.94300 32.92200
C  22.87600 1.72300 32.51300
C  23.27600 1.53700 27.65700
C  28.02600 0.55400 28.07100
N  25.33500 1.28700 32.51100
C  26.40400 1.26300 33.37500
C  25.92900 1.57300 34.84900
C  24.39700 1.70500 34.68100
C  24.14500 1.59000 33.14300
C  23.79600 0.48500 35.41100
C  26.68300 2.87100 35.49000
C  27.10300 2.85700 36.98700
H  26.39500 3.93300 37.88300
N  23.37200 1.59900 30.11500
C  22.52400 1.76600 31.18700
C  21.15200 1.93900 30.65000
C  21.23400 1.69000 29.27900
C  22.65900 1.54700 28.95500
C  19.86700 2.27600 31.37800
C  20.20000 1.66000 28.23900
O  20.45700 1.28900 27.13800
C  18.77100 1.91900 28.62600
N  25.49000 0.85800 28.12200
C  24.55600 1.30700 27.24400
C  25.11200 1.20600 25.77200
C  26.67000 1.06100 25.93900
C  26.78300 0.86400 27.47700
C  24.50200 0.22600 24.72900
C  27.52400 2.14600 25.31300
C  27.59400 3.59100 26.02700
N  27.43100 0.88300 30.38200
C  28.41700 0.56000 29.40900
C  29.72600 0.35100 29.99200
C  29.44500 0.51100 31.37400
C  28.11600 0.80800 31.52700
C  31.07400 -0.00200 29.31200
C  30.12600 0.46500 32.63600
O  31.29700 0.34800 32.92800
C  29.03800 0.91400 33.68200
C  28.89100 -0.14600 34.88100
O  28.10300 -1.06300 34.90500
O  29.64000 0.22800 35.96300
C  29.22300 -0.49900 37.18300
H  21.97900 1.88400 33.11400
H  22.61500 1.83000 26.83800
H  28.90100 0.49600 27.42000
H  26.14700 0.69000 35.45000
H  23.84300 2.51200 35.16200
H  24.36400 0.36900 36.33400
H  23.80900 -0.30700 34.66200
H  22.77100 0.67100 35.73400
H  25.98800 3.71000 35.51100
H  27.60300 3.21900 35.02000
H  28.14200 3.17800 37.05000
H  26.95600 1.89800 37.48500
H  19.29600 1.35100 31.29200
H  19.40000 3.17100 30.96800
H  19.93000 2.38200 32.46100
H  18.22300 1.85800 27.68500
H  18.74300 2.90400 29.09100
H  18.35600 1.14900 29.27600
H  24.94600 2.20800 25.37600
H  27.21700 0.21400 25.52300
H  24.00800 0.67800 23.86900
H  23.73700 -0.44800 25.11400
H  25.22000 -0.51200 24.37100
H  27.26800 2.32000 24.26700
H  28.57500 1.85600 25.32300
H  26.94800 3.55400 26.90400
H  27.19100 4.25400 25.26100
H  28.61900 3.86100 26.27900
H  31.00400 -0.46700 28.32800
H  31.50700 -0.71200 30.01700
H  31.74600 0.84300 29.16300
H  29.32400 1.90100 34.04300
H  29.68300 -1.47900 37.31400
H  28.14900 -0.63700 37.30400
H  29.56200 0.09400 38.03200
Mg 46.49600 25.73100 29.24800
C  47.35000 27.80400 31.73000
C  45.70600 23.21500 31.71200
C  46.24100 23.18700 26.95100
C  48.13500 27.59200 26.87500
N  46.58400 25.55200 31.43700
C  46.77300 26.60600 32.27400
C  46.51900 26.31500 33.77900
C  46.36800 24.75100 33.73800
C  46.17300 24.44600 32.23200
C  47.49700 23.85700 34.38200
C  45.43000 27.21800 34.36200
C  45.69000 27.94200 35.69100
H  46.33500 27.22500 36.95900
N  45.72800 23.69600 29.24100
C  45.48000 22.87400 30.35700
C  44.81000 21.68300 29.90400
C  45.13300 21.62300 28.47700
C  45.66100 22.92100 28.16100
C  44.20000 20.65000 30.85400
C  45.00700 20.42700 27.56700
O  45.24500 20.36600 26.39300
C  44.37000 19.19700 28.11000
N  47.09400 25.41500 27.13700
C  46.89700 24.33600 26.42300
C  47.44900 24.35300 25.04400
C  47.97300 25.87500 24.99000
C  47.75100 26.31100 26.42300
C  48.45300 23.17800 24.81800
C  47.32900 26.84900 23.88400
C  48.32500 27.37900 22.84900
N  47.44900 27.44500 29.21100
C  47.98300 28.16900 28.18400
C  48.68700 29.33100 28.76000
C  48.35700 29.27700 30.12900
C  47.63600 28.09100 30.36300
C  49.36100 30.48600 28.14300
C  48.47300 29.93800 31.40000
O  48.95000 31.04300 31.57500
C  47.91400 28.98500 32.44100
C  49.06500 28.62000 33.26300
O  49.91000 27.80500 32.89700
O  49.00200 29.28600 34.45700
C  50.10200 29.14000 35.42500
H  45.35200 22.67000 32.59000
H  46.20500 22.46200 26.13600
H  48.76300 28.22700 26.24600
H  47.39900 26.72500 34.27400
H  45.48000 24.68300 34.36500
H  48.47100 24.27500 34.12600
H  47.41100 22.87600 33.91300
H  47.37400 23.77400 35.46200
H  44.43800 26.76900 34.41500
H  45.31700 28.11000 33.74700
H  44.67700 28.21800 35.98400
H  46.30500 28.81900 35.48900
H  43.23100 20.58400 30.36000
H  44.00400 21.08100 31.83600
H  44.84700 19.78000 30.96500
H  45.11800 18.83200 28.81400
H  44.29800 18.44700 27.32300
H  43.37400 19.30600 28.54100
H  46.64100 24.26700 24.31800
H  49.05800 25.92800 24.90100
H  48.04000 22.52800 24.04700
H  48.66900 22.64600 25.74400
H  49.39500 23.62100 24.49400
H  46.91900 27.74100 24.35600
H  46.50200 26.33100 23.39700
H  47.99700 27.16100 21.83200
H  49.37700 27.10500 22.92700
H  48.39200 28.46100 22.95700
H  48.80200 31.40500 28.32300
H  49.52700 30.29200 27.08400
H  50.24900 30.67000 28.74700
H  47.13700 29.54000 32.96700
H  51.00900 28.71000 35.00000
H  49.84900 28.71000 36.39400
H  50.43600 30.16100 35.61400

