158

Mg 0.83000 8.48100 26.07600
C  1.52200 10.27600 29.10300
C  1.49800 5.56200 27.89200
C  0.59400 6.75000 23.30000
C  1.23700 11.45500 24.36100
N  1.56400 8.04100 28.25200
C  1.44900 8.90200 29.29700
C  1.30000 8.21500 30.61100
C  1.59400 6.72800 30.24200
C  1.58800 6.75800 28.68500
C  2.96400 6.29600 30.80500
C  -0.06700 8.54500 31.28300
C  -0.02800 8.67600 32.81200
H  1.14600 8.02400 33.57600
N  0.94800 6.49100 25.66900
C  1.18800 5.43400 26.54500
C  1.18400 4.21000 25.79900
C  0.69400 4.55000 24.49500
C  0.74800 5.99400 24.42300
C  1.63000 2.89700 26.39500
C  0.23000 3.68700 23.31400
O  -0.00800 4.06000 22.20600
C  0.12600 2.29500 23.50400
N  0.71700 9.02800 24.18600
C  0.64400 8.13900 23.18800
C  0.69400 8.80400 21.75900
C  0.45600 10.31600 22.18400
C  0.91500 10.32100 23.64400
C  2.05900 8.46700 21.07300
C  -1.01300 10.70700 22.06600
C  -1.41000 11.68100 20.92700
N  1.29200 10.45900 26.57300
C  1.32400 11.59200 25.73100
C  1.63800 12.75300 26.55200
C  1.67400 12.28300 27.91700
C  1.45800 10.92000 27.80500
C  1.88500 14.13100 26.08900
C  1.85000 12.73400 29.25900
O  2.07000 13.80900 29.78300
C  1.66000 11.48800 30.12300
C  2.73700 11.26800 31.13300
O  3.85800 10.78800 30.92200
O  2.38300 11.80200 32.41600
C  3.35100 11.75100 33.51900
H  1.62400 4.69700 28.54700
H  0.59200 6.28800 22.31100
H  1.39800 12.32600 23.72200
H  2.10500 8.58900 31.24300
H  0.79000 6.16000 30.70900
H  2.67100 5.38900 31.33400
H  3.31500 6.95400 31.59900
H  3.67600 5.98100 30.04200
H  -0.68300 7.69500 30.99200
H  -0.55800 9.44100 30.90300
H  -0.93100 8.16400 33.14400
H  -0.12100 9.70700 33.15500
H  1.12000 2.02300 25.99000
H  1.48300 2.79300 27.47000
H  2.69600 2.83600 26.17700
H  -0.19600 1.82600 22.57400
H  -0.58700 2.02800 24.28300
H  1.14600 2.00400 23.75600
H  -0.05500 8.38900 21.08600
H  1.01500 10.89600 21.45000
H  2.36600 7.46100 21.36000
H  2.86000 9.15100 21.35400
H  1.87300 8.32700 20.00800
H  -1.33400 11.27100 22.94200
H  -1.69100 9.85600 22.13700
H  -0.53600 11.63100 20.27700
H  -1.63100 12.68300 21.29400
H  -2.29800 11.35700 20.38500
H  2.14300 14.76000 26.94100
H  0.91000 14.50800 25.78400
H  2.49300 14.06200 25.18700
H  0.78600 11.48200 30.77500
H  3.49600 12.70400 34.02700
H  4.33400 11.37100 33.24300
H  2.88500 11.07200 34.23300
Mg 17.51000 -0.30000 27.41000
C  16.41800 1.53300 30.22700
C  19.54400 -2.11300 29.66000
C  18.97300 -1.60000 24.83300
C  15.79700 1.99300 25.42900
N  17.82000 -0.44200 29.74500
C  17.25000 0.43800 30.62700
C  17.58700 0.05200 32.02200
C  18.70500 -1.02000 31.84200
C  18.73600 -1.25900 30.34200
C  20.07200 -0.78400 32.50100
C  16.39400 -0.44900 32.89900
C  16.40300 -0.05800 34.43400
H  17.72400 0.47100 35.07700
N  18.92100 -1.73700 27.23500
C  19.55700 -2.46200 28.26800
C  20.44600 -3.45100 27.71200
C  20.43900 -3.31200 26.27000
C  19.41300 -2.21300 26.05300
C  21.22600 -4.48500 28.58400
C  21.06000 -4.05800 25.21500
O  20.87900 -3.84300 24.01300
C  21.98400 -5.12000 25.50700
N  17.36300 0.09600 25.38100
C  18.15300 -0.56200 24.50600
C  17.86700 -0.03700 23.03300
C  16.60700 0.96900 23.24200
C  16.54700 1.03200 24.77000
C  19.06400 0.57000 22.27300
C  15.29200 0.59800 22.58100
C  14.41800 -0.38500 23.45500
N  16.21900 1.35200 27.67100
C  15.61100 2.18400 26.73800
C  14.86200 3.23400 27.39400
C  15.16200 2.99300 28.80000
C  16.02600 1.84600 28.89000
C  14.06000 4.35300 26.87300
C  14.98700 3.50800 30.16300
O  14.34400 4.46800 30.51300
C  15.76700 2.56200 31.06200
C  16.70700 3.32500 32.02200
O  17.89600 3.58400 31.96000
O  15.89100 3.66300 33.08700
C  16.39200 4.60600 34.12800
H  20.10000 -2.77200 30.33000
H  19.43700 -1.99500 23.92700
H  15.28800 2.72600 24.79900
H  18.07700 0.89600 32.50500
H  18.34900 -1.87700 32.41300
H  20.05400 0.18300 33.00300
H  20.89900 -0.89900 31.80000
H  20.39400 -1.44700 33.30400
H  16.29100 -1.52500 32.75500
H  15.48900 -0.00600 32.48500
H  16.10900 -0.95300 34.98300
H  15.60400 0.67000 34.57400
H  21.40600 -5.43900 28.08900
H  20.63900 -4.78000 29.45400
H  22.17800 -4.05000 28.89100
H  22.83000 -4.79400 26.11100
H  22.52400 -5.48100 24.63100
H  21.39200 -5.90100 25.98600
H  17.52000 -0.95300 22.55500
H  16.90500 1.96300 22.90900
H  19.85100 1.12100 22.78800
H  18.67200 1.20300 21.47600
H  19.66200 -0.21800 21.81700
H  15.47400 0.07400 21.64200
H  14.81700 1.55500 22.36600
H  14.25500 0.20400 24.35800
H  15.00500 -1.28900 23.61500
H  13.45800 -0.59500 22.98200
H  12.98200 4.18700 26.86600
H  14.31000 4.66600 25.86000
H  14.31500 5.17300 27.54500
H  15.11100 2.03000 31.75100
H  15.77100 4.48300 35.01600
H  16.27000 5.67500 33.95500
H  17.43400 4.41700 34.38800

