158

Mg 34.94800 2.28500 29.24600
C  33.03100 3.41200 32.06200
C  37.74800 2.77300 31.15800
C  36.78700 2.05000 26.43300
C  32.02800 2.57000 27.37100
N  35.29400 3.00300 31.31100
C  34.42100 3.29800 32.30600
C  35.10100 3.54800 33.63700
C  36.62100 3.52200 33.29400
C  36.57700 3.10400 31.85400
C  37.40500 4.85600 33.59900
C  34.72600 2.42700 34.71300
C  34.30000 2.95100 36.08400
H  35.30300 3.97400 36.80100
N  37.00500 2.07900 28.83700
C  38.00400 2.27000 29.78900
C  39.34500 1.96200 29.17000
C  39.06000 1.76700 27.78700
C  37.59200 1.91100 27.59900
C  40.67900 2.09600 29.89600
C  40.07400 1.52800 26.65300
O  39.83400 1.58700 25.44800
C  41.45700 1.26300 26.97500
N  34.46200 2.39400 27.26700
C  35.42800 2.16100 26.32400
C  34.83400 1.97400 24.95100
C  33.32100 1.88100 25.31200
C  33.24500 2.27300 26.76600
C  35.14600 3.21200 24.10000
C  32.74100 0.49500 25.18900
C  31.45000 0.43500 24.30700
N  32.90700 2.85400 29.58100
C  31.85400 2.90400 28.72400
C  30.67200 3.30900 29.44900
C  31.08400 3.54200 30.79700
C  32.45800 3.19800 30.78300
C  29.35500 3.37200 28.85800
C  30.61400 3.83700 32.20400
O  29.54600 4.11500 32.75200
C  31.95600 3.83400 33.01000
C  32.14000 5.16300 33.63200
O  32.41200 6.19200 33.13200
O  31.71600 5.02000 34.94900
C  31.70900 6.23000 35.75200
H  38.67100 2.75000 31.74000
H  37.27000 2.22300 25.46900
H  31.19200 2.47700 26.67500
H  34.86000 4.52900 34.04500
H  37.12000 2.69800 33.80500
H  38.15800 4.68500 34.36800
H  36.71200 5.62300 33.94500
H  37.84700 5.19100 32.66100
H  35.58100 1.90400 35.14200
H  33.97700 1.73300 34.33100
H  34.20300 2.06600 36.71400
H  33.26300 3.25200 35.94200
H  41.14500 3.06200 29.70400
H  41.29100 1.26100 29.55600
H  40.45100 1.96200 30.95400
H  41.96200 0.89600 26.08100
H  41.43200 0.42500 27.67200
H  41.87700 2.12000 27.50100
H  35.12700 1.16500 24.28100
H  32.74100 2.68600 24.86200
H  35.74100 3.90200 24.69900
H  34.23900 3.65900 23.69500
H  35.71800 2.94700 23.21100
H  32.40900 0.15000 26.16800
H  33.48500 -0.25800 24.92700
H  30.58800 0.14700 24.90900
H  31.67100 -0.38800 23.62800
H  31.29400 1.38200 23.78900
H  28.75000 4.10400 29.39300
H  28.92400 2.37100 28.89300
H  29.48500 3.75200 27.84500
H  31.91600 3.12800 33.84000
H  30.86600 6.33400 36.43600
H  31.70700 7.15100 35.17000
H  32.58200 6.15400 36.40000
Mg -1.85000 33.67900 27.57700
C  -3.86800 32.04100 30.08100
C  -0.70000 35.76400 30.05400
C  -0.39800 35.42500 25.22700
C  -3.70000 31.92100 25.12900
N  -2.22900 33.81700 29.80300
C  -3.01300 33.01800 30.66600
C  -2.76800 33.33600 32.12700
C  -1.95100 34.66300 32.02800
C  -1.69600 34.85600 30.44400
C  -2.57300 35.89300 32.65600
C  -2.10900 32.14900 32.97100
C  -3.09100 31.61600 34.08200
H  -2.53300 31.55500 35.45500
N  -0.54000 35.30700 27.64700
C  -0.16500 36.05700 28.76700
C  0.76900 37.03200 28.30400
C  0.88800 36.96200 26.84000
C  -0.14200 35.88300 26.49300
C  1.37000 38.03900 29.22300
C  1.65200 37.89200 25.85900
O  1.56000 37.94300 24.65800
C  2.48000 38.99000 26.47600
N  -2.04100 33.65200 25.45000
C  -1.25400 34.50300 24.65600
C  -1.34000 34.21200 23.16200
C  -2.21600 32.87600 23.22600
C  -2.70000 32.80900 24.67300
C  -2.01800 35.46200 22.40900
C  -1.29800 31.59400 22.98300
C  -1.93000 30.43200 22.09700
N  -3.44600 32.18600 27.54300
C  -4.07200 31.55600 26.48100
C  -5.06600 30.68000 27.00300
C  -4.91800 30.72400 28.37900
C  -3.94400 31.71900 28.69700
C  -5.84600 29.74200 26.21500
C  -5.33800 30.10700 29.66700
O  -6.23100 29.27800 29.83400
C  -4.68400 30.94800 30.79800
C  -5.74900 31.48100 31.65200
O  -6.38100 32.48800 31.36800
O  -5.96200 30.75100 32.78300
C  -6.77800 31.39800 33.86000
H  -0.26400 36.23200 30.93900
H  0.15700 35.98800 24.47400
H  -4.29500 31.31800 24.44000
H  -3.71000 33.65100 32.57700
H  -1.00400 34.43700 32.51900
H  -2.33500 36.79700 32.09600
H  -2.37000 36.10900 33.70500
H  -3.66000 35.80800 32.63900
H  -1.17400 32.42600 33.45700
H  -1.95300 31.24400 32.38400
H  -3.41200 30.58000 33.97900
H  -3.92300 32.31300 34.17500
H  1.23100 37.91800 30.29700
H  1.06400 39.05900 28.98800
H  2.42600 37.85300 29.02900
H  1.93500 39.54800 27.23800
H  2.89600 39.63900 25.70600
H  3.35800 38.58800 26.98100
H  -0.30200 34.04100 22.87400
H  -3.07500 32.81000 22.55900
H  -2.45500 36.19300 23.08900
H  -2.72000 35.06600 21.67500
H  -1.20700 35.98800 21.90600
H  -0.89500 31.26700 23.94200
H  -0.36500 31.97200 22.56700
H  -2.91800 30.76000 21.77300
H  -1.98900 29.58200 22.77700
H  -1.35500 30.18700 21.20500
H  -5.79300 28.69200 26.50200
H  -5.56500 29.78100 25.16200
H  -6.86900 30.11700 26.24600
H  -4.10700 30.26700 31.42400
H  -6.14700 31.76500 34.67000
H  -7.54100 30.75600 34.30000
H  -7.34700 32.30100 33.63600

