158

Mg 46.90200 34.87100 26.90400
C  45.73300 33.49000 29.85400
C  47.29200 37.81300 28.53700
C  47.41600 36.38000 23.87800
C  46.27700 31.80400 25.26900
N  46.66700 35.50900 28.95600
C  46.32700 34.74300 30.00800
C  46.69300 35.43900 31.34900
C  46.87500 36.93900 30.90400
C  46.96400 36.76000 29.33700
C  45.74700 37.97000 31.34400
C  47.97700 34.80700 31.89200
C  48.37800 35.23900 33.35100
H  47.40700 36.11900 34.20000
N  47.26100 36.86200 26.33400
C  47.47300 37.90200 27.13800
C  47.81500 39.09800 26.39400
C  47.82200 38.68900 25.03200
C  47.44900 37.27300 25.01500
C  48.19800 40.33200 27.14200
C  48.21700 39.46200 23.74700
O  48.12400 38.98400 22.63200
C  48.88400 40.79900 23.93300
N  46.98200 34.17100 24.96500
C  47.20700 34.96300 23.89500
C  47.33200 34.07300 22.61100
C  47.10300 32.64100 23.04200
C  46.81100 32.84600 24.51600
C  46.50900 34.52500 21.34500
C  48.21300 31.65300 22.65200
C  49.58600 31.86500 23.35100
N  46.00200 33.04600 27.36700
C  45.84400 31.86400 26.68100
C  45.37300 30.80500 27.52700
C  45.23900 31.37600 28.79500
C  45.67600 32.76200 28.66800
C  45.11100 29.44100 27.07400
C  44.86000 31.18100 30.18300
O  44.50400 30.13100 30.72800
C  44.95000 32.60700 30.87100
C  45.33500 32.51700 32.30200
O  46.14200 31.74800 32.66500
O  44.58800 33.33600 33.06200
C  44.71500 32.96000 34.47400
H  47.41600 38.79200 29.00400
H  47.64100 36.67700 22.85100
H  46.33100 30.82700 24.78500
H  45.90400 35.38800 32.09900
H  47.79700 37.36300 31.30200
H  46.33400 38.83100 31.66400
H  45.24400 37.58300 32.23000
H  45.00000 38.25000 30.60100
H  48.81600 35.10000 31.26100
H  47.85000 33.72500 31.86100
H  49.38200 35.66200 33.31400
H  48.42100 34.31100 33.92100
H  47.33900 40.69400 27.70700
H  48.51300 41.17100 26.52100
H  48.99700 39.92900 27.76400
H  49.35100 41.07300 22.98700
H  49.71400 40.74400 24.63800
H  48.10300 41.55200 24.03800
H  48.38100 34.11500 22.31700
H  46.15100 32.19700 22.75000
H  46.00800 33.65200 20.92700
H  47.11200 35.03600 20.59400
H  45.71500 35.20700 21.64900
H  48.37400 31.70800 21.57500
H  47.91800 30.61000 22.76800
H  50.35000 31.97800 22.58300
H  49.67200 31.02300 24.03800
H  49.42300 32.75000 23.96700
H  45.92100 29.23500 26.37400
H  44.14300 29.49900 26.57600
H  45.21900 28.75400 27.91200
H  43.91400 32.94800 30.85800
H  44.52400 31.89400 34.60000
H  43.89200 33.46800 34.97800
H  45.64600 33.32900 34.90300
Mg 6.85100 53.21300 42.02900
C  6.25200 49.66000 41.54500
C  10.06000 52.62000 40.71200
C  7.36100 56.48200 41.81500
C  3.47300 53.51800 42.48500
N  7.94700 51.28100 41.02400
C  7.56800 49.96000 41.17500
C  8.78200 49.11200 40.73200
C  9.92500 50.04800 40.62500
C  9.33600 51.42000 40.91000
C  11.13400 49.76500 41.56500
C  8.67900 48.09200 39.60100
C  8.67100 48.65300 38.21200
H  7.35100 48.49800 37.54100
N  8.54400 54.35000 41.47000
C  9.76600 53.96800 40.98000
C  10.65400 55.16000 40.88000
C  9.87500 56.23100 41.34600
C  8.49500 55.71900 41.49900
C  12.11700 55.02300 40.51100
C  10.40300 57.59500 41.60000
O  11.55500 57.83200 41.46100
C  9.62100 58.78100 42.08100
N  5.59000 54.74100 42.04300
C  6.09000 56.01000 42.12600
C  5.04000 56.94400 42.61600
C  3.75200 56.00600 42.63200
C  4.29000 54.65600 42.43000
C  5.21300 57.80300 43.94200
C  2.65400 56.41900 41.63100
C  2.47800 55.58700 40.34600
N  5.17000 51.90200 42.11100
C  3.89800 52.20300 42.39200
C  3.07300 51.08200 42.48600
C  3.99000 50.03800 42.25700
C  5.23000 50.61800 41.98100
C  1.57800 51.01000 42.80800
C  4.15300 48.61900 42.22200
O  3.29900 47.80200 42.60100
C  5.60500 48.22900 41.76100
C  5.23100 47.57500 40.43800
O  4.62200 48.07500 39.48000
O  5.66200 46.26700 40.37900
C  5.14900 45.24400 39.42100
H  11.08100 52.44700 40.36700
H  7.64600 57.51800 42.01100
H  2.45000 53.72100 42.80800
H  8.80800 48.59600 41.69200
H  10.37000 50.01100 39.63100
H  10.65200 49.28200 42.41500
H  11.49800 50.72100 41.94000
H  11.97100 49.29100 41.05300
H  7.76000 47.51100 39.68000
H  9.60100 47.55000 39.81200
H  9.26100 47.98500 37.58400
H  8.78800 49.73500 38.15000
H  12.65800 54.94300 41.45400
H  12.36000 55.94400 39.98200
H  12.42600 54.24700 39.81000
H  8.98000 59.12500 41.26900
H  10.32500 59.58500 42.29200
H  9.10600 58.49700 42.99900
H  5.02000 57.67600 41.80800
H  3.19000 56.17200 43.55100
H  6.23200 58.00700 44.27000
H  4.54300 57.39200 44.69600
H  4.88800 58.83900 43.84000
H  2.78200 57.45700 41.32600
H  1.78300 56.28700 42.27300
H  3.44500 55.17700 40.05700
H  2.12000 56.18300 39.50600
H  1.79200 54.75500 40.50500
H  1.17300 50.81300 41.81600
H  1.24500 51.97200 43.20000
H  1.29400 50.17300 43.44500
H  6.08700 47.45500 42.35800
H  4.95300 45.62500 38.41900
H  4.25500 44.82900 39.88600
H  5.89000 44.44600 39.37700

