158

Mg -0.40800 7.56900 26.58700
C  0.39700 9.52500 29.36100
C  -0.48900 4.70600 28.56600
C  -0.80400 5.80300 23.75100
C  0.26000 10.45500 24.54900
N  0.02000 7.21300 28.78300
C  0.13800 8.18500 29.75200
C  0.20600 7.49800 31.17100
C  0.04100 5.93600 30.84200
C  -0.30200 5.93500 29.31600
C  1.23100 5.00400 31.33200
C  -0.75500 8.13400 32.17700
C  -0.15300 8.59100 33.59400
H  -0.98000 8.11800 34.81800
N  -0.73900 5.60000 26.27700
C  -0.73400 4.54900 27.21300
C  -0.95200 3.32200 26.53300
C  -1.25200 3.59000 25.15500
C  -0.97800 5.06700 24.98700
C  -1.03100 1.95900 27.26800
C  -1.56800 2.67600 23.94800
O  -1.72200 3.04800 22.76800
C  -1.72800 1.23800 24.27700
N  -0.09800 7.98000 24.46600
C  -0.55000 7.10300 23.52500
C  -0.47900 7.72100 22.11100
C  -0.33300 9.22500 22.40500
C  0.02300 9.22500 23.90900
C  0.59700 7.06300 21.15800
C  -1.53800 10.02900 22.04200
C  -1.41000 11.47300 21.51700
N  0.33900 9.67500 26.81400
C  0.53100 10.62700 25.89100
C  0.81800 11.84600 26.62900
C  0.95100 11.39700 27.99400
C  0.51800 10.09500 28.03800
C  0.99300 13.21000 26.16300
C  1.23600 11.86600 29.33400
O  1.67600 12.91000 29.84600
C  0.78900 10.67400 30.25100
C  1.98500 10.36200 31.10300
O  3.00400 9.81500 30.71200
O  1.80400 10.83000 32.36500
C  2.96000 10.56800 33.26500
H  -0.68300 3.78600 29.12100
H  -1.04300 5.11900 22.93500
H  0.17700 11.34800 23.92600
H  1.21600 7.58600 31.57400
H  -0.86100 5.57400 31.33500
H  0.93300 4.31200 32.12000
H  2.04900 5.60000 31.73700
H  1.79700 4.43800 30.59300
H  -1.52200 7.39700 32.41600
H  -1.41200 8.92500 31.81400
H  -0.17800 9.68000 33.61900
H  0.86500 8.22200 33.71600
H  -0.72300 1.08800 26.69000
H  -1.86500 1.72000 27.92800
H  -0.19600 1.93000 27.96800
H  -2.51800 1.15800 25.02300
H  -0.79500 0.79800 24.62900
H  -2.01100 0.68900 23.37900
H  -1.43700 7.64200 21.59700
H  0.50500 9.64900 21.85200
H  0.88300 6.05700 21.46400
H  1.50100 7.67400 21.14600
H  0.23400 7.01600 20.13100
H  -2.15500 10.04100 22.94100
H  -2.06700 9.49900 21.25000
H  -1.93700 11.66700 20.58300
H  -0.34200 11.68500 21.48300
H  -1.84200 12.08300 22.31100
H  1.23600 13.94500 26.93000
H  0.12200 13.64000 25.66800
H  1.76300 13.23700 25.39300
H  -0.02600 11.00100 30.89700
H  3.94000 10.73200 32.81600
H  2.78100 9.55500 33.62700
H  2.98900 11.14300 34.19100
Mg 53.93900 24.41900 44.22200
C  51.14700 26.70400 43.86800
C  51.61500 21.92400 43.31500
C  56.39400 22.39000 43.85300
C  56.06300 27.15300 44.50500
N  51.66000 24.39800 43.36300
C  50.69100 25.37900 43.49500
C  49.30400 24.82700 43.13100
C  49.50000 23.28600 43.41600
C  51.03500 23.14500 43.39800
C  48.93800 22.76400 44.79900
C  49.01900 25.18000 41.68300
C  47.56100 25.14100 41.22900
H  47.40200 24.65000 39.77600
N  54.04600 22.48400 43.68200
C  53.03500 21.62000 43.30900
C  53.53100 20.26300 43.20500
C  54.93000 20.30000 43.46100
C  55.20900 21.73200 43.67100
C  52.58700 19.01700 42.91900
C  55.78600 19.08800 43.41300
O  55.30200 17.96700 43.17600
C  57.27900 19.13500 43.81600
N  55.98800 24.78700 43.95900
C  56.80400 23.72700 44.06500
C  58.24300 24.12400 44.31400
C  58.12600 25.62100 44.41400
C  56.62200 25.88800 44.28000
C  58.94100 23.38400 45.46000
C  58.95400 26.39400 43.32200
C  59.84600 27.52600 43.88400
N  53.71100 26.48900 44.34200
C  54.66200 27.47200 44.51100
C  53.94600 28.72200 44.71300
C  52.61100 28.48000 44.53200
C  52.50600 27.09200 44.21800
C  54.52300 30.01300 45.07400
C  51.36600 29.10200 44.57300
O  51.11600 30.25200 44.84100
C  50.34600 28.04700 44.09500
C  49.92900 28.47700 42.72300
O  50.65200 28.75100 41.75300
O  48.58500 28.72000 42.68400
C  47.86900 29.20200 41.43700
H  50.83400 21.20200 43.06800
H  57.28200 21.75500 43.89600
H  56.80900 27.93200 44.67700
H  48.53100 25.37100 43.67300
H  49.06300 22.71100 42.60000
H  49.00900 23.47000 45.62600
H  49.37400 21.80600 45.08000
H  47.86800 22.61100 44.65800
H  49.63700 24.52800 41.06500
H  49.33700 26.19900 41.46100
H  47.05400 26.08600 41.42400
H  47.14500 24.34300 41.84300
H  53.01200 18.48800 42.06500
H  51.58000 19.28700 42.60100
H  52.57500 18.39300 43.81300
H  57.62900 18.11800 43.99800
H  57.23600 19.70500 44.74300
H  57.83700 19.62600 43.01900
H  58.80800 23.68200 43.49400
H  58.25000 26.01000 45.42400
H  59.15800 24.11400 46.24000
H  59.79600 22.77400 45.16700
H  58.31400 22.68300 46.01200
H  58.32000 26.86100 42.56800
H  59.55800 25.66400 42.78400
H  59.80500 28.42800 43.27300
H  60.88100 27.19400 43.80000
H  59.50700 27.79600 44.88400
H  54.20700 30.39200 46.04600
H  54.07700 30.72200 44.37600
H  55.58600 29.89000 44.86700
H  49.46500 27.96000 44.73000
H  46.84500 29.49700 41.66500
H  47.89200 28.40300 40.69700
H  48.45800 30.00600 40.99500

