158

Mg -12.10800 37.47900 41.94600
C  -9.65100 35.08900 41.62000
C  -9.56800 39.85400 40.63400
C  -14.50200 39.83600 41.63500
C  -14.39600 35.17500 42.92200
N  -9.97200 37.39900 40.98900
C  -9.18100 36.35100 41.15200
C  -7.83100 36.61500 40.57000
C  -7.72300 38.13200 40.54000
C  -9.23900 38.51400 40.64200
C  -6.96000 38.80100 41.66800
C  -7.72700 36.00400 39.12200
C  -6.65000 35.02900 38.73600
H  -5.67900 35.43200 37.64400
N  -12.07300 39.52500 41.13200
C  -10.94700 40.34000 40.81100
C  -11.35400 41.73700 40.73700
C  -12.76700 41.71100 40.82300
C  -13.18200 40.29800 41.25000
C  -10.52400 42.96700 40.43400
C  -13.64300 42.98100 40.70300
O  -13.15300 44.11000 40.55000
C  -15.14500 42.84300 40.66700
N  -14.26800 37.40400 42.01100
C  -14.98200 38.52300 41.98600
C  -16.40900 38.28000 42.52400
C  -16.33900 36.82300 43.07000
C  -14.92000 36.41200 42.64200
C  -16.88600 39.40300 43.55700
C  -17.41400 35.81600 42.58600
C  -18.40800 35.40600 43.78600
N  -12.04900 35.50000 42.12900
C  -13.05200 34.67600 42.69400
C  -12.46400 33.39600 42.95100
C  -11.14300 33.50100 42.48000
C  -10.91900 34.76500 42.07000
C  -13.23800 32.22000 43.60800
C  -9.89200 32.80100 42.33200
O  -9.62900 31.68200 42.66900
C  -8.77900 33.87300 41.92500
C  -7.81500 34.10200 43.05800
O  -6.69900 33.55500 43.11600
O  -8.32900 34.87700 44.15500
C  -7.53400 34.83600 45.39600
H  -8.76600 40.56800 40.43300
H  -15.33400 40.54300 41.65500
H  -15.06000 34.46000 43.41100
H  -7.02300 36.14200 41.12800
H  -7.44800 38.60200 39.59600
H  -7.66200 39.29700 42.33800
H  -6.25700 39.53400 41.27500
H  -6.42000 38.02400 42.20900
H  -7.68900 36.76900 38.34600
H  -8.64300 35.43200 38.97300
H  -7.14000 34.11000 38.41500
H  -6.09100 34.85500 39.65500
H  -10.84900 43.74000 41.13100
H  -10.59600 43.22900 39.37900
H  -9.47700 42.69500 40.56300
H  -15.69500 43.63700 40.16200
H  -15.28800 42.69800 41.73800
H  -15.51800 41.93300 40.19600
H  -17.00400 38.27500 41.61100
H  -16.44900 36.93100 44.14900
H  -15.98400 39.93500 43.85600
H  -17.42400 39.06800 44.44400
H  -17.56300 40.07500 43.02900
H  -16.96100 34.92300 42.15600
H  -17.97700 36.31200 41.79600
H  -18.17100 34.45400 44.26000
H  -19.39000 35.23200 43.34500
H  -18.44900 36.15400 44.57700
H  -13.77400 32.56100 44.49300
H  -12.58900 31.54600 44.16600
H  -13.95500 31.80400 42.89900
H  -8.10800 33.62800 41.10200
H  -7.72100 35.77500 45.91600
H  -6.44800 34.76200 45.33200
H  -7.91300 34.04400 46.04300
Mg -1.90900 33.77700 26.85400
C  -3.87800 31.97400 29.06600
C  -0.80200 35.76900 29.47600
C  -0.17700 35.46300 24.62800
C  -3.43600 32.02600 24.32900
N  -2.26300 33.83100 28.99100
C  -3.07700 32.98900 29.71200
C  -2.95200 33.25400 31.22700
C  -2.17700 34.63400 31.31200
C  -1.69300 34.75300 29.85000
C  -2.90300 35.88100 31.78800
C  -2.20800 31.98900 31.95300
C  -2.82800 31.64200 33.36300
H  -1.88300 31.38000 34.61200
N  -0.59900 35.25500 27.02200
C  -0.24200 35.92900 28.16100
C  0.75900 36.91600 27.90900
C  1.08300 36.76500 26.52300
C  0.09600 35.78900 25.97700
C  1.35000 37.85500 28.99200
C  2.04300 37.51600 25.69900
O  2.20100 37.30800 24.52400
C  2.73800 38.64900 26.23600
N  -1.87100 33.84100 24.82200
C  -1.00000 34.52800 24.12500
C  -1.13600 34.34600 22.60100
C  -2.06600 33.13800 22.55500
C  -2.46900 32.95500 23.98200
C  -1.61800 35.59800 21.87900
C  -1.51600 31.79600 21.95200
C  -2.50800 30.88200 21.17900
N  -3.45500 32.33500 26.60500
C  -3.86500 31.67800 25.54900
C  -4.84000 30.67500 25.93500
C  -4.90900 30.69500 27.32200
C  -3.98500 31.72900 27.65100
C  -5.63200 29.75000 25.05700
C  -5.45300 30.16800 28.52000
O  -6.27000 29.24600 28.70400
C  -4.75800 30.90700 29.69800
C  -5.76800 31.38200 30.60600
O  -6.59000 32.19400 30.23400
O  -5.56300 30.90900 31.88400
C  -6.54800 31.31100 32.85800
H  -0.43300 36.35300 30.32100
H  0.38600 35.97100 23.84300
H  -3.95300 31.50800 23.51800
H  -3.93200 33.30000 31.70200
H  -1.30900 34.57700 31.96800
H  -3.62200 36.06200 30.98900
H  -2.33900 36.81000 31.86600
H  -3.52700 35.72500 32.66800
H  -1.20300 32.27100 32.26800
H  -2.30200 31.14200 31.27300
H  -3.32200 30.71400 33.07700
H  -3.63000 32.33600 33.61500
H  1.07900 38.88800 28.77600
H  2.43700 37.92000 28.94500
H  1.09500 37.64100 30.03000
H  3.16800 38.32200 27.18200
H  1.92100 39.36600 26.32800
H  3.58600 39.02900 25.66600
H  -0.17500 34.09300 22.15300
H  -2.99500 33.41500 22.05500
H  -2.47800 35.51000 21.21600
H  -0.79500 36.00000 21.28800
H  -1.91100 36.39300 22.56300
H  -1.05600 31.23200 22.76300
H  -0.73200 32.09700 21.25600
H  -1.97000 30.49700 20.31300
H  -3.38400 31.34500 20.72500
H  -2.69200 30.04800 21.85600
H  -6.51400 29.52500 25.65600
H  -5.02900 28.91200 24.70800
H  -5.99600 30.15700 24.11400
H  -4.19100 30.14700 30.23700
H  -7.26400 30.55300 33.17700
H  -7.04000 32.26400 32.66600
H  -5.96400 31.34500 33.77800

