158

Mg 40.96600 41.09500 27.87000
C  40.25800 43.41300 30.42300
C  41.52400 38.69400 30.28700
C  42.22100 39.05200 25.39500
C  40.93500 43.74100 25.69600
N  40.85200 41.10100 30.12500
C  40.36000 42.09800 30.90400
C  40.16500 41.59200 32.33200
C  40.71800 40.09400 32.28200
C  41.12900 39.95800 30.81800
C  41.90500 39.77900 33.28300
C  38.68200 41.61500 32.80500
C  38.46300 40.94000 34.20000
H  37.95700 41.76500 35.38800
N  41.56200 39.04700 27.82600
C  41.70500 38.26500 28.91900
C  42.20800 36.98800 28.43700
C  42.35600 37.01300 27.05500
C  42.03000 38.46200 26.66400
C  42.51900 35.86100 29.46800
C  42.85300 35.96200 26.06100
O  43.10500 36.18300 24.87600
C  42.99700 34.54400 26.52500
N  41.41200 41.30100 25.89600
C  41.87600 40.35400 24.98900
C  41.87400 40.83300 23.49200
C  41.54500 42.34200 23.68300
C  41.20700 42.48200 25.23200
C  43.15400 40.53300 22.70800
C  40.51100 42.97700 22.70000
C  39.17100 42.25700 22.44600
N  40.83700 43.16700 28.01400
C  40.77800 44.08900 27.04200
C  40.46300 45.36800 27.56100
C  40.22500 45.16100 28.94400
C  40.44400 43.82000 29.10200
C  40.30400 46.60200 26.74400
C  39.71600 45.78000 30.08100
O  39.23000 46.89300 30.25600
C  39.86400 44.67700 31.15700
C  40.91800 45.15700 32.13700
O  42.09700 45.25900 31.90400
O  40.30800 45.07700 33.38100
C  41.34400 45.33600 34.43900
H  41.64100 37.89500 31.02200
H  42.78800 38.47700 24.66000
H  40.91200 44.61600 25.04300
H  40.73000 42.24700 32.99500
H  40.00800 39.32600 32.58900
H  41.54200 38.95400 33.89700
H  42.18500 40.67500 33.83700
H  42.84400 39.43300 32.85200
H  37.98700 41.22200 32.06400
H  38.34000 42.65000 32.77700
H  39.37500 40.45900 34.55400
H  37.73200 40.13200 34.17800
H  41.58400 35.33400 29.65500
H  42.91000 36.21800 30.42100
H  43.24300 35.11600 29.13600
H  42.05300 34.17600 26.92800
H  43.78700 34.35000 27.25100
H  43.09300 33.96600 25.60600
H  40.96500 40.43100 23.04500
H  42.51400 42.83400 23.60300
H  43.94900 40.13900 23.34100
H  43.39700 41.38600 22.07500
H  42.90500 39.72300 22.02200
H  41.03500 43.13700 21.75700
H  40.27900 43.99700 23.00700
H  39.03700 41.58400 21.60000
H  38.43200 43.05800 22.47500
H  38.90600 41.57900 23.25700
H  39.24600 46.85100 26.66200
H  40.81100 46.51600 25.78300
H  40.74100 47.43900 27.28700
H  38.85600 44.53800 31.54800
H  40.88600 45.05200 35.38600
H  41.49000 46.41600 34.48600
H  42.21000 44.68500 34.32200
Mg -10.35400 17.17300 43.48800
C  -6.84200 16.86000 43.10700
C  -10.11900 20.43100 42.36600
C  -13.63500 17.18300 43.15700
C  -10.43900 13.62300 43.83200
N  -8.57400 18.45500 42.71300
C  -7.27800 18.17600 42.73400
C  -6.39800 19.48800 42.35600
C  -7.52400 20.59900 42.45000
C  -8.82500 19.81100 42.47000
C  -7.28400 21.61500 43.60900
C  -5.57300 19.20900 40.97800
C  -5.94100 20.05900 39.76100
H  -5.52500 19.52500 38.46000
N  -11.69300 18.55800 42.97600
C  -11.40700 19.85200 42.51800
C  -12.63500 20.57500 42.24900
C  -13.67800 19.70200 42.55500
C  -13.04000 18.36700 42.92200
C  -12.70800 22.03000 41.86500
C  -15.15300 20.05600 42.52700
O  -15.49900 21.22800 42.31700
C  -16.23600 19.07400 42.80200
N  -11.86200 15.64700 43.48700
C  -13.12300 15.95500 43.38400
C  -13.99500 14.76800 43.77600
C  -13.04800 13.55600 43.71200
C  -11.67400 14.31200 43.64000
C  -14.90900 14.90300 44.98000
C  -13.24200 12.67300 42.45100
C  -13.59900 11.20800 42.76900
N  -8.93200 15.46500 43.59300
C  -9.09400 14.15300 43.73800
C  -7.84200 13.45900 43.68500
C  -6.92600 14.50900 43.48100
C  -7.61600 15.70700 43.38700
C  -7.57000 12.01000 43.77600
C  -5.50600 14.79900 43.29500
O  -4.54200 14.07300 43.17800
C  -5.44500 16.37000 43.13100
C  -4.62600 16.97300 44.29700
O  -3.37600 16.85000 44.35700
O  -5.37700 17.51300 45.27500
C  -4.74800 17.79500 46.57600
H  -10.11400 21.51300 42.21500
H  -14.72400 17.16600 43.07500
H  -10.44500 12.53800 43.95500
H  -5.71700 19.68900 43.18300
H  -7.56000 21.27000 41.59200
H  -8.03400 21.44300 44.38200
H  -7.47900 22.58500 43.15200
H  -6.32800 21.56700 44.12900
H  -5.71700 18.16600 40.69700
H  -4.51800 19.34500 41.21700
H  -5.63000 21.07200 40.01700
H  -7.02800 20.06600 39.84000
H  -13.49400 22.14000 41.11800
H  -11.79200 22.36300 41.37800
H  -13.00700 22.71100 42.66200
H  -16.26700 18.78300 43.85200
H  -16.04100 18.27700 42.08500
H  -17.20600 19.45700 42.48500
H  -14.72900 14.63900 42.98100
H  -13.14900 13.08000 44.68700
H  -14.93500 14.12200 45.74000
H  -15.95100 15.00800 44.67700
H  -14.61800 15.83200 45.46900
H  -12.38500 12.66200 41.77700
H  -14.05700 13.03900 41.82600
H  -14.51700 10.97000 42.23100
H  -13.56400 11.02000 43.84200
H  -12.86100 10.57700 42.27400
H  -6.97200 11.66400 44.61900
H  -7.02300 11.67000 42.89600
H  -8.52300 11.48300 43.72600
H  -4.83000 16.57800 42.25500
H  -5.30900 17.78500 47.51100
H  -4.18200 18.70500 46.38000
H  -4.00700 17.01500 46.74900

