158

Mg 35.77100 2.40200 30.19400
C  33.44100 3.84600 32.32800
C  38.07000 2.24200 32.73700
C  38.05400 1.29700 27.88600
C  33.26200 2.43100 27.65800
N  35.72800 3.03000 32.21300
C  34.66200 3.58000 32.90700
C  35.05000 3.64400 34.44200
C  36.55900 3.49100 34.49900
C  36.78000 2.84400 33.10000
C  37.42700 4.69200 34.72300
C  34.25500 2.64700 35.33500
C  34.08600 3.03500 36.75500
H  34.71100 4.30700 37.33100
N  37.74400 1.90000 30.30900
C  38.54400 1.86600 31.44400
C  39.78200 1.25800 31.16800
C  39.74000 0.88400 29.80200
C  38.45300 1.39300 29.26100
C  40.82300 1.06900 32.30000
C  40.83600 0.21000 29.06200
O  40.68500 -0.20900 27.92700
C  42.18800 -0.09200 29.71700
N  35.68200 1.92900 28.12400
C  36.77300 1.52300 27.42400
C  36.39400 1.26200 25.97100
C  34.81400 1.32400 26.00900
C  34.57900 2.02700 27.32700
C  36.98700 2.36800 25.03100
C  34.16600 -0.09900 25.93100
C  32.74700 -0.12600 25.36900
N  33.79100 3.12000 29.91600
C  32.92100 3.16500 28.84500
C  31.65200 3.73300 29.24300
C  31.80900 3.96200 30.59600
C  33.10400 3.64400 30.96400
C  30.43300 3.93900 28.41800
C  31.10000 4.44300 31.76900
O  29.94300 4.72600 31.92400
C  32.12400 4.46600 32.98800
C  32.33600 5.83200 33.48800
O  33.15400 6.61800 33.08200
O  31.51300 6.01200 34.58600
C  31.70200 7.20900 35.41000
H  38.74400 2.20900 33.59600
H  38.83500 0.91000 27.22800
H  32.58000 2.20200 26.83600
H  34.88600 4.66000 34.80300
H  36.80500 2.75300 35.26200
H  37.65200 4.79500 35.78500
H  36.76000 5.54600 34.60100
H  38.31900 4.72200 34.09700
H  34.69100 1.64800 35.35500
H  33.28500 2.47700 34.86600
H  34.33000 2.19400 37.40400
H  33.00500 2.99900 36.88600
H  41.89100 0.93100 32.13600
H  40.45000 0.26300 32.93300
H  40.69500 1.99300 32.86300
H  42.52900 0.73400 30.34100
H  42.95000 -0.44700 29.02300
H  42.19300 -0.96000 30.37600
H  36.54600 0.25000 25.59500
H  34.34600 1.90400 25.21400
H  37.59400 2.00200 24.20300
H  37.48900 3.14700 25.60400
H  36.20800 2.97600 24.57000
H  34.12100 -0.39400 26.98000
H  34.84000 -0.80100 25.43900
H  32.58800 0.47000 24.47000
H  31.98800 0.07200 26.12600
H  32.69500 -1.09500 24.87300
H  29.71100 3.13000 28.52200
H  30.68800 4.06400 27.36500
H  30.14700 4.92600 28.78100
H  31.72200 3.83600 33.78200
H  32.75600 7.42900 35.57800
H  31.11700 7.01500 36.30900
H  31.24900 8.02600 34.84800
Mg 47.45500 24.94900 28.63800
C  48.55600 27.30700 31.14800
C  47.11800 22.58800 31.03700
C  46.89700 22.71500 26.21000
C  48.43500 27.27700 26.19900
N  47.86700 24.98000 30.78900
C  48.25100 26.00500 31.66300
C  48.02100 25.63400 33.19600
C  47.74200 24.10000 33.02700
C  47.50100 23.87500 31.53900
C  48.88800 23.21000 33.58100
C  46.94700 26.46300 33.96300
C  47.46100 27.32800 35.16900
H  46.60700 27.36100 36.42000
N  46.97100 22.95400 28.63900
C  46.84900 22.17000 29.72000
C  46.51000 20.81100 29.34000
C  46.55400 20.81100 27.93100
C  46.78700 22.16900 27.51000
C  46.27700 19.63400 30.35200
C  46.19700 19.69900 26.96500
O  46.21300 19.75200 25.70300
C  45.75300 18.34500 27.48400
N  47.72000 24.99400 26.47200
C  47.20900 23.97100 25.72400
C  47.31900 24.28500 24.24100
C  47.82900 25.80800 24.22300
C  48.05000 26.07200 25.67100
C  48.33300 23.28400 23.51600
C  46.77800 26.74900 23.43500
C  45.44800 26.95200 24.20700
N  48.34400 26.90900 28.59500
C  48.54800 27.70800 27.47800
C  49.06900 28.95900 27.98800
C  49.06700 28.85300 29.40100
C  48.66700 27.57700 29.76000
C  49.61100 30.14400 27.23400
C  49.51200 29.53000 30.70700
O  50.00300 30.67400 30.89300
C  49.08000 28.57600 31.90400
C  50.14200 28.28600 32.81500
O  50.94800 27.35100 32.78400
O  50.13800 29.20000 33.87700
C  50.96700 28.76200 34.98700
H  47.06500 21.89000 31.87600
H  46.53500 21.95400 25.51600
H  48.77000 27.99800 25.45000
H  49.03600 25.76400 33.56900
H  46.83200 23.82000 33.55800
H  49.69900 23.88900 33.84700
H  49.32200 22.56500 32.81700
H  48.64700 22.50200 34.37300
H  46.21700 25.76400 34.37000
H  46.43300 27.04600 33.19800
H  47.61800 28.34600 34.81400
H  48.42700 26.93500 35.48600
H  45.26300 19.23700 30.38500
H  46.63600 20.03700 31.29900
H  46.91400 18.80000 30.05700
H  46.55200 17.72800 27.89400
H  45.42200 17.76700 26.62000
H  44.85800 18.38200 28.10400
H  46.28500 24.33200 23.90100
H  48.78300 25.85700 23.69800
H  47.72900 22.97100 22.66400
H  48.56900 22.41700 24.13300
H  49.23500 23.76600 23.14000
H  46.67100 26.29400 22.45100
H  47.07700 27.76800 23.18700
H  45.31300 27.95700 24.60800
H  45.40500 26.37500 25.13000
H  44.65100 26.67000 23.52000
H  50.51600 29.82200 26.71900
H  49.82200 30.96000 27.92500
H  48.88500 30.42500 26.47100
H  48.23200 29.10300 32.34100
H  51.94100 29.25100 34.97500
H  51.08000 27.68200 35.09100
H  50.47200 29.04800 35.91500

