158

Mg 7.14700 54.12600 41.58900
C  6.78300 50.54900 41.76900
C  10.37700 53.51100 40.67200
C  7.28500 57.24300 40.89000
C  3.70100 54.26300 42.39600
N  8.34600 52.28900 41.14100
C  8.02000 50.95600 41.23700
C  9.13100 49.94900 40.82300
C  10.32300 50.94100 40.86900
C  9.63600 52.34200 40.91000
C  11.42200 50.79800 42.00000
C  8.92000 49.35000 39.44200
C  8.38400 50.30800 38.41000
H  8.20800 49.68200 36.98600
N  8.65700 55.28900 40.91200
C  10.00200 54.86600 40.64100
C  10.75200 56.04500 40.43800
C  9.86700 57.13900 40.35800
C  8.52400 56.59500 40.68300
C  12.13000 55.99200 40.09100
C  10.19200 58.59900 39.98400
O  11.28600 58.98500 39.62100
C  9.16800 59.67200 39.92900
N  5.52300 55.49900 41.28700
C  5.96500 56.81600 41.16400
C  4.81000 57.83600 41.57600
C  3.64200 56.78700 41.88300
C  4.33300 55.44700 41.88800
C  5.26800 58.84500 42.62300
C  2.42800 56.81100 40.95500
C  1.04700 57.04900 41.60700
N  5.52300 52.72600 41.99200
C  4.22700 52.99200 42.41800
C  3.64000 51.76400 42.95600
C  4.64900 50.73500 42.65600
C  5.72600 51.39800 42.06500
C  2.33100 51.54700 43.65600
C  4.98400 49.33100 42.81800
O  4.39000 48.44200 43.39000
C  6.31300 49.12000 42.06100
C  5.93800 48.27900 40.86700
O  5.38000 48.68600 39.84000
O  6.16500 46.97500 41.13800
C  5.68900 46.04500 40.11900
H  11.43100 53.40600 40.40700
H  7.32400 58.33300 40.92200
H  2.64600 54.39000 42.64800
H  9.25300 49.23100 41.63400
H  10.65200 50.99200 39.83100
H  12.37700 51.10000 41.57000
H  11.37500 49.85500 42.54500
H  11.16000 51.60400 42.68500
H  8.30100 48.46700 39.59800
H  9.89900 49.01300 39.10000
H  9.08400 51.13800 38.30900
H  7.40800 50.75700 38.59100
H  12.34000 55.25700 39.31400
H  12.69400 55.77400 40.99800
H  12.38500 56.97700 39.70000
H  8.94100 59.91100 40.96800
H  8.27300 59.44800 39.34900
H  9.49600 60.59600 39.45200
H  4.42500 58.46600 40.77500
H  3.28700 57.09500 42.86600
H  6.27800 58.68400 42.99900
H  4.50200 58.98000 43.38700
H  5.38100 59.80300 42.11600
H  2.42600 55.87700 40.39300
H  2.62100 57.53500 40.16300
H  0.50300 57.78300 41.01300
H  1.16700 57.39200 42.63500
H  0.43600 56.16100 41.77000
H  1.63600 50.96100 43.05400
H  1.75100 52.42700 43.93300
H  2.39600 50.87300 44.50900
H  7.02700 48.58900 42.69000
H  6.41700 45.99800 39.31000
H  4.72700 46.31400 39.68200
H  5.56000 45.00900 40.43200
Mg -0.28200 43.18900 26.26600
C  2.20300 42.48500 28.70800
C  -2.65300 41.82400 28.39400
C  -2.37500 43.19400 23.76700
C  2.41100 43.66000 23.90700
N  -0.22400 42.21400 28.36800
C  0.87500 42.24200 29.19300
C  0.44000 41.90400 30.65400
C  -1.06700 41.47200 30.46100
C  -1.37000 41.84900 28.95600
C  -1.26200 39.98500 30.69800
C  0.92100 43.12700 31.47800
C  0.27400 43.31200 32.93700
H  -0.25900 42.05500 33.71600
N  -2.28000 42.80200 26.18000
C  -3.10700 42.29400 27.15700
C  -4.48700 42.46300 26.71200
C  -4.39800 42.70100 25.32000
C  -2.97300 42.90600 25.01400
C  -5.66900 42.00300 27.49600
C  -5.48100 42.79600 24.25300
O  -5.25800 42.94500 23.09300
C  -6.91700 42.53600 24.60200
N  0.05600 43.37500 24.09600
C  -1.06500 43.48100 23.33300
C  -0.64300 44.02900 21.95100
C  0.84000 44.55000 22.11100
C  1.14700 43.82300 23.41100
C  -0.90600 42.81100 20.95100
C  1.09100 46.08300 22.40800
C  1.17700 46.97100 21.19400
N  1.87200 43.11000 26.22500
C  2.77800 43.32600 25.24500
C  4.07100 43.28500 25.83300
C  3.87900 42.83300 27.12400
C  2.56900 42.76800 27.38300
C  5.33100 43.50300 25.07100
C  4.61800 42.48100 28.32600
O  5.84200 42.33800 28.55000
C  3.57200 42.41200 29.45900
C  3.75800 41.09200 30.09900
O  3.43100 40.01800 29.63200
O  4.34600 41.21100 31.35600
C  4.54400 40.04900 32.24600
H  -3.43700 41.58300 29.11500
H  -2.97900 43.25800 22.85900
H  3.28100 43.91000 23.29600
H  1.11300 41.08400 30.90400
H  -1.61000 42.10200 31.16600
H  -0.37200 39.40300 30.93800
H  -1.72900 39.50400 29.83900
H  -1.82300 39.88600 31.62700
H  0.74800 44.02100 30.88000
H  1.99700 43.17200 31.64800
H  -0.50700 44.04300 32.73000
H  0.99700 43.70300 33.65200
H  -5.46500 41.59600 28.48600
H  -6.12100 41.19300 26.92400
H  -6.33300 42.86400 27.57200
H  -7.01300 41.53500 25.02200
H  -7.43100 42.52700 23.64200
H  -7.08800 43.24100 25.41600
H  -1.24600 44.88800 21.65400
H  1.53200 44.00800 21.46700
H  -1.38300 41.95400 21.42600
H  0.03500 42.33600 20.67300
H  -1.38000 43.19600 20.04800
H  1.94700 46.26200 23.05900
H  0.28900 46.51000 23.01000
H  0.88400 46.43200 20.29300
H  2.24300 47.15800 21.05900
H  0.61800 47.90400 21.26200
H  6.14400 43.88700 25.68800
H  5.29700 44.38300 24.42800
H  5.68800 42.65700 24.48500
H  3.60300 43.22200 30.18800
H  5.00800 39.25300 31.66400
H  3.54000 39.66900 32.43600
H  5.13000 40.24400 33.14400

