158

Mg 4.79500 54.17800 42.16100
C  4.87600 50.66500 41.08800
C  7.93800 54.36300 40.75400
C  4.33000 57.44100 41.93400
C  1.78200 53.62200 43.46700
N  6.17100 52.60900 41.02300
C  5.92100 51.36400 40.59500
C  7.06800 50.88900 39.63500
C  8.17400 51.82800 40.12600
C  7.34700 53.07400 40.57500
C  9.27300 51.33300 41.15600
C  6.60500 51.13100 38.16600
C  7.26200 50.08700 37.22800
H  6.39200 49.51400 36.12100
N  5.95300 55.69900 41.43100
C  7.26100 55.58000 41.01100
C  7.81300 56.91300 40.69700
C  6.71900 57.83000 40.78300
C  5.55100 57.02500 41.39300
C  9.22000 57.15900 40.11900
C  6.71500 59.33900 40.46600
O  7.71200 59.95700 40.01300
C  5.53500 60.22000 40.80600
N  3.19600 55.40700 42.47300
C  3.28700 56.74100 42.58100
C  2.17700 57.33900 43.32500
C  1.28100 56.06300 43.58500
C  2.17900 54.91600 43.20400
C  2.63300 58.09600 44.66600
C  -0.14600 56.05600 42.79400
C  -0.93500 57.38100 42.57300
N  3.55200 52.47800 42.37800
C  2.31800 52.44900 43.03000
C  1.90900 51.06400 43.07500
C  2.89600 50.29500 42.30700
C  3.84800 51.22300 41.88100
C  0.68300 50.64500 43.79700
C  3.19300 48.96800 41.77400
O  2.68800 47.89500 41.80600
C  4.56000 49.16400 41.06000
C  4.74800 48.45700 39.76800
O  4.41300 48.87900 38.68800
O  5.31400 47.22400 40.00900
C  5.71900 46.53200 38.75100
H  8.95100 54.48600 40.36600
H  4.03200 58.48600 41.82400
H  0.94800 53.48700 44.15900
H  7.38000 49.87000 39.86500
H  8.75400 52.12300 39.25100
H  9.56200 51.96900 41.99300
H  10.12300 51.11300 40.50900
H  8.98500 50.39000 41.61900
H  6.87600 52.14800 37.88500
H  5.51600 51.09200 38.14200
H  7.73800 49.30100 37.81300
H  8.08600 50.62400 36.76000
H  9.54900 58.19900 40.11100
H  9.27800 56.61500 39.17700
H  9.86100 56.65500 40.84200
H  5.67600 61.28200 40.60300
H  5.46600 60.21900 41.89400
H  4.66900 59.89600 40.23000
H  1.62700 57.97800 42.63300
H  1.08400 55.80600 44.62500
H  1.81100 58.10900 45.38200
H  2.95000 59.07800 44.31500
H  3.41100 57.53000 45.17900
H  -0.83900 55.39200 43.31100
H  0.09000 55.68200 41.79800
H  -0.64100 57.54800 41.53700
H  -0.44200 58.22600 43.05300
H  -2.01600 57.35200 42.71100
H  0.31000 49.68000 43.45400
H  -0.11300 51.37300 43.63900
H  0.91300 50.57100 44.86000
H  5.23400 48.68000 41.76700
H  6.01000 45.51700 39.02200
H  6.58300 47.07900 38.37300
H  4.99400 46.45900 37.94100
Mg 17.02200 51.32000 26.20400
C  19.12200 49.96300 28.82100
C  14.86100 52.23800 28.64500
C  15.03100 52.59200 23.77400
C  19.16800 50.21300 23.84300
N  17.14200 51.17600 28.57200
C  17.96600 50.56300 29.40900
C  17.66600 50.81800 30.84500
C  16.12000 51.13100 30.66500
C  15.99400 51.53800 29.23100
C  15.24600 49.92000 30.92100
C  18.45200 51.94600 31.57900
C  18.59700 51.71300 33.11200
H  17.70500 50.72800 33.87800
N  15.20400 52.25400 26.19700
C  14.49400 52.60700 27.30600
C  13.34300 53.36700 26.86200
C  13.29500 53.27500 25.44600
C  14.55600 52.73200 25.09900
C  12.44800 54.09800 27.86000
C  12.17900 53.63000 24.48400
O  12.23100 53.40600 23.31700
C  10.89400 54.32900 25.14100
N  17.10400 51.34800 24.07500
C  16.24000 52.01300 23.34800
C  16.64600 52.13900 21.81700
C  18.00400 51.28800 21.83800
C  18.12900 50.96400 23.28800
C  15.66300 51.62500 20.79200
C  19.17000 52.19900 21.29300
C  20.34300 51.57500 20.55100
N  18.72100 50.25600 26.28700
C  19.50400 49.82100 25.22700
C  20.70800 49.12800 25.69600
C  20.55000 49.11500 27.09600
C  19.34200 49.84500 27.40500
C  21.84100 48.64900 24.86900
C  21.14000 48.68300 28.41000
O  22.16400 48.06700 28.62000
C  20.26500 49.22700 29.52100
C  19.70700 48.07800 30.25800
O  19.37000 46.96800 29.81700
O  19.69400 48.44500 31.60000
C  19.69900 47.36100 32.57700
H  14.18800 52.53300 29.45300
H  14.51500 53.10900 22.96300
H  19.91000 49.86200 23.12200
H  17.71200 49.87100 31.38300
H  15.83900 51.94400 31.33400
H  15.86900 49.15300 31.38100
H  14.72300 49.58300 30.02700
H  14.55600 50.10100 31.74500
H  17.95700 52.87800 31.30900
H  19.45400 51.89800 31.15400
H  18.47400 52.68100 33.59800
H  19.58900 51.35100 33.38100
H  11.46200 53.63400 27.84600
H  12.27000 55.11900 27.52300
H  12.84200 54.05900 28.87600
H  11.01700 55.29300 25.63400
H  10.44500 53.61500 25.83100
H  10.20500 54.52800 24.32000
H  16.75300 53.22300 21.79500
H  18.05300 50.35500 21.27700
H  15.20800 52.52700 20.38300
H  14.95300 50.89600 21.18200
H  16.15800 51.15400 19.94200
H  19.62500 52.71600 22.13800
H  18.73700 53.02000 20.72100
H  20.39000 51.83100 19.49300
H  20.30700 50.48600 20.53900
H  21.30100 51.84300 20.99700
H  22.13500 49.46300 24.20600
H  21.63800 47.75100 24.28500
H  22.72900 48.39800 25.44900
H  20.89500 49.81300 30.19100
H  20.24200 46.50600 32.17400
H  18.73200 47.00700 32.93400
H  20.30400 47.66300 33.43100

