158

Mg 35.86800 2.14100 30.76800
C  33.23500 3.30300 32.85500
C  37.73900 1.84100 33.57100
C  38.44200 1.45600 28.75300
C  33.82400 2.52000 28.07800
N  35.47200 2.64900 32.95400
C  34.39200 3.06900 33.58800
C  34.48800 2.90100 35.08100
C  36.01500 2.82300 35.32400
C  36.44800 2.37600 33.85000
C  36.69000 4.18700 35.83300
C  33.69800 1.70300 35.62000
C  32.73800 2.13800 36.74500
H  33.40600 3.11800 37.68900
N  37.86900 1.83600 31.15200
C  38.37000 1.58700 32.37600
C  39.71600 1.02700 32.23500
C  40.01300 0.97800 30.82200
C  38.75500 1.43800 30.13000
C  40.71000 0.67100 33.32000
C  41.24800 0.61900 30.11900
O  41.42800 0.58400 28.94000
C  42.51000 0.24400 30.95700
N  36.16100 2.20100 28.68200
C  37.33000 1.86900 28.05500
C  37.21300 1.90100 26.45400
C  35.61400 1.98800 26.26500
C  35.16800 2.25700 27.72900
C  37.93200 3.07200 25.75400
C  34.96100 0.67800 25.61700
C  34.05600 0.87800 24.38100
N  33.91800 2.78500 30.44000
C  33.20300 2.80800 29.24300
C  31.87100 3.14700 29.53800
C  31.81200 3.37400 30.95900
C  33.09200 3.10100 31.47700
C  30.75900 3.36200 28.58800
C  30.95800 3.82500 32.09300
O  29.80000 4.24000 32.16400
C  31.91400 3.80700 33.34900
C  31.97400 5.16700 34.01000
O  32.37200 6.19500 33.53000
O  31.53800 5.01100 35.32200
C  31.42500 6.33300 36.11400
H  38.27300 1.48600 34.45500
H  39.36700 1.46200 28.17200
H  33.15600 2.53500 27.21300
H  34.21100 3.85800 35.52200
H  36.29200 1.97400 35.94900
H  37.44200 4.45800 35.09200
H  37.19800 4.10500 36.79400
H  35.90300 4.93700 35.90900
H  34.27600 0.83800 35.94400
H  33.03300 1.31400 34.84800
H  32.48800 1.21700 37.27200
H  31.82500 2.52500 36.29200
H  40.77700 -0.41600 33.28200
H  40.29000 0.96800 34.28100
H  41.60400 1.25200 33.09500
H  42.37900 -0.44400 31.79300
H  42.92500 1.11800 31.45700
H  43.29700 -0.19800 30.34600
H  37.65000 0.94800 26.15300
H  35.28000 2.78700 25.60400
H  38.39100 3.68400 26.53100
H  37.25200 3.72400 25.20600
H  38.71700 2.64100 25.13300
H  34.46900 0.16000 26.44000
H  35.76800 -0.00400 25.34900
H  34.43600 1.79600 23.93200
H  33.02100 0.87400 24.72400
H  34.21500 0.00700 23.74600
H  30.87500 2.82700 27.64600
H  30.64900 4.44400 28.51600
H  29.92700 2.95100 29.16000
H  31.47900 3.15500 34.10500
H  30.71300 6.21300 36.93000
H  31.15900 7.18700 35.49100
H  32.32500 6.58200 36.67700
Mg -2.76100 34.81000 26.57800
C  -4.22400 33.00800 28.98300
C  -1.71900 37.04800 28.84900
C  -1.27600 36.65800 24.12800
C  -3.90600 32.57800 24.13500
N  -3.05400 35.04700 28.78900
C  -3.62400 34.12000 29.56900
C  -3.39900 34.47600 31.01800
C  -2.89000 35.98400 30.96200
C  -2.56100 36.08100 29.44500
C  -3.92500 37.04300 31.45400
C  -2.40000 33.58700 31.71800
C  -2.94200 32.55500 32.76000
H  -2.15900 32.41200 34.07500
N  -1.59800 36.61900 26.49200
C  -1.26600 37.30600 27.56200
C  -0.40600 38.43300 27.20700
C  -0.43200 38.45200 25.80600
C  -1.10700 37.22400 25.38300
C  0.27000 39.34100 28.20300
C  0.32000 39.45200 24.93700
O  0.36000 39.31400 23.70700
C  0.91400 40.70500 25.53800
N  -2.57300 34.66700 24.36900
C  -1.97600 35.54000 23.55700
C  -1.80500 34.99500 22.15600
C  -2.52200 33.62100 22.31400
C  -3.11100 33.67800 23.68300
C  -2.16300 35.85400 20.85100
C  -1.70000 32.35100 21.91800
C  -0.33000 32.23900 22.67900
N  -3.96300 33.22200 26.49700
C  -4.38500 32.39300 25.44500
C  -5.20800 31.36400 25.94500
C  -5.16900 31.54500 27.27300
C  -4.41600 32.72700 27.61100
C  -5.96400 30.26700 25.21700
C  -5.61700 31.08100 28.57000
O  -6.39500 30.20100 28.74400
C  -4.94200 31.90600 29.70200
C  -5.93700 32.36200 30.68800
O  -6.62600 33.33100 30.55500
O  -6.02900 31.53300 31.78300
C  -6.89900 31.79100 32.92900
H  -1.48000 37.77900 29.62500
H  -0.75000 37.22100 23.35400
H  -4.10400 31.85500 23.34100
H  -4.37700 34.57300 31.49000
H  -1.93800 36.10200 31.47900
H  -3.74200 37.25600 32.50700
H  -4.88600 36.53000 31.43400
H  -3.96800 37.92700 30.81700
H  -1.66600 34.18100 32.26100
H  -1.77500 33.04400 31.01000
H  -3.12000 31.57400 32.31900
H  -3.95600 32.85900 33.01900
H  1.27600 39.53900 27.83100
H  0.26100 38.95800 29.22300
H  -0.21500 40.31600 28.23400
H  0.33700 41.17500 26.33400
H  0.98400 41.42900 24.72600
H  1.90700 40.49000 25.93200
H  -0.73900 34.78700 22.06200
H  -3.39300 33.56400 21.66000
H  -2.61700 36.80400 21.13200
H  -2.88500 35.25200 20.30000
H  -1.30000 36.05300 20.21500
H  -1.50600 32.35100 20.84600
H  -2.20200 31.41300 22.15600
H  -0.29500 32.97400 23.48400
H  0.39600 32.42100 21.88700
H  -0.28900 31.28500 23.20700
H  -5.38000 29.35100 25.12600
H  -6.18200 30.66400 24.22600
H  -6.97100 30.21000 25.63000
H  -4.24800 31.31300 30.29800
H  -6.37300 32.50900 33.55800
H  -7.17900 30.85100 33.40400
H  -7.82600 32.18000 32.50700

