158

Mg 0.30100 8.36500 26.42500
C  0.86600 10.18300 29.50600
C  -0.06900 5.50000 28.37200
C  0.31000 6.73600 23.63100
C  1.23400 11.27400 24.80200
N  0.34600 7.96600 28.70300
C  0.56900 8.88300 29.72400
C  0.51600 8.11600 31.08800
C  0.46800 6.58000 30.62600
C  0.20300 6.64900 29.14200
C  1.71500 5.68100 30.99300
C  -0.66600 8.57300 32.00300
C  -0.47000 8.48300 33.58300
H  0.85900 7.89300 34.19400
N  0.08300 6.39100 26.04300
C  -0.00200 5.30900 26.88200
C  -0.03500 4.07300 26.09900
C  -0.08000 4.43900 24.75100
C  0.12400 5.89600 24.79100
C  -0.11400 2.68600 26.69800
C  -0.15600 3.59400 23.55500
O  -0.14400 4.07600 22.42400
C  -0.26300 2.09800 23.70800
N  0.43600 9.01900 24.46100
C  0.54100 8.10200 23.46400
C  0.69300 8.87600 22.13000
C  0.69700 10.37200 22.51600
C  0.91200 10.19600 24.03500
C  2.02200 8.43700 21.44000
C  -0.67900 11.06500 22.39700
C  -1.21200 11.23000 20.88800
N  0.89300 10.42100 26.97500
C  1.17100 11.42300 26.20500
C  1.43500 12.56200 27.00200
C  1.43600 12.06600 28.28400
C  0.97900 10.80900 28.27100
C  1.67700 13.93800 26.63900
C  1.66300 12.46600 29.68500
O  2.00100 13.54100 30.20000
C  1.24200 11.24000 30.50300
C  2.22900 10.86900 31.58800
O  3.27500 10.23000 31.46500
O  1.77800 11.35300 32.77300
C  2.70700 11.45100 33.91700
H  -0.02900 4.53900 28.88900
H  0.37800 6.21900 22.67100
H  1.48400 12.22100 24.31900
H  1.45500 8.33600 31.59500
H  -0.50700 6.20700 30.94200
H  2.41700 6.11400 31.70500
H  2.26700 5.42400 30.08900
H  1.44700 4.72900 31.45100
H  -1.48800 7.88900 31.79100
H  -0.94300 9.59600 31.75000
H  -1.25500 7.82300 33.95200
H  -0.67700 9.49700 33.92500
H  0.18800 2.65100 27.74500
H  0.49400 1.99200 26.11600
H  -1.16500 2.40500 26.63600
H  -0.64100 1.63100 22.79800
H  -1.00800 1.94200 24.48800
H  0.72900 1.74300 23.98700
H  -0.11100 8.77800 21.40100
H  1.48400 10.98000 22.07000
H  2.36700 7.67300 22.13600
H  2.73000 9.25600 21.31100
H  1.81400 7.92900 20.49800
H  -0.69500 12.06400 22.83300
H  -1.40100 10.44200 22.92400
H  -0.39400 11.08500 20.18300
H  -1.58700 12.24300 20.74500
H  -1.98100 10.50200 20.62900
H  1.90500 14.09000 25.58400
H  2.34300 14.39800 27.36800
H  0.71200 14.43600 26.73300
H  0.32400 11.55600 30.99700
H  2.93100 12.51100 34.04100
H  3.67600 11.04400 33.62900
H  2.34400 10.91700 34.79500
Mg 47.89500 25.03300 27.73200
C  48.75100 27.42600 30.22200
C  46.93200 22.93000 30.01900
C  47.29300 22.91200 25.29400
C  49.03800 27.35700 25.44200
N  47.74100 25.26300 29.89300
C  48.15800 26.25400 30.74800
C  47.90900 25.85800 32.20200
C  47.53200 24.31800 32.04800
C  47.34500 24.17800 30.52500
C  48.64300 23.39700 32.57000
C  46.86500 26.72000 32.94100
C  46.47500 26.31500 34.35400
H  46.51400 27.38700 35.38100
N  47.17300 23.13400 27.66100
C  46.80100 22.43800 28.76600
C  46.45000 21.09300 28.33300
C  46.37900 21.10000 26.92000
C  47.02500 22.39100 26.53000
C  45.98100 20.01100 29.21200
C  45.93200 20.00900 25.98400
O  46.14000 20.08900 24.81900
C  45.13700 18.88100 26.41500
N  48.33300 25.01500 25.70800
C  47.83400 24.09700 24.88500
C  47.79600 24.49000 23.41200
C  48.22700 25.97300 23.43900
C  48.51000 26.14100 24.96700
C  48.73700 23.60700 22.64900
C  47.20300 27.01600 22.91900
C  47.32900 27.52800 21.46400
N  48.86300 26.92600 27.76900
C  49.37200 27.70500 26.74000
C  49.93900 28.88600 27.21200
C  49.74300 28.82500 28.62000
C  49.06900 27.66400 28.87300
C  50.68800 29.90800 26.40400
C  49.95800 29.54200 29.93800
O  50.47400 30.58300 30.24100
C  49.13600 28.65700 30.98400
C  49.93700 28.50500 32.21600
O  50.77300 27.61000 32.47700
O  49.59200 29.42100 33.20000
C  50.06300 29.07600 34.50300
H  46.60800 22.25000 30.80900
H  47.00300 22.17000 24.54700
H  49.30100 28.18200 24.77600
H  48.84300 25.99700 32.74600
H  46.58700 24.06500 32.53000
H  49.29400 23.82600 33.33200
H  49.14400 22.88400 31.75000
H  48.11800 22.64600 33.16000
H  45.99400 26.96300 32.33300
H  47.36200 27.68400 33.05100
H  47.09900 25.50500 34.73300
H  45.43800 25.98500 34.42500
H  46.58800 19.14300 28.95600
H  44.89200 19.97100 29.18900
H  46.20300 20.26600 30.24800
H  44.34900 19.13500 27.12400
H  45.67100 18.22900 27.10600
H  44.67100 18.24800 25.66000
H  46.79500 24.34400 23.00700
H  49.14800 26.10100 22.86900
H  49.57300 23.35100 23.30000
H  49.09400 24.09700 21.74300
H  48.26500 22.66500 22.36700
H  47.09800 27.90900 23.53500
H  46.25000 26.49000 22.96300
H  46.35800 27.84900 21.08800
H  47.76300 26.66700 20.95700
H  48.01900 28.36600 21.57000
H  51.14400 29.25800 25.65700
H  51.41400 30.46200 26.99900
H  50.05700 30.65400 25.92100
H  48.26100 29.21900 31.30900
H  51.15000 29.03800 34.58100
H  49.68400 28.12200 34.87000
H  49.81600 29.89100 35.18400

