158

Mg 45.14400 4.90500 47.64800
C  42.84800 7.57300 47.26000
C  42.41200 2.76400 47.05200
C  47.25200 2.52200 47.54600
C  47.73600 7.31100 47.86300
N  42.81800 5.19200 47.08400
C  42.14100 6.38400 47.04000
C  40.60000 6.14900 46.96200
C  40.43600 4.57300 47.02200
C  41.97800 4.10600 47.08200
C  39.53000 4.09300 48.19700
C  39.99400 6.80000 45.66800
C  40.91000 6.90900 44.40600
H  40.22100 6.90600 43.05800
N  44.90000 2.98600 47.18000
C  43.72900 2.23200 46.97200
C  44.02400 0.85300 46.85200
C  45.45400 0.77300 46.85600
C  45.94200 2.13000 47.22300
C  43.07100 -0.13400 46.36200
C  46.30400 -0.44700 46.53800
O  45.79500 -1.47900 46.20900
C  47.75400 -0.57100 46.56300
N  47.27800 4.90600 47.49700
C  47.88800 3.77600 47.72700
C  49.40200 3.92500 48.06600
C  49.57800 5.47300 48.07000
C  48.16400 5.94600 47.73700
C  49.74000 3.30900 49.43200
C  50.60600 5.98200 47.00700
C  51.95700 6.43400 47.53800
N  45.31700 7.05000 47.60000
C  46.43400 7.84400 47.73800
C  46.03700 9.24200 47.75800
C  44.58300 9.17100 47.62700
C  44.25500 7.79200 47.45700
C  46.83200 10.44600 47.77400
C  43.46400 9.94000 47.72800
O  43.29200 11.17800 47.81800
C  42.31400 8.91300 47.44800
C  41.36000 8.93100 48.61200
O  41.52800 8.41600 49.73700
O  40.28700 9.64900 48.32500
C  39.40500 9.96800 49.50400
H  41.54900 2.09700 47.01800
H  47.87100 1.62300 47.57400
H  48.62300 7.85700 48.19300
H  40.17400 6.54600 47.88400
H  40.11100 4.17100 46.06200
H  39.05300 3.16800 47.87400
H  38.83300 4.84900 48.55900
H  40.10600 3.86400 49.09400
H  39.69100 7.81800 45.91500
H  39.10500 6.26200 45.34000
H  41.69200 6.15300 44.33100
H  41.49000 7.83200 44.37500
H  43.19700 -1.01000 46.99700
H  43.42700 -0.39800 45.36600
H  42.03600 0.20600 46.33100
H  47.93200 -1.47300 45.97900
H  48.22600 -0.58300 47.54500
H  48.16700 0.27400 46.01200
H  50.08700 3.51600 47.32300
H  49.83500 5.92400 49.02800
H  48.87100 3.55300 50.04200
H  50.71800 3.45700 49.89100
H  49.73600 2.24600 49.19100
H  50.25600 6.83000 46.41800
H  50.82800 5.20700 46.27400
H  52.77700 5.99500 46.97000
H  52.17100 6.03600 48.53000
H  52.01500 7.52300 47.54100
H  47.75600 10.13300 48.26100
H  46.39800 11.37000 48.15500
H  47.09300 10.63300 46.73300
H  41.66200 9.11200 46.59700
H  39.24300 9.03300 50.04000
H  38.46500 10.34100 49.09700
H  39.89700 10.70900 50.13300
Mg -2.50100 33.87200 27.88700
C  -4.13200 31.98400 30.23600
C  -1.54300 35.96600 30.45800
C  -1.16000 35.81400 25.56700
C  -4.03700 31.89100 25.38300
N  -2.73000 33.86000 30.18400
C  -3.47600 33.04200 30.96300
C  -3.46900 33.42100 32.38000
C  -2.89600 34.92800 32.31700
C  -2.36900 34.91300 30.91600
C  -3.89100 36.08600 32.55600
C  -2.82200 32.50800 33.46500
C  -3.58500 32.27600 34.82300
H  -2.76900 32.22800 36.14100
N  -1.41400 35.67800 27.95200
C  -1.05600 36.29200 29.18300
C  -0.11600 37.34500 28.80900
C  0.03200 37.32400 27.39300
C  -0.88200 36.28200 26.87200
C  0.44400 38.39800 29.75200
C  1.01400 38.08800 26.56800
O  1.18100 37.88700 25.37300
C  1.94700 39.03700 27.24900
N  -2.63400 33.87800 25.70300
C  -1.92800 34.82400 25.00700
C  -2.12400 34.66200 23.48100
C  -2.85700 33.29700 23.42300
C  -3.18900 32.94700 24.89800
C  -2.94100 35.80500 22.78100
C  -2.00500 32.20500 22.71500
C  -0.99000 31.40400 23.61100
N  -3.86600 32.33900 27.77800
C  -4.28000 31.54200 26.73900
C  -5.14800 30.48300 27.21200
C  -5.10300 30.65300 28.57300
C  -4.19700 31.68900 28.85100
C  -5.99200 29.49600 26.40900
C  -5.69400 30.04300 29.74400
O  -6.56500 29.21800 29.84400
C  -5.07000 30.98100 30.83300
C  -6.10400 31.73300 31.68000
O  -6.70600 32.75100 31.30900
O  -6.27400 31.21700 32.95200
C  -7.11400 32.04600 33.86600
H  -1.11000 36.57000 31.25800
H  -0.64200 36.37100 24.78300
H  -4.44700 31.34000 24.53400
H  -4.52700 33.52600 32.62000
H  -2.04300 35.15500 32.95600
H  -3.55000 36.82300 33.28300
H  -4.86100 35.75500 32.92500
H  -3.96800 36.75100 31.69600
H  -1.90900 32.97700 33.83200
H  -2.54900 31.53400 33.05900
H  -3.86000 31.24500 34.60300
H  -4.50700 32.83400 34.98900
H  -0.12400 38.32800 30.68000
H  0.35400 39.42800 29.40900
H  1.50400 38.28500 29.98100
H  2.76000 39.34700 26.59300
H  2.50500 38.61800 28.08600
H  1.43000 39.93800 27.58000
H  -1.12100 34.56600 23.06500
H  -3.85900 33.38000 23.00300
H  -3.78100 35.41300 22.20800
H  -2.32800 36.45300 22.15500
H  -3.29600 36.51600 23.52700
H  -1.40900 32.53000 21.86300
H  -2.72200 31.54500 22.22700
H  -1.24100 30.34300 23.59000
H  -1.04700 31.80000 24.62500
H  0.03700 31.51600 23.26100
H  -5.58400 29.31200 25.41500
H  -6.97400 29.94100 26.24800
H  -6.00300 28.56300 26.97300
H  -4.47700 30.38100 31.52300
H  -7.97600 32.38000 33.28800
H  -6.64100 32.94300 34.26600
H  -7.50300 31.45100 34.69300

