158

Mg 1.34300 -0.74900 43.87100
C  4.76300 -0.18800 43.23400
C  0.65100 2.13900 42.25100
C  -1.70700 -1.74100 43.57700
C  2.37200 -4.04900 44.88800
N  2.65400 0.71400 42.91000
C  4.02800 0.81500 42.78700
C  4.39600 2.12500 42.02600
C  3.07400 2.85100 41.81900
C  1.99900 1.84500 42.38900
C  2.95100 4.14000 42.68700
C  5.35300 2.00800 40.77700
C  5.09000 0.88500 39.74900
H  5.41700 1.26400 38.31200
N  -0.33000 0.12500 43.19100
C  -0.42700 1.28500 42.56600
C  -1.79900 1.63800 42.39800
C  -2.55200 0.52500 42.87500
C  -1.48500 -0.42900 43.21000
C  -2.34400 2.91300 41.78800
C  -4.04100 0.46500 43.09100
O  -4.72700 1.46800 43.04400
C  -4.94000 -0.72900 43.61800
N  0.55200 -2.65200 43.88100
C  -0.79200 -2.68100 43.92500
C  -1.24600 -4.08800 44.34800
C  -0.03900 -4.70300 45.07500
C  1.00600 -3.78300 44.52100
C  -2.59600 -4.19900 45.23100
C  0.14500 -6.24700 44.92100
C  0.37200 -7.05600 46.21200
N  3.19100 -1.86900 44.24300
C  3.42000 -3.10200 44.72500
C  4.81700 -3.28400 44.99800
C  5.36000 -2.13500 44.40000
C  4.34500 -1.32400 43.89100
C  5.55700 -4.45600 45.61300
C  6.63300 -1.53900 44.07500
O  7.79500 -1.90100 44.29300
C  6.28100 -0.28000 43.25800
C  7.03400 0.89300 43.88500
O  6.57100 1.50300 44.82600
O  8.27800 1.05100 43.41800
C  9.19100 1.85900 44.26000
H  0.35300 3.09300 41.80900
H  -2.77600 -1.95300 43.64500
H  2.64300 -4.93900 45.46100
H  5.03500 2.57000 42.78900
H  3.05800 2.98700 40.73800
H  2.16500 4.03000 43.43400
H  2.63900 4.98100 42.06900
H  3.90900 4.39900 43.13800
H  6.36700 1.84200 41.14000
H  5.31200 3.02500 40.38900
H  4.09000 0.45800 39.83200
H  5.63500 -0.01200 40.04300
H  -3.36900 2.73300 41.46400
H  -1.70800 3.24000 40.96500
H  -2.63800 3.70600 42.47500
H  -4.80700 -1.57100 42.93800
H  -5.98800 -0.44600 43.51600
H  -4.55400 -0.87800 44.62600
H  -1.47500 -4.66100 43.45000
H  -0.14000 -4.31700 46.08900
H  -2.53500 -3.32700 45.88300
H  -2.38200 -5.07300 45.84500
H  -3.59700 -4.22700 44.80100
H  1.06800 -6.49100 44.39400
H  -0.65800 -6.73300 44.36600
H  0.41000 -6.39600 47.07900
H  1.20300 -7.76000 46.25500
H  -0.52600 -7.66000 46.34100
H  5.32400 -5.31800 44.98800
H  5.04800 -4.59600 46.56700
H  6.63500 -4.30200 45.63800
H  6.68400 -0.35500 42.24800
H  9.86800 2.49600 43.69000
H  9.71800 1.09900 44.83600
H  8.74200 2.60400 44.91700
Mg 17.21700 -2.86700 28.01600
C  16.58700 -0.73900 30.82200
C  18.69100 -4.99300 30.26900
C  18.21500 -4.65500 25.27600
C  16.21100 -0.30300 25.87700
N  17.47300 -2.81200 30.44300
C  17.27800 -1.82000 31.31600
C  17.83500 -2.11500 32.70100
C  18.70100 -3.34000 32.28600
C  18.27200 -3.80300 30.93100
C  20.28000 -3.21800 32.37100
C  16.67700 -2.34400 33.73000
C  16.76000 -1.51100 34.98400
H  18.16600 -1.19600 35.58900
N  18.24500 -4.63000 27.80200
C  18.75100 -5.35000 28.86900
C  19.34300 -6.52300 28.32200
C  19.21900 -6.44600 26.91400
C  18.50800 -5.16700 26.58400
C  19.71600 -7.67400 29.22800
C  19.57200 -7.46000 25.89400
O  19.39400 -7.23600 24.67300
C  20.18100 -8.80800 26.13900
N  16.90000 -2.60000 25.72000
C  17.60100 -3.40000 24.86400
C  17.68500 -2.69600 23.50400
C  16.87500 -1.36900 23.69800
C  16.67500 -1.39700 25.19200
C  19.15300 -2.33400 22.99700
C  15.54200 -1.35800 22.86300
C  14.14700 -1.52900 23.59300
N  16.47500 -0.94500 28.20400
C  15.95800 -0.13500 27.25600
C  15.22300 0.96200 27.95000
C  15.50300 0.74300 29.31000
C  16.27400 -0.38700 29.43200
C  14.36900 1.95800 27.29400
C  15.23900 1.25400 30.60100
O  14.72000 2.31600 30.97500
C  15.97900 0.38700 31.63000
C  16.99100 1.31100 32.24400
O  18.06500 1.57800 31.74200
O  16.46600 1.96100 33.27900
C  17.24200 3.09200 33.86400
H  19.15200 -5.69700 30.96500
H  18.63500 -5.15800 24.40300
H  15.96300 0.53800 25.22700
H  18.52000 -1.32400 33.00500
H  18.36100 -4.22900 32.81700
H  20.75600 -3.62300 31.47800
H  20.62100 -3.75700 33.25500
H  20.61100 -2.19500 32.55100
H  16.67200 -3.40600 33.97400
H  15.80600 -2.06800 33.13700
H  16.10700 -2.04700 35.67300
H  16.25200 -0.58100 34.72800
H  20.80200 -7.75800 29.18000
H  19.28400 -8.62200 28.90600
H  19.50400 -7.47600 30.27800
H  20.48300 -9.31500 25.22200
H  19.34400 -9.24600 26.68300
H  21.12200 -8.82600 26.68900
H  17.17400 -3.35000 22.79700
H  17.37800 -0.45400 23.38600
H  19.10700 -1.73500 22.08800
H  19.72200 -3.25200 22.85000
H  19.65000 -1.72600 23.75300
H  15.59100 -1.93000 21.93600
H  15.49100 -0.29600 22.62600
H  13.44000 -1.70800 22.78300
H  13.91900 -0.57400 24.06600
H  14.06600 -2.33500 24.32200
H  14.33400 1.64900 26.25000
H  14.69500 2.99700 27.35000
H  13.39600 1.84000 27.77100
H  15.31200 0.04400 32.42100
H  17.84800 2.67800 34.67000
H  16.52700 3.70300 34.41500
H  17.74400 3.62200 33.05400

