158

Mg 0.68700 -1.79700 43.35600
C  4.09500 -1.99400 42.65000
C  0.63200 1.09000 41.37400
C  -2.70500 -1.83500 43.45600
C  0.88600 -4.93200 44.83300
N  2.13400 -0.64500 42.12200
C  3.49000 -0.86700 42.11500
C  4.26700 0.24600 41.32300
C  3.19800 1.37700 41.08600
C  1.91100 0.60500 41.62100
C  3.46600 2.76400 41.91300
C  4.97800 -0.20600 40.05600
C  6.31000 0.43600 39.90400
H  6.49500 1.59500 38.87600
N  -0.84500 -0.60800 42.47800
C  -0.69100 0.60900 41.74800
C  -1.98200 1.15700 41.33400
C  -2.97400 0.29700 41.96200
C  -2.23000 -0.81700 42.64500
C  -2.13300 2.35700 40.39600
C  -4.48800 0.56900 42.04400
O  -4.91000 1.56200 41.51900
C  -5.58500 -0.26200 42.70500
N  -0.71800 -3.29000 43.91800
C  -2.04300 -2.94400 44.13900
C  -2.78000 -3.91100 45.01700
C  -1.60300 -4.95900 45.25400
C  -0.36000 -4.38300 44.66300
C  -3.61700 -3.35100 46.19700
C  -1.94100 -6.37000 44.62700
C  -2.52300 -7.47300 45.63600
N  2.22600 -3.17200 43.86400
C  2.13000 -4.40300 44.46100
C  3.46600 -4.90800 44.62500
C  4.28800 -4.01600 43.89300
C  3.48100 -2.99500 43.46600
C  3.81300 -6.22800 45.16400
C  5.62200 -3.78000 43.40500
O  6.67500 -4.42400 43.50800
C  5.51900 -2.46100 42.48100
C  6.54100 -1.44500 42.93400
O  6.50200 -0.66800 43.89400
O  7.58800 -1.70400 42.13800
C  8.79700 -0.83800 42.34700
H  0.58300 2.01400 40.79400
H  -3.77900 -1.86700 43.65300
H  1.00700 -5.87400 45.37300
H  4.97400 0.65600 42.04500
H  3.05900 1.71000 40.05700
H  2.62700 2.82600 42.60500
H  3.39500 3.62500 41.24700
H  4.37900 2.76000 42.50800
H  4.29600 0.07300 39.25300
H  5.03400 -1.29400 40.01500
H  7.10000 -0.27500 39.66100
H  6.62700 0.89800 40.84000
H  -3.16600 2.70700 40.41300
H  -1.96400 2.03700 39.36800
H  -1.43200 3.13500 40.69800
H  -6.59900 0.02200 42.42300
H  -5.48200 -0.34800 43.78600
H  -5.36400 -1.26000 42.32500
H  -3.53800 -4.32400 44.35300
H  -1.47000 -5.06100 46.33100
H  -3.41500 -3.90700 47.11300
H  -4.69600 -3.31300 46.04700
H  -3.38900 -2.32000 46.46900
H  -1.02600 -6.85500 44.28600
H  -2.69900 -6.17600 43.86800
H  -3.56900 -7.56300 45.34300
H  -2.22200 -7.18700 46.64300
H  -2.05200 -8.45500 45.59000
H  3.48000 -6.23600 46.20200
H  4.87600 -6.42100 45.02000
H  3.15700 -6.96600 44.70200
H  5.85300 -2.78900 41.49700
H  9.24900 -1.07000 43.31100
H  8.47600 0.20300 42.35400
H  9.51400 -1.05600 41.55600
Mg 0.53700 43.94500 25.84400
C  2.88200 43.46900 28.59400
C  -1.86300 42.59800 27.88700
C  -1.45000 43.77200 23.19000
C  3.33500 44.88700 23.93300
N  0.66300 43.08700 27.92600
C  1.62100 43.06400 28.90200
C  1.00400 42.88500 30.27600
C  -0.43600 42.44000 29.93600
C  -0.57600 42.72200 28.47900
C  -0.75700 40.96200 30.21000
C  1.02400 44.16900 31.21300
C  1.35400 43.81700 32.71300
H  0.80500 42.59500 33.41000
N  -1.40700 43.33100 25.62100
C  -2.24800 42.76300 26.50600
C  -3.56600 42.57700 25.89800
C  -3.43800 42.88100 24.50200
C  -2.08000 43.32100 24.38500
C  -4.72300 42.08600 26.72800
C  -4.49100 42.85000 23.49300
O  -4.27600 42.99600 22.31000
C  -5.86100 42.56200 23.93100
N  0.83800 44.23500 23.89100
C  -0.17100 44.27200 22.99000
C  0.26900 45.05900 21.70100
C  1.67200 45.58200 22.19700
C  2.02900 44.80600 23.42900
C  0.37100 44.24300 20.40400
C  1.60000 47.04500 22.52700
C  1.26900 47.90300 21.20000
N  2.68500 44.22800 26.13200
C  3.64700 44.65500 25.22800
C  4.97800 44.60500 25.91700
C  4.66600 44.29900 27.24200
C  3.31700 44.01000 27.32700
C  6.35500 44.81900 25.23000
C  5.30000 44.06800 28.55200
O  6.46000 44.03700 28.88600
C  4.07900 43.72500 29.54400
C  4.48100 42.52600 30.31000
O  4.99400 41.49900 29.83300
O  4.53300 42.80300 31.66400
C  5.22100 41.84100 32.57100
H  -2.64200 42.19800 28.54000
H  -2.02500 43.93500 22.27600
H  4.14500 45.26000 23.30300
H  1.46300 42.03700 30.78300
H  -1.10900 43.01800 30.56900
H  -1.53600 40.96900 30.97300
H  0.10400 40.38000 30.53800
H  -1.19500 40.48000 29.33600
H  0.07100 44.69500 31.26900
H  1.74400 44.90200 30.85000
H  0.99400 44.65300 33.31200
H  2.44000 43.91200 32.69600
H  -5.54400 42.80300 26.76100
H  -4.38000 42.03200 27.76100
H  -4.90900 41.08500 26.33900
H  -6.06800 41.64400 24.48000
H  -6.51500 42.64700 23.06300
H  -6.22700 43.40200 24.52100
H  -0.53500 45.77600 21.53200
H  2.46500 45.39600 21.47200
H  0.85500 44.91600 19.69500
H  -0.56700 43.92900 19.94500
H  0.91400 43.35300 20.72000
H  2.58600 47.35400 22.87600
H  0.88800 47.27400 23.32000
H  0.24800 48.24900 21.36100
H  1.18000 47.27000 20.31700
H  1.94200 48.75000 21.07200
H  6.20400 45.16900 24.20900
H  7.07500 44.03200 25.45000
H  6.80700 45.70200 25.68200
H  3.91100 44.64200 30.10900
H  5.51400 42.35700 33.48500
H  6.06700 41.42800 32.02200
H  4.59100 40.98100 32.79700

