158

Mg 42.49700 42.04200 26.40000
C  41.42500 44.22200 28.95200
C  43.47000 39.69700 28.80500
C  43.75800 40.08900 23.88300
C  41.37500 44.42700 24.11500
N  42.67000 42.12500 28.71200
C  42.03400 43.04800 29.53000
C  42.10000 42.52400 31.01600
C  42.82500 41.15300 30.92800
C  43.01800 40.95200 29.37300
C  44.03600 41.02000 31.86400
C  40.69300 42.42100 31.64000
C  40.65100 41.79600 33.08600
H  39.95500 42.38100 34.41100
N  43.54100 40.21700 26.43300
C  43.76400 39.36200 27.46200
C  44.46200 38.21000 27.03000
C  44.47300 38.21000 25.64400
C  43.93400 39.51900 25.20100
C  45.00500 37.24900 28.01100
C  44.96500 37.16400 24.61600
O  44.92400 37.41000 23.44200
C  45.58000 35.95900 25.19200
N  42.65700 42.22800 24.36200
C  43.04600 41.23800 23.50100
C  42.86700 41.74400 22.07400
C  41.87600 42.83500 22.23900
C  41.92800 43.21300 23.69400
C  44.18100 42.04300 21.42000
C  40.42700 42.64700 21.54000
C  39.63100 41.43300 22.11600
N  41.54800 43.99400 26.44300
C  41.20800 44.87000 25.43100
C  40.59500 46.04400 26.01900
C  40.60800 45.82600 27.42400
C  41.17500 44.51500 27.61900
C  40.02000 47.21900 25.23300
C  40.26900 46.36600 28.71500
O  39.81200 47.47600 29.02400
C  40.65300 45.32200 29.78300
C  41.42500 45.99800 30.85100
O  42.61300 46.30300 30.83100
O  40.50900 46.30400 31.88900
C  40.98900 46.91300 33.10400
H  43.76200 38.95500 29.55100
H  44.15100 39.52400 23.03500
H  40.79700 44.93500 23.34100
H  42.67200 43.30800 31.51400
H  42.11300 40.36500 31.17100
H  44.92800 41.13800 31.25000
H  44.06800 40.09600 32.44100
H  44.16300 41.85500 32.55400
H  39.93200 41.94500 31.02100
H  40.40200 43.47000 31.70200
H  41.70200 41.74300 33.37000
H  40.32700 40.76000 32.98400
H  44.43700 36.32400 27.90400
H  44.96300 37.49000 29.07300
H  46.04800 37.17300 27.70300
H  46.57500 35.99300 25.63700
H  45.79100 35.27900 24.36700
H  44.86700 35.39600 25.79500
H  42.42700 40.95500 21.46500
H  42.34000 43.68800 21.74300
H  45.03400 42.26500 22.06100
H  44.11700 42.90300 20.75500
H  44.48300 41.26700 20.71600
H  40.67900 42.42000 20.50400
H  39.78000 43.51400 21.67300
H  38.57700 41.70100 22.04300
H  39.83300 41.23400 23.16800
H  39.88900 40.52600 21.57000
H  39.17100 47.64400 25.76900
H  39.72700 46.87800 24.24000
H  40.88300 47.88000 25.15800
H  39.61300 45.07600 29.99600
H  41.35800 46.21000 33.85100
H  40.22100 47.56000 33.52600
H  41.80300 47.61700 32.93100
Mg 0.43400 42.49200 25.96400
C  2.28400 42.68700 29.05200
C  -2.23300 41.34800 27.80000
C  -0.99200 41.84500 23.12500
C  3.36200 43.40700 24.36000
N  0.08600 42.17500 28.26300
C  0.97000 42.32700 29.31000
C  0.16100 42.37900 30.57500
C  -1.31800 41.87700 30.19500
C  -1.15400 41.84400 28.63000
C  -1.73900 40.42800 30.70500
C  0.28300 43.64900 31.38000
C  0.58300 43.56800 32.87600
H  0.36100 42.29400 33.62000
N  -1.34500 41.76100 25.52800
C  -2.31600 41.24900 26.37500
C  -3.48400 40.77800 25.66600
C  -3.09200 40.84000 24.25700
C  -1.75200 41.49800 24.26100
C  -4.73400 40.28400 26.31900
C  -4.02500 40.48200 23.09900
O  -3.54600 40.42000 21.94100
C  -5.39700 39.91300 23.26200
N  1.14700 42.59700 24.02600
C  0.31900 42.38000 23.01400
C  1.00500 42.65600 21.64200
C  2.23900 43.46400 22.08500
C  2.27800 43.13800 23.55500
C  1.35200 41.44800 20.76600
C  2.17000 44.98600 21.95300
C  3.19000 45.60500 20.97200
N  2.43300 42.89400 26.47600
C  3.48900 43.19700 25.71100
C  4.71600 43.36900 26.42000
C  4.27000 43.13000 27.76700
C  2.88400 42.86500 27.75900
C  6.06100 43.71300 25.92600
C  4.71100 43.05600 29.09600
O  5.87600 42.98500 29.54900
C  3.40400 42.82600 30.01700
C  3.56400 41.59800 30.86900
O  3.70800 40.46200 30.46900
O  3.85700 42.08400 32.14800
C  4.38200 40.98300 33.04500
H  -3.10100 41.02800 28.38100
H  -1.42800 41.69400 22.13600
H  4.22200 43.77800 23.79800
H  0.67600 41.58600 31.11800
H  -2.17100 42.54500 30.31600
H  -1.19100 40.17000 31.61100
H  -1.42000 39.77800 29.89000
H  -2.81200 40.32100 30.86700
H  -0.67100 44.15300 31.22600
H  1.08500 44.34800 31.14100
H  -0.02400 44.30800 33.39800
H  1.60100 43.94300 32.99000
H  -4.59300 40.15400 27.39200
H  -5.16300 39.38600 25.87500
H  -5.47300 41.07700 26.20100
H  -6.07400 40.60800 23.75800
H  -5.15100 38.99500 23.79600
H  -5.80200 39.70800 22.27100
H  0.37400 43.35600 21.09400
H  3.17800 43.10000 21.66700
H  0.84100 40.57800 21.17800
H  2.43200 41.32100 20.68600
H  0.87200 41.71600 19.82500
H  2.21200 45.55200 22.88300
H  1.13700 45.13000 21.63800
H  2.64900 46.20100 20.23700
H  3.57400 44.80900 20.33300
H  4.10300 46.00700 21.41000
H  6.74100 43.10200 26.51900
H  6.27900 44.78100 25.90800
H  6.16800 43.25600 24.94200
H  3.20600 43.74700 30.56500
H  4.49200 41.24700 34.09600
H  5.35800 40.63900 32.70200
H  3.70400 40.13300 32.96500

