158

Mg 16.99700 53.46200 26.48600
C  19.26600 51.78000 28.66000
C  14.96600 54.00300 29.04900
C  15.19600 55.21800 24.37300
C  19.18100 52.52600 23.77500
N  17.14300 52.92100 28.66500
C  18.18400 52.33700 29.32000
C  17.89400 52.38600 30.80300
C  16.35900 52.92800 30.84600
C  16.09200 53.31900 29.45300
C  15.41200 51.85700 31.38400
C  18.93200 53.33800 31.57400
C  19.36700 53.04300 33.02400
H  18.31900 52.60500 33.97300
N  15.29700 54.46200 26.68200
C  14.55400 54.51500 27.80500
C  13.32400 55.10900 27.49200
C  13.29700 55.51400 26.12700
C  14.64800 55.05200 25.65200
C  12.28600 55.32500 28.54200
C  12.21900 56.12900 25.28000
O  12.27400 56.28600 24.07900
C  10.87200 56.51300 25.93500
N  17.16800 53.85800 24.39300
C  16.29700 54.70100 23.81400
C  16.60900 54.87700 22.31000
C  18.06900 54.30400 22.23500
C  18.21200 53.55900 23.57000
C  15.59400 54.22800 21.32300
C  19.22300 55.30500 21.88600
C  19.71100 55.16100 20.46500
N  18.87300 52.36900 26.24500
C  19.56100 52.00600 25.07100
C  20.75200 51.27100 25.48000
C  20.69800 51.21000 26.87800
C  19.51000 51.78400 27.29900
C  21.71600 50.77700 24.47400
C  21.38400 50.66000 28.05100
O  22.42300 50.08400 28.24100
C  20.45200 51.05100 29.26600
C  20.06300 49.83700 30.03400
O  19.32300 48.91500 29.69200
O  20.58900 49.92500 31.31200
C  19.91600 49.09000 32.30700
H  14.40700 54.23300 29.95900
H  14.52800 55.85200 23.78600
H  19.85100 52.30500 22.94100
H  18.03200 51.42200 31.29100
H  16.38100 53.74000 31.57300
H  14.75000 52.29500 32.13200
H  15.93800 50.97500 31.74900
H  14.71300 51.71500 30.56000
H  18.48800 54.32600 31.45800
H  19.82200 53.48300 30.96100
H  19.89400 53.91500 33.41000
H  20.00800 52.17000 32.90200
H  11.40600 54.75100 28.25400
H  12.05800 56.38800 28.62700
H  12.56700 54.94400 29.52300
H  10.52300 55.80300 26.68500
H  10.15700 56.33100 25.13300
H  10.91800 57.56600 26.21200
H  16.64800 55.93500 22.05400
H  17.96700 53.56100 21.44400
H  16.09100 54.30800 20.35600
H  14.85300 55.02500 21.38600
H  15.32500 53.19200 21.52900
H  19.88800 54.97800 22.68500
H  19.01600 56.36800 22.01000
H  19.09400 54.46800 19.89300
H  20.73900 54.80700 20.38700
H  19.66600 56.10800 19.92800
H  21.15100 50.45100 23.60000
H  22.34000 50.00300 24.92100
H  22.39200 51.57700 24.17000
H  20.96000 51.73300 29.94800
H  18.86000 49.24900 32.52500
H  20.31000 49.19900 33.31800
H  19.91900 48.02200 32.09200
Mg -11.83600 16.85700 40.96500
C  -8.67000 15.53400 41.04100
C  -10.38900 19.93000 40.28300
C  -14.85500 18.02000 39.97500
C  -13.14600 13.52700 41.16700
N  -9.70500 17.65300 40.78500
C  -8.57300 16.94700 40.78700
C  -7.30500 17.78800 40.56800
C  -7.92200 19.25900 40.68000
C  -9.42700 18.96700 40.56500
C  -7.43700 19.97000 42.00200
C  -6.48200 17.36000 39.30900
C  -5.04900 16.75200 39.50900
H  -4.80000 15.45900 38.85200
N  -12.55000 18.71000 40.26800
C  -11.80100 19.84700 40.05400
C  -12.62200 20.87200 39.58600
C  -13.93200 20.39100 39.50100
C  -13.83800 18.96500 39.94500
C  -12.12900 22.25800 39.15600
C  -15.19400 21.20100 39.11100
O  -15.00000 22.41100 38.81100
C  -16.63300 20.74700 39.15600
N  -13.72800 15.97900 40.74500
C  -14.83700 16.68000 40.32600
C  -15.96400 15.71000 39.88400
C  -15.49700 14.44000 40.54500
C  -14.00300 14.59400 40.83200
C  -17.31700 16.27200 40.46100
C  -15.89000 13.11800 39.88300
C  -16.98000 12.30600 40.62500
N  -11.12600 14.94700 41.27500
C  -11.75500 13.71000 41.36400
C  -10.73900 12.64700 41.43500
C  -9.50500 13.35200 41.37300
C  -9.85500 14.70100 41.18500
C  -11.02000 11.22800 41.54800
C  -8.10000 13.11300 41.19400
O  -7.41500 12.09700 41.06300
C  -7.51000 14.52600 41.13400
C  -6.69300 14.82000 42.33800
O  -6.97300 15.50700 43.29700
O  -5.50000 14.07400 42.31100
C  -4.66100 14.20200 43.51000
H  -9.84700 20.82400 39.96700
H  -15.78200 18.37600 39.52200
H  -13.52000 12.51500 41.33900
H  -6.66000 17.62100 41.43100
H  -7.76900 19.76800 39.72900
H  -7.41900 21.05100 41.86600
H  -6.42700 19.71200 42.31900
H  -8.20600 19.74200 42.74000
H  -6.39900 18.24100 38.67200
H  -7.03700 16.56100 38.81700
H  -4.87700 16.71100 40.58500
H  -4.28300 17.42400 39.12200
H  -12.54700 22.51900 38.18400
H  -11.04800 22.15200 39.06600
H  -12.26200 23.05900 39.88300
H  -16.75800 19.96200 38.41000
H  -17.32900 21.55400 38.92500
H  -17.00400 20.31800 40.08600
H  -16.03100 15.78000 38.79800
H  -15.95700 14.44900 41.53200
H  -17.97100 16.73000 39.71900
H  -17.03800 17.05700 41.16400
H  -17.80200 15.41200 40.92400
H  -15.01800 12.48200 39.73400
H  -16.40500 13.32700 38.94500
H  -17.88300 12.64300 40.11600
H  -17.14800 12.39900 41.69800
H  -16.71500 11.25500 40.51300
H  -11.51700 10.93900 40.62300
H  -11.61400 10.94700 42.41800
H  -10.08300 10.68400 41.67200
H  -6.86700 14.62700 40.26000
H  -4.67500 15.19700 43.95300
H  -3.66200 13.94000 43.16200
H  -5.01400 13.46700 44.23400

