158

Mg 48.07800 34.32800 27.58700
C  46.20200 32.92400 30.15000
C  48.09400 37.35200 29.36300
C  49.24400 36.01800 24.84200
C  47.55400 31.50800 25.61600
N  47.41700 34.96400 29.50100
C  46.85200 34.11300 30.40400
C  46.92700 34.75400 31.76700
C  47.10000 36.28300 31.45200
C  47.58000 36.21700 30.03700
C  45.71400 37.03300 31.67700
C  48.16700 34.28500 32.47400
C  48.50400 34.72800 33.91200
H  47.37500 35.40600 34.71200
N  48.76200 36.37100 27.23200
C  48.65800 37.39200 28.12800
C  49.32900 38.49500 27.51300
C  49.70800 38.16600 26.19400
C  49.23500 36.81600 26.06700
C  49.61300 39.79400 28.26200
C  50.50400 39.06700 25.18400
O  50.74300 38.67100 24.01600
C  51.00000 40.45600 25.61800
N  48.32300 33.83400 25.43300
C  48.79700 34.68300 24.53900
C  48.94900 33.97700 23.12000
C  48.77900 32.43100 23.54500
C  48.21100 32.57900 24.92200
C  47.90700 34.41700 22.12600
C  50.00700 31.51100 23.50800
C  50.87100 31.72600 24.72800
N  47.17300 32.54500 27.84000
C  46.96200 31.50000 26.94600
C  46.24700 30.42600 27.58200
C  45.77600 30.96700 28.84800
C  46.42800 32.24200 28.92800
C  45.86400 29.14000 26.97700
C  44.96500 30.75300 30.05500
O  44.26700 29.82500 30.44000
C  45.11600 32.08900 30.92400
C  45.46200 31.53700 32.30800
O  46.45800 30.90500 32.67900
O  44.37900 31.79700 33.10300
C  44.57200 31.45000 34.53400
H  48.25100 38.21900 30.00800
H  49.70200 36.43500 23.94200
H  47.36100 30.56000 25.11000
H  45.99000 34.54100 32.28200
H  47.84700 36.73500 32.10400
H  44.86200 36.38500 31.88200
H  45.51400 37.55600 30.74200
H  45.80600 37.77600 32.46900
H  49.03900 34.49000 31.85300
H  48.20400 33.19900 32.38200
H  49.40300 35.34400 33.89400
H  48.63600 33.79900 34.46600
H  49.36200 40.61800 27.59400
H  50.63300 39.77300 28.64700
H  48.91800 39.88300 29.09700
H  51.55700 40.53600 26.55100
H  50.15500 41.13600 25.50700
H  51.65600 41.00500 24.94300
H  49.95700 34.10600 22.72600
H  48.00900 31.96900 22.92700
H  47.25100 35.16800 22.56500
H  47.30500 33.66600 21.61300
H  48.46800 35.02100 21.41200
H  50.66300 31.79200 22.68400
H  49.74600 30.45300 23.47900
H  51.27200 32.74000 24.75200
H  51.73700 31.12000 24.46100
H  50.57400 31.33500 25.70100
H  44.77400 29.14100 26.95800
H  46.23900 28.35700 27.63700
H  46.34700 28.91400 26.02700
H  44.17000 32.62900 30.96300
H  45.00800 32.20900 35.18400
H  44.98500 30.45400 34.69100
H  43.60600 31.27900 35.00900
Mg -10.81100 16.57200 42.55000
C  -7.80100 15.04100 42.50500
C  -9.46900 19.35200 41.07200
C  -14.06200 17.90700 42.14600
C  -12.38000 13.58000 43.54200
N  -8.83100 17.05500 41.70700
C  -7.72000 16.34100 42.06700
C  -6.47600 17.14600 41.65900
C  -7.02300 18.60700 41.53600
C  -8.53800 18.33800 41.39400
C  -6.60600 19.67200 42.58200
C  -5.80600 16.65900 40.32800
C  -4.36000 16.07200 40.41300
H  -4.19900 14.89100 39.44100
N  -11.64700 18.43800 41.85100
C  -10.87700 19.34300 41.18900
C  -11.79500 20.39100 40.71600
C  -13.09600 20.12300 41.14100
C  -12.99300 18.81000 41.78300
C  -11.30300 21.57600 39.94600
C  -14.28100 20.98000 40.98300
O  -14.16800 22.15200 40.54900
C  -15.69500 20.60300 41.36700
N  -12.95100 15.81400 42.92500
C  -14.05800 16.60400 42.67400
C  -15.34300 15.86600 42.92500
C  -14.82800 14.54700 43.63900
C  -13.34500 14.59300 43.32300
C  -16.47300 16.49500 43.66200
C  -15.44100 13.23400 43.18900
C  -15.77000 12.21800 44.22300
N  -10.29400 14.69900 42.83700
C  -10.98400 13.57500 43.28600
C  -10.03700 12.50300 43.53400
C  -8.81700 13.07000 43.29200
C  -8.99700 14.36600 42.87300
C  -10.35800 11.07700 43.99900
C  -7.38100 12.74000 43.25800
O  -6.88200 11.66000 43.57800
C  -6.62700 14.05900 42.78500
C  -5.80700 14.52900 43.95400
O  -6.16500 15.07400 44.97800
O  -4.52200 14.29000 43.62600
C  -3.54800 14.84500 44.59500
H  -8.88600 20.16900 40.64100
H  -15.06900 18.12000 41.78000
H  -12.79700 12.66400 43.96600
H  -5.71500 17.08900 42.43700
H  -6.73800 19.01000 40.56400
H  -7.49100 20.11000 43.04400
H  -6.06500 20.44300 42.03200
H  -5.85200 19.35400 43.30200
H  -5.89300 17.46400 39.59900
H  -6.47400 16.00100 39.77300
H  -4.04300 15.68600 41.38200
H  -3.66600 16.88300 40.19200
H  -11.31900 22.41700 40.64000
H  -11.93100 21.81800 39.08900
H  -10.28500 21.54900 39.55800
H  -16.33600 21.43000 41.06400
H  -15.73300 20.44000 42.44400
H  -16.01000 19.76200 40.74800
H  -15.75500 15.58600 41.95500
H  -14.95800 14.55800 44.72100
H  -17.36000 16.59000 43.03500
H  -16.15600 17.48700 43.98000
H  -16.68600 15.85200 44.51500
H  -14.84400 12.66800 42.47400
H  -16.27400 13.45500 42.52200
H  -16.85900 12.18700 44.26100
H  -15.38000 12.47200 45.20900
H  -15.51300 11.16900 44.07000
H  -10.55900 10.46400 43.12000
H  -11.21500 11.02200 44.67000
H  -9.42900 10.78400 44.48600
H  -5.99400 13.84400 41.92500
H  -3.07400 15.77200 44.27200
H  -2.65500 14.23400 44.71900
H  -3.93500 15.17500 45.56000

