158

Mg 44.18900 5.50900 48.68500
C  42.03400 8.16000 47.95900
C  41.63000 3.43700 47.49700
C  46.42000 2.90200 48.75800
C  46.85900 7.76000 48.65000
N  42.06600 5.74800 47.90900
C  41.40400 6.94500 47.76600
C  39.93400 6.71800 47.41400
C  39.86800 5.20300 47.16400
C  41.28800 4.76600 47.56300
C  38.68200 4.40100 47.87900
C  39.37800 7.70000 46.33900
C  40.23400 7.99000 45.12300
H  39.87600 7.34600 43.76000
N  43.97500 3.42800 48.40100
C  42.83300 2.80900 47.92700
C  43.13000 1.33600 47.77600
C  44.50200 1.21600 48.24100
C  45.00800 2.56000 48.49000
C  42.32400 0.41700 46.93300
C  45.18900 -0.09300 48.30900
O  44.60800 -1.12400 47.95900
C  46.59200 -0.29500 48.86800
N  46.40000 5.34700 48.56900
C  47.02600 4.15200 48.84100
C  48.53900 4.31000 48.81000
C  48.74500 5.91400 48.81400
C  47.24700 6.42500 48.70000
C  49.28800 3.60300 49.96600
C  49.80500 6.45600 47.76700
C  50.79600 7.54200 48.35500
N  44.44200 7.51600 48.57900
C  45.61700 8.32600 48.58400
C  45.29700 9.69900 48.37300
C  43.88300 9.67400 48.18400
C  43.41700 8.28900 48.21700
C  46.29700 10.85100 48.24700
C  42.76100 10.50800 47.92200
O  42.69300 11.70800 47.79500
C  41.49700 9.58400 47.81300
C  40.64400 9.81800 48.99400
O  40.68000 9.30400 50.10900
O  39.70600 10.81300 48.60900
C  38.77800 11.33400 49.71400
H  40.84900 2.73600 47.19500
H  47.23500 2.17600 48.71100
H  47.64400 8.51900 48.63800
H  39.45600 6.91700 48.37300
H  39.75400 4.96700 46.10600
H  37.91400 5.04900 48.30200
H  39.19000 3.90100 48.70400
H  38.28900 3.64600 47.19800
H  39.01500 8.62700 46.78300
H  38.47300 7.30400 45.87800
H  41.24600 7.62500 45.29600
H  40.19500 9.06600 44.95600
H  41.47500 0.81600 46.37800
H  41.90900 -0.37700 47.55400
H  43.08400 0.02400 46.25900
H  46.73500 -1.29900 49.26900
H  46.60700 0.52800 49.58300
H  47.29900 -0.20300 48.04300
H  48.83700 3.83400 47.87600
H  48.99400 6.26900 49.81400
H  48.63800 3.27300 50.77600
H  50.04300 4.30100 50.32700
H  49.91600 2.75700 49.68400
H  49.33700 6.84700 46.86300
H  50.36900 5.58000 47.44600
H  50.84700 7.61800 49.44100
H  50.61000 8.51500 47.90100
H  51.77500 7.14500 48.08600
H  46.77100 10.81400 47.26600
H  47.10800 10.87000 48.97500
H  45.80100 11.81100 48.39100
H  40.88800 9.61700 46.90900
H  39.03300 11.03000 50.73000
H  37.73500 11.15800 49.44900
H  38.86700 12.41900 49.77100
Mg 47.62500 15.40800 28.56800
C  45.54000 15.62900 31.29900
C  50.03200 17.26500 30.49100
C  49.67400 15.51300 26.03700
C  44.96000 14.29200 26.66400
N  47.68000 16.35800 30.58600
C  46.76300 16.22900 31.60500
C  47.31200 16.64300 32.97700
C  48.63300 17.36000 32.60500
C  48.83500 16.93000 31.10700
C  48.62600 18.91500 32.89700
C  47.44200 15.42200 33.92400
C  47.24500 15.67800 35.44600
H  46.78400 17.07000 35.89100
N  49.63400 16.10300 28.25700
C  50.41000 16.82500 29.17400
C  51.64900 17.09700 28.58000
C  51.67000 16.51700 27.28000
C  50.30000 15.99500 27.16800
C  52.77100 17.85900 29.30500
C  52.79100 16.31400 26.22000
O  52.64500 15.88600 25.11900
C  54.13900 16.83900 26.49700
N  47.37100 14.87100 26.62600
C  48.41300 14.94100 25.76800
C  47.90000 14.66500 24.38300
C  46.53200 14.04300 24.56800
C  46.22500 14.44500 26.01000
C  47.93500 15.87000 23.41700
C  46.47600 12.47100 24.42000
C  47.43300 11.60300 25.24500
N  45.63900 14.97400 28.83700
C  44.68100 14.46400 28.03600
C  43.47800 14.22800 28.74700
C  43.71000 14.64500 30.09400
C  45.05000 15.09000 30.09600
C  42.27200 13.62400 28.14000
C  43.22800 14.70900 31.44000
O  42.18500 14.29700 31.92200
C  44.40700 15.29800 32.29300
C  43.87400 16.48800 33.02700
O  44.04900 17.66500 32.71800
O  43.14100 16.08300 34.10500
C  42.27300 16.97000 34.84100
H  50.74300 17.88600 31.03900
H  50.30100 15.64300 25.15200
H  44.21200 13.74500 26.08600
H  46.55100 17.33800 33.33300
H  49.45900 16.99800 33.21600
H  49.43000 19.30400 33.52200
H  47.71700 19.28400 33.37100
H  48.75300 19.43000 31.94500
H  48.40900 14.94800 33.75300
H  46.65600 14.72800 33.62600
H  48.07700 15.43300 36.10600
H  46.54300 14.91700 35.78600
H  53.57400 18.25700 28.68400
H  52.99000 17.28700 30.20600
H  52.25400 18.76000 29.63700
H  54.25800 17.89700 26.26600
H  54.82900 16.37200 25.79400
H  54.42600 16.64800 27.53100
H  48.55200 13.92100 23.92700
H  45.76800 14.54200 23.97100
H  48.17000 16.72400 24.05200
H  46.95900 16.00100 22.95000
H  48.70100 15.76100 22.65000
H  46.61900 12.19100 23.37600
H  45.46200 12.12000 24.61000
H  48.05600 11.05700 24.53700
H  46.89300 10.86600 25.84100
H  48.03200 12.18300 25.94700
H  42.21900 13.74400 27.05800
H  41.43700 13.92900 28.77000
H  42.38900 12.54000 28.14400
H  44.71700 14.59700 33.06800
H  42.41900 17.99400 34.49500
H  42.58200 17.01900 35.88500
H  41.21100 16.74200 34.75500

