158

Mg 29.24200 58.87700 41.10300
C  26.08300 57.45600 40.46800
C  30.80600 56.20100 39.67500
C  32.04900 60.62600 41.39000
C  27.44700 61.95800 41.79800
N  28.48500 57.11100 40.04300
C  27.16300 56.66700 40.01900
C  27.10000 55.36700 39.26400
C  28.59200 54.94000 39.18100
C  29.38500 56.15400 39.64800
C  28.94300 53.73000 40.04200
C  26.40700 55.66100 37.85400
C  25.08900 55.02300 37.42300
H  25.03000 54.40500 36.05900
N  31.19200 58.43600 40.63300
C  31.67400 57.26100 40.11800
C  33.17100 57.41000 40.06100
C  33.52900 58.73300 40.56300
C  32.22800 59.31000 40.94700
C  34.09900 56.42500 39.39900
C  35.00600 59.23500 40.71000
O  35.84900 58.42200 40.53600
C  35.36400 60.61900 41.06900
N  29.64100 61.01000 41.27500
C  30.88000 61.38900 41.57900
C  30.89500 62.90100 41.94400
C  29.42000 63.34500 41.78900
C  28.75100 62.03200 41.56600
C  31.57300 63.30600 43.28000
C  29.24200 64.49500 40.75800
C  28.42500 65.64400 41.35800
N  27.21900 59.57000 41.23800
C  26.67400 60.82400 41.54600
C  25.23000 60.73600 41.64700
C  24.93700 59.44200 41.27200
C  26.21200 58.77100 41.01200
C  24.30800 61.78900 41.80500
C  23.85800 58.52700 41.03600
O  22.63000 58.69600 41.13900
C  24.58300 57.16300 40.46800
C  24.25000 56.09600 41.48600
O  24.62800 56.15400 42.62300
O  23.69900 54.96700 40.89600
C  23.68100 53.75700 41.74300
H  31.26600 55.23700 39.44700
H  32.98700 61.08900 41.70400
H  26.93600 62.89300 42.03500
H  26.46000 54.63100 39.75000
H  28.87300 54.60200 38.18400
H  29.96100 53.58100 40.40300
H  28.61900 52.73400 39.74000
H  28.26400 53.69100 40.89400
H  27.10200 55.42600 37.04800
H  26.21000 56.73200 37.82400
H  24.39700 55.86400 37.37000
H  24.79800 54.29600 38.18000
H  33.58400 55.46400 39.38900
H  34.96500 56.23800 40.03400
H  34.40000 56.71900 38.39400
H  35.01600 61.32800 40.31800
H  36.43900 60.78400 41.14200
H  35.02700 60.82100 42.08500
H  31.53500 63.33400 41.17500
H  28.96000 63.62300 42.73800
H  31.91700 62.39400 43.76900
H  30.84100 63.76000 43.94800
H  32.45800 63.89800 43.04500
H  28.75900 64.05600 39.88500
H  30.16500 64.94200 40.39100
H  28.99800 66.54000 41.12100
H  28.21300 65.67300 42.42600
H  27.48500 65.61700 40.80700
H  24.39600 62.49800 40.98200
H  24.51500 62.26000 42.76600
H  23.26900 61.46200 41.81800
H  24.12700 56.85200 39.52800
H  22.62700 53.55000 41.93100
H  24.30400 53.77800 42.63700
H  24.17300 53.00700 41.12500
Mg 15.77700 51.45100 25.60200
C  17.23600 50.31600 28.60000
C  12.93600 52.19700 27.38500
C  14.27000 52.01000 22.73500
C  18.54400 50.10500 23.90300
N  15.14900 51.18100 27.75700
C  15.99300 50.91100 28.82300
C  15.43100 51.44000 30.18200
C  13.95100 51.75400 29.81000
C  14.01500 51.78900 28.24000
C  12.69500 50.89000 30.25600
C  16.26800 52.69800 30.60400
C  16.07300 53.24900 31.95500
H  14.88500 52.79800 32.86400
N  13.87100 51.96600 25.12500
C  12.85000 52.29800 26.01600
C  11.65100 52.59300 25.26900
C  11.95000 52.37200 23.89200
C  13.42900 52.10500 23.84700
C  10.34600 52.93400 25.91300
C  11.07400 52.39600 22.62500
O  11.47800 52.04700 21.54900
C  9.64700 52.78700 22.75700
N  16.33100 51.06100 23.54000
C  15.58200 51.54600 22.51900
C  16.23800 51.37000 21.16400
C  17.54800 50.57400 21.59700
C  17.53300 50.58500 23.11600
C  15.28000 50.72900 20.11800
C  18.84800 51.12700 20.97000
C  19.34500 50.24700 19.83600
N  17.54900 50.34300 26.11200
C  18.59400 49.89900 25.32300
C  19.62400 49.34300 26.16300
C  19.14400 49.41100 27.44200
C  17.85600 50.03000 27.40900
C  20.91600 48.90500 25.63500
C  19.44600 49.20700 28.80500
O  20.50700 48.86800 29.36800
C  18.24600 49.82600 29.55600
C  17.55400 48.99600 30.62500
O  16.74800 48.10000 30.50900
O  18.11400 49.30900 31.84800
C  17.83700 48.41900 32.96200
H  12.07900 52.41600 28.02600
H  13.82500 52.21100 21.75900
H  19.41400 49.78100 23.32700
H  15.40600 50.64200 30.92500
H  13.83700 52.81100 30.04900
H  12.32900 50.41100 29.34900
H  11.92800 51.47600 30.76200
H  13.06500 50.12300 30.93600
H  16.32200 53.43300 29.80100
H  17.31000 52.37700 30.59100
H  15.91900 54.29700 31.69800
H  17.03000 53.06700 32.44300
H  9.98500 53.82000 25.39100
H  10.55300 53.31300 26.91400
H  9.59000 52.15000 25.89400
H  9.61400 53.85900 22.95100
H  9.18900 52.12500 23.49200
H  9.21300 52.58300 21.77800
H  16.51000 52.33400 20.73500
H  17.40400 49.57600 21.18400
H  14.42100 50.31900 20.64900
H  15.76200 49.90100 19.59900
H  14.81600 51.54800 19.56800
H  19.69900 51.29900 21.62900
H  18.54800 52.07300 20.52000
H  20.13000 49.61800 20.25500
H  19.90200 50.86200 19.12800
H  18.60000 49.76400 19.20300
H  21.33200 49.84500 25.27200
H  20.88600 48.12800 24.87200
H  21.58700 48.43500 26.35500
H  18.61400 50.74000 30.02200
H  17.21000 48.95000 33.67900
H  18.73800 48.10100 33.48800
H  17.30000 47.49000 32.77100

