158

Mg 17.28600 -2.43100 28.12500
C  16.54300 -0.40900 30.82300
C  19.37000 -4.42900 30.14000
C  18.54300 -3.95200 25.34000
C  15.52800 -0.22900 26.05400
N  17.84100 -2.40800 30.24600
C  17.32600 -1.53600 31.20200
C  17.91300 -1.88400 32.59500
C  18.92100 -3.00800 32.35600
C  18.68400 -3.38500 30.83100
C  20.39600 -2.77700 32.68900
C  16.70200 -2.15400 33.57200
C  16.90200 -1.46500 34.98200
H  18.23400 -0.83800 35.35800
N  18.71500 -4.03200 27.82900
C  19.45100 -4.69600 28.74500
C  20.24500 -5.72800 28.07600
C  20.10200 -5.53500 26.67800
C  19.02000 -4.50600 26.52900
C  20.93300 -6.79100 28.84500
C  20.86100 -6.27400 25.47800
O  20.43100 -6.20800 24.32900
C  22.03800 -7.06200 25.69500
N  17.12000 -2.02700 25.93800
C  17.73200 -2.86000 25.04400
C  17.32400 -2.32800 23.57100
C  16.11200 -1.41600 23.84500
C  16.28900 -1.22400 25.37000
C  18.47500 -1.82800 22.73600
C  14.77000 -2.00300 23.51500
C  13.80500 -1.08500 22.71600
N  16.34100 -0.63100 28.27300
C  15.57700 0.12100 27.37400
C  14.80400 1.16100 28.03600
C  15.25500 0.98200 29.39600
C  16.25300 -0.02900 29.45800
C  13.92200 2.18400 27.37000
C  15.05400 1.51000 30.68700
O  14.27100 2.35800 31.05400
C  15.83800 0.67500 31.69100
C  16.80900 1.59800 32.32300
O  17.91800 1.73200 31.88600
O  16.32600 2.05500 33.45200
C  17.22600 2.94000 34.21000
H  19.78500 -5.18500 30.80900
H  18.94400 -4.40700 24.43200
H  14.75800 0.32900 25.51600
H  18.39400 -0.92200 32.77600
H  18.64000 -3.78500 33.06600
H  20.99100 -3.06900 31.82400
H  20.76600 -3.28500 33.58000
H  20.63000 -1.73800 32.92500
H  16.66600 -3.22900 33.75100
H  15.76300 -1.85600 33.10400
H  16.63900 -2.24400 35.69700
H  16.13000 -0.69600 35.02700
H  20.92100 -7.73500 28.30000
H  20.32600 -7.02700 29.71900
H  21.94200 -6.43200 29.04700
H  22.91000 -6.41200 25.78100
H  22.22000 -7.57900 24.75300
H  21.91700 -7.81100 26.47800
H  16.96300 -3.24300 23.10200
H  16.28300 -0.37200 23.58100
H  18.35200 -0.93700 22.12100
H  18.80800 -2.54400 21.98500
H  19.28600 -1.48400 23.37700
H  14.06000 -2.12700 24.33200
H  14.86900 -2.95900 23.00200
H  12.81200 -0.86200 23.10500
H  13.60200 -1.64000 21.80100
H  14.39900 -0.19800 22.49400
H  13.30700 2.66600 28.13000
H  13.28800 1.71600 26.61700
H  14.44500 2.95700 26.80700
H  15.25000 0.19000 32.47000
H  16.77400 3.92800 34.30200
H  18.27200 3.03100 33.91700
H  17.27000 2.45200 35.18400
Mg 6.96400 54.62000 40.70300
C  7.09200 51.10200 40.59000
C  10.18700 54.80900 39.74700
C  6.73900 58.01700 40.44200
C  3.44500 54.35700 41.16200
N  8.38500 53.16800 40.15800
C  8.32700 51.74300 40.25500
C  9.71500 51.04200 40.04800
C  10.71100 52.28600 40.22300
C  9.72900 53.54100 39.99000
C  11.27700 52.46400 41.66900
C  9.72400 50.33400 38.65400
C  9.20000 51.16800 37.53500
H  7.77600 51.09200 37.00800
N  8.28500 56.24300 40.13700
C  9.59800 56.08000 39.79200
C  10.18300 57.32800 39.39100
C  9.21700 58.29300 39.62400
C  8.02100 57.55500 40.11900
C  11.57000 57.58300 38.69800
C  9.38200 59.76900 39.40400
O  10.48800 60.12300 39.09600
C  8.26700 60.79900 39.56000
N  5.30700 55.97600 40.80000
C  5.51800 57.29800 40.64100
C  4.17300 58.06100 40.73800
C  3.10000 56.90800 40.88000
C  3.96400 55.64300 40.90900
C  4.16500 59.17100 41.86700
C  2.00200 56.93300 39.74300
C  0.55500 57.29800 40.21500
N  5.52600 53.03500 40.89200
C  4.14500 53.07200 41.13100
C  3.69800 51.70500 41.26500
C  4.85100 50.92900 41.12600
C  5.85100 51.75700 40.83200
C  2.26200 51.33800 41.81600
C  5.22300 49.60600 41.33600
O  4.61400 48.64500 41.87000
C  6.74200 49.60400 40.76000
C  6.58100 48.81300 39.50300
O  5.81200 49.04800 38.63200
O  7.13800 47.51700 39.54400
C  6.80900 46.60200 38.46700
H  11.26000 54.72300 39.56100
H  6.49300 59.08100 40.42500
H  2.36100 54.30400 41.28200
H  9.81600 50.32000 40.85800
H  11.51100 52.18800 39.49000
H  12.34000 52.24700 41.56300
H  10.91600 51.80100 42.45500
H  11.10800 53.46200 42.07300
H  9.25900 49.36400 38.82500
H  10.72600 49.98100 38.41200
H  9.78100 50.87500 36.66100
H  9.56000 52.16100 37.80100
H  11.40600 58.15600 37.78500
H  12.06700 56.63600 38.48300
H  12.25800 58.08700 39.37800
H  7.43100 60.40500 38.98200
H  8.65400 61.76800 39.24400
H  8.00900 60.75200 40.61800
H  4.02300 58.45200 39.73200
H  2.70300 57.05300 41.88400
H  4.99700 58.96300 42.54000
H  3.25000 59.21300 42.45700
H  4.47700 60.11500 41.42000
H  2.00900 55.91400 39.35800
H  2.22800 57.62700 38.93200
H  -0.08600 56.43500 40.03500
H  0.25800 58.18400 39.65400
H  0.59700 57.56600 41.27100
H  1.62100 51.37800 40.93500
H  1.89900 52.10200 42.50400
H  2.29900 50.33400 42.23800
H  7.38100 49.05600 41.45300
H  7.47700 45.74100 38.50700
H  7.00800 47.01000 37.47600
H  5.79300 46.28200 38.69600

