158

Mg 0.42800 7.90300 25.42400
C  0.81200 9.83100 28.39100
C  0.68200 5.27600 27.31300
C  -0.04500 6.13400 22.63800
C  0.41900 10.90700 23.58100
N  0.93000 7.62400 27.60000
C  0.80400 8.49300 28.63000
C  0.91700 7.87700 29.95500
C  1.08600 6.36800 29.54200
C  0.86900 6.42200 28.01900
C  2.52500 5.80700 29.95000
C  -0.36800 8.07000 30.75400
C  -0.30600 7.95000 32.31400
H  1.05200 7.68700 32.98200
N  0.31800 5.92800 25.06100
C  0.41000 4.97800 25.98700
C  0.13000 3.64400 25.35700
C  -0.20200 3.89900 23.97900
C  0.10400 5.36200 23.83000
C  0.30300 2.29200 25.99200
C  -0.71300 2.95800 22.99600
O  -0.85400 3.31900 21.80800
C  -1.03000 1.50200 23.28800
N  0.36400 8.40400 23.39400
C  0.11200 7.48600 22.41000
C  0.09900 8.16400 20.98100
C  -0.15400 9.66700 21.40000
C  0.22300 9.72300 22.90200
C  1.32500 7.97500 20.13800
C  -1.59000 10.24900 21.17300
C  -1.74400 11.22600 20.02500
N  0.80200 9.90100 25.79400
C  0.59800 11.06900 24.97700
C  0.86400 12.26200 25.72900
C  0.98200 11.81200 27.05500
C  0.88500 10.41600 27.07500
C  0.98700 13.68800 25.27500
C  1.24800 12.16700 28.41200
O  1.61300 13.22600 28.80700
C  1.04200 10.92600 29.34800
C  2.35500 10.76400 30.01700
O  3.32100 10.16300 29.55300
O  2.36200 11.49300 31.19400
C  3.51100 11.25300 32.04000
H  0.85300 4.40800 27.95200
H  -0.30100 5.62600 21.70600
H  0.24900 11.82700 23.01700
H  1.74500 8.28200 30.53800
H  0.24500 5.81700 29.96400
H  3.17700 6.48400 30.50200
H  3.11000 5.52000 29.07600
H  2.36200 4.88300 30.50400
H  -1.17100 7.42700 30.39500
H  -0.71400 9.08800 30.57200
H  -1.00300 7.12700 32.47000
H  -0.73900 8.91300 32.58300
H  0.88300 2.41200 26.90700
H  0.91300 1.69800 25.31100
H  -0.63900 1.80500 26.24600
H  -1.86000 1.47800 23.99400
H  -0.15300 1.03600 23.73800
H  -1.35800 0.94500 22.41100
H  -0.74500 7.84000 20.37300
H  0.53500 10.30500 20.84700
H  1.27000 8.71300 19.33800
H  1.42600 6.97700 19.71200
H  2.17500 8.24400 20.76500
H  -2.05600 10.58400 22.09900
H  -2.21600 9.42100 20.83900
H  -1.37000 10.59900 19.21600
H  -0.98400 12.00300 20.10900
H  -2.77300 11.50500 19.79600
H  0.43100 14.40600 25.87800
H  0.97500 13.78800 24.19000
H  2.01700 13.94700 25.52000
H  0.17900 11.04700 30.00300
H  3.36900 11.64300 33.04800
H  4.28500 11.93100 31.68000
H  3.78300 10.19900 32.10100
Mg 41.25600 41.84200 27.03500
C  40.45000 44.10700 29.47800
C  42.30800 39.60400 29.32700
C  42.66000 39.90100 24.52900
C  40.85700 44.42900 24.63100
N  41.22700 41.83500 29.15200
C  40.73200 42.83500 29.98600
C  40.92700 42.45900 31.44500
C  41.57000 41.03700 31.37000
C  41.77300 40.83400 29.86000
C  42.85000 40.84600 32.28300
C  39.54900 42.44300 32.21600
C  39.51200 41.51700 33.43800
H  38.91900 41.96900 34.71800
N  42.04600 39.88200 26.94500
C  42.38800 39.11500 28.01200
C  42.75600 37.79800 27.55000
C  42.85300 37.89500 26.16000
C  42.53600 39.29100 25.78400
C  43.12900 36.72000 28.63900
C  43.41600 36.86000 25.17100
O  43.66400 37.16000 24.02600
C  43.69700 35.41000 25.67700
N  41.69800 42.14400 24.98200
C  42.20300 41.17900 24.06900
C  42.18000 41.65100 22.62500
C  41.24900 42.94300 22.75900
C  41.32500 43.24400 24.22100
C  43.63100 42.17500 22.25600
C  39.72900 42.76400 22.31600
C  38.81700 41.55600 22.76300
N  40.87100 43.94800 27.03000
C  40.70700 44.83900 25.96500
C  40.41400 46.13300 26.49700
C  40.37200 45.93400 27.91100
C  40.58700 44.53600 28.14000
C  40.33800 47.34900 25.71900
C  40.14800 46.56500 29.18300
O  39.99000 47.74900 29.44400
C  40.20300 45.40100 30.23400
C  41.19200 45.66200 31.34600
O  42.31100 45.99500 31.13600
O  40.54900 45.56100 32.53800
C  41.25500 45.80600 33.77100
H  42.74900 38.99300 30.11800
H  42.89100 39.26800 23.67100
H  40.45400 45.10300 23.87200
H  41.64600 43.16300 31.86300
H  40.81400 40.27100 31.54200
H  43.69200 40.63800 31.62300
H  42.80900 39.88700 32.79900
H  43.02400 41.57200 33.07700
H  38.66900 42.25900 31.60000
H  39.44800 43.42300 32.68400
H  40.47400 41.05100 33.65300
H  38.85200 40.72500 33.08400
H  43.35900 35.68400 28.39100
H  42.29600 36.60900 29.33200
H  43.92500 37.17300 29.23000
H  42.72400 34.98700 25.92900
H  44.23100 35.37900 26.62700
H  44.16200 34.81400 24.89100
H  41.73500 40.94500 21.92400
H  41.72500 43.79200 22.26900
H  43.79500 42.03700 21.18700
H  44.42200 41.63300 22.77500
H  43.77200 43.24400 22.41700
H  39.62100 42.79600 21.23100
H  39.33900 43.73100 22.63600
H  39.32800 40.77700 23.32800
H  38.48300 41.08600 21.83800
H  37.84100 41.83300 23.16300
H  39.92600 48.20100 26.26100
H  39.56400 47.03200 25.01900
H  41.20000 47.58800 25.09600
H  39.25000 45.54100 30.74400
H  41.57600 46.84100 33.65100
H  42.06900 45.12800 34.02700
H  40.62200 45.85300 34.65700

