158

Mg 35.25300 2.71000 29.15200
C  33.06400 3.69600 31.76500
C  37.97200 2.78300 31.34100
C  37.31300 1.95300 26.61400
C  32.61600 3.12600 27.01700
N  35.41000 3.11300 31.26600
C  34.42400 3.41000 32.11500
C  34.86400 3.36900 33.57600
C  36.43900 3.27400 33.38000
C  36.67300 3.06100 31.90100
C  37.29100 4.40000 34.09100
C  34.28900 2.10900 34.34800
C  34.11900 2.16100 35.81600
H  34.64200 3.28400 36.60900
N  37.36800 2.28600 29.02800
C  38.25400 2.40900 30.00700
C  39.60300 2.06700 29.50000
C  39.47900 1.95000 28.17300
C  38.00600 2.07000 27.83700
C  40.78200 1.88200 30.43800
C  40.53800 1.74000 27.12800
O  40.26300 1.86900 25.92700
C  41.96100 1.61600 27.50100
N  35.02600 2.49200 27.15200
C  35.96600 2.16000 26.24000
C  35.38000 1.82600 24.91000
C  33.87600 1.95100 25.02000
C  33.79600 2.54600 26.46600
C  35.92700 2.66800 23.64800
C  33.13900 0.64800 24.97300
C  33.33800 -0.26900 23.69200
N  33.25000 3.43300 29.25900
C  32.29200 3.48400 28.32500
C  31.06400 3.96100 28.83700
C  31.27200 4.07200 30.21500
C  32.61100 3.63000 30.42300
C  29.83700 4.20700 28.04900
C  30.77100 4.52800 31.41200
O  29.69000 5.12600 31.65000
C  31.80900 4.04600 32.56700
C  32.03900 5.21900 33.59800
O  32.90000 6.13200 33.46100
O  31.14600 5.02700 34.66500
C  31.40600 5.98800 35.71700
H  38.81000 2.72400 32.03900
H  37.92300 1.62600 25.77000
H  31.79500 3.14100 26.29700
H  34.61300 4.32900 34.02700
H  36.81600 2.40400 33.91700
H  37.50100 4.00000 35.08300
H  36.69500 5.30700 34.18400
H  38.22200 4.51300 33.53500
H  35.01200 1.37100 34.00100
H  33.39200 1.88400 33.77100
H  34.55900 1.21900 36.14200
H  33.08800 1.97500 36.11500
H  40.79700 0.79200 30.39500
H  40.58700 2.20100 31.46200
H  41.63100 2.32600 29.92100
H  42.58300 1.26700 26.67600
H  41.94900 0.91000 28.33200
H  42.28600 2.61700 27.78200
H  35.58800 0.76900 24.74400
H  33.46000 2.52000 24.18800
H  36.86700 3.03900 24.05700
H  35.30600 3.54200 23.45100
H  36.08100 2.05200 22.76200
H  32.06500 0.72600 25.14500
H  33.55600 0.02900 25.76700
H  33.49900 -1.30100 24.00300
H  34.22200 0.02100 23.12300
H  32.39500 -0.28700 23.14600
H  29.50700 3.20000 27.79600
H  30.01600 4.73600 27.11300
H  29.07900 4.55200 28.75100
H  31.43400 3.17500 33.10400
H  31.92500 6.91100 35.45600
H  31.84000 5.62600 36.64800
H  30.41400 6.27000 36.06900
Mg 36.15600 49.56800 24.97500
C  36.13200 47.98500 28.16200
C  34.66900 52.25200 26.51200
C  35.50100 50.77900 21.93900
C  37.12800 46.52900 23.46100
N  35.25900 49.91400 27.08800
C  35.64100 49.27700 28.20700
C  35.38600 50.18400 29.47300
C  34.60500 51.36900 28.87200
C  34.77400 51.14000 27.36700
C  33.11700 51.45100 29.19400
C  36.75500 50.49800 30.16500
C  36.96000 49.88600 31.57800
H  35.64600 49.79200 32.44800
N  35.36300 51.32300 24.31500
C  34.92000 52.36300 25.11200
C  34.65800 53.51200 24.34200
C  34.90000 53.09400 23.00500
C  35.20300 51.64500 23.02100
C  34.10100 54.86500 24.77700
C  34.78000 53.92800 21.69400
O  34.76700 53.41200 20.60900
C  34.64500 55.41300 21.73500
N  36.24700 48.75100 22.92700
C  35.94000 49.48500 21.88300
C  36.46400 48.92300 20.58600
C  36.97500 47.47300 21.01900
C  36.70100 47.52400 22.58200
C  35.59000 48.87500 19.23400
C  38.44700 47.16800 20.67100
C  39.55400 47.85200 21.50300
N  36.58700 47.69100 25.60400
C  37.01000 46.55400 24.89300
C  37.31000 45.46600 25.85900
C  37.02900 46.01700 27.14500
C  36.58400 47.35700 26.94800
C  37.60400 43.99900 25.56500
C  37.05600 45.70100 28.55200
O  37.61200 44.78300 29.14000
C  36.35100 46.97100 29.29700
C  35.10000 46.45100 29.82700
O  33.93200 46.48400 29.48000
O  35.35700 45.86400 31.10300
C  34.19400 45.27400 31.80400
H  34.28300 53.16700 26.96400
H  35.32900 51.20600 20.94900
H  37.57000 45.60800 23.07600
H  34.78000 49.65800 30.21100
H  35.05000 52.34300 29.08000
H  32.69500 50.52300 29.58000
H  32.59900 51.80400 28.30300
H  33.04100 52.17000 30.00900
H  36.86300 51.57700 30.04900
H  37.54400 50.08500 29.53700
H  37.52700 50.64300 32.12000
H  37.54400 48.97800 31.72700
H  34.81000 55.69100 24.72100
H  33.80000 54.76700 25.82100
H  33.19400 54.95800 24.17900
H  33.60700 55.67400 21.94200
H  34.88500 55.78300 20.73800
H  35.50900 55.80600 22.27300
H  37.29200 49.62200 20.47400
H  36.23600 46.73000 20.71800
H  35.49300 47.87900 18.80300
H  36.13100 49.35900 18.42100
H  34.62800 49.38700 19.26500
H  38.67100 47.51000 19.66100
H  38.62700 46.10200 20.81100
H  39.02600 48.37600 22.30000
H  40.01400 48.60800 20.86600
H  40.29400 47.21000 21.98000
H  38.61800 43.96100 25.16700
H  36.93800 43.66300 24.77100
H  37.41900 43.47100 26.50100
H  36.82500 47.34600 30.20400
H  34.66500 44.87100 32.70100
H  33.76000 44.42200 31.28100
H  33.47000 46.06900 31.98000

