158

Mg 2.22800 -1.68800 43.87900
C  5.52300 -0.93600 43.20600
C  1.26200 1.41200 42.79300
C  -1.00700 -2.76600 43.71200
C  3.30600 -4.91500 44.84700
N  3.26800 0.00200 43.01200
C  4.59800 0.10200 42.87400
C  4.91800 1.50700 42.31500
C  3.55100 2.36300 42.70200
C  2.59700 1.19000 42.82800
C  3.66000 3.36500 43.90200
C  5.36400 1.38200 40.87300
C  6.44000 2.34700 40.44300
H  6.30500 3.01800 39.03400
N  0.37200 -0.83900 43.31900
C  0.25500 0.48400 42.91500
C  -1.13700 0.74300 42.68600
C  -1.87200 -0.45100 42.93700
C  -0.85400 -1.42900 43.34900
C  -1.59100 2.17600 42.31400
C  -3.37300 -0.62400 42.82200
O  -4.19300 0.21600 42.45400
C  -4.04700 -2.05200 43.00400
N  1.29400 -3.67700 43.95000
C  -0.09100 -3.82900 43.99900
C  -0.41300 -5.28400 44.08700
C  0.89700 -5.85700 44.64400
C  1.89500 -4.76000 44.56400
C  -1.64100 -5.70300 44.92500
C  1.53200 -7.18000 44.00600
C  1.77800 -8.35500 44.97800
N  4.08700 -2.75400 44.22900
C  4.36600 -3.99800 44.57800
C  5.78700 -4.29600 44.68400
C  6.36200 -3.09300 44.16100
C  5.23800 -2.20100 43.79900
C  6.41400 -5.62400 45.24000
C  7.57100 -2.31300 43.82200
O  8.75300 -2.52300 44.01000
C  7.09500 -0.91300 43.29600
C  7.50200 0.13600 44.25500
O  7.53700 0.04000 45.47600
O  8.03300 1.31100 43.65200
C  8.31000 2.44500 44.62700
H  1.03100 2.44100 42.51100
H  -1.99200 -3.23600 43.73600
H  3.60000 -5.90900 45.18800
H  5.68600 1.95000 42.94900
H  3.23100 2.90900 41.81500
H  4.68100 3.72600 44.02600
H  3.33200 2.82200 44.78800
H  3.01700 4.23100 43.74400
H  4.49200 1.45300 40.22300
H  5.79300 0.38700 40.75800
H  7.37000 1.78900 40.54800
H  6.45000 3.21300 41.10500
H  -2.63600 2.17100 42.00600
H  -0.95700 2.46200 41.47500
H  -1.34400 2.86600 43.12100
H  -5.12400 -2.01500 42.83800
H  -3.96100 -2.24000 44.07400
H  -3.59000 -2.83800 42.40300
H  -0.45000 -5.66500 43.06600
H  0.79900 -6.00100 45.72000
H  -2.22800 -6.48900 44.44900
H  -2.24200 -4.80100 45.03500
H  -1.37400 -5.99100 45.94100
H  2.45800 -6.88800 43.51000
H  0.81900 -7.58700 43.28900
H  1.48900 -9.27800 44.47700
H  1.27100 -8.14800 45.92100
H  2.84300 -8.37100 45.21200
H  6.08600 -5.89400 46.24300
H  7.47300 -5.53400 45.48000
H  6.14000 -6.46500 44.60300
H  7.45300 -0.84400 42.26900
H  7.58400 2.57800 45.42900
H  8.27500 3.43500 44.17300
H  9.31500 2.27900 45.01600
Mg 34.92100 49.12700 25.92400
C  35.90300 47.14300 28.59600
C  34.05000 51.60200 28.19500
C  33.92700 50.88900 23.35900
C  35.92200 46.59100 23.84000
N  35.13100 49.37400 28.12600
C  35.50200 48.42600 29.02000
C  35.41900 48.95000 30.44100
C  34.38500 50.14800 30.29400
C  34.63700 50.49100 28.77400
C  32.84000 49.82300 30.60100
C  36.85400 49.50500 30.83300
C  37.24400 49.27900 32.30800
H  36.12200 49.11500 33.45900
N  33.97900 50.92800 25.78000
C  33.71300 51.84700 26.83000
C  33.26100 53.09800 26.23500
C  33.31700 53.01000 24.79100
C  33.74600 51.57200 24.59400
C  33.02500 54.32200 27.09700
C  32.96500 54.01900 23.72300
O  33.16500 53.75200 22.54900
C  32.49200 55.33000 24.12400
N  34.83800 48.76500 23.81300
C  34.34000 49.59000 22.94300
C  34.42600 49.10600 21.44900
C  35.32300 47.79400 21.69100
C  35.39700 47.74800 23.20300
C  33.08400 48.66800 20.75300
C  36.66200 47.74600 20.91300
C  37.85100 48.25700 21.69300
N  35.77100 47.24700 26.13100
C  36.08900 46.34600 25.17000
C  36.69400 45.16800 25.73700
C  36.56100 45.36000 27.12700
C  36.03300 46.65300 27.29200
C  37.11800 43.92600 24.93200
C  36.81900 44.80100 28.46500
O  37.30600 43.74100 28.75600
C  36.37700 45.95600 29.48100
C  35.39700 45.46200 30.47600
O  34.16100 45.37900 30.32800
O  36.05800 45.17100 31.67800
C  35.30100 44.71100 32.80800
H  33.79200 52.34700 28.95100
H  33.70400 51.48500 22.47100
H  36.28300 45.82600 23.15000
H  34.96000 48.21000 31.09700
H  34.71300 50.97100 30.92900
H  32.65800 48.75600 30.73400
H  32.22800 50.20200 29.78300
H  32.56800 50.33800 31.52200
H  37.04200 50.54400 30.56500
H  37.49600 48.82200 30.27600
H  37.91000 50.08300 32.62100
H  37.83700 48.36400 32.33900
H  32.25900 54.95000 26.64300
H  33.92000 54.93600 27.20000
H  32.62100 53.97000 28.04600
H  32.32400 55.94200 23.23800
H  33.17900 55.81300 24.81900
H  31.45900 55.29400 24.46900
H  34.98000 49.88300 20.92200
H  34.77500 46.86900 21.51300
H  32.84700 47.60500 20.72600
H  33.08800 49.06400 19.73800
H  32.23800 49.09500 21.29100
H  36.46700 48.35200 20.02800
H  36.94500 46.74300 20.59400
H  37.69200 48.61400 22.71000
H  38.29200 49.12000 21.19400
H  38.51100 47.39000 21.73900
H  37.37300 44.19900 23.90800
H  36.34400 43.16000 24.87400
H  37.91000 43.49200 25.54300
H  37.22700 46.42900 29.97100
H  35.37700 43.63500 32.96300
H  34.27900 45.09000 32.81300
H  35.73200 45.17600 33.69500

