158

Mg 40.75600 8.91800 30.11000
C  42.70300 9.76000 32.87200
C  38.27500 7.77200 32.27700
C  39.42500 7.48500 27.55200
C  43.68800 9.69800 28.15500
N  40.57400 8.83000 32.41000
C  41.34600 9.43300 33.30700
C  40.76700 9.26200 34.69100
C  39.41900 8.43500 34.49800
C  39.35000 8.42000 32.99700
C  39.46300 7.03800 35.19600
C  40.69800 10.59400 35.44900
C  41.48200 10.84600 36.75400
H  40.91000 11.86900 37.74400
N  38.98200 8.07400 29.92400
C  38.04900 7.75900 30.93000
C  36.92800 7.22100 30.27500
C  37.21100 7.05500 28.89400
C  38.60400 7.51500 28.73100
C  35.77400 6.77200 31.04100
C  36.46200 6.39800 27.77600
O  36.87100 6.32200 26.59400
C  34.99400 6.02200 28.09800
N  41.40300 8.80200 28.03000
C  40.67500 8.03900 27.23200
C  41.32200 7.88800 25.85800
C  42.72000 8.65300 26.01400
C  42.60100 9.13300 27.50500
C  41.45000 6.41700 25.38800
C  43.00900 9.75600 24.95300
C  42.49600 11.24400 25.20500
N  42.75300 9.74400 30.39200
C  43.80700 9.95700 29.50700
C  44.87600 10.62200 30.30300
C  44.50900 10.54300 31.61100
C  43.25400 9.89300 31.62200
C  46.09300 11.21300 29.66900
C  44.85100 10.92500 32.93100
O  45.80800 11.60300 33.35300
C  43.64800 10.40100 33.81200
C  44.20900 9.47500 34.93400
O  44.27300 8.26100 34.85500
O  44.77300 10.28400 35.88800
C  45.74000 9.55200 36.73900
H  37.47800 7.34500 32.88900
H  39.01300 6.82200 26.78800
H  44.53900 9.93700 27.51400
H  41.42400 8.60800 35.26300
H  38.52100 8.96600 34.81400
H  39.53600 6.21300 34.48700
H  38.55700 6.99100 35.80000
H  40.26800 7.04300 35.93100
H  39.67000 10.92000 35.60800
H  40.96900 11.29700 34.66200
H  42.44000 11.22300 36.39500
H  41.66700 9.89000 37.24400
H  35.80100 7.41500 31.92100
H  35.89900 5.71800 31.29000
H  34.84000 6.91300 30.49800
H  35.02700 5.34100 28.94800
H  34.54100 5.49500 27.25800
H  34.47400 6.95900 28.29400
H  40.64200 8.47600 25.24200
H  43.52300 7.91900 25.94600
H  40.68300 5.81300 25.87300
H  42.47200 6.12000 25.62300
H  41.32300 6.46700 24.30700
H  42.66400 9.47200 23.95900
H  44.09400 9.85400 24.94200
H  41.82500 11.26000 26.06400
H  41.96500 11.59100 24.31800
H  43.25100 12.01300 25.37000
H  46.76700 11.67600 30.38900
H  45.85600 12.03300 28.99100
H  46.56400 10.39000 29.13100
H  43.19500 11.24600 34.32900
H  46.75000 9.54300 36.32900
H  45.33100 8.56100 36.93500
H  45.87900 10.15100 37.63900
Mg 0.30300 42.44400 25.73700
C  2.12300 42.55200 28.86600
C  -2.42000 41.32000 27.50800
C  -1.10700 41.90300 22.85300
C  3.50700 43.13200 24.09400
N  -0.10000 42.12600 27.91300
C  0.72100 42.32600 28.92300
C  0.05900 42.18100 30.21200
C  -1.32400 41.55400 29.72800
C  -1.26900 41.59000 28.28000
C  -1.61300 40.08300 30.14500
C  -0.11700 43.43300 31.05900
C  -0.30400 43.25900 32.58100
H  -0.33400 41.93100 33.37700
N  -1.49600 41.74800 25.22400
C  -2.51300 41.39400 26.06700
C  -3.73500 41.14300 25.40200
C  -3.37300 41.27400 24.00800
C  -1.92700 41.62000 23.94900
C  -5.03400 40.82900 26.12000
C  -4.35100 41.18000 22.90200
O  -4.01700 41.35400 21.69700
C  -5.84400 40.97600 23.22500
N  1.19400 42.47900 23.79100
C  0.26700 42.38600 22.79800
C  0.89300 42.82500 21.43400
C  2.36400 43.12500 21.79600
C  2.37200 42.88900 23.33900
C  0.92400 41.64300 20.35500
C  2.82500 44.56100 21.32700
C  4.11800 44.51300 20.45800
N  2.42500 42.71200 26.29100
C  3.55000 43.02000 25.48100
C  4.63900 43.35300 26.41300
C  4.12400 43.11800 27.71900
C  2.82000 42.71600 27.61700
C  5.99200 43.84200 25.88900
C  4.44400 43.09800 29.13500
O  5.48400 43.32700 29.68600
C  3.11900 42.82700 29.96700
C  3.42800 41.61100 30.87300
O  3.74100 40.53400 30.37100
O  3.33400 41.89800 32.15600
C  4.04600 40.85800 33.05000
H  -3.25600 41.16700 28.19300
H  -1.68500 41.80900 21.93200
H  4.38600 43.46900 23.54100
H  0.62100 41.42600 30.76200
H  -2.15100 42.14900 30.11300
H  -1.11500 39.91600 31.10000
H  -1.23500 39.36300 29.42000
H  -2.66200 39.83000 30.30000
H  -1.06100 43.96000 30.92100
H  0.71200 44.12600 30.91800
H  -1.30100 43.67800 32.71700
H  0.46500 43.91700 32.98500
H  -5.55200 41.77800 26.25700
H  -4.91000 40.57000 27.17100
H  -5.59500 40.02500 25.64400
H  -6.27400 41.66900 23.94900
H  -6.07800 39.93900 23.46800
H  -6.51900 41.31900 22.44200
H  0.32100 43.64100 20.99400
H  3.03400 42.39500 21.34400
H  1.85700 41.57800 19.79500
H  0.07600 41.82300 19.69300
H  0.70400 40.71900 20.88900
H  3.04700 45.08900 22.25400
H  2.04800 45.04600 20.73600
H  5.02000 44.76900 21.01500
H  4.20200 45.00500 19.48900
H  4.33700 43.47500 20.20800
H  6.43300 44.43800 26.68800
H  5.85900 44.45200 24.99600
H  6.55800 42.91600 25.79400
H  2.90800 43.64600 30.65500
H  4.22600 41.32200 34.02000
H  4.97300 40.54800 32.56700
H  3.35400 40.01900 33.12700

