158

Mg 46.95000 15.95100 29.16900
C  44.87300 15.80200 32.15900
C  49.24500 17.85400 30.94200
C  48.49900 16.68100 26.32000
C  44.22700 14.76300 27.52100
N  47.03200 16.62200 31.26400
C  46.13600 16.40300 32.32000
C  46.75400 16.84000 33.63300
C  47.93600 17.73200 33.16000
C  48.08200 17.45500 31.65300
C  47.61500 19.26600 33.51000
C  47.05300 15.55500 34.45000
C  46.61400 15.48100 35.91000
H  46.19800 16.83800 36.47800
N  48.73500 16.94800 28.70800
C  49.54900 17.59700 29.62000
C  50.80200 17.91000 28.88000
C  50.58000 17.58500 27.50600
C  49.27900 17.00400 27.41200
C  52.09300 18.34400 29.62200
C  51.50100 17.77300 26.36900
O  51.17100 17.44500 25.25300
C  52.79500 18.52800 26.48600
N  46.39000 15.92900 27.23500
C  47.17500 16.21200 26.18400
C  46.54800 15.83900 24.83800
C  45.52000 14.82400 25.30100
C  45.30700 15.22300 26.80600
C  45.95100 16.88400 23.91600
C  45.96300 13.28600 25.09900
C  44.81500 12.63100 24.12800
N  44.99600 15.36500 29.70400
C  44.03300 14.85500 28.86500
C  42.90700 14.37300 29.62500
C  43.14700 14.75200 30.94200
C  44.40200 15.36700 30.91200
C  41.73300 13.53900 29.19200
C  42.54500 14.78600 32.30700
O  41.47000 14.36000 32.68600
C  43.73400 15.39900 33.18400
C  43.14300 16.60100 33.91600
O  43.37800 17.75900 33.60000
O  42.36800 16.17100 34.94100
C  41.71700 17.15900 35.78900
H  49.95300 18.48600 31.48200
H  48.87500 16.89900 25.31800
H  43.42300 14.21700 27.02300
H  45.91400 17.35300 34.10300
H  48.80400 17.42300 33.74100
H  46.81300 19.31300 34.24700
H  47.27900 19.71600 32.57600
H  48.54200 19.75400 33.81200
H  48.07500 15.26800 34.20100
H  46.50100 14.71200 34.03500
H  47.50200 15.12500 36.43200
H  45.79800 14.78500 36.10900
H  52.93400 18.09100 28.97700
H  52.09000 17.85100 30.59400
H  52.04800 19.39300 29.91600
H  53.14700 18.80400 25.49200
H  53.49200 17.88300 27.02100
H  52.73500 19.43100 27.09400
H  47.33100 15.34600 24.26100
H  44.52800 14.97400 24.87600
H  46.10500 17.88000 24.33100
H  44.91500 16.68700 23.63900
H  46.58000 16.70300 23.04400
H  46.05300 12.87600 26.10500
H  46.90700 13.06800 24.59900
H  45.21100 11.77100 23.58800
H  44.45600 13.29400 23.34200
H  44.00300 12.18800 24.70400
H  41.27400 13.24700 30.13700
H  42.06700 12.69300 28.59100
H  41.05600 14.17000 28.61700
H  44.00600 14.56700 33.83300
H  42.22000 18.12600 35.78100
H  41.85000 16.71600 36.77600
H  40.64200 17.33800 35.76000
Mg 36.29100 49.16000 25.38800
C  36.27700 47.15000 28.35200
C  35.07400 51.77100 27.36200
C  35.65800 50.85100 22.67100
C  36.98600 46.25700 23.60800
N  35.71300 49.45100 27.55700
C  35.91300 48.49400 28.55400
C  35.63800 49.05400 29.96600
C  35.10800 50.44600 29.63400
C  35.25500 50.59100 28.11000
C  33.60400 50.79000 30.05300
C  36.92000 49.10300 30.84100
C  36.77600 48.66300 32.27700
H  35.47500 49.00000 32.99000
N  35.44300 51.06700 25.01500
C  35.07600 52.00600 25.92500
C  34.94500 53.31600 25.30800
C  35.17300 53.07300 23.89800
C  35.48200 51.60400 23.79400
C  34.50900 54.57900 26.14400
C  35.06500 54.06100 22.82700
O  35.14000 53.65600 21.65100
C  34.84300 55.53900 23.14200
N  36.34900 48.58400 23.41100
C  35.96600 49.46100 22.48800
C  36.12200 48.80000 21.03800
C  36.79700 47.45100 21.40100
C  36.72800 47.41900 22.92700
C  34.76000 48.72200 20.29900
C  38.23900 47.36800 20.77900
C  39.48600 48.02600 21.53900
N  36.65000 47.13000 25.84000
C  37.00600 46.10400 24.96700
C  37.30100 44.91500 25.75800
C  36.98700 45.26000 27.08200
C  36.63000 46.64300 27.08800
C  37.89600 43.64700 25.25600
C  37.04700 44.78500 28.49500
O  37.38500 43.77100 29.04100
C  36.47000 46.06500 29.38800
C  35.19100 45.71600 30.09000
O  34.18500 45.23900 29.53400
O  35.36200 45.83400 31.42300
C  34.26000 45.25000 32.18800
H  34.71100 52.54200 28.04400
H  35.39800 51.41000 21.77000
H  37.23000 45.48000 22.88000
H  34.85500 48.41100 30.36700
H  35.65800 51.26100 30.10300
H  33.78200 51.60800 30.75100
H  33.38000 49.87400 30.60000
H  32.93500 51.07900 29.24300
H  37.20300 50.15200 30.92900
H  37.73800 48.55600 30.37400
H  37.44400 49.24000 32.91700
H  37.02500 47.60200 32.29100
H  35.32000 55.27600 25.93600
H  34.27700 54.36400 27.18800
H  33.56500 54.98900 25.78500
H  35.72800 55.94500 23.63100
H  33.84200 55.75200 23.51900
H  34.74400 55.94500 22.13500
H  36.79900 49.41100 20.44000
H  36.22700 46.59000 21.05100
H  33.94400 49.01700 20.95800
H  34.52000 47.70100 20.00200
H  34.68400 49.36300 19.42000
H  38.21800 47.78100 19.77000
H  38.55300 46.33100 20.66200
H  39.31900 48.36300 22.56300
H  39.80000 48.91800 20.99700
H  40.30600 47.31300 21.46700
H  38.37700 43.79400 24.28900
H  36.97300 43.11800 25.01700
H  38.54400 43.19700 26.00800
H  37.30400 46.44800 29.97600
H  34.57000 45.06000 33.21600
H  33.90400 44.32500 31.73300
H  33.41300 45.93500 32.16700

