158

Mg -2.06000 18.10900 27.35100
C  -2.63000 15.77200 29.63300
C  -2.81600 20.60100 29.55200
C  -1.62700 20.19400 24.81500
C  -1.60100 15.50200 24.94900
N  -2.79800 18.14600 29.27600
C  -2.79500 17.07800 30.17700
C  -2.88400 17.48500 31.70600
C  -3.12400 19.03000 31.57900
C  -2.89300 19.32500 30.05300
C  -4.54900 19.64600 32.09400
C  -1.79200 17.01300 32.65500
C  -1.39000 17.80600 33.92800
H  -0.77600 16.98500 35.00500
N  -2.25200 20.10600 27.20700
C  -2.56100 20.98000 28.21600
C  -2.38900 22.37000 27.72200
C  -1.82700 22.25300 26.40700
C  -1.78800 20.84100 26.08700
C  -2.69100 23.59200 28.68100
C  -1.26500 23.39700 25.60800
O  -0.72900 23.25000 24.51400
C  -1.26200 24.77100 26.14800
N  -1.82500 17.84800 25.17100
C  -1.55100 18.90300 24.43600
C  -1.35500 18.48900 22.92600
C  -1.06000 17.00500 22.99300
C  -1.49900 16.71200 24.43800
C  -2.60100 18.73600 22.05600
C  0.40900 16.64100 22.72600
C  1.52600 17.18100 23.73200
N  -1.92100 16.11000 27.27600
C  -1.86100 15.14000 26.27100
C  -1.97700 13.81300 26.84000
C  -2.33300 13.98200 28.13300
C  -2.32300 15.38100 28.30900
C  -1.80800 12.52700 26.20100
C  -2.63400 13.29900 29.31900
O  -2.66600 12.11100 29.48200
C  -2.83400 14.40100 30.39600
C  -1.79700 14.01700 31.39300
O  -0.57600 14.23300 31.32800
O  -2.35600 13.29500 32.47000
C  -1.49600 13.04200 33.61700
H  -2.66100 21.35100 30.33000
H  -1.39800 20.80300 23.93800
H  -1.27400 14.69600 24.28800
H  -3.84500 17.08000 32.02300
H  -2.33600 19.53900 32.13400
H  -4.27200 20.34600 32.88200
H  -5.15900 18.98800 32.71300
H  -5.12300 20.09800 31.28500
H  -0.84500 17.09800 32.12300
H  -1.95600 15.96100 32.88900
H  -2.25900 18.36400 34.27700
H  -0.57200 18.49600 33.71900
H  -1.75000 24.05300 28.98000
H  -3.22100 23.20800 29.55300
H  -3.35800 24.34300 28.25900
H  -2.24300 25.18800 26.37400
H  -0.80100 25.46700 25.44700
H  -0.64200 24.79400 27.04400
H  -0.51500 19.03600 22.49900
H  -1.62700 16.37400 22.30900
H  -3.32800 19.19700 22.72500
H  -3.05700 17.85300 21.60800
H  -2.31800 19.48300 21.31400
H  0.69100 16.87100 21.69800
H  0.46600 15.55800 22.61900
H  2.09500 16.38800 24.21800
H  1.05800 17.77100 24.52000
H  2.26900 17.85200 23.30000
H  -1.06200 12.57500 25.40700
H  -2.68200 11.99800 25.82200
H  -1.44100 11.85300 26.97500
H  -3.84600 14.24200 30.76800
H  -2.10500 13.43400 34.43100
H  -0.57600 13.62500 33.58300
H  -1.33200 11.96500 33.62100
Mg 45.44300 3.78000 46.98900
C  43.37400 6.48700 46.62900
C  42.65800 1.60200 46.58100
C  47.40400 1.01800 47.07200
C  48.23200 5.88500 46.82600
N  43.31200 4.02600 46.43400
C  42.65400 5.25300 46.42700
C  41.16500 5.11500 46.31000
C  40.94200 3.58200 46.41800
C  42.43900 3.01000 46.44700
C  40.16600 3.22100 47.67900
C  40.72600 5.63500 44.93800
C  39.69400 6.74700 44.87000
H  39.92500 7.83200 43.80700
N  45.05000 1.52200 46.94300
C  43.86000 0.91500 46.76500
C  44.07200 -0.52000 46.89500
C  45.47500 -0.78300 46.93700
C  46.04200 0.58400 46.98900
C  42.92900 -1.45500 46.66000
C  46.19400 -2.09400 46.82500
O  45.54500 -3.09600 46.84500
C  47.68900 -2.18000 46.89000
N  47.53400 3.47400 46.62400
C  48.08000 2.24900 46.99900
C  49.59800 2.41400 47.28300
C  49.83500 3.96700 47.00000
C  48.44300 4.51500 46.76800
C  50.08200 1.85200 48.60900
C  50.63900 4.25800 45.66100
C  51.71200 5.40100 45.66400
N  45.82400 5.81300 46.79800
C  47.01800 6.53300 46.81800
C  46.63600 7.98700 46.91900
C  45.22400 8.03500 46.77900
C  44.75300 6.67400 46.76500
C  47.57100 9.14600 47.09400
C  44.08700 8.87200 46.75000
O  44.00900 10.11700 46.81800
C  42.86800 7.93400 46.61600
C  41.89400 8.28400 47.61300
O  41.93200 7.90000 48.74600
O  40.82800 9.01300 47.03100
C  39.73200 9.29100 48.00200
H  41.75000 1.00100 46.49800
H  48.18300 0.32100 47.38700
H  49.19100 6.34500 47.07300
H  40.58900 5.69000 47.03500
H  40.48500 3.09900 45.55500
H  39.23200 2.74400 47.38300
H  39.75300 4.07600 48.21300
H  40.67100 2.50200 48.32400
H  40.33700 4.88300 44.25100
H  41.58500 5.96100 44.35100
H  39.71800 7.30000 45.81000
H  38.67200 6.42600 44.66800
H  42.29800 -1.66500 47.52300
H  43.21500 -2.47100 46.38900
H  42.22600 -0.97100 45.98100
H  47.97200 -3.20000 46.63100
H  48.06600 -1.92900 47.88100
H  48.10300 -1.57700 46.08200
H  50.01300 1.91300 46.40900
H  50.38500 4.33500 47.86600
H  50.79600 1.04800 48.43400
H  49.26000 1.60200 49.27900
H  50.71800 2.54500 49.16000
H  49.91100 4.48500 44.88200
H  51.21300 3.37400 45.38400
H  51.51200 6.18900 44.93800
H  52.70800 4.98400 45.51200
H  51.75700 5.76700 46.69000
H  47.04400 10.09600 47.00200
H  48.25100 9.05700 46.24600
H  48.10300 8.98900 48.03300
H  42.41200 8.12300 45.64400
H  39.95600 10.10400 48.69200
H  39.31900 8.41500 48.50200
H  38.93400 9.77300 47.43800

