158

Mg 45.37600 5.77900 49.09900
C  43.01200 8.26200 48.21400
C  42.97000 3.51200 48.53100
C  47.80600 3.37300 49.12900
C  47.75800 8.21200 49.38000
N  43.25600 5.90400 48.38900
C  42.44400 6.99500 48.21300
C  40.96100 6.58300 47.94800
C  41.06600 5.04800 48.12400
C  42.52200 4.78900 48.41600
C  40.07200 4.42000 49.22400
C  40.49600 7.01900 46.49300
C  39.07500 7.68800 46.30800
H  38.52400 7.54500 44.87900
N  45.28500 3.61300 48.98200
C  44.22900 2.90000 48.62800
C  44.63200 1.50200 48.62400
C  46.08000 1.41700 48.91900
C  46.48500 2.83900 49.01700
C  43.66600 0.37100 48.37800
C  46.83700 0.12900 49.18700
O  46.27300 -0.95500 49.02800
C  48.29900 0.16000 49.88700
N  47.47600 5.78600 49.39200
C  48.30400 4.67400 49.37000
C  49.79700 5.05300 49.21900
C  49.78300 6.52100 49.56500
C  48.27600 6.90700 49.51900
C  50.79600 4.15200 50.05800
C  50.69100 7.40900 48.67100
C  52.23000 7.28500 48.99700
N  45.42100 7.83700 48.93300
C  46.51200 8.65500 48.97200
C  46.11700 10.08000 48.66400
C  44.65000 9.92700 48.50300
C  44.33800 8.58400 48.54900
C  47.04200 11.28400 48.62900
C  43.45100 10.66500 48.19900
O  43.26700 11.85500 47.87200
C  42.28000 9.52700 48.04900
C  41.27600 9.73800 49.14000
O  41.17000 9.19000 50.17000
O  40.41000 10.62600 48.60600
C  39.10600 10.70000 49.36800
H  42.14500 2.81800 48.35400
H  48.62500 2.66000 49.24400
H  48.55100 8.95600 49.47400
H  40.28700 7.08700 48.64100
H  40.84400 4.60900 47.15100
H  39.34000 5.15400 49.56000
H  40.58600 4.08000 50.12300
H  39.51000 3.61200 48.75500
H  40.46600 6.11700 45.88200
H  41.22100 7.72400 46.08500
H  39.08900 8.74700 46.56600
H  38.50600 7.16100 47.07400
H  42.78900 0.79700 47.89000
H  43.31200 -0.11100 49.28900
H  43.96800 -0.33500 47.60400
H  49.02400 0.56400 49.18100
H  48.58700 -0.86400 50.12500
H  48.26900 0.82900 50.74700
H  49.99000 4.95300 48.15100
H  50.17000 6.62400 50.57800
H  51.58600 4.75600 50.50500
H  51.18200 3.38100 49.39200
H  50.12600 3.66800 50.76800
H  50.57300 8.49200 48.69800
H  50.46800 7.11200 47.64600
H  52.62300 6.64200 48.21000
H  52.54100 6.80500 49.92500
H  52.67400 8.27800 48.92900
H  48.10000 11.02700 48.57700
H  46.92400 12.00600 49.43600
H  46.66800 11.86200 47.78400
H  41.79400 9.53100 47.07400
H  39.34600 11.45800 50.11400
H  38.74200 9.77800 49.82100
H  38.36300 10.96600 48.61600
Mg 28.16000 56.41500 40.28300
C  25.97300 53.84300 39.60200
C  30.91300 54.43300 39.46600
C  30.16400 59.09100 40.42100
C  25.29500 58.49400 40.50800
N  28.33200 54.45000 39.55300
C  27.30400 53.57200 39.32700
C  27.80700 52.26300 38.67200
C  29.37400 52.34700 38.93300
C  29.58300 53.88100 39.39700
C  29.93000 51.32000 39.90600
C  27.46700 52.12500 37.14800
C  26.89800 53.36600 36.39000
H  26.76600 53.21700 34.82900
N  30.26200 56.73000 40.09200
C  31.21200 55.81200 39.77200
C  32.51700 56.45400 39.83200
C  32.38600 57.79000 40.21800
C  30.89500 57.96800 40.31700
C  33.74500 55.64300 39.60500
C  33.54100 58.74200 40.41000
O  34.74000 58.50000 40.28900
C  33.21100 60.04500 40.94800
N  27.75800 58.51600 40.34200
C  28.76600 59.40300 40.52000
C  28.21400 60.83000 40.87600
C  26.70300 60.66300 40.64200
C  26.54600 59.14700 40.56000
C  28.69200 61.30500 42.29500
C  26.10900 61.53100 39.55600
C  26.14400 63.05300 39.83900
N  26.06500 56.23200 40.16400
C  25.04000 57.17000 40.29500
C  23.72300 56.52200 40.13800
C  23.99900 55.19100 39.86100
C  25.45800 55.07800 39.89800
C  22.36900 57.17500 40.06800
C  23.47300 53.85100 39.66300
O  22.31400 53.41700 39.57900
C  24.78100 52.92400 39.50200
C  24.74900 51.83800 40.57300
O  24.13300 50.81300 40.45300
O  25.45400 52.18800 41.68200
C  25.37300 51.32300 42.87500
H  31.78700 53.81000 39.26800
H  30.71500 60.02600 40.53500
H  24.45000 59.16600 40.67100
H  27.38900 51.39200 39.17500
H  29.80700 52.19900 37.94400
H  29.09100 50.83600 40.40700
H  30.46600 51.78400 40.73400
H  30.45500 50.52400 39.37700
H  26.66200 51.39000 37.16800
H  28.36200 51.67100 36.72300
H  27.45000 54.25300 36.70000
H  25.88600 53.51500 36.76600
H  33.57100 55.06900 38.69500
H  33.68600 54.96300 40.45500
H  34.67000 56.21100 39.50600
H  32.62000 60.03900 41.86400
H  32.64000 60.52800 40.15500
H  34.06400 60.71100 41.07400
H  28.62200 61.47000 40.09400
H  26.11700 60.95400 41.51300
H  29.76900 61.42800 42.41300
H  28.41200 60.59200 43.07100
H  28.18200 62.23600 42.54000
H  25.16800 61.11800 39.19400
H  26.72400 61.28700 38.69000
H  26.60400 63.32500 40.78800
H  25.11900 63.42600 39.84000
H  26.74000 63.61500 39.12000
H  21.61400 56.66900 39.46500
H  22.54100 58.13800 39.58700
H  21.93900 57.23200 41.06800
H  24.95800 52.44000 38.54100
H  25.99000 50.47000 42.59200
H  24.41100 50.86100 43.09700
H  25.64200 51.82300 43.80500

