158

Mg 0.41500 7.57400 25.75100
C  1.23000 9.72600 28.51200
C  0.92200 4.88800 27.71800
C  -0.28100 5.78100 23.03000
C  0.74100 10.56500 23.65300
N  1.06800 7.35000 27.91100
C  1.18200 8.39200 28.83300
C  1.25000 7.74300 30.24600
C  1.38300 6.17500 29.95300
C  1.02000 6.11900 28.47500
C  2.72400 5.52200 30.34900
C  -0.08500 8.15400 31.08600
C  0.06700 8.16800 32.56000
H  1.33000 7.54400 33.20000
N  0.29800 5.69600 25.40600
C  0.61800 4.71800 26.35700
C  0.34700 3.42400 25.83200
C  -0.05400 3.56400 24.47300
C  -0.09100 5.04500 24.20200
C  0.62100 2.13700 26.61800
C  -0.39900 2.53800 23.38500
O  -0.67900 2.86600 22.25800
C  -0.29900 1.09500 23.69000
N  0.22400 8.18500 23.67700
C  -0.12800 7.16500 22.78900
C  -0.07600 7.75500 21.32300
C  0.22700 9.28000 21.56600
C  0.38000 9.39200 23.04500
C  1.02100 7.10300 20.41200
C  -0.80100 10.17300 20.88200
C  -2.17900 10.13000 21.50800
N  0.85100 9.68400 25.99200
C  0.94200 10.78600 25.06000
C  1.24600 12.05300 25.76600
C  1.26800 11.63500 27.12100
C  1.10400 10.23100 27.20400
C  1.28900 13.49200 25.23100
C  1.50900 12.17000 28.44300
O  1.76700 13.28300 28.83100
C  1.37100 10.94000 29.42900
C  2.57500 10.97000 30.25000
O  3.69800 10.79500 29.80200
O  2.15100 11.18000 31.61100
C  3.13900 11.11100 32.62100
H  1.00400 4.06900 28.43600
H  -0.52000 5.17400 22.15400
H  0.65300 11.44200 23.00900
H  2.04200 8.10000 30.90500
H  0.62200 5.67400 30.55100
H  3.42300 6.23800 30.78000
H  3.15500 4.95500 29.52400
H  2.55400 4.87500 31.21000
H  -0.80900 7.37100 30.86100
H  -0.49300 9.08800 30.70200
H  -0.81700 7.63900 32.91900
H  0.01900 9.13900 33.05200
H  0.69600 1.14500 26.17400
H  0.03800 2.09700 27.53800
H  1.59100 2.19500 27.11100
H  -0.85600 0.77400 22.80900
H  -0.91800 0.73500 24.51200
H  0.74600 0.78800 23.72300
H  -1.01700 7.54600 20.81500
H  1.24700 9.54300 21.28800
H  0.87900 7.46700 19.39500
H  1.03600 6.01600 20.33700
H  2.02200 7.35200 20.76500
H  -0.94900 9.89000 19.84000
H  -0.48000 11.21300 20.93800
H  -2.87200 10.62000 20.82500
H  -2.15800 10.74800 22.40600
H  -2.45800 9.09700 21.71700
H  1.08400 13.43500 24.16200
H  2.20600 13.94700 25.60700
H  0.40400 13.88900 25.72800
H  0.51000 11.16700 30.05900
H  3.44300 12.15400 32.71000
H  3.94700 10.44300 32.32000
H  2.75300 10.78500 33.58700
Mg 17.05700 -0.91200 28.68100
C  15.79000 0.99600 31.42200
C  18.73400 -2.77900 30.97000
C  18.35400 -2.43700 26.12700
C  15.32800 1.28100 26.52500
N  17.31100 -0.74500 30.96800
C  16.70800 0.06100 31.88100
C  17.06100 -0.36800 33.34000
C  18.10400 -1.49800 33.16800
C  18.08700 -1.68900 31.60400
C  19.54700 -1.18400 33.78300
C  15.75500 -0.80700 34.05000
C  15.46100 -0.16700 35.48700
H  16.61600 0.52200 36.21900
N  18.34600 -2.41600 28.57600
C  18.91500 -3.08500 29.59900
C  19.62500 -4.29200 29.03000
C  19.62900 -4.10200 27.62600
C  18.74800 -2.92600 27.39300
C  20.34200 -5.20200 29.96300
C  20.19800 -4.99400 26.59400
O  20.14100 -4.74800 25.39400
C  20.83100 -6.33000 27.00400
N  16.90600 -0.52200 26.63700
C  17.64000 -1.32900 25.74500
C  17.31600 -1.04800 24.25600
C  16.25500 0.14700 24.39000
C  16.15800 0.31700 25.92600
C  18.59000 -0.56400 23.50100
C  14.90700 -0.14100 23.68400
C  13.91900 -0.89200 24.50500
N  15.84000 0.79700 28.84400
C  15.16900 1.55300 27.88500
C  14.28600 2.47400 28.50300
C  14.52000 2.32700 29.88900
C  15.47200 1.31700 30.00300
C  13.36200 3.46300 27.77800
C  14.07400 2.76400 31.17800
O  13.32700 3.70700 31.40600
C  14.81900 1.84600 32.25400
C  15.53000 2.70700 33.34700
O  16.69200 3.08800 33.39000
O  14.54800 3.10400 34.26700
C  14.94500 4.20900 35.20500
H  19.20400 -3.40500 31.73200
H  18.72000 -2.86800 25.19300
H  14.43600 1.64500 26.00900
H  17.49600 0.48000 33.87100
H  17.75500 -2.36100 33.73600
H  19.52800 -0.39100 34.53000
H  20.26700 -0.88000 33.02300
H  20.03200 -2.03500 34.26100
H  15.79400 -1.87500 34.26500
H  14.86600 -0.67000 33.43400
H  15.17100 -1.01100 36.11300
H  14.58800 0.48200 35.40800
H  20.44100 -4.79900 30.97100
H  21.34700 -5.36300 29.57100
H  19.91100 -6.19800 30.06500
H  20.18900 -7.07600 27.47300
H  21.65400 -6.08000 27.67400
H  21.39600 -6.74700 26.17000
H  16.86100 -1.91500 23.77800
H  16.66500 1.11600 24.10600
H  18.36100 0.33900 22.93500
H  19.03000 -1.34000 22.87500
H  19.39500 -0.29900 24.18700
H  15.00100 -0.63300 22.71600
H  14.57000 0.87800 23.49300
H  14.47900 -1.21500 25.38200
H  13.49600 -1.72100 23.93700
H  13.10400 -0.20100 24.72100
H  13.88800 3.63200 26.83900
H  13.39000 4.39900 28.33500
H  12.34100 3.10100 27.65400
H  14.00300 1.32000 32.75000
H  14.07400 4.42000 35.82500
H  15.30000 5.09800 34.68500
H  15.84300 3.87700 35.72500

