158

Mg 44.80400 5.37300 46.94800
C  42.96900 8.31000 46.89100
C  41.92100 3.62500 46.02500
C  46.67500 2.66700 46.49000
C  47.77900 7.38500 47.18200
N  42.72300 5.93600 46.40500
C  42.18600 7.17600 46.53700
C  40.72600 7.28400 46.13800
C  40.45900 5.76300 45.83400
C  41.72500 5.05300 46.25400
C  39.12700 5.09200 46.43800
C  40.15200 8.37900 45.15700
C  40.74100 8.29600 43.69400
H  39.93600 7.78000 42.45700
N  44.36000 3.40400 46.48900
C  43.13700 2.86500 46.17400
C  43.31300 1.40700 45.91400
C  44.64800 1.12000 46.07000
C  45.31100 2.44900 46.38700
C  42.25300 0.51400 45.47600
C  45.31200 -0.25200 45.93300
O  44.65800 -1.26700 45.69600
C  46.80600 -0.53400 45.83700
N  46.93900 5.10200 46.64600
C  47.39900 3.82400 46.54400
C  48.92200 3.95400 46.51800
C  49.38000 5.47000 46.64200
C  47.93900 5.99700 46.84500
C  49.71000 2.97700 47.37700
C  50.01000 6.06900 45.35600
C  51.23700 5.35000 44.77100
N  45.32000 7.38100 47.12600
C  46.54500 8.08300 47.22300
C  46.26400 9.51300 47.43300
C  44.89100 9.67800 47.27200
C  44.35200 8.36100 47.07400
C  47.28300 10.55300 47.62700
C  43.78600 10.57200 47.34400
O  43.82200 11.78800 47.60300
C  42.48700 9.73000 46.98000
C  41.56600 9.95300 48.09500
O  41.75600 9.63800 49.27600
O  40.43800 10.51800 47.59800
C  39.26300 10.68100 48.54600
H  41.02900 3.11200 45.66000
H  47.40300 1.85500 46.54300
H  48.69800 7.95200 47.35000
H  40.26600 7.63300 47.06300
H  40.46400 5.59000 44.75800
H  39.49600 4.71500 47.39200
H  38.58200 4.24900 46.01300
H  38.52300 5.97900 46.62800
H  40.13300 9.40900 45.51200
H  39.09300 8.21800 44.95100
H  41.55000 7.57700 43.82500
H  41.17200 9.28900 43.57400
H  42.55400 0.12400 44.50400
H  41.25500 0.93300 45.34400
H  42.06400 -0.35800 46.10100
H  47.00400 -1.55100 45.49600
H  47.12700 -0.41100 46.87100
H  47.21100 0.24400 45.19000
H  49.09700 3.65400 45.48500
H  49.98000 5.74800 47.50900
H  50.23100 2.25800 46.74400
H  49.02900 2.44600 48.04300
H  50.50400 3.46100 47.94400
H  50.37700 7.06800 45.59300
H  49.25400 6.19100 44.58100
H  51.01200 5.05500 43.74600
H  51.51700 4.52100 45.42200
H  52.07100 6.05200 44.78100
H  47.68300 10.71400 48.62800
H  46.94500 11.51800 47.24900
H  48.16900 10.31100 47.03900
H  42.03400 10.13200 46.07400
H  38.48900 10.03000 48.14100
H  38.95000 11.72100 48.44900
H  39.44000 10.49600 49.60600
Mg 29.06400 57.05900 41.48500
C  26.99500 54.56500 40.44100
C  31.81400 55.19500 40.26600
C  31.13100 59.91700 41.76200
C  26.44900 59.06400 42.33200
N  29.34100 55.04900 40.56500
C  28.31300 54.20200 40.21600
C  28.89600 52.98200 39.48800
C  30.47100 53.10400 39.69100
C  30.57600 54.51100 40.20100
C  31.08200 52.02600 40.59700
C  28.43100 52.79200 38.07500
C  28.80200 53.95200 37.05200
H  27.67800 54.69000 36.32900
N  31.16200 57.45000 41.14800
C  32.09800 56.49000 40.71700
C  33.40800 57.19700 40.69000
C  33.22700 58.49500 41.13800
C  31.75800 58.66100 41.40700
C  34.64800 56.54000 40.06200
C  34.42800 59.48400 41.41300
O  35.62500 59.25300 41.12800
C  34.17000 60.88500 42.03100
N  28.83800 59.25100 41.76900
C  29.78700 60.17600 42.01300
C  29.16600 61.49600 42.45300
C  27.58900 61.19900 42.45400
C  27.62300 59.68600 42.18800
C  29.65900 62.12900 43.76100
C  26.72400 61.96800 41.35400
C  25.78400 63.02200 42.02500
N  27.14500 56.90900 41.38500
C  26.18700 57.72900 41.91100
C  24.83600 57.11500 41.69600
C  25.13900 55.84100 41.15100
C  26.54000 55.76200 41.03600
C  23.51500 57.73500 42.06300
C  24.62500 54.59900 40.75800
O  23.47800 54.19000 40.78100
C  25.81100 53.67000 40.28000
C  25.76400 52.35200 41.07000
O  26.19600 52.06000 42.20100
O  25.26700 51.30500 40.27700
C  24.86100 50.07100 40.93100
H  32.69700 54.58400 40.06800
H  31.74900 60.81700 41.80300
H  25.56900 59.60400 42.68700
H  28.52000 52.17000 40.11100
H  31.00200 53.06100 38.74100
H  31.61700 52.42800 41.45700
H  31.72400 51.43300 39.94600
H  30.32700 51.37900 41.04400
H  27.36100 52.63000 38.20200
H  28.94100 51.85600 37.84300
H  29.51700 53.59200 36.31200
H  29.24000 54.68500 37.73000
H  34.85000 56.92800 39.06300
H  34.55300 55.45800 39.96700
H  35.51800 56.72900 40.69100
H  33.72000 61.59000 41.33200
H  35.18500 61.14100 42.33400
H  33.50000 60.66700 42.86300
H  29.52000 62.12500 41.63600
H  27.29100 61.36200 43.48900
H  28.94100 62.20200 44.57800
H  29.83700 63.16400 43.46900
H  30.59100 61.72800 44.16000
H  26.13100 61.29900 40.73100
H  27.44800 62.43300 40.68600
H  25.90700 63.00300 43.10800
H  24.76200 62.72000 41.79800
H  26.11200 64.00700 41.69200
H  22.71400 57.01400 41.89800
H  23.53000 58.61000 41.41400
H  23.43000 57.91500 43.13400
H  25.76700 53.47500 39.20800
H  24.26000 49.38700 40.33300
H  24.35200 50.11600 41.89300
H  25.69500 49.39100 41.10800

