158

Mg 8.77800 3.11600 27.57700
C  10.28900 1.47500 30.37100
C  7.10800 5.24500 29.81300
C  7.57800 4.55600 24.93000
C  10.03500 0.50100 25.48100
N  8.74400 3.36500 29.89300
C  9.47000 2.56000 30.80100
C  9.22500 2.96000 32.25300
C  8.15100 4.14400 32.05000
C  7.88300 4.21400 30.49800
C  6.81500 3.86300 32.84100
C  10.57000 3.31000 33.04900
C  10.52200 4.37800 34.15100
H  11.22600 4.10600 35.48600
N  7.45100 4.62000 27.36900
C  6.90700 5.39300 28.39300
C  6.12800 6.46800 27.82200
C  6.31600 6.30100 26.37000
C  7.12700 5.08800 26.17700
C  5.45800 7.51600 28.59900
C  5.85100 7.24500 25.26900
O  6.27300 7.18100 24.13600
C  4.87300 8.29700 25.57800
N  8.89600 2.61200 25.49800
C  8.31100 3.45600 24.63200
C  8.65200 3.06500 23.15100
C  9.31100 1.66300 23.35400
C  9.48800 1.59200 24.83900
C  7.46200 2.98300 22.14400
C  10.77800 1.61100 22.69500
C  11.02600 0.59500 21.56400
N  9.95600 1.34000 27.77300
C  10.30600 0.40400 26.88100
C  11.16300 -0.58300 27.54400
C  11.27100 -0.15500 28.90500
C  10.47800 0.99600 28.96900
C  11.81300 -1.72000 26.82200
C  11.75300 -0.46900 30.23100
O  12.56100 -1.34800 30.58500
C  11.19300 0.64700 31.21600
C  10.48700 -0.11000 32.27000
O  9.41000 -0.59400 32.12300
O  11.17300 -0.10700 33.50800
C  10.41600 -0.49200 34.71800
H  6.56300 6.04900 30.31100
H  7.12500 4.93400 24.01100
H  10.35700 -0.32900 24.85000
H  8.72600 2.11700 32.73100
H  8.56400 5.12600 32.28000
H  6.84500 2.89200 33.33500
H  5.96600 3.83200 32.15900
H  6.51800 4.59000 33.59700
H  11.44900 3.52200 32.44100
H  10.75000 2.42900 33.66500
H  9.48200 4.63100 34.35700
H  10.97200 5.30000 33.78300
H  5.89700 8.49300 28.39600
H  5.38300 7.53900 29.68600
H  4.42200 7.55200 28.26200
H  4.30900 8.59700 24.69500
H  5.56700 9.07300 25.90300
H  4.14300 7.91000 26.28900
H  9.32200 3.83700 22.77100
H  8.77600 0.79400 22.96900
H  6.87700 3.88300 22.32900
H  6.81400 2.15100 22.42000
H  7.88400 2.98500 21.13900
H  11.43400 1.30300 23.51000
H  11.15100 2.59300 22.40800
H  11.46700 1.01700 20.66100
H  10.07200 0.19200 21.22300
H  11.60500 -0.23800 21.96400
H  11.95400 -1.64500 25.74300
H  11.30800 -2.67800 26.94600
H  12.80900 -1.73800 27.26300
H  11.99100 1.14400 31.76800
H  9.84800 -1.40800 34.55600
H  9.79500 0.36900 34.97000
H  11.05500 -0.82700 35.53500
Mg 35.27900 1.15600 28.74400
C  33.16200 2.77900 30.96700
C  37.73700 1.39000 31.22400
C  37.62800 0.45100 26.46500
C  32.94300 1.57200 26.19500
N  35.44500 1.95700 30.92500
C  34.37900 2.53500 31.57500
C  34.64900 2.62300 33.06500
C  36.23000 2.45500 33.03100
C  36.50000 1.82300 31.66900
C  36.81200 3.91800 33.25200
C  33.84000 1.42500 33.87600
C  33.10300 1.93400 35.15600
H  33.92100 2.92200 36.02100
N  37.42500 0.78100 28.84000
C  38.18700 0.89100 29.97000
C  39.46100 0.34200 29.65100
C  39.56100 0.11900 28.22000
C  38.20700 0.53300 27.73500
C  40.49800 0.20800 30.68800
C  40.73300 -0.43500 27.40700
O  40.65500 -0.69100 26.18900
C  41.99000 -0.69300 28.20700
N  35.31800 1.13000 26.59500
C  36.35600 0.62300 25.90100
C  36.02000 0.51700 24.44500
C  34.50400 0.59200 24.39200
C  34.18900 1.07100 25.77700
C  36.73800 1.58500 23.51500
C  33.78700 -0.78000 24.21400
C  32.81000 -0.78500 22.98200
N  33.46300 1.98000 28.56800
C  32.56200 1.97700 27.52300
C  31.32700 2.54300 27.93000
C  31.48600 2.82100 29.32000
C  32.77500 2.45100 29.65200
C  30.19300 2.66500 27.00500
C  30.84900 3.35500 30.47100
O  29.78000 3.75400 30.67300
C  31.86200 3.27800 31.61700
C  32.01000 4.48600 32.49800
O  32.86100 5.33800 32.42100
O  31.07800 4.39300 33.50800
C  31.27800 5.39600 34.58100
H  38.46300 1.48000 32.03400
H  38.30600 -0.01100 25.74500
H  32.09700 1.40200 25.52700
H  34.35400 3.59300 33.46300
H  36.69500 1.84300 33.80300
H  36.05100 4.60500 33.62200
H  37.09100 4.32700 32.28100
H  37.66100 3.94800 33.93500
H  34.62700 0.71700 34.13400
H  33.11500 1.00900 33.17600
H  32.75100 1.06900 35.71800
H  32.23800 2.48800 34.79000
H  41.18900 -0.62300 30.55200
H  40.04500 -0.17400 31.60300
H  40.97100 1.18600 30.78100
H  42.71700 -1.00100 27.45600
H  41.71500 -1.55600 28.81500
H  42.40000 0.18300 28.70800
H  36.38900 -0.44300 24.08200
H  34.15500 1.34000 23.67900
H  36.06700 2.29800 23.03700
H  37.28400 1.17500 22.66500
H  37.49200 2.26400 23.91300
H  33.23400 -1.07400 25.10600
H  34.45000 -1.63200 24.05900
H  33.15500 -1.38600 22.14100
H  32.61600 0.24700 22.69200
H  31.91200 -1.26100 23.37700
H  30.30100 3.62800 26.50700
H  29.28600 2.68000 27.60900
H  30.10600 1.77900 26.37700
H  31.54100 2.48600 32.29400
H  30.93000 6.35500 34.19600
H  32.31900 5.32300 34.89500
H  30.66300 5.14000 35.44300

