158

Mg 48.59400 34.53500 26.93800
C  46.49000 33.15200 29.42400
C  48.88700 37.38300 28.83800
C  50.11400 36.06100 24.29000
C  47.90700 31.80800 24.91600
N  47.78900 35.25400 28.86400
C  47.08900 34.42300 29.77100
C  47.22800 34.90700 31.19100
C  47.50000 36.40100 30.99700
C  48.14600 36.37500 29.46700
C  46.22500 37.33400 31.16600
C  48.41200 34.19400 31.97800
C  48.40200 34.33800 33.51600
H  47.33700 35.26100 34.19300
N  49.42000 36.47900 26.60400
C  49.51600 37.48300 27.58100
C  50.13000 38.63000 26.99700
C  50.39400 38.31300 25.60100
C  49.91000 36.93100 25.40500
C  50.53600 39.81800 27.75200
C  51.10800 39.13900 24.49200
O  51.38500 38.59100 23.36200
C  51.54400 40.56000 24.70000
N  48.95400 33.99600 24.97100
C  49.66900 34.77100 24.12000
C  49.67700 34.07500 22.70700
C  49.41300 32.58100 23.01300
C  48.76600 32.76400 24.42000
C  48.82100 34.85900 21.74500
C  50.53100 31.54100 23.11900
C  51.67400 31.86300 24.14100
N  47.52400 32.78700 27.11900
C  47.33600 31.78400 26.17900
C  46.54100 30.74400 26.77600
C  46.11700 31.27400 27.95000
C  46.78600 32.45300 28.15800
C  46.26600 29.40800 26.20300
C  45.37900 30.98400 29.19800
O  44.76000 30.05700 29.59500
C  45.47700 32.25300 30.11100
C  45.72900 31.86000 31.49000
O  46.68900 31.26100 31.97000
O  44.70200 32.29400 32.25900
C  44.78800 31.84700 33.66300
H  48.86200 38.32400 29.39100
H  50.60500 36.44300 23.39300
H  47.74600 30.95100 24.25800
H  46.28700 34.69300 31.69800
H  48.29800 36.87400 31.56800
H  45.40200 36.83500 31.67700
H  45.85000 37.57500 30.17100
H  46.54800 38.20400 31.73800
H  49.34000 34.68800 31.69200
H  48.49700 33.14200 31.70300
H  49.37400 34.71800 33.82900
H  48.38400 33.38900 34.05100
H  51.32800 39.40300 28.37400
H  49.70200 39.94300 28.44300
H  50.66400 40.76400 27.22500
H  52.47300 40.57700 25.26900
H  50.77000 41.16000 25.17800
H  51.57300 41.02100 23.71200
H  50.68700 34.24100 22.33200
H  48.58900 32.14100 22.45200
H  48.13200 35.43000 22.36800
H  48.32800 34.16300 21.06600
H  49.44500 35.55300 21.18200
H  50.89200 31.42000 22.09800
H  50.10900 30.60300 23.48200
H  51.41500 31.43500 25.11000
H  51.69500 32.95100 24.20600
H  52.66300 31.55400 23.80600
H  45.42800 28.96400 26.74200
H  47.06600 28.69700 26.41000
H  45.96900 29.46700 25.15600
H  44.58200 32.86700 30.01000
H  45.78300 32.01000 34.07900
H  44.69700 30.76100 33.67500
H  43.95100 32.36300 34.13300
Mg 35.83900 48.99400 25.88000
C  35.77100 47.22500 28.93200
C  34.37700 51.67100 27.41700
C  35.84800 50.58700 22.90100
C  37.10100 46.03600 24.31500
N  35.26300 49.35700 28.00600
C  35.42600 48.60300 29.08100
C  35.24200 49.48400 30.38600
C  34.62500 50.81500 29.84200
C  34.74200 50.56400 28.26100
C  33.21600 51.20100 30.31900
C  36.49900 49.56000 31.25300
C  36.33500 48.98400 32.70800
H  34.97600 48.87100 33.35700
N  35.11300 50.87200 25.25000
C  34.59000 51.83100 26.02900
C  34.36600 52.97700 25.22700
C  34.55800 52.55600 23.84000
C  35.23900 51.35500 23.92300
C  33.79300 54.23000 25.87200
C  34.27600 53.21100 22.56300
O  34.76900 52.96900 21.44700
C  33.24200 54.40800 22.61200
N  36.28800 48.39700 23.89800
C  36.34200 49.31600 22.92300
C  36.98700 48.69800 21.63000
C  37.37200 47.27100 22.05600
C  36.87600 47.16700 23.51200
C  36.03800 48.59900 20.44700
C  38.98400 47.07300 21.96000
C  39.77300 47.73600 23.13200
N  36.36900 47.12000 26.44400
C  36.90500 46.05300 25.71300
C  37.13200 44.91700 26.59600
C  36.67500 45.35700 27.83900
C  36.21600 46.66500 27.70900
C  37.62500 43.61400 26.16000
C  36.58200 44.86700 29.19800
O  36.77400 43.79100 29.71300
C  36.00500 46.10000 29.95600
C  34.89100 45.66500 30.82600
O  33.75000 45.60400 30.49700
O  35.37500 45.30500 32.09900
C  34.35000 44.55800 32.83600
H  33.89700 52.54800 27.85400
H  35.95900 51.16400 21.98000
H  37.64400 45.17500 23.91900
H  34.50900 48.97900 31.01500
H  35.23100 51.65900 30.17100
H  32.66900 51.43300 29.40600
H  33.17900 52.09600 30.94100
H  32.75100 50.36700 30.84400
H  36.82000 50.59000 31.40900
H  37.32400 48.98300 30.83400
H  36.98000 49.50200 33.41800
H  36.77000 47.98500 32.73300
H  33.85800 55.11400 25.23700
H  34.41100 54.57200 26.70300
H  32.78000 54.05400 26.23400
H  33.54900 55.30200 23.15500
H  32.33500 53.99300 23.05200
H  33.07000 54.79200 21.60700
H  37.87100 49.29000 21.39600
H  36.76900 46.55700 21.49400
H  35.34300 47.77200 20.59200
H  36.65900 48.37100 19.58000
H  35.57800 49.58300 20.35200
H  39.30100 47.59600 21.05700
H  39.27700 46.02500 21.90200
H  40.63600 48.33900 22.85000
H  40.13900 46.87300 23.68800
H  39.08000 48.27400 23.77900
H  38.67900 43.68500 25.89300
H  37.04300 43.28600 25.29800
H  37.61400 43.02700 27.07800
H  36.75500 46.50200 30.63700
H  34.83800 43.97200 33.61500
H  33.70500 43.94200 32.21000
H  33.65600 45.18700 33.39400

