158

Mg 2.60000 -0.95100 44.58500
C  5.82600 -0.60500 43.38300
C  1.50700 1.51300 42.42500
C  -0.52800 -1.88000 45.22100
C  3.76300 -3.82800 46.21600
N  3.62000 0.38000 43.07200
C  4.92300 0.30000 42.67100
C  5.21800 1.53700 41.80800
C  3.85000 2.31700 41.79800
C  2.91400 1.38600 42.46100
C  3.86100 3.75400 42.24100
C  5.87800 1.17900 40.39900
C  6.91300 2.16800 39.89900
H  6.48600 2.94100 38.62100
N  0.72900 -0.14800 44.05300
C  0.41500 0.87800 43.16000
C  -1.04100 1.06600 42.99600
C  -1.63200 0.15200 43.92400
C  -0.47000 -0.67400 44.50600
C  -1.54700 2.25400 42.13200
C  -3.02500 0.07200 44.22000
O  -3.81000 0.94600 43.87700
C  -3.64000 -1.05500 45.01500
N  1.72400 -2.64000 45.59800
C  0.36500 -2.76800 45.72600
C  0.05200 -4.20000 46.12300
C  1.41800 -4.80200 46.54400
C  2.40600 -3.72100 46.05600
C  -0.96700 -4.12000 47.27800
C  1.70200 -6.25400 46.06700
C  2.47800 -7.23100 46.94400
N  4.46200 -1.90600 44.93500
C  4.78800 -3.04000 45.66700
C  6.28500 -3.19900 45.71000
C  6.67200 -2.23900 44.81200
C  5.54100 -1.55800 44.34300
C  7.12100 -4.11200 46.47000
C  7.84300 -1.75500 44.13000
O  9.03200 -2.12300 44.14300
C  7.36200 -0.59600 43.19000
C  8.00400 0.65200 43.68900
O  7.50400 1.37900 44.52700
O  9.20600 0.88000 43.03200
C  9.76700 2.23500 43.31100
H  1.12900 2.34700 41.82900
H  -1.55200 -2.15900 45.47800
H  4.03800 -4.76000 46.71500
H  5.96600 2.20100 42.24000
H  3.64500 2.25300 40.72900
H  3.84500 4.45300 41.40400
H  4.82100 3.88600 42.74100
H  3.11800 3.98700 43.00300
H  5.12300 1.14700 39.61300
H  6.44300 0.25000 40.46300
H  7.80200 1.54100 39.83500
H  7.08600 2.98300 40.60200
H  -2.48700 1.98300 41.65300
H  -0.88600 2.41300 41.28000
H  -1.71700 3.13700 42.74800
H  -4.72400 -0.96200 44.95900
H  -3.37800 -1.06400 46.07300
H  -3.41000 -2.03400 44.59400
H  -0.33500 -4.72900 45.25200
H  1.45600 -4.81000 47.63400
H  -1.20300 -3.07000 47.45200
H  -0.64100 -4.55600 48.22200
H  -1.84700 -4.73400 47.08800
H  2.24000 -6.19600 45.12100
H  0.72700 -6.63300 45.75800
H  1.83900 -8.06500 47.23300
H  2.91400 -6.80600 47.84900
H  3.18000 -7.79000 46.32600
H  8.09200 -3.64500 46.63800
H  7.21400 -5.06000 45.94100
H  6.66600 -4.29000 47.44400
H  7.63300 -0.64300 42.13600
H  8.97400 2.98200 43.30800
H  10.54900 2.51700 42.60500
H  10.18900 2.24400 44.31600
Mg 36.22500 49.52700 25.16700
C  36.38200 47.69400 28.11400
C  35.19800 52.21400 26.87600
C  35.96800 51.12700 22.17900
C  37.78700 46.86700 23.55100
N  35.71900 49.77400 27.21500
C  35.97000 48.99200 28.32800
C  35.80200 49.69000 29.59100
C  35.43600 51.14900 29.18500
C  35.49900 51.08500 27.65300
C  34.05600 51.60600 29.79700
C  37.08300 49.55000 30.48100
C  36.84000 48.94200 31.86900
H  35.46700 49.01800 32.52600
N  35.58200 51.39800 24.60600
C  35.23100 52.42600 25.47500
C  34.75700 53.56700 24.73200
C  35.03600 53.26900 23.33700
C  35.57900 51.86900 23.33500
C  34.08500 54.81400 25.31800
C  34.79800 54.19200 22.10500
O  35.15500 53.78000 20.99900
C  34.13000 55.47300 22.26900
N  36.64200 48.99700 23.12400
C  36.53500 49.85700 22.06600
C  36.94400 49.22200 20.69800
C  37.82800 48.06200 21.29600
C  37.48500 47.97500 22.77200
C  35.72700 48.82600 19.87400
C  39.37400 48.09200 20.98700
C  40.41400 48.57500 22.02000
N  36.85200 47.66600 25.62000
C  37.48400 46.69800 24.87100
C  37.73100 45.53800 25.69500
C  37.24400 45.81400 26.94200
C  36.73300 47.17200 26.88600
C  38.39100 44.29800 25.26200
C  37.08900 45.28600 28.28500
O  37.34800 44.22500 28.79400
C  36.54800 46.53300 29.07800
C  35.27200 46.18100 29.79200
O  34.11600 46.34900 29.36900
O  35.50800 45.54700 30.94400
C  34.43900 45.13800 31.77100
H  35.06200 53.16300 27.40000
H  35.87100 51.58300 21.19100
H  38.49200 46.26800 22.96900
H  34.92500 49.25800 30.07200
H  36.13600 51.90500 29.54300
H  33.32200 51.49000 29.00000
H  34.00100 52.65200 30.10000
H  33.80200 50.94500 30.62500
H  37.59600 50.50800 30.55800
H  37.76400 48.91200 29.91800
H  37.54700 49.51600 32.46800
H  37.17000 47.90700 31.78500
H  33.05900 55.06500 25.04600
H  34.68700 55.69100 25.08300
H  34.16000 54.71400 26.40100
H  34.94200 56.18200 22.43000
H  33.41200 55.51700 23.08800
H  33.66800 55.75900 21.32400
H  37.64700 49.83100 20.12900
H  37.49400 47.09300 20.92400
H  34.85500 49.18000 20.42300
H  35.55000 47.76500 19.69700
H  35.88700 49.29300 18.90200
H  39.51200 48.68900 20.08500
H  39.53400 47.03200 20.78900
H  41.23100 49.17900 21.62400
H  40.85500 47.67200 22.44300
H  39.83200 49.13200 22.75400
H  39.11900 44.45700 24.46700
H  37.59700 43.59800 25.00300
H  38.86800 43.98100 26.18900
H  37.26000 46.87600 29.82900
H  34.08600 44.12800 31.56200
H  33.65600 45.89600 31.73200
H  34.78300 44.95500 32.78900

