158

Mg -2.17200 17.50900 26.78400
C  -2.29000 15.37400 29.49600
C  -2.76200 20.13900 28.89100
C  -1.95000 19.33300 24.04900
C  -1.89600 14.58000 24.62900
N  -2.57400 17.68300 28.97600
C  -2.58000 16.68900 29.91100
C  -2.81400 17.31400 31.34200
C  -2.93400 18.81500 31.07200
C  -2.84400 18.92700 29.53100
C  -4.28800 19.41100 31.51000
C  -1.77200 16.98100 32.54700
C  -1.90800 17.75500 33.85200
H  -2.03200 17.05500 35.19400
N  -2.32600 19.53000 26.53100
C  -2.57200 20.44200 27.50100
C  -2.53300 21.74100 26.87400
C  -2.50300 21.49200 25.47100
C  -2.25300 20.11600 25.24700
C  -2.87500 23.06000 27.61400
C  -2.55000 22.51600 24.28300
O  -2.75500 22.16000 23.14100
C  -2.69800 23.99700 24.58900
N  -1.71700 16.98500 24.68400
C  -1.79200 17.96100 23.81500
C  -1.73700 17.45000 22.34700
C  -1.43800 15.92200 22.52500
C  -1.71100 15.79700 23.99900
C  -3.03600 17.80700 21.51500
C  0.00800 15.65800 22.29100
C  1.18000 16.57500 22.83900
N  -2.15100 15.43300 26.95400
C  -1.98700 14.38200 26.00500
C  -2.02700 13.09900 26.70400
C  -2.07400 13.45000 28.04400
C  -2.23900 14.87000 28.18300
C  -2.07000 11.76900 26.17700
C  -2.14900 12.89000 29.39700
O  -2.16500 11.73500 29.73700
C  -2.23200 14.09200 30.32600
C  -1.07400 14.03700 31.29700
O  0.04300 14.52800 31.08700
O  -1.49700 13.33500 32.43500
C  -0.50100 13.40000 33.51100
H  -2.91800 20.99400 29.55100
H  -1.81400 19.91200 23.13300
H  -1.87200 13.67500 24.01900
H  -3.81300 16.92800 31.54800
H  -2.19600 19.46200 31.54600
H  -4.98300 19.57600 30.68800
H  -4.05300 20.34800 32.01500
H  -4.76700 18.85100 32.31400
H  -0.74300 17.23900 32.29600
H  -1.80700 15.90400 32.71500
H  -2.86300 18.27300 33.76400
H  -1.04900 18.35700 34.15200
H  -3.91400 23.22800 27.33100
H  -2.18100 23.88800 27.46600
H  -2.91900 22.86300 28.68500
H  -1.80800 24.54700 24.89500
H  -3.53900 24.14700 25.26600
H  -3.17800 24.41400 23.70300
H  -0.89800 17.95700 21.87100
H  -2.04800 15.20800 21.97200
H  -3.61500 18.50700 22.11700
H  -3.64800 16.96500 21.19200
H  -2.74800 18.37200 20.62900
H  0.15300 15.50500 21.22200
H  0.26200 14.73400 22.81000
H  0.91500 17.46400 23.41200
H  1.77500 17.01000 22.03600
H  1.89400 16.06800 23.48800
H  -1.48100 11.04300 26.73800
H  -2.07000 11.65800 25.09300
H  -3.08300 11.42600 26.39000
H  -3.16800 14.02600 30.88000
H  0.48600 13.02800 33.23900
H  -0.70100 12.75800 34.36900
H  -0.38100 14.43700 33.82500
Mg 42.64100 41.13500 25.32100
C  41.66600 43.58400 27.81800
C  43.72300 39.09900 27.86300
C  43.70300 39.07300 22.98600
C  41.77500 43.47400 22.87900
N  42.74900 41.45900 27.62700
C  42.16700 42.43300 28.41500
C  42.14000 42.01100 29.84400
C  42.67400 40.51100 29.77100
C  43.13100 40.33500 28.34900
C  43.79700 40.22100 30.81900
C  40.68200 42.01800 30.48200
C  40.48800 41.32000 31.82200
H  39.78600 42.08400 32.96500
N  43.54100 39.35400 25.43100
C  43.95200 38.67200 26.54000
C  44.67400 37.47500 26.18800
C  44.60200 37.36500 24.76700
C  43.90300 38.61000 24.34800
C  45.21900 36.49400 27.15400
C  45.11800 36.28000 23.79600
O  45.01500 36.24800 22.57100
C  45.62000 35.00800 24.48500
N  42.69100 41.17800 23.31000
C  43.13800 40.23600 22.51900
C  42.97600 40.49400 21.02000
C  42.37500 41.95900 20.97300
C  42.19800 42.21400 22.44700
C  44.32200 40.35600 20.26400
C  41.10100 42.24300 20.17800
C  41.09000 43.39300 19.17000
N  41.86100 43.08700 25.26200
C  41.49800 43.88300 24.23400
C  41.11100 45.19700 24.70000
C  41.05700 45.13600 26.06800
C  41.54800 43.82100 26.38100
C  40.77600 46.42900 23.84400
C  40.73200 45.84900 27.32000
O  40.33700 46.97200 27.50600
C  40.99800 44.76400 28.44400
C  41.85300 45.44400 29.46700
O  43.05600 45.65000 29.30100
O  41.04400 45.83600 30.53000
C  41.82600 46.11900 31.74500
H  43.86300 38.42700 28.71200
H  44.09700 38.43500 22.19200
H  41.54000 44.18800 22.08700
H  42.83800 42.60100 30.43900
H  41.87800 39.78400 29.93200
H  43.60000 40.85500 31.68300
H  44.72700 40.38100 30.27200
H  43.64300 39.14900 30.94200
H  40.00000 41.52700 29.78700
H  40.33400 43.05100 30.46200
H  41.47500 41.07900 32.21700
H  39.95400 40.38100 31.67800
H  45.02400 36.82400 28.17500
H  46.29500 36.44000 26.99000
H  44.82100 35.50200 26.94400
H  44.74800 34.59300 24.98900
H  46.41800 35.15500 25.21300
H  45.94700 34.33000 23.69600
H  42.28900 39.83400 20.49000
H  43.06700 42.71100 20.59500
H  45.15900 40.16500 20.93500
H  44.51900 41.27000 19.70300
H  44.22500 39.47700 19.62800
H  40.35300 42.48300 20.93500
H  40.84900 41.30900 19.67600
H  42.12500 43.71800 19.05900
H  40.51800 44.22700 19.57700
H  40.72600 42.95000 18.24400
H  40.52000 46.19400 22.81100
H  41.58700 47.15400 23.78000
H  39.97200 46.94700 24.36700
H  40.01500 44.47300 28.81400
H  41.31800 45.64800 32.58700
H  41.83200 47.17500 32.01600
H  42.86700 45.80100 31.79100

