158

Mg 17.30500 -1.67200 27.27100
C  16.05400 0.24400 29.89700
C  19.08600 -3.50800 29.47700
C  19.02900 -2.90600 24.63800
C  15.59600 0.57800 25.02300
N  17.77400 -1.41700 29.35300
C  17.01600 -0.69200 30.25600
C  17.38700 -1.02100 31.69500
C  18.66400 -1.91300 31.52300
C  18.48100 -2.34500 30.03900
C  20.02700 -1.20100 31.84600
C  16.14700 -1.72900 32.39500
C  15.77600 -1.29200 33.84500
H  16.91700 -0.70200 34.66200
N  18.64500 -3.21800 27.03800
C  19.19500 -3.93200 28.10000
C  19.91900 -5.04700 27.56000
C  19.82500 -4.91300 26.11800
C  19.18200 -3.61000 25.86100
C  20.60300 -6.11300 28.33300
C  20.43100 -5.73600 25.01600
O  20.40700 -5.35200 23.82900
C  21.04800 -7.09100 25.35000
N  17.42500 -1.09200 25.19800
C  18.28100 -1.75500 24.42000
C  18.02000 -1.43700 22.97100
C  16.81700 -0.45000 22.98200
C  16.55600 -0.31600 24.46000
C  19.27700 -0.97200 22.23800
C  15.62900 -0.99800 22.16800
C  15.05800 -0.04700 21.00300
N  16.00400 0.02700 27.41600
C  15.33700 0.72600 26.44300
C  14.44600 1.67000 27.04100
C  14.75900 1.61500 28.39500
C  15.66200 0.57900 28.58900
C  13.61900 2.64100 26.29600
C  14.36600 2.13100 29.66300
O  13.53700 2.90200 30.06000
C  15.26400 1.30400 30.75200
C  16.13400 2.31300 31.49100
O  17.26000 2.68800 31.18500
O  15.50300 2.48900 32.73000
C  16.28400 3.39900 33.63100
H  19.65800 -4.08700 30.20600
H  19.51400 -3.31000 23.74600
H  14.99700 1.23600 24.38900
H  17.62600 -0.04800 32.12500
H  18.61600 -2.83500 32.10400
H  19.93500 -0.17300 32.19800
H  20.52900 -1.17600 30.87900
H  20.65700 -1.82400 32.48100
H  16.31900 -2.80400 32.44700
H  15.26400 -1.69300 31.75700
H  15.35200 -2.18800 34.29800
H  15.07200 -0.46200 33.78500
H  20.25800 -6.05600 29.36500
H  21.69100 -6.15900 28.38800
H  20.26400 -7.09800 28.01100
H  21.83700 -6.98400 26.09500
H  21.55200 -7.45000 24.45200
H  20.32700 -7.85000 25.65300
H  17.54600 -2.32900 22.56100
H  17.09000 0.52900 22.58800
H  19.95300 -0.41900 22.89100
H  18.94400 -0.35600 21.40300
H  19.87700 -1.81000 21.88400
H  14.82800 -1.20300 22.87900
H  15.80000 -1.93600 21.63900
H  14.02700 0.28700 21.11600
H  15.03000 -0.58900 20.05700
H  15.73300 0.74200 20.67100
H  13.06800 2.12000 25.51300
H  14.23500 3.30900 25.69400
H  12.95900 3.15800 26.99400
H  14.64600 0.83700 31.51800
H  17.35400 3.28900 33.45200
H  16.11800 3.07900 34.66000
H  15.99300 4.41400 33.35900
Mg 25.43000 1.09200 29.27300
C  27.37300 0.60700 32.23000
C  22.68200 1.71000 31.13900
C  23.78400 1.31700 26.44100
C  28.41300 0.14300 27.43400
N  25.03500 0.89100 31.46300
C  25.99100 0.91000 32.51000
C  25.38100 1.36000 33.82800
C  23.84300 1.51100 33.44300
C  23.84400 1.48500 31.94000
C  22.98000 0.33000 34.14700
C  25.94900 2.73400 34.45000
C  26.44900 2.82800 35.85400
H  25.98700 3.94600 36.77300
N  23.45300 1.29800 28.91700
C  22.46900 1.58100 29.79100
C  21.22700 1.70200 29.06900
C  21.56700 1.59500 27.66200
C  23.03600 1.44100 27.62400
C  19.92800 1.81500 29.70500
C  20.62500 1.65900 26.39700
O  21.01000 1.59200 25.25800
C  19.20400 1.83600 26.65300
N  26.11100 0.80300 27.29600
C  25.19800 1.03100 26.27400
C  25.83600 0.98600 24.86900
C  27.35700 0.61700 25.20100
C  27.33100 0.57500 26.72800
C  25.19300 0.00200 23.80800
C  28.38900 1.65100 24.68900
C  28.46900 2.14000 23.24300
N  27.45400 0.54800 29.71500
C  28.56100 0.24100 28.85600
C  29.71200 -0.07600 29.72500
C  29.32100 0.18500 31.07500
C  27.94600 0.48800 30.97100
C  30.95600 -0.72400 29.18600
C  29.73700 0.17400 32.42300
O  30.83300 -0.20000 32.87600
C  28.49100 0.54000 33.24700
C  28.37900 -0.46300 34.28600
O  27.67100 -1.46600 34.27300
O  29.22600 -0.17400 35.31300
C  29.32700 -1.00400 36.46700
H  21.91000 2.05800 31.82800
H  23.24600 1.44600 25.50000
H  29.32800 0.12800 26.83900
H  25.71700 0.56800 34.49600
H  23.43000 2.43800 33.84000
H  22.89600 0.54800 35.21200
H  23.40100 -0.65000 33.92600
H  22.01500 0.36000 33.64000
H  25.10900 3.42500 34.37300
H  26.75900 3.17300 33.86700
H  27.45500 3.22600 35.71800
H  26.29900 1.86300 36.33900
H  19.99300 1.57100 30.76500
H  19.28200 1.10800 29.18400
H  19.48900 2.80200 29.56100
H  19.09500 2.80100 27.14800
H  18.82400 1.00400 27.24600
H  18.74000 1.73200 25.67200
H  25.79300 1.99900 24.46900
H  27.59500 -0.35200 24.76200
H  24.64100 -0.86600 24.17100
H  26.00500 -0.36100 23.17800
H  24.47300 0.55400 23.20500
H  29.39300 1.25900 24.84600
H  28.26600 2.54200 25.30400
H  29.43100 2.17800 22.73200
H  28.08600 3.14000 23.04300
H  27.93100 1.40600 22.64300
H  31.53900 -0.09600 28.51200
H  30.63300 -1.56000 28.56600
H  31.61400 -1.12900 29.95500
H  28.72800 1.50100 33.70400
H  28.38300 -0.82400 36.98100
H  30.13500 -0.66900 37.11800
H  29.44200 -2.08300 36.36700

