158

Mg 1.80700 -1.81700 43.58400
C  5.23500 -0.80200 43.94700
C  1.37500 0.97400 41.62000
C  -1.19900 -2.97800 43.00700
C  2.80300 -4.99400 44.91400
N  3.14600 -0.07000 42.84000
C  4.45300 0.02500 43.15200
C  5.04400 1.26700 42.46000
C  3.81100 1.94300 41.75400
C  2.70500 0.93100 42.03600
C  3.45300 3.35800 42.36200
C  6.21800 1.08700 41.45200
C  6.33500 -0.18700 40.59300
H  6.40800 0.18400 39.08000
N  0.18700 -1.06500 42.56700
C  0.21200 0.09600 41.81700
C  -1.14400 0.34000 41.35400
C  -1.94200 -0.77400 41.66100
C  -1.03100 -1.71900 42.41300
C  -1.46900 1.57200 40.56700
C  -3.42500 -0.98700 41.39900
O  -4.08400 -0.23400 40.70900
C  -4.15600 -2.18200 41.95700
N  0.99200 -3.81100 43.58000
C  -0.33900 -3.93000 43.56200
C  -0.80400 -5.23200 44.22200
C  0.51600 -5.93800 44.50700
C  1.48100 -4.81400 44.38600
C  -1.71500 -4.93400 45.48200
C  0.93500 -7.11600 43.62600
C  0.73700 -8.45900 44.38500
N  3.60600 -2.75700 44.35200
C  3.88100 -4.05300 44.79200
C  5.32200 -4.13700 45.25900
C  5.87800 -2.87200 44.94500
C  4.83400 -2.10100 44.33900
C  5.91000 -5.19100 46.08600
C  7.01900 -1.92400 45.07300
O  8.08900 -2.04600 45.62800
C  6.71400 -0.71400 44.26300
C  6.99000 0.52900 45.01500
O  6.52000 0.77300 46.08400
O  7.78200 1.43100 44.33100
C  7.81700 2.79700 44.89900
H  1.19600 1.86800 41.01800
H  -2.23600 -3.31700 42.95700
H  2.99700 -5.89500 45.49900
H  5.52700 1.88900 43.21400
H  3.96400 2.02500 40.67800
H  4.35000 3.85100 42.73600
H  2.63900 3.40300 43.08600
H  3.18700 4.02100 41.53900
H  7.17300 1.28300 41.94100
H  6.21300 1.89100 40.71700
H  5.46800 -0.81600 40.79500
H  7.24500 -0.64400 40.98200
H  -0.70600 1.77800 39.81700
H  -1.46100 2.43000 41.24000
H  -2.41500 1.41000 40.05000
H  -5.22600 -2.15900 41.75000
H  -4.09300 -2.06100 43.03800
H  -3.69800 -3.09900 41.58500
H  -1.45000 -5.77000 43.52800
H  0.43500 -6.24700 45.54900
H  -1.47700 -5.54700 46.35100
H  -2.72900 -5.22400 45.20500
H  -1.60500 -3.87200 45.70200
H  2.00000 -7.05000 43.40300
H  0.51200 -7.15000 42.62200
H  -0.02800 -8.38000 45.15700
H  1.70100 -8.70700 44.82800
H  0.44200 -9.32400 43.79200
H  6.28500 -5.98200 45.43700
H  5.11000 -5.57800 46.71800
H  6.79500 -4.88000 46.64100
H  7.45100 -0.77500 43.46200
H  6.84800 3.26300 44.72300
H  8.62400 3.36600 44.43600
H  8.07800 2.74200 45.95600
Mg -1.49000 34.78000 26.76600
C  -3.19100 33.31900 29.49100
C  0.16700 36.85700 29.16100
C  -0.19900 36.52200 24.30100
C  -3.07700 32.64500 24.58500
N  -1.61900 35.13800 29.08600
C  -2.36600 34.33200 29.94400
C  -2.13400 34.80100 31.39900
C  -1.00000 35.91000 31.27500
C  -0.80800 35.97200 29.72600
C  -1.34100 37.31100 31.87600
C  -1.93100 33.60000 32.36500
C  -0.96900 33.70500 33.50700
H  -1.06900 32.75600 34.62500
N  -0.21600 36.40200 26.74400
C  0.48000 37.02800 27.77500
C  1.30400 38.03100 27.24900
C  1.10100 37.96600 25.83600
C  0.15500 36.97100 25.59000
C  2.05600 38.98800 28.22700
C  1.77100 38.85000 24.72300
O  1.54300 38.71200 23.52100
C  2.90400 39.75100 25.12500
N  -1.79000 34.72000 24.77800
C  -1.03200 35.42900 23.95800
C  -1.15700 34.87900 22.54400
C  -1.96700 33.60800 22.59900
C  -2.24900 33.61400 24.06100
C  -1.78600 35.93600 21.55500
C  -1.27900 32.28300 21.97100
C  -0.33600 31.43100 22.82200
N  -2.96300 33.30600 26.94800
C  -3.51300 32.49700 25.94400
C  -4.43600 31.52700 26.55700
C  -4.35500 31.82600 27.93400
C  -3.41700 32.94300 28.10800
C  -5.36900 30.52900 25.83200
C  -4.80700 31.47500 29.24900
O  -5.58500 30.62800 29.54800
C  -4.10200 32.33200 30.32700
C  -5.21100 32.97500 31.04700
O  -5.50200 34.19000 31.08100
O  -5.66800 32.17400 32.07700
C  -6.49000 32.76000 33.07400
H  0.69200 37.39600 29.95200
H  0.40600 36.80100 23.43700
H  -3.34400 31.86900 23.86500
H  -3.05000 35.29700 31.72000
H  -0.06900 35.59000 31.74300
H  -0.61000 37.65200 32.61000
H  -2.30600 37.28000 32.38300
H  -1.31100 38.11100 31.13700
H  -1.50400 32.84300 31.70700
H  -2.87200 33.23500 32.77700
H  -1.00900 34.69400 33.96400
H  0.06100 33.62000 33.16200
H  1.39600 39.85200 28.30300
H  3.00300 39.29200 27.78200
H  2.33700 38.54300 29.18200
H  3.81900 39.20300 25.35100
H  2.62600 40.40700 25.95000
H  3.12500 40.35500 24.24400
H  -0.18400 34.66300 22.10400
H  -2.97600 33.72400 22.20300
H  -2.08500 36.75500 22.20800
H  -2.57500 35.51100 20.93500
H  -1.01400 36.37800 20.92500
H  -0.84700 32.43000 20.98100
H  -2.14100 31.73100 21.59600
H  0.57500 31.17600 22.28100
H  -0.91900 30.51700 22.93400
H  -0.10300 31.81600 23.81500
H  -4.79000 29.88100 25.17400
H  -6.13300 31.12600 25.33400
H  -5.94900 30.07400 26.63600
H  -3.56700 31.63900 30.97600
H  -7.40500 33.19600 32.67300
H  -5.92800 33.54600 33.57800
H  -6.59600 31.96400 33.81200

