158

Mg 55.45700 23.93000 45.02100
C  53.05200 26.42600 44.41400
C  53.39300 21.57800 43.68600
C  58.07800 21.86400 44.81700
C  57.59100 26.46000 46.18100
N  53.56200 24.09900 43.96200
C  52.69200 25.12300 43.92900
C  51.33400 24.69000 43.39000
C  51.36400 23.18700 43.69800
C  52.87400 22.87900 43.74900
C  50.70900 22.80800 45.09200
C  51.00900 25.01600 41.96100
C  49.61100 24.63400 41.48900
H  49.38600 24.52600 39.95400
N  55.71900 21.92200 44.26900
C  54.69900 21.20300 43.78700
C  55.22100 19.87300 43.52100
C  56.66300 19.91300 43.72500
C  56.91000 21.26400 44.30800
C  54.35100 18.82700 43.01600
C  57.65900 18.81600 43.45000
O  57.37200 17.68600 43.08700
C  59.14900 19.04000 43.60700
N  57.55600 24.22400 45.31700
C  58.34900 23.10500 45.36100
C  59.81600 23.44100 45.90700
C  59.66100 24.90800 46.26600
C  58.18400 25.22900 45.88700
C  60.33600 22.46200 47.08100
C  60.66000 25.96300 45.72100
C  61.75100 26.48900 46.66100
N  55.34800 26.02400 45.34200
C  56.30100 26.92400 45.84700
C  55.76500 28.28300 45.89400
C  54.44900 28.06100 45.35500
C  54.25900 26.72000 44.98100
C  56.31200 29.53900 46.32400
C  53.14800 28.78700 45.11300
O  52.87100 29.97100 45.24000
C  52.22000 27.72400 44.47800
C  51.68000 28.22500 43.15900
O  52.30500 28.48600 42.18000
O  50.34400 28.38000 43.28900
C  49.52700 28.57300 42.05600
H  52.72500 20.79300 43.32600
H  58.96100 21.22500 44.75200
H  58.26300 27.21300 46.59800
H  50.49200 25.12000 43.93300
H  50.82800 22.60400 42.94900
H  50.04900 23.58700 45.47400
H  51.44900 22.46300 45.81400
H  49.90900 22.09300 44.89900
H  51.68800 24.40300 41.36700
H  51.29000 26.03800 41.71000
H  48.99800 25.38600 41.98600
H  49.18200 23.74200 41.94600
H  55.00100 17.95300 42.96800
H  53.98800 19.02700 42.00800
H  53.49300 18.54500 43.62600
H  59.40700 19.97200 43.10300
H  59.73200 18.15100 43.36600
H  59.24300 19.20700 44.68000
H  60.35800 23.33300 44.96700
H  59.58600 25.14300 47.32800
H  60.76400 22.97100 47.94600
H  61.19000 21.95200 46.63500
H  59.55300 21.74100 47.31300
H  60.12800 26.78400 45.24000
H  61.26500 25.46600 44.96400
H  62.66600 26.42200 46.07200
H  61.70800 25.86200 47.55100
H  61.58500 27.56200 46.76000
H  56.67300 30.19600 45.53300
H  57.19800 29.28500 46.90400
H  55.57700 30.05400 46.94400
H  51.36700 27.60900 45.14700
H  48.90400 29.43800 42.28500
H  48.97200 27.63500 42.02800
H  50.13900 28.82500 41.19000
Mg 26.70000 49.61900 25.50200
C  24.67000 50.94400 28.22900
C  29.17600 48.92100 27.80800
C  28.41800 48.45300 23.08300
C  24.35000 51.01700 23.30400
N  26.89900 49.88400 27.71300
C  25.93200 50.35300 28.64800
C  26.40500 50.16600 30.13600
C  27.95300 49.82100 29.89900
C  28.03700 49.44000 28.40700
C  28.87600 51.03000 30.23600
C  25.60800 49.13100 31.09000
C  25.27400 49.64400 32.47100
H  26.26100 50.30700 33.37100
N  28.53500 48.72400 25.50000
C  29.42100 48.54600 26.50900
C  30.57800 47.82300 26.03600
C  30.27200 47.44600 24.66300
C  28.99100 48.16700 24.33400
C  31.81900 47.44700 27.03900
C  30.86900 46.42700 23.75400
O  30.37000 46.33800 22.62700
C  31.92300 45.53900 24.11400
N  26.42400 49.78600 23.47000
C  27.31100 49.21600 22.67500
C  27.12600 49.65000 21.17000
C  25.74100 50.41100 21.21300
C  25.41700 50.39900 22.73200
C  28.25400 50.41200 20.37300
C  24.61200 49.74300 20.28900
C  23.85000 48.48000 20.75500
N  25.00400 50.78600 25.68600
C  24.07800 51.21700 24.68300
C  23.00700 51.97300 25.26600
C  23.25900 51.90400 26.63400
C  24.42500 51.17600 26.85400
C  21.81000 52.47800 24.61500
C  22.59000 52.20900 27.88500
O  21.50800 52.68600 28.10100
C  23.60900 51.75000 28.96600
C  24.19700 52.90300 29.75100
O  25.14800 53.55800 29.40300
O  23.59900 53.15100 30.88000
C  24.12900 54.21500 31.73300
H  29.93300 48.62500 28.53800
H  28.94900 48.23600 22.15500
H  23.64700 51.41600 22.57000
H  26.19900 51.11400 30.63300
H  28.18000 49.12300 30.70400
H  29.76000 51.16800 29.61400
H  29.08200 50.78400 31.27800
H  28.30700 51.95900 30.20600
H  26.25100 48.26400 31.24200
H  24.85300 48.65100 30.46700
H  24.97600 48.69300 32.91200
H  24.38000 50.26800 32.48900
H  31.91200 48.19600 27.82500
H  32.74700 47.45100 26.46700
H  31.86600 46.46100 27.50200
H  31.69300 44.62900 23.55900
H  31.85700 45.33800 25.18300
H  32.85600 45.98900 23.77600
H  27.20600 48.69300 20.65600
H  25.84500 51.42800 20.83400
H  27.93400 50.69000 19.36800
H  29.20800 49.88800 20.33700
H  28.52700 51.32100 20.90900
H  25.19100 49.46700 19.40700
H  23.97600 50.59100 20.03300
H  23.99300 47.75300 19.95600
H  22.81100 48.76300 20.92100
H  24.18400 47.95400 21.65000
H  21.88100 53.44000 24.10700
H  20.95700 52.54200 25.29000
H  21.33000 51.80900 23.90100
H  23.12600 51.16800 29.75200
H  24.04200 55.15000 31.18000
H  25.12200 53.89300 32.04900
H  23.53800 54.15700 32.64700

