158

Mg 30.61700 58.21700 38.97900
C  27.93200 56.23100 37.97100
C  32.69600 55.43700 38.43100
C  33.32600 60.22600 39.23300
C  28.43100 61.05600 38.79800
N  30.26200 56.07700 38.33900
C  29.11600 55.50800 37.83600
C  29.36600 54.06300 37.32900
C  30.81600 53.74600 37.84900
C  31.33600 55.20900 38.11300
C  30.98100 52.78300 39.08300
C  29.18300 53.86400 35.74600
C  29.15600 55.22100 34.92900
H  27.98200 55.48700 33.98200
N  32.74100 57.84600 38.98200
C  33.34100 56.62400 38.75200
C  34.80200 56.82900 38.75500
C  34.97000 58.22900 38.98100
C  33.68600 58.83800 39.01300
C  35.78400 55.69500 38.45500
C  36.31400 58.95700 39.05600
O  37.36400 58.27600 39.00500
C  36.52700 60.40100 39.46100
N  30.84200 60.23900 39.05300
C  32.03400 60.87100 39.32000
C  31.93000 62.40100 39.39600
C  30.40300 62.56600 39.14100
C  29.85500 61.19100 38.97700
C  32.43300 63.11800 40.71200
C  30.13100 63.50000 37.86600
C  30.51200 64.98400 38.06200
N  28.57000 58.61400 38.67000
C  27.85000 59.75100 38.58900
C  26.41600 59.38900 38.29000
C  26.50000 57.98400 38.11000
C  27.80000 57.60900 38.29200
C  25.26200 60.30300 38.18400
C  25.69100 56.90700 37.63900
O  24.48400 56.99400 37.36900
C  26.57500 55.64100 37.50900
C  26.01700 54.65500 38.59700
O  26.29900 54.64600 39.82400
O  25.38300 53.59900 37.97600
C  25.25400 52.43200 38.81500
H  33.38100 54.59600 38.30400
H  34.09900 60.98100 39.39400
H  27.64200 61.81000 38.81600
H  28.63700 53.33500 37.68500
H  31.40700 53.30200 37.04700
H  29.99000 52.44900 39.38900
H  31.29900 53.47600 39.86200
H  31.80600 52.11000 38.85100
H  28.16000 53.51200 35.62000
H  29.98200 53.25700 35.32000
H  30.04500 55.30000 34.30300
H  29.16800 56.13000 35.53000
H  35.40700 55.27900 37.52100
H  35.80200 54.95900 39.25800
H  36.75300 56.09600 38.15800
H  35.89300 60.69500 40.29800
H  36.38300 61.02600 38.58000
H  37.58500 60.50300 39.70100
H  32.56900 62.86300 38.64400
H  29.84300 63.06100 39.93300
H  31.65600 63.72400 41.17700
H  33.28300 63.72200 40.39300
H  32.72300 62.25800 41.31500
H  29.04400 63.50600 37.78800
H  30.61700 63.16200 36.95100
H  31.11000 64.98900 38.97300
H  29.61900 65.60600 38.12800
H  31.17300 65.60800 37.45900
H  24.28900 59.81400 38.13900
H  25.45300 60.96000 37.33600
H  25.20800 61.00800 39.01300
H  26.66800 55.23500 36.50200
H  26.27400 52.19300 39.11700
H  24.77200 51.64200 38.23900
H  24.63500 52.53800 39.70600
Mg -10.73400 16.85500 41.08400
C  -7.27300 16.41400 41.24400
C  -10.23400 20.14600 40.47400
C  -13.95800 16.98300 39.95900
C  -11.06000 13.42900 41.76800
N  -8.89600 18.08900 40.72200
C  -7.60000 17.65200 40.80600
C  -6.62500 18.89700 40.60100
C  -7.54900 20.14300 40.81200
C  -8.97200 19.43800 40.63000
C  -7.41600 20.70400 42.21900
C  -5.96000 18.83400 39.13800
C  -4.35200 18.65900 39.04200
H  -3.90700 17.40400 38.35500
N  -11.95900 18.31400 40.40100
C  -11.55300 19.62200 40.22900
C  -12.59800 20.42900 39.71000
C  -13.68900 19.54500 39.50900
C  -13.22500 18.18000 39.93900
C  -12.34600 21.87100 39.30700
C  -15.04000 19.85200 38.90500
O  -15.13700 21.05100 38.59500
C  -16.14500 18.96300 38.58500
N  -12.30900 15.39200 40.80900
C  -13.58400 15.71200 40.50400
C  -14.53400 14.54700 40.66900
C  -13.59500 13.44900 41.22300
C  -12.18100 14.10200 41.25000
C  -15.70700 14.91100 41.58000
C  -13.72800 11.99000 40.62200
C  -13.16900 11.76200 39.19300
N  -9.49200 15.18300 41.47300
C  -9.78300 13.90000 41.78300
C  -8.51300 13.18800 42.08400
C  -7.51500 14.10800 41.89500
C  -8.16700 15.33300 41.56100
C  -8.33400 11.72600 42.45100
C  -6.11400 14.28700 41.92300
O  -5.20800 13.44400 42.16400
C  -5.84400 15.84500 41.46100
C  -5.10100 16.56600 42.51500
O  -5.57000 17.43000 43.23700
O  -3.75400 16.23300 42.44300
C  -2.96800 17.02700 43.35400
H  -9.91900 21.17400 40.28300
H  -14.96300 16.87900 39.54400
H  -11.31000 12.40900 42.06700
H  -5.80500 19.05300 41.30200
H  -7.43800 20.94200 40.07900
H  -7.44300 19.85000 42.89500
H  -8.14300 21.44500 42.55300
H  -6.48800 21.27600 42.19300
H  -6.27200 19.78100 38.69600
H  -6.46600 18.16900 38.43900
H  -3.79000 18.84900 39.95700
H  -4.10200 19.40000 38.28300
H  -12.88500 22.31400 38.47000
H  -11.29000 21.93800 39.04500
H  -12.57700 22.50400 40.16400
H  -16.73200 18.60100 39.42900
H  -15.74500 18.12200 38.02000
H  -16.83800 19.48500 37.92500
H  -14.91100 14.24700 39.69200
H  -13.90600 13.23900 42.24700
H  -15.70600 15.98700 41.75100
H  -15.54700 14.50700 42.57900
H  -16.57900 14.51100 41.06200
H  -14.81300 11.89500 40.58000
H  -13.38800 11.24600 41.34300
H  -13.89500 11.22300 38.58400
H  -12.24600 11.18300 39.22700
H  -12.89700 12.69100 38.69100
H  -7.26200 11.55200 42.36000
H  -8.86500 11.02700 41.80600
H  -8.62600 11.52200 43.48200
H  -5.22800 15.69600 40.57400
H  -1.93000 16.73500 43.19700
H  -3.24600 16.79400 44.38200
H  -2.94500 18.11300 43.26600

