158

Mg 47.37900 14.97200 28.14700
C  45.43000 14.89500 31.06700
C  49.49300 17.25000 29.66400
C  49.07800 15.29900 25.19500
C  44.92400 13.14800 26.51000
N  47.39300 16.01200 30.09500
C  46.59400 15.71200 31.18800
C  47.14600 16.33000 32.51700
C  48.22300 17.36400 32.00200
C  48.42500 16.85200 30.50600
C  47.75400 18.84300 31.80800
C  47.70400 15.27100 33.52000
C  47.56200 15.73500 34.99900
H  48.76400 15.57600 35.86700
N  49.15400 16.04200 27.58200
C  49.87300 16.88500 28.36900
C  51.10200 17.35600 27.64200
C  50.99900 16.72300 26.35700
C  49.71200 15.96400 26.34400
C  52.08500 18.41900 28.08200
C  51.95200 16.66300 25.14500
O  51.78600 16.02100 24.11900
C  53.33300 17.35400 25.28700
N  47.02000 14.47600 26.14300
C  47.86000 14.66000 25.11900
C  47.28800 14.02400 23.77400
C  46.07700 13.22600 24.28400
C  46.01300 13.59300 25.72400
C  46.83900 14.95700 22.65600
C  45.99700 11.69000 23.99500
C  47.02700 10.75500 24.63100
N  45.60400 14.16700 28.63100
C  44.71600 13.36800 27.88800
C  43.52000 13.13100 28.65300
C  43.79000 13.63100 29.89200
C  45.02000 14.24200 29.84300
C  42.32600 12.42700 28.23800
C  43.27200 13.79000 31.28200
O  42.24700 13.32300 31.72900
C  44.37100 14.60400 32.10800
C  43.71800 15.81100 32.83200
O  42.92300 16.59100 32.35400
O  44.23900 15.95500 34.09200
C  43.94800 17.18100 34.87300
H  50.26200 17.88200 30.11400
H  49.69300 15.23100 24.29500
H  44.20400 12.55600 25.94100
H  46.30000 16.81400 33.00500
H  49.13700 17.45500 32.58900
H  48.57300 19.52500 32.03700
H  46.90900 19.10300 32.44600
H  47.42500 18.99000 30.78000
H  48.74100 15.05300 33.26500
H  47.16000 14.32800 33.46300
H  46.85700 14.98900 35.36800
H  47.04400 16.69400 35.00700
H  51.96800 19.26500 27.40400
H  53.13900 18.15300 28.00000
H  51.85200 18.81500 29.07000
H  53.20400 18.43500 25.33700
H  53.94400 17.18600 24.39900
H  53.89900 17.08600 26.17900
H  47.91100 13.17500 23.49200
H  45.14900 13.70300 23.97000
H  46.72700 14.36300 21.74900
H  47.51500 15.78200 22.43300
H  45.87400 15.42300 22.85400
H  46.14800 11.60000 22.91900
H  45.07700 11.20100 24.31500
H  46.57900 9.79300 24.88100
H  47.36800 11.11000 25.60300
H  47.82900 10.50300 23.93800
H  42.02100 11.75800 29.04300
H  42.54200 11.89200 27.31400
H  41.45500 13.06200 28.07900
H  44.77500 13.92500 32.85900
H  42.88500 17.18000 35.11400
H  44.36000 18.02500 34.32100
H  44.51800 17.34600 35.78700
Mg 26.06800 52.29200 25.56100
C  23.94200 52.95300 28.37900
C  28.46700 51.48100 27.76300
C  28.20100 52.33100 22.97300
C  23.56600 53.52000 23.45200
N  26.21600 52.36200 27.90000
C  25.18800 52.48700 28.75700
C  25.60600 52.05400 30.17900
C  27.12700 51.62000 29.95800
C  27.33700 51.82600 28.46100
C  28.09600 52.47100 30.81400
C  24.82500 50.94600 30.93400
C  24.25800 51.24600 32.34900
H  24.74500 50.47800 33.62500
N  28.11500 52.00700 25.42500
C  28.90900 51.65100 26.40500
C  30.21400 51.34600 25.85300
C  30.15900 51.57900 24.40300
C  28.81700 51.98300 24.22500
C  31.36100 50.67000 26.72500
C  31.22600 51.34100 23.32700
O  31.09500 51.59900 22.14800
C  32.54300 51.01900 23.83700
N  25.95800 52.79700 23.55400
C  26.93700 52.71400 22.62400
C  26.48200 53.17900 21.18600
C  24.95300 53.14600 21.40800
C  24.81500 53.20200 22.91700
C  26.98100 54.58100 20.78600
C  24.33800 51.86200 20.82600
C  23.92600 51.89200 19.38900
N  24.16600 53.05800 25.72100
C  23.19400 53.39500 24.75200
C  21.95100 53.71200 25.46600
C  22.23600 53.56900 26.85300
C  23.56200 53.15300 26.97500
C  20.64500 53.97200 24.81100
C  21.62700 53.61600 28.17900
O  20.54900 53.97700 28.63000
C  22.76800 53.11200 29.16500
C  22.86800 54.24200 30.10100
O  23.61200 55.20100 30.03400
O  22.04700 54.01000 31.15000
C  22.22700 54.86300 32.42400
H  29.19600 51.01000 28.42700
H  28.73100 52.36500 22.01900
H  22.77000 53.80800 22.76200
H  25.50000 52.99500 30.71900
H  27.30600 50.58200 30.23600
H  28.77500 51.85700 31.40600
H  27.51100 53.15900 31.42500
H  28.75800 53.09000 30.20900
H  25.43000 50.08300 31.21200
H  23.94300 50.72300 30.33400
H  23.17000 51.19000 32.39200
H  24.44000 52.29800 32.56800
H  31.73400 49.79300 26.19600
H  31.12900 50.40900 27.75700
H  32.21400 51.34300 26.81700
H  32.53700 49.97900 24.16500
H  32.76500 51.74600 24.61800
H  33.27600 51.27100 23.07100
H  26.72400 52.43400 20.42800
H  24.46300 54.01400 20.96700
H  26.90400 54.50300 19.70100
H  28.03500 54.58800 21.06200
H  26.41100 55.41300 21.20000
H  23.36900 51.77000 21.31700
H  24.89000 50.99700 21.19500
H  24.36400 52.70500 18.81000
H  22.84700 51.84600 19.23700
H  24.29400 51.02000 18.85000
H  20.70900 53.61900 23.78200
H  20.48900 55.03700 24.64300
H  19.90700 53.44100 25.41300
H  22.57600 52.24800 29.80100
H  22.91700 54.27400 33.02900
H  21.23300 54.96700 32.85900
H  22.57500 55.88000 32.24500

