158

Mg 30.28100 59.97000 39.30100
C  27.23900 58.35400 38.04900
C  32.01900 57.25400 38.21400
C  33.14600 61.66000 39.75000
C  28.25700 62.79200 39.76600
N  29.67500 58.10300 37.98800
C  28.42400 57.61900 37.78600
C  28.58600 56.31800 37.02100
C  29.94500 55.82000 37.51700
C  30.60700 57.12200 37.95400
C  30.02300 54.70600 38.64600
C  28.29200 56.53400 35.47900
C  27.14200 55.74900 34.78400
H  26.25400 56.41700 33.81600
N  32.33600 59.50600 39.04200
C  32.80300 58.32700 38.65200
C  34.19600 58.37400 38.65800
C  34.62000 59.61000 39.15900
C  33.38300 60.33800 39.38000
C  35.09000 57.30800 38.02700
C  36.03800 60.05500 39.39900
O  36.94100 59.33900 39.06000
C  36.32200 61.27000 40.13500
N  30.63400 61.93000 39.62000
C  31.86800 62.37700 39.83400
C  31.80100 63.94600 39.82100
C  30.29600 64.21200 40.19600
C  29.66000 62.88500 39.88000
C  32.81500 64.68200 40.79900
C  29.68600 65.42800 39.47000
C  28.83600 66.39900 40.43200
N  28.13000 60.52100 39.05300
C  27.51600 61.70100 39.33800
C  26.05300 61.56400 39.16000
C  25.88100 60.18700 38.67600
C  27.18100 59.64400 38.64800
C  24.90300 62.60000 39.22000
C  24.89800 59.24900 38.21000
O  23.66700 59.33300 38.11200
C  25.80600 57.94600 37.84000
C  25.26700 56.83500 38.58200
O  25.72300 56.43600 39.67300
O  24.18600 56.32200 37.93400
C  23.49400 55.22500 38.61000
H  32.55600 56.37900 37.84100
H  33.98900 62.35400 39.73300
H  27.68000 63.70900 39.89700
H  27.94000 55.51600 37.38000
H  30.53700 55.44700 36.68100
H  30.79800 55.03100 39.34000
H  30.39300 53.76300 38.24300
H  29.12500 54.66900 39.26400
H  29.17500 56.26400 34.89800
H  28.02800 57.59000 35.43100
H  26.44400 55.26500 35.46800
H  27.59400 54.86500 34.33400
H  34.57400 56.68600 37.29500
H  35.59900 56.79500 38.84300
H  35.92500 57.72200 37.46100
H  37.25900 61.24300 40.69100
H  35.57000 61.27700 40.92400
H  36.27600 62.19700 39.56300
H  32.05600 64.38100 38.85400
H  30.22000 64.30300 41.28000
H  33.50800 64.01900 41.31700
H  32.24000 65.17300 41.58300
H  33.32800 65.44700 40.21600
H  29.04100 65.11200 38.65100
H  30.55800 66.03400 39.22500
H  28.74700 66.01600 41.44900
H  27.83900 66.59900 40.03800
H  29.45400 67.24400 40.73400
H  24.02700 62.11700 38.78800
H  25.27600 63.51400 38.75700
H  24.75000 62.78000 40.28400
H  25.66100 57.69300 36.78900
H  23.99800 54.32300 38.26500
H  22.44500 55.19000 38.31500
H  23.62000 55.30400 39.69000
Mg 15.19400 51.20000 25.96400
C  17.68300 50.61800 28.45100
C  12.97000 51.58500 28.57600
C  12.98700 51.48700 23.66800
C  17.68900 50.65600 23.54700
N  15.38300 51.24500 28.24000
C  16.49200 51.05500 29.01500
C  16.25600 51.21200 30.53200
C  14.72300 51.12900 30.51600
C  14.32500 51.38300 29.07200
C  14.19000 49.78500 31.08000
C  16.79200 52.62100 30.99800
C  17.05200 52.83000 32.45300
H  16.34300 51.91200 33.47100
N  13.29200 51.44300 26.17000
C  12.48000 51.59900 27.23800
C  11.09200 51.67900 26.78200
C  11.02500 51.56900 25.34600
C  12.48100 51.46600 25.00800
C  9.89400 51.80900 27.75200
C  9.77500 51.56200 24.34100
O  9.99800 51.56600 23.15300
C  8.39600 51.56400 24.92300
N  15.39100 51.28600 23.85800
C  14.32100 51.42200 23.10000
C  14.60100 51.33800 21.61600
C  16.17500 51.35000 21.60600
C  16.45600 51.04900 23.09200
C  13.79300 50.15400 20.97500
C  16.80100 52.74200 21.23000
C  17.94000 52.69500 20.17900
N  17.23200 50.69800 25.90800
C  18.13700 50.47000 24.86300
C  19.42700 50.07700 25.32200
C  19.27700 50.12100 26.72200
C  17.94600 50.49700 27.06500
C  20.50900 49.70000 24.39000
C  19.99900 49.86700 27.97400
O  21.09500 49.38800 28.21500
C  18.99200 50.25900 29.16300
C  18.85500 49.11100 30.16400
O  18.22600 48.07600 30.08600
O  19.57500 49.51900 31.30200
C  19.34500 48.69800 32.52400
H  12.15600 51.64500 29.30200
H  12.26000 51.43900 22.85500
H  18.43600 50.54800 22.75800
H  16.68000 50.38200 31.09700
H  14.41300 51.95900 31.15100
H  13.28900 49.46700 30.55600
H  13.93300 49.81900 32.13900
H  14.99800 49.06000 30.98300
H  16.05900 53.41300 30.84900
H  17.68600 52.85900 30.42300
H  16.78700 53.85400 32.71700
H  18.13800 52.73900 32.47900
H  9.43300 50.82200 27.80200
H  9.16900 52.46400 27.26900
H  10.29900 52.07000 28.73000
H  8.11800 52.55100 25.29400
H  8.18000 50.88400 25.74700
H  7.63900 51.27000 24.19600
H  14.15200 52.25400 21.23200
H  16.62000 50.50900 21.07300
H  14.43200 49.48300 20.40100
H  13.06400 50.69700 20.37400
H  13.31700 49.52100 21.72400
H  17.29900 53.15100 22.10800
H  15.97000 53.39600 20.96500
H  17.40700 52.95900 19.26600
H  18.38200 51.70300 20.27000
H  18.60000 53.53300 20.40000
H  21.41200 50.17600 24.77300
H  20.30700 49.97400 23.35500
H  20.80500 48.65100 24.41700
H  19.53500 51.08200 29.62700
H  20.13900 48.96500 33.22200
H  19.35200 47.61000 32.46000
H  18.46200 49.11000 33.01300

