158

Mg 47.23600 25.59600 27.63400
C  48.41600 27.61400 30.34300
C  46.39300 23.13200 30.12900
C  46.81900 23.32100 25.15900
C  48.76500 27.70000 25.56600
N  47.36900 25.41700 30.03800
C  47.79100 26.46500 30.87100
C  47.51200 26.09900 32.30200
C  46.92700 24.61000 32.23900
C  46.88600 24.35700 30.75900
C  47.77400 23.60500 32.96700
C  46.57700 27.17200 32.95700
C  47.16500 27.92000 34.17800
H  46.23500 28.07500 35.30200
N  46.58000 23.50100 27.66000
C  46.26100 22.68600 28.77400
C  45.72600 21.42700 28.22100
C  45.81500 21.56900 26.78500
C  46.40400 22.85100 26.48100
C  45.12000 20.34100 29.02900
C  45.33700 20.46000 25.75300
O  45.33300 20.65300 24.54600
C  44.91500 19.06700 26.14400
N  47.87800 25.46200 25.69100
C  47.50100 24.44300 24.84200
C  47.90300 24.73700 23.39700
C  48.24000 26.27800 23.56500
C  48.23400 26.50800 25.00900
C  49.22600 23.85400 23.04300
C  47.19500 27.18600 22.83400
C  45.83300 27.24100 23.60400
N  48.37700 27.31000 27.81900
C  48.83800 28.12900 26.87900
C  49.49500 29.31700 27.46100
C  49.32700 29.12700 28.80100
C  48.68000 27.89300 28.99200
C  50.27200 30.49100 26.74900
C  49.66200 29.66500 30.11500
O  50.27700 30.67400 30.42000
C  49.06900 28.64100 31.16900
C  50.17300 28.16400 32.01000
O  50.98600 27.32700 31.66400
O  50.33100 28.92800 33.12800
C  51.61700 28.73200 33.85700
H  45.98800 22.41000 30.84100
H  46.62800 22.61600 24.34800
H  49.04700 28.50600 24.88500
H  48.44700 26.03600 32.85800
H  45.94300 24.71000 32.69600
H  47.15100 22.76000 33.25900
H  48.36800 24.06200 33.75800
H  48.44300 23.14900 32.23700
H  45.56800 26.82000 33.17300
H  46.31400 27.93300 32.22100
H  47.40300 28.93400 33.85600
H  48.12700 27.51600 34.49100
H  45.21400 20.47400 30.10600
H  45.69400 19.44700 28.78700
H  44.06300 20.35200 28.76200
H  45.80200 18.59000 26.56000
H  44.83800 18.40300 25.28300
H  44.05400 19.06600 26.81300
H  47.09900 24.45500 22.71800
H  49.25400 26.40800 23.18500
H  50.11100 24.45700 22.84200
H  48.92700 23.19600 22.22700
H  49.44100 23.38700 24.00500
H  46.89500 26.76500 21.87500
H  47.63900 28.17100 22.69100
H  45.82200 27.97600 24.40900
H  45.65300 26.28700 24.09900
H  45.02300 27.30100 22.87700
H  50.92000 30.09600 25.96600
H  50.87400 30.98900 27.50900
H  49.52300 31.10000 26.24200
H  48.41400 29.20400 31.83400
H  51.52100 28.13600 34.76400
H  51.91800 29.70600 34.24400
H  52.51800 28.47800 33.29800
Mg -13.07800 16.50400 41.82300
C  -10.00600 14.85600 41.22900
C  -11.91900 19.06500 39.83000
C  -16.16500 17.72100 41.78500
C  -14.40200 13.29900 42.69600
N  -11.08800 16.99500 40.82800
C  -10.02900 16.19600 40.71200
C  -8.89200 16.88600 39.89800
C  -9.47500 18.31900 39.63800
C  -10.93700 18.10500 40.12300
C  -8.65100 19.47500 40.30600
C  -8.44700 16.07500 38.61700
C  -6.92800 15.92800 38.64400
H  -6.21900 15.51200 37.31800
N  -13.89800 18.26100 41.15200
C  -13.29600 19.12600 40.26900
C  -14.10500 20.30800 40.12600
C  -15.35000 19.92800 40.74900
C  -15.20900 18.56800 41.21900
C  -13.69800 21.53500 39.28700
C  -16.53500 20.80800 40.69000
O  -16.52700 21.82900 40.04800
C  -17.83700 20.36000 41.41300
N  -15.04000 15.59200 42.14400
C  -16.11600 16.37600 42.20100
C  -17.35100 15.62400 42.68000
C  -16.81100 14.27200 43.12700
C  -15.33500 14.36400 42.67800
C  -18.25100 16.33900 43.75200
C  -17.61600 13.08700 42.61700
C  -17.55300 12.83700 41.09400
N  -12.35800 14.58900 42.11900
C  -13.02300 13.42100 42.42900
C  -12.04700 12.34500 42.40400
C  -10.89800 12.86700 41.98000
C  -11.13800 14.21600 41.82800
C  -12.25600 10.92100 42.80900
C  -9.54300 12.49100 41.63600
O  -8.94400 11.40800 41.54500
C  -8.86900 13.81200 41.28300
C  -7.75200 14.06200 42.23100
O  -7.89400 14.50600 43.37500
O  -6.46400 13.84000 41.70900
C  -5.32700 13.99200 42.58000
H  -11.59600 19.89100 39.19400
H  -17.15700 18.17800 41.81000
H  -14.71600 12.31800 43.05700
H  -8.02300 17.05500 40.53300
H  -9.57600 18.43200 38.55900
H  -7.99100 20.00000 39.61600
H  -7.95700 19.10400 41.06100
H  -9.37900 20.13900 40.77100
H  -8.79100 16.54500 37.69500
H  -8.86700 15.07200 38.54700
H  -6.56200 15.49300 39.57400
H  -6.59700 16.96600 38.67900
H  -14.10500 22.46600 39.68200
H  -14.23700 21.49200 38.34000
H  -12.63600 21.61400 39.05200
H  -18.50500 21.22100 41.44500
H  -17.57300 20.14900 42.44900
H  -18.28900 19.65400 40.71600
H  -17.97300 15.59300 41.78500
H  -16.81800 14.19500 44.21400
H  -18.04300 16.03700 44.77900
H  -19.29300 16.30100 43.43500
H  -17.90800 17.36900 43.65500
H  -18.62200 13.17000 43.02700
H  -17.22300 12.20100 43.11600
H  -17.39000 11.76000 41.06800
H  -16.77000 13.42800 40.61900
H  -18.57700 13.06300 40.79500
H  -12.46900 10.93200 43.87800
H  -11.38500 10.36500 42.46300
H  -13.07500 10.48500 42.23600
H  -8.53200 13.70600 40.25200
H  -4.35100 13.94000 42.09600
H  -5.31100 13.11500 43.22600
H  -5.36300 14.87100 43.22400

