158

Mg 42.76400 41.37500 26.36300
C  41.83000 43.55600 29.10700
C  44.07000 39.22800 28.94000
C  43.71700 39.29400 24.07500
C  42.01600 43.78600 24.09800
N  42.90900 41.33400 28.80800
C  42.43800 42.38000 29.61900
C  42.50000 41.81800 31.12600
C  43.54000 40.62500 30.97700
C  43.54900 40.44000 29.52900
C  44.98900 40.86200 31.47000
C  41.03700 41.57800 31.76300
C  40.71800 41.41900 33.33500
H  41.82900 41.32000 34.31700
N  43.65200 39.46600 26.45900
C  44.15500 38.79300 27.56700
C  44.64000 37.53400 27.07700
C  44.44400 37.46000 25.63700
C  43.99100 38.76900 25.31300
C  45.18400 36.45800 28.01200
C  44.52800 36.33400 24.65000
O  44.37700 36.48600 23.43900
C  44.88200 34.91500 25.16300
N  42.81700 41.52300 24.37700
C  43.30900 40.57400 23.60900
C  43.31200 40.97400 22.10800
C  42.57200 42.30900 22.08500
C  42.40400 42.56200 23.64000
C  44.66900 41.12800 21.35900
C  41.27300 42.29900 21.40000
C  40.26600 41.17500 21.62500
N  41.99000 43.24000 26.47000
C  41.72900 44.18700 25.45700
C  41.30300 45.37900 26.04600
C  41.32000 45.19500 27.44500
C  41.70200 43.81900 27.65700
C  40.98900 46.64100 25.25800
C  41.11700 45.88900 28.71100
O  40.77500 47.05100 28.95700
C  41.23600 44.76400 29.87400
C  42.02400 45.34300 30.90300
O  43.05800 45.91700 30.68400
O  41.54000 44.92200 32.12700
C  42.58900 45.05500 33.13600
H  44.54700 38.62100 29.71100
H  43.97800 38.71600 23.18600
H  41.79300 44.58500 23.38700
H  42.93800 42.60100 31.74500
H  43.18600 39.63900 31.27700
H  45.26600 41.89500 31.68100
H  45.69500 40.47700 30.73500
H  45.08000 40.22900 32.35300
H  40.75500 40.64500 31.27500
H  40.44200 42.35300 31.27900
H  40.32300 40.42200 33.53000
H  39.93400 42.14500 33.55200
H  45.36600 36.81900 29.02500
H  46.15600 36.10900 27.66500
H  44.56800 35.56100 27.94000
H  44.01200 34.51600 25.68500
H  45.74300 34.89200 25.83100
H  45.14800 34.22700 24.36100
H  42.73100 40.22900 21.56400
H  43.14300 43.04800 21.52200
H  44.82600 42.08900 20.86900
H  44.59700 40.40000 20.55100
H  45.55000 40.96700 21.98000
H  41.52500 42.36700 20.34200
H  40.77000 43.24500 21.60000
H  40.67300 40.37500 22.24200
H  39.98400 40.63300 20.72300
H  39.41100 41.63100 22.12500
H  40.50400 46.43300 24.30400
H  41.95200 47.15100 25.29700
H  40.30700 47.22400 25.87700
H  40.23900 44.49300 30.22000
H  42.89800 46.10000 33.15600
H  43.43700 44.39600 32.94800
H  42.18000 44.88200 34.13100
Mg 6.76000 53.38000 41.24600
C  5.81100 49.98500 41.19700
C  9.94700 52.40300 40.32700
C  7.56000 56.59200 40.62700
C  3.34900 54.25100 41.58800
N  7.65900 51.43600 40.63500
C  7.16800 50.17100 40.82400
C  8.13600 49.07300 40.31300
C  9.51500 49.86000 40.61900
C  9.03300 51.34200 40.43100
C  10.18100 49.51500 41.99100
C  8.07200 48.64700 38.79400
C  7.30400 49.67300 37.85500
H  6.64300 49.06500 36.59200
N  8.54400 54.36700 40.60500
C  9.78400 53.78000 40.39400
C  10.76600 54.80400 40.22700
C  10.09400 56.05900 40.40300
C  8.66400 55.72000 40.55700
C  12.21400 54.53900 39.84400
C  10.70200 57.38400 40.38000
O  11.93600 57.45000 40.22000
C  9.96500 58.66000 40.66100
N  5.61600 55.12200 41.16200
C  6.18500 56.36000 40.87600
C  5.16900 57.44900 40.97300
C  3.85900 56.69500 41.17700
C  4.27800 55.26300 41.33400
C  5.56800 58.42600 42.08500
C  2.92200 56.85600 39.94100
C  1.46000 56.98600 40.24900
N  4.91200 52.37500 41.65100
C  3.65800 52.84200 41.78200
C  2.76800 51.74300 41.98800
C  3.59200 50.58900 41.98700
C  4.89300 51.02900 41.59000
C  1.22800 51.78400 42.01200
C  3.63900 49.13700 42.04700
O  2.79700 48.29100 42.27200
C  5.03700 48.67300 41.44200
C  4.78700 47.89200 40.14800
O  4.44100 48.49100 39.12100
O  4.94200 46.52100 40.22600
C  4.61800 45.70900 38.95400
H  10.98100 52.06300 40.23900
H  7.85200 57.64200 40.69400
H  2.28400 54.46700 41.69300
H  8.06700 48.13600 40.86500
H  10.32900 49.48300 40.00000
H  9.56400 48.81400 42.55400
H  10.28000 50.43800 42.56300
H  11.21300 49.17300 41.91900
H  7.63200 47.65000 38.76300
H  9.06000 48.47500 38.36800
H  8.02900 50.39700 37.48200
H  6.66000 50.37900 38.38000
H  12.90600 55.37900 39.77200
H  12.23100 54.12100 38.83800
H  12.54000 53.75100 40.52300
H  9.50100 59.04500 39.75200
H  10.67400 59.41000 41.01200
H  9.25800 58.69800 41.49000
H  5.26100 57.95400 40.01200
H  3.26600 56.90900 42.06600
H  6.55100 58.21700 42.50700
H  4.86700 58.31200 42.91200
H  5.61700 59.47300 41.78600
H  2.99400 55.97200 39.30600
H  3.23700 57.80500 39.50900
H  1.11500 58.00000 40.04600
H  1.21800 56.70300 41.27300
H  1.02300 56.30800 39.51400
H  0.74500 52.73500 42.23600
H  0.86800 51.01700 42.69700
H  0.85600 51.51700 41.02200
H  5.59000 48.06900 42.16100
H  5.43500 45.73100 38.23300
H  3.74200 46.08900 38.42900
H  4.56900 44.68500 39.32500

