158

Mg 2.30500 -1.99100 44.43700
C  5.51600 -1.14100 43.62200
C  1.03600 0.60500 42.72400
C  -0.77000 -3.29100 44.82400
C  3.61800 -5.17100 45.64700
N  3.21900 -0.50400 43.20900
C  4.52400 -0.31300 43.06600
C  4.83000 0.94200 42.24000
C  3.31600 1.63000 42.06500
C  2.45200 0.49700 42.69300
C  3.11900 3.09200 42.71800
C  5.56900 0.80800 40.91100
C  6.51600 1.97900 40.55900
H  6.82800 2.30300 39.08600
N  0.35800 -1.49300 43.70300
C  0.06900 -0.26900 43.15400
C  -1.39200 -0.14000 42.98300
C  -1.89000 -1.23000 43.73100
C  -0.73200 -2.10900 44.09900
C  -2.08500 1.03400 42.22700
C  -3.31000 -1.49300 44.10900
O  -4.08700 -0.70300 43.63700
C  -3.77300 -2.57800 45.02900
N  1.49700 -3.99300 45.10700
C  0.18000 -4.18400 45.25600
C  -0.15400 -5.55900 45.89800
C  1.30100 -6.22200 45.89800
C  2.21200 -5.02800 45.60500
C  -0.97400 -5.50300 47.21300
C  1.68300 -7.45000 44.98000
C  2.60800 -8.53000 45.54700
N  4.12000 -2.94800 44.68900
C  4.56400 -4.18600 45.19500
C  5.99500 -4.23800 45.34200
C  6.44400 -3.08500 44.71300
C  5.25400 -2.29000 44.31200
C  6.75800 -5.39100 45.91100
C  7.55900 -2.27300 44.37000
O  8.75800 -2.37200 44.58100
C  7.03900 -1.06500 43.56300
C  7.60000 0.13200 44.27200
O  7.22300 0.54000 45.35200
O  8.65600 0.57100 43.48300
C  9.10100 1.89700 43.91300
H  0.54400 1.39000 42.14700
H  -1.74300 -3.78500 44.85900
H  4.03800 -6.11400 46.00200
H  5.45900 1.62100 42.81600
H  2.95500 1.71900 41.04000
H  2.42500 3.19700 43.55200
H  2.78300 3.81700 41.97600
H  4.05000 3.56700 43.02900
H  4.88600 0.61900 40.08200
H  6.17600 -0.09100 41.01600
H  7.40600 1.68600 41.11500
H  6.14500 2.86000 41.08200
H  -2.97600 0.66500 41.72000
H  -1.39500 1.43000 41.48200
H  -2.32600 1.86400 42.89100
H  -4.82500 -2.44600 45.28200
H  -2.94700 -2.75700 45.71800
H  -3.90500 -3.48400 44.43800
H  -0.77200 -6.12400 45.20000
H  1.53900 -6.43100 46.94100
H  -1.17900 -4.43400 47.25400
H  -0.54300 -5.70600 48.19300
H  -1.90100 -6.07500 47.17800
H  2.32500 -6.92700 44.27100
H  0.84300 -7.95300 44.50100
H  3.65500 -8.54200 45.24600
H  2.04000 -9.42900 45.30700
H  2.46500 -8.59500 46.62600
H  6.72700 -6.26000 45.25300
H  6.30000 -5.81100 46.80700
H  7.76200 -5.01400 46.10300
H  7.36800 -0.98800 42.52700
H  9.86500 2.30400 43.25100
H  9.30800 2.01300 44.97700
H  8.22500 2.53000 43.77100
Mg 8.56400 48.87900 25.00200
C  6.53900 49.40300 27.90100
C  11.10800 50.37500 26.86600
C  10.51300 48.37900 22.43600
C  5.71200 48.40200 23.14900
N  8.77100 49.83800 27.15700
C  7.88600 49.72300 28.21600
C  8.50900 50.16300 29.59600
C  9.82200 50.84300 29.07000
C  9.90500 50.38100 27.57900
C  9.88200 52.36100 29.16800
C  8.80600 49.09800 30.67800
C  8.33300 49.54700 32.04600
H  8.14300 48.50200 33.07300
N  10.56500 49.27200 24.69700
C  11.44800 49.79500 25.59700
C  12.79100 49.55800 25.04700
C  12.64200 48.80100 23.80300
C  11.23200 48.80200 23.59000
C  13.98100 50.02700 25.75400
C  13.59400 48.08100 22.79300
O  13.26900 47.41500 21.85700
C  15.10200 48.22800 22.96900
N  8.22900 48.45600 23.08800
C  9.17900 48.28200 22.16700
C  8.61800 47.92000 20.76500
C  7.03300 47.97600 21.00900
C  7.00100 48.18000 22.52900
C  9.06700 48.97300 19.72200
C  6.31400 46.60200 20.63200
C  5.46200 46.59600 19.38000
N  6.54100 48.88400 25.38400
C  5.49900 48.64100 24.56800
C  4.25600 48.77200 25.28600
C  4.61100 49.02100 26.61500
C  6.00800 49.13400 26.66500
C  2.88700 48.72900 24.63600
C  4.11800 49.25800 27.94400
O  2.92600 49.22900 28.35700
C  5.37600 49.48900 28.85400
C  5.36500 48.50600 29.88300
O  5.82900 47.32600 29.71300
O  4.55200 48.90500 30.94100
C  4.27100 47.84500 32.01800
H  11.86300 50.76600 27.55100
H  11.14800 48.13600 21.58200
H  4.80900 48.38500 22.53500
H  8.00500 51.06200 29.95000
H  10.75700 50.52400 29.53100
H  9.13000 52.82900 29.80300
H  9.57900 52.61300 28.15100
H  10.90800 52.65600 29.38500
H  9.88000 48.94800 30.78900
H  8.46200 48.08700 30.45900
H  7.42800 50.07700 31.74800
H  9.08900 50.17800 32.51300
H  14.65100 50.66500 25.17800
H  14.59500 49.21500 26.14600
H  13.70700 50.61100 26.63300
H  15.30200 49.29800 23.02400
H  15.58800 47.72100 22.13600
H  15.31700 47.83500 23.96200
H  8.90800 46.92600 20.42500
H  6.54000 48.83700 20.55700
H  9.88900 49.53900 20.15900
H  8.22800 49.54600 19.32700
H  9.38400 48.34400 18.89000
H  5.62500 46.25600 21.40200
H  7.12900 45.89100 20.76300
H  5.47900 47.59200 18.93700
H  4.43500 46.37600 19.67100
H  5.79800 45.79200 18.72500
H  2.10300 49.21500 25.21700
H  2.60600 47.67700 24.58500
H  2.81200 49.06700 23.60200
H  5.20100 50.49200 29.24400
H  3.64600 48.27700 32.79900
H  5.19800 47.54000 32.50300
H  3.66400 47.07100 31.55000

