158

Mg 2.40800 0.19100 45.21700
C  5.56000 1.70700 44.59400
C  1.07300 3.14800 43.96600
C  -0.40700 -1.42100 45.07000
C  4.16800 -2.96000 45.61700
N  3.24000 2.25100 44.40200
C  4.53000 2.55600 44.25100
C  4.71600 3.95900 43.82600
C  3.22700 4.51600 43.61600
C  2.47700 3.25500 44.06400
C  2.82500 5.89500 44.32000
C  5.43900 4.07500 42.44600
C  5.17300 3.01700 41.38900
H  5.73200 3.20300 40.03100
N  0.59100 0.75600 44.64100
C  0.15100 2.02700 44.19600
C  -1.23900 1.94000 43.85900
C  -1.69500 0.64000 44.30200
C  -0.43700 -0.06200 44.71900
C  -2.02800 3.14500 43.36100
C  -3.15200 0.19400 44.26000
O  -3.92200 0.88900 43.67700
C  -3.72300 -0.92700 45.05600
N  2.00200 -1.84200 45.36600
C  0.71300 -2.29000 45.30000
C  0.59700 -3.77900 45.27500
C  2.02600 -4.23000 45.37000
C  2.79200 -2.93400 45.42400
C  -0.33500 -4.36500 46.36500
C  2.44900 -5.30700 44.41200
C  2.99700 -6.65200 45.00700
N  4.41700 -0.49400 45.35900
C  4.96800 -1.79300 45.58800
C  6.40600 -1.70600 45.64800
C  6.65100 -0.38600 45.22200
C  5.43900 0.31900 45.01700
C  7.44600 -2.68800 45.88500
C  7.71200 0.68700 44.90600
O  8.95500 0.57200 44.96100
C  7.04100 2.03600 44.58000
C  7.38200 3.05000 45.48400
O  7.69000 4.24000 45.24100
O  7.07300 2.62700 46.68300
C  6.76100 3.60000 47.65100
H  0.50100 3.97200 43.53600
H  -1.35700 -1.95600 45.02000
H  4.69500 -3.90200 45.78700
H  5.18900 4.55300 44.60900
H  2.90300 4.66700 42.58600
H  1.91800 5.70000 44.89100
H  2.71700 6.73400 43.63300
H  3.68200 6.02600 44.98100
H  6.49200 4.35400 42.46700
H  4.96700 4.92600 41.95500
H  4.09600 3.05000 41.23100
H  5.54800 2.07600 41.79100
H  -3.05200 3.17200 43.73400
H  -1.95800 3.03100 42.27900
H  -1.58600 4.01300 43.85000
H  -3.33800 -0.96900 46.07500
H  -3.63000 -1.90900 44.59300
H  -4.78400 -0.77200 45.25000
H  0.19900 -4.01500 44.28700
H  2.17900 -4.62700 46.37300
H  -0.88200 -3.51000 46.76200
H  0.25400 -4.80100 47.17100
H  -0.99200 -5.12300 45.93800
H  3.18100 -4.83800 43.75300
H  1.59300 -5.54400 43.78000
H  2.87500 -6.77200 46.08300
H  4.05100 -6.72800 44.73800
H  2.44200 -7.45500 44.52200
H  8.13100 -2.10900 46.50500
H  7.93600 -2.92000 44.94000
H  7.12300 -3.62100 46.34600
H  7.35300 2.22900 43.55300
H  5.84000 4.07200 47.30900
H  7.37000 4.49200 47.80000
H  6.45700 3.20200 48.61900
Mg 30.34900 57.99100 40.66700
C  27.29000 56.38000 39.59000
C  31.87800 55.02600 39.53300
C  33.21400 59.71200 40.34900
C  28.54700 60.78500 41.15600
N  29.65000 55.92100 39.67800
C  28.39100 55.55500 39.30400
C  28.40400 54.25600 38.56500
C  29.76400 53.63600 38.87700
C  30.48900 54.88600 39.46900
C  29.88700 52.34800 39.81100
C  28.13200 54.46000 36.99200
C  27.11300 53.61900 36.19300
H  26.08300 54.34600 35.19600
N  32.33800 57.38400 40.07600
C  32.71100 56.14700 39.76700
C  34.11000 56.25000 39.49400
C  34.57800 57.52000 39.85700
C  33.34700 58.28100 40.09100
C  34.88700 55.17400 38.89100
C  36.03400 58.05100 39.66500
O  36.90500 57.24000 39.32500
C  36.43500 59.41500 39.98500
N  30.81400 60.04600 40.79600
C  32.05500 60.50700 40.71200
C  32.10500 62.00100 41.13500
C  30.59500 62.29100 41.45900
C  29.92800 60.97400 41.09300
C  33.07900 62.40900 42.21300
C  30.03500 63.48800 40.74500
C  29.68900 63.42900 39.27100
N  28.28900 58.50200 40.65300
C  27.77600 59.69900 40.86900
C  26.37300 59.64000 40.51000
C  26.14300 58.35400 40.04600
C  27.32300 57.66900 40.10300
C  25.24500 60.72200 40.53700
C  25.10800 57.50100 39.54000
O  23.95000 57.76800 39.29800
C  25.79900 56.12400 39.16900
C  25.32500 55.03100 40.06100
O  25.21500 55.07400 41.31500
O  24.87700 53.94800 39.39400
C  24.36500 52.83800 40.19700
H  32.24500 54.04000 39.23900
H  34.03600 60.41200 40.18400
H  28.05300 61.69700 41.49500
H  27.58800 53.66300 38.97700
H  30.30000 53.47100 37.94200
H  30.82800 52.43600 40.35500
H  29.63600 51.48100 39.20100
H  28.99800 52.42900 40.43700
H  29.10100 54.57700 36.50700
H  27.73200 55.46800 36.88600
H  26.43400 53.20600 36.93900
H  27.68500 52.82500 35.71300
H  35.37100 55.48900 37.96700
H  34.33000 54.28100 38.60700
H  35.55300 54.76200 39.64900
H  37.48100 59.32000 40.27800
H  35.85500 59.67600 40.87000
H  36.28700 60.16600 39.20800
H  32.27400 62.48800 40.17500
H  30.54800 62.35300 42.54600
H  33.69500 63.17600 41.74400
H  33.67300 61.50400 42.34300
H  32.80100 62.95200 43.11700
H  30.71200 64.34100 40.81000
H  29.17500 63.91200 41.26300
H  30.26300 64.17100 38.71600
H  28.64600 63.56200 38.98600
H  29.97200 62.42000 38.97000
H  25.45300 61.65400 40.01200
H  24.99100 60.97000 41.56700
H  24.28900 60.36400 40.15400
H  25.50900 55.90900 38.14000
H  24.98200 52.73500 41.09000
H  24.60400 51.89000 39.71400
H  23.27900 52.90900 40.25700

