158

Mg 42.80900 3.99800 46.49600
C  41.11200 7.10200 46.66000
C  39.89000 2.35400 46.42300
C  44.64400 1.23000 45.76000
C  45.81400 5.96600 45.99700
N  40.74800 4.69500 46.61200
C  40.22400 5.97400 46.72200
C  38.70900 5.89300 46.97400
C  38.45800 4.41900 47.11000
C  39.77800 3.69900 46.68400
C  37.89600 3.94200 48.53400
C  37.80300 6.61900 45.91200
C  37.96600 6.11500 44.42200
H  37.99400 7.18900 43.32700
N  42.33300 2.10000 46.16000
C  41.04000 1.59900 46.17000
C  41.11500 0.08700 45.93800
C  42.48100 -0.18300 45.77000
C  43.20500 1.03500 45.96900
C  39.88500 -0.73500 45.82100
C  43.01700 -1.55500 45.45400
O  42.23500 -2.50500 45.57000
C  44.48300 -1.90700 44.94600
N  44.93500 3.68600 45.79400
C  45.41800 2.39400 45.67900
C  46.97900 2.37000 45.56500
C  47.33000 3.89100 45.34500
C  45.95600 4.57600 45.80300
C  47.60100 1.72500 46.86200
C  47.84400 4.29900 43.98800
C  49.40500 4.48000 43.84100
N  43.40500 6.09300 46.26300
C  44.64200 6.72100 46.10800
C  44.50500 8.08600 46.22600
C  43.11300 8.30000 46.50500
C  42.47800 7.05600 46.46300
C  45.56900 9.14600 46.22800
C  42.09200 9.30600 46.67700
O  42.23300 10.52100 46.78500
C  40.73100 8.53800 46.79500
C  39.98900 8.81000 48.01300
O  40.08100 8.19800 49.10800
O  39.03100 9.75100 47.64900
C  37.93700 9.95800 48.65400
H  38.89500 1.90400 46.41300
H  45.23400 0.31300 45.72200
H  46.79300 6.44200 46.08000
H  38.46800 6.30000 47.95600
H  37.65200 4.12800 46.43700
H  36.90600 3.53500 48.33000
H  37.73500 4.83000 49.14500
H  38.53400 3.21500 49.03600
H  38.06700 7.67500 45.85900
H  36.76800 6.50200 46.23200
H  37.26400 5.34200 44.11000
H  38.96900 5.71000 44.28600
H  38.98200 -0.13600 45.70600
H  39.88100 -1.34100 46.72700
H  39.98900 -1.43000 44.98800
H  45.19800 -1.98700 45.76400
H  44.84100 -1.11800 44.28500
H  44.61800 -2.81300 44.35400
H  47.34400 1.80600 44.70600
H  48.18000 4.02300 46.01400
H  48.33700 2.37000 47.34100
H  48.06200 0.80300 46.50700
H  46.79600 1.44900 47.54300
H  47.32200 5.18600 43.62900
H  47.56600 3.62000 43.18200
H  49.91900 4.53000 44.80100
H  49.52100 5.48000 43.42200
H  49.77000 3.70400 43.16900
H  46.20400 8.94100 45.36600
H  46.23900 8.96300 47.06800
H  45.22600 10.18000 46.25100
H  40.15900 8.87100 45.92900
H  38.53500 10.46200 49.41300
H  37.59900 9.00900 49.06900
H  37.21100 10.53100 48.07700
Mg 27.18000 50.21100 27.51600
C  24.95900 51.33100 30.10600
C  29.44800 49.45800 30.04000
C  29.43700 49.89700 25.23500
C  24.80500 51.51600 25.12800
N  27.16400 50.41600 29.76200
C  26.11600 50.72400 30.60000
C  26.44600 50.55800 32.07000
C  27.96800 50.17100 32.03300
C  28.25200 50.08000 30.55100
C  28.97000 51.18000 32.76400
C  25.46400 49.43200 32.68600
C  24.78400 49.76200 34.02800
H  24.93800 48.73000 35.17400
N  29.13100 49.52000 27.60600
C  29.86500 49.21100 28.72100
C  31.19600 48.86800 28.23700
C  31.30000 49.14400 26.85800
C  29.96300 49.53900 26.49400
C  32.29800 48.42900 29.22900
C  32.50200 49.21800 25.94700
O  32.41700 49.74800 24.84300
C  33.85200 48.70500 26.40700
N  27.15600 50.82700 25.53600
C  28.15300 50.24600 24.78500
C  27.82400 50.40200 23.30300
C  26.33900 50.81400 23.26700
C  26.08000 51.03300 24.71300
C  28.76300 51.38200 22.60000
C  25.43000 49.76200 22.54900
C  24.62600 50.32500 21.36700
N  25.24900 51.16700 27.54900
C  24.45700 51.68200 26.52500
C  23.30300 52.35200 27.03300
C  23.48700 52.20400 28.44700
C  24.65700 51.50000 28.73200
C  22.20100 52.95100 26.25500
C  22.85500 52.51600 29.70400
O  21.77900 53.10900 29.91700
C  23.80400 51.92300 30.85400
C  24.26300 53.18500 31.58000
O  25.26800 53.83500 31.26400
O  23.54200 53.44900 32.72600
C  24.06900 54.54200 33.48200
H  30.05900 49.00600 30.82500
H  30.12700 49.52200 24.47700
H  24.05100 51.78400 24.38400
H  26.35600 51.50600 32.60100
H  28.04100 49.13400 32.36100
H  29.79900 51.39800 32.09100
H  29.34500 50.77000 33.70200
H  28.54000 52.16200 32.95900
H  25.91700 48.44100 32.69700
H  24.63800 49.14600 32.03400
H  23.73700 49.91300 33.76700
H  25.21600 50.71400 34.33600
H  32.49000 47.37500 29.02700
H  32.09700 48.41700 30.30000
H  33.14500 49.11000 29.14800
H  34.53800 48.67900 25.56100
H  33.65900 47.71400 26.81700
H  34.07500 49.34600 27.26000
H  27.91700 49.38400 22.92600
H  26.23200 51.82600 22.87600
H  28.35800 52.18600 21.98600
H  29.28900 50.67400 21.95900
H  29.50000 51.78100 23.29800
H  24.66900 49.28600 23.16600
H  26.08400 48.96900 22.18700
H  24.96700 51.33100 21.12500
H  23.53800 50.25800 21.40000
H  24.95400 49.73000 20.51500
H  21.55600 53.63300 26.80900
H  21.58300 52.23400 25.71600
H  22.59300 53.64200 25.50800
H  23.25700 51.23000 31.49400
H  23.50400 54.80400 34.37600
H  24.22700 55.46800 32.93000
H  24.99800 54.14100 33.88800

