158

Mg 23.82600 -6.58600 47.46600
C  26.44900 -4.30800 46.39200
C  22.01200 -5.38500 44.95100
C  21.85500 -9.11600 48.12400
C  26.34500 -8.00600 49.56100
N  24.25600 -4.95900 45.92500
C  25.29200 -4.19900 45.63100
C  25.01300 -3.16900 44.48000
C  23.49600 -3.36600 44.19700
C  23.17300 -4.63700 45.09800
C  22.66600 -2.03700 44.57500
C  25.85100 -3.45000 43.17900
C  26.60300 -2.19800 42.57800
H  26.54300 -1.99600 41.05000
N  22.08700 -7.28200 46.60000
C  21.52000 -6.66500 45.56200
C  20.33000 -7.34300 45.26900
C  20.14500 -8.33900 46.30700
C  21.38200 -8.31600 47.07200
C  19.45500 -6.92600 44.07500
C  18.87700 -9.10800 46.47600
O  17.86000 -8.90600 45.83600
C  18.80400 -10.13400 47.49500
N  24.14000 -8.37700 48.56800
C  23.13400 -9.26700 48.73800
C  23.38100 -10.19600 50.04200
C  24.88500 -9.90900 50.28000
C  25.16600 -8.66500 49.44200
C  22.38000 -9.87000 51.17500
C  25.98200 -11.03200 49.90100
C  27.19000 -11.16700 50.81400
N  25.90000 -6.19000 48.07100
C  26.71400 -6.88500 48.88500
C  28.04800 -6.24600 48.92600
C  27.92600 -5.18900 47.99600
C  26.65100 -5.26500 47.43300
C  29.18000 -6.73800 49.72800
C  28.63300 -3.99000 47.49800
O  29.75000 -3.51500 47.72200
C  27.69900 -3.40700 46.36800
C  27.40100 -2.03800 46.87900
O  26.73900 -1.79500 47.86900
O  27.80400 -1.03800 45.91800
C  27.56600 0.33300 46.43400
H  21.35900 -4.91700 44.21100
H  21.18000 -9.89800 48.47900
H  27.03300 -8.49400 50.25500
H  25.24400 -2.16100 44.82700
H  23.29700 -3.67400 43.17100
H  23.30600 -1.34200 45.11900
H  21.71400 -2.20400 45.07700
H  22.49500 -1.52900 43.62500
H  25.31500 -3.94600 42.36900
H  26.73800 -4.03500 43.42000
H  27.67100 -2.25600 42.78600
H  26.17600 -1.31600 43.05600
H  19.85500 -7.41500 43.18700
H  19.53100 -5.85400 43.89100
H  18.40100 -7.17300 44.20500
H  18.63800 -9.67700 48.47000
H  19.69000 -10.74100 47.30600
H  17.98100 -10.79100 47.21200
H  23.32600 -11.22700 49.69300
H  25.08700 -9.53700 51.28400
H  21.77600 -10.72900 51.46600
H  21.64300 -9.14600 50.82700
H  22.97300 -9.38600 51.95200
H  26.41300 -10.83800 48.91900
H  25.57800 -12.04100 49.81900
H  27.16100 -12.17900 51.21800
H  27.04300 -10.36500 51.53800
H  28.12700 -10.96400 50.29700
H  29.11700 -7.79800 49.97300
H  29.27800 -6.05600 50.57300
H  30.05600 -6.55500 49.10700
H  28.21500 -3.29300 45.41400
H  27.75800 0.38700 47.50500
H  26.53200 0.57600 46.19000
H  28.24400 0.92900 45.82300
Mg 17.05800 -1.56700 27.16000
C  16.22300 0.55700 29.80600
C  19.02200 -3.42100 29.42200
C  18.42700 -3.22400 24.59000
C  15.76500 0.80800 24.97500
N  17.66200 -1.37300 29.31900
C  17.04200 -0.49600 30.22800
C  17.35200 -0.90700 31.66900
C  18.47900 -1.96900 31.46000
C  18.37000 -2.33500 30.00000
C  19.95100 -1.67300 31.77800
C  16.15300 -1.45300 32.48100
C  16.17200 -1.23000 34.00700
H  17.42700 -0.76100 34.80100
N  18.43900 -3.21200 27.00300
C  19.09500 -3.87200 28.02600
C  19.77100 -5.02700 27.47100
C  19.52100 -5.00500 26.11000
C  18.76400 -3.80200 25.83300
C  20.53000 -5.98800 28.33400
C  19.96800 -5.99600 24.99400
O  19.48600 -5.88000 23.89700
C  21.03000 -7.06700 25.19000
N  17.06700 -1.20200 25.00700
C  17.72000 -2.06000 24.16000
C  17.72200 -1.54400 22.73600
C  16.78400 -0.25400 22.85100
C  16.45000 -0.22000 24.33400
C  19.16000 -1.31100 22.12000
C  15.44900 -0.38400 22.01800
C  15.04500 0.59600 20.98800
N  16.13800 0.24800 27.27700
C  15.54900 1.03900 26.33800
C  14.72200 2.02800 27.00600
C  15.02800 1.92400 28.33300
C  15.92500 0.83200 28.48000
C  13.79000 2.90100 26.23500
C  14.71400 2.51000 29.62200
O  14.07400 3.48700 29.98200
C  15.49700 1.59700 30.66500
C  16.50400 2.37500 31.48400
O  17.62700 2.71700 31.10400
O  15.99900 2.70700 32.65600
C  16.58000 3.62100 33.64900
H  19.69600 -3.96200 30.09000
H  18.84700 -3.77700 23.74700
H  15.43100 1.56600 24.26300
H  17.90600 -0.11900 32.17900
H  18.12200 -2.88200 31.93700
H  20.47700 -1.39800 30.86400
H  20.51300 -2.48600 32.23700
H  20.14700 -0.77700 32.36700
H  16.13300 -2.53000 32.31900
H  15.31800 -1.10100 31.87500
H  15.56600 -2.03300 34.42600
H  15.39400 -0.46600 33.98700
H  21.54400 -6.07500 27.94100
H  19.96100 -6.91700 28.32400
H  20.65100 -5.55600 29.32700
H  20.76300 -7.80800 25.94300
H  21.86800 -6.52700 25.63100
H  21.25200 -7.57700 24.25300
H  17.34600 -2.36200 22.12100
H  17.41700 0.56700 22.51400
H  19.25900 -0.52300 21.37300
H  19.49700 -2.29500 21.79500
H  19.91100 -1.06700 22.87200
H  14.63500 -0.36100 22.74200
H  15.46400 -1.39600 21.61500
H  14.49800 1.37300 21.52200
H  14.36000 0.14400 20.27100
H  15.88600 0.99500 20.42100
H  13.19800 3.53200 26.89700
H  13.13200 2.37400 25.54500
H  14.38000 3.55900 25.59600
H  14.71800 1.17400 31.29900
H  15.93400 4.48300 33.81700
H  17.63500 3.85400 33.50600
H  16.52300 3.06100 34.58300

