158

Mg -0.82200 7.34800 26.60700
C  0.25700 9.21000 29.40400
C  -1.11800 4.62600 28.75500
C  -1.17200 5.36700 23.94200
C  -0.40600 10.06800 24.60400
N  -0.53200 7.00100 28.83900
C  -0.17000 7.95500 29.75600
C  -0.18300 7.37500 31.20700
C  -0.65900 5.87100 30.92100
C  -0.72700 5.77600 29.39200
C  0.13000 4.73800 31.63100
C  -1.12800 8.10500 32.19300
C  -0.55800 8.50200 33.52600
H  -0.99000 7.65400 34.71100
N  -1.13700 5.30100 26.35000
C  -1.33200 4.36500 27.33700
C  -1.59800 3.06100 26.74300
C  -1.62100 3.24000 25.36500
C  -1.27100 4.68300 25.12500
C  -1.71900 1.85900 27.59100
C  -1.71500 2.19700 24.30400
O  -1.50400 2.44400 23.09600
C  -2.20900 0.76400 24.71900
N  -0.76500 7.65400 24.59000
C  -0.99100 6.70800 23.70500
C  -1.28800 7.26700 22.32100
C  -1.32700 8.75800 22.58500
C  -0.84800 8.91100 23.99700
C  -0.26800 6.81000 21.20700
C  -2.78700 9.24900 22.52300
C  -3.44800 9.82800 21.28700
N  -0.10400 9.21500 26.83900
C  0.04900 10.23100 25.92700
C  0.64900 11.39900 26.62900
C  0.82300 11.01800 27.93200
C  0.29400 9.69300 28.07100
C  1.03700 12.69200 25.99700
C  1.24100 11.47800 29.19700
O  1.80400 12.51300 29.46200
C  0.84300 10.40900 30.26400
C  1.94300 10.01000 31.22700
O  2.67700 9.05900 31.06300
O  1.99300 10.87400 32.26600
C  3.14100 10.83700 33.19600
H  -1.33600 3.76200 29.38600
H  -1.39000 4.76900 23.05500
H  -0.42800 10.86500 23.85800
H  0.82500 7.40300 31.62100
H  -1.64700 5.74400 31.36400
H  0.93800 5.22000 32.18100
H  0.59500 4.19700 30.80600
H  -0.59700 4.13400 32.17400
H  -2.01600 7.48900 32.33500
H  -1.40500 9.00900 31.65100
H  -0.63400 9.57900 33.67900
H  0.52400 8.42300 33.42600
H  -0.85600 1.19500 27.55000
H  -2.64800 1.33800 27.36000
H  -1.93400 2.05800 28.64100
H  -3.18500 0.80900 25.20200
H  -1.45200 0.22800 25.29100
H  -2.38800 0.23100 23.78600
H  -2.20600 6.76400 22.01800
H  -0.71900 9.21700 21.80500
H  -0.27700 7.48400 20.35100
H  -0.61300 5.84000 20.84800
H  0.74900 6.81300 21.60200
H  -2.93800 9.99800 23.30100
H  -3.42300 8.49100 22.98000
H  -2.64600 10.25600 20.68600
H  -4.26400 10.49200 21.57200
H  -3.95800 9.01300 20.77200
H  1.96900 13.05200 26.43300
H  0.26000 13.43800 26.16100
H  1.16000 12.57700 24.92000
H  0.03500 10.89000 30.81500
H  3.39600 11.78300 33.67200
H  3.97300 10.44600 32.61000
H  3.02400 10.16700 34.04800
Mg 49.39900 34.85200 27.18500
C  47.06600 33.62700 29.57600
C  50.47200 37.22900 29.49000
C  51.07300 36.23800 24.75900
C  48.20100 32.41900 24.95300
N  48.73400 35.38300 29.24400
C  47.90900 34.68000 30.06500
C  48.00300 35.24500 31.53200
C  48.81100 36.56100 31.43200
C  49.40100 36.35100 29.96800
C  47.97800 37.80500 31.69400
C  48.85300 34.27200 32.46700
C  48.44100 34.18800 33.96400
H  47.77100 35.40800 34.63300
N  50.61300 36.57500 27.10900
C  51.02800 37.31600 28.18300
C  51.92100 38.32700 27.70600
C  52.21300 38.03200 26.31100
C  51.29000 36.90400 25.99000
C  52.42800 39.45000 28.62400
C  53.09600 38.63300 25.29700
O  53.29100 38.24200 24.14700
C  53.93600 39.80300 25.59900
N  49.47000 34.50200 25.02800
C  50.35100 35.11200 24.32700
C  50.45300 34.49600 22.89800
C  49.78500 33.13600 23.06400
C  49.10500 33.29500 24.41600
C  49.88900 35.40500 21.81400
C  50.63900 31.89600 22.99200
C  51.40700 31.64600 21.68500
N  47.90900 33.32200 27.20200
C  47.54800 32.49000 26.16400
C  46.55600 31.53200 26.69400
C  46.30100 31.92400 28.01800
C  47.14300 33.08000 28.27100
C  45.83800 30.36600 25.97400
C  45.50000 31.72800 29.22600
O  44.65200 30.84100 29.41500
C  45.86700 32.90000 30.21000
C  45.94300 32.41200 31.59800
O  46.87400 31.72000 32.03200
O  44.88000 32.67400 32.42000
C  44.99100 32.36800 33.87200
H  50.87000 37.88200 30.27000
H  51.64700 36.63100 23.91600
H  47.98000 31.50700 24.39500
H  46.98500 35.44400 31.86600
H  49.65300 36.52100 32.12400
H  48.10700 38.31500 30.73900
H  48.36800 38.36100 32.54700
H  46.97700 37.43600 31.92100
H  49.92100 34.49200 32.43800
H  48.76000 33.26900 32.05200
H  49.34500 34.08300 34.56400
H  47.90900 33.26200 34.18000
H  51.75200 40.30200 28.56400
H  53.43600 39.76200 28.34900
H  52.52300 39.14000 29.66500
H  54.86200 39.48700 26.08000
H  53.22600 40.39000 26.18000
H  54.20300 40.27400 24.65300
H  51.46900 34.24000 22.60100
H  48.99100 32.89500 22.35600
H  50.64800 35.87500 21.19000
H  49.48500 36.26200 22.35300
H  49.09000 34.99900 21.19400
H  50.11100 31.00200 23.32600
H  51.34400 32.08500 23.80100
H  51.01500 32.33500 20.93700
H  51.25900 30.62000 21.34800
H  52.44500 31.90100 21.89900
H  46.39700 29.43600 25.86900
H  45.54800 30.76100 25.00000
H  44.99700 30.16000 26.63600
H  45.06000 33.63200 30.26300
H  44.08600 31.79500 34.07500
H  44.87400 33.29800 34.42800
H  45.81800 31.81100 34.31300

