158

Mg 42.93900 41.62900 26.10400
C  42.37000 44.25600 28.27300
C  43.82000 39.58600 28.62600
C  43.60300 39.18600 23.73800
C  42.41600 43.88900 23.45600
N  43.23100 41.97200 28.19400
C  42.80500 43.06400 28.84700
C  43.04300 42.72700 30.37200
C  43.88400 41.41400 30.33000
C  43.57400 40.92100 28.96000
C  45.35900 41.48100 30.78800
C  41.78900 42.77300 31.27600
C  41.74400 42.25900 32.66300
H  42.00500 43.16500 33.86800
N  43.55000 39.67600 26.18500
C  43.86700 38.98600 27.33300
C  44.11500 37.65400 27.00600
C  43.89700 37.49300 25.68900
C  43.66200 38.79200 25.10300
C  44.65200 36.69200 28.01700
C  43.87600 36.24200 24.83300
O  43.74700 36.26100 23.61600
C  44.08000 34.89000 25.38000
N  43.09900 41.59300 23.89200
C  43.42500 40.45400 23.20500
C  43.57500 40.76500 21.72300
C  42.95300 42.19800 21.62200
C  42.80400 42.63500 23.06300
C  45.04000 40.66200 21.13700
C  41.59200 42.26800 20.72100
C  40.30800 41.81100 21.44000
N  42.45500 43.66000 25.86500
C  42.20300 44.38500 24.77000
C  41.78200 45.73400 25.10100
C  41.82000 45.77000 26.54000
C  42.28200 44.48900 26.89700
C  41.58400 46.87600 24.18000
C  41.57100 46.52500 27.74300
O  41.24200 47.71200 27.85900
C  41.91200 45.55500 28.96900
C  43.04200 46.07300 29.65800
O  44.09600 46.36500 29.08800
O  42.96500 46.06600 31.04500
C  44.26500 46.41600 31.78500
H  44.10900 38.96300 29.47500
H  43.61000 38.37700 23.00400
H  42.12000 44.44500 22.56300
H  43.60700 43.54900 30.81200
H  43.38300 40.67500 30.95500
H  46.02800 41.24700 29.96000
H  45.59500 40.74900 31.56000
H  45.49800 42.48900 31.17700
H  40.99200 42.40000 30.63200
H  41.53800 43.82800 31.38600
H  42.56000 41.55500 32.82700
H  40.81300 41.69800 32.74200
H  45.50100 36.21400 27.52800
H  44.02400 35.84400 28.28900
H  45.03800 37.13000 28.93700
H  43.85800 34.25800 24.52100
H  43.28900 34.71800 26.11000
H  45.11800 34.72100 25.66700
H  42.90600 40.11700 21.15800
H  43.70300 42.80600 21.11700
H  45.67100 40.53300 22.01600
H  45.29600 41.51700 20.51200
H  45.07700 39.81100 20.45700
H  41.68300 41.89000 19.70200
H  41.43400 43.32700 20.51900
H  40.44200 41.01200 22.16800
H  39.48800 41.59400 20.75500
H  39.94800 42.67300 22.00100
H  40.84700 47.61600 24.49200
H  41.33600 46.53800 23.17400
H  42.57300 47.33400 24.19800
H  41.08600 45.44800 29.67100
H  43.91100 46.71300 32.77200
H  44.88000 47.16200 31.28200
H  44.85600 45.50400 31.87700
Mg -11.61800 38.28100 42.73700
C  -9.43500 35.74700 41.50000
C  -9.53900 40.41400 40.95400
C  -13.92800 40.57400 43.11300
C  -13.83200 35.74200 43.66200
N  -9.65000 38.02100 41.34900
C  -8.98900 36.90000 40.94900
C  -7.91200 37.12800 39.90600
C  -7.90700 38.69800 39.75300
C  -9.07300 39.10900 40.72400
C  -6.52200 39.40900 40.18700
C  -8.25300 36.33900 38.61800
C  -7.12400 35.43200 37.99300
H  -6.12700 35.98700 36.97500
N  -11.65800 40.27100 42.28700
C  -10.69300 40.98900 41.61400
C  -11.14400 42.33800 41.51800
C  -12.46400 42.44600 42.03700
C  -12.74600 41.08900 42.50200
C  -10.29900 43.41200 40.78200
C  -13.40300 43.58500 41.91500
O  -12.94000 44.57000 41.36600
C  -14.92600 43.64300 42.35800
N  -13.62500 38.19800 43.41000
C  -14.37000 39.32200 43.54300
C  -15.68700 38.95100 44.23600
C  -15.64100 37.39700 44.40700
C  -14.28000 37.05800 43.81300
C  -15.81900 39.65600 45.61600
C  -16.83300 36.65700 43.74300
C  -16.89800 36.82900 42.23300
N  -11.67300 36.17400 42.72000
C  -12.59000 35.29000 43.20000
C  -12.06400 33.90300 43.07600
C  -10.79900 34.07500 42.55900
C  -10.64400 35.48300 42.31000
C  -12.79000 32.65100 43.37900
C  -9.58100 33.41200 42.10700
O  -9.33400 32.21200 42.12700
C  -8.72500 34.43900 41.41300
C  -7.46900 34.51000 42.26100
O  -7.17000 35.28200 43.19900
O  -6.75500 33.41200 41.90400
C  -5.75900 33.05100 42.90800
H  -9.00900 41.09100 40.28100
H  -14.76300 41.27700 43.10000
H  -14.50300 34.94600 43.99300
H  -6.98000 36.70500 40.28200
H  -8.12600 39.17200 38.79600
H  -6.19600 39.85300 39.24600
H  -5.70300 38.72600 40.41100
H  -6.67100 40.06600 41.04300
H  -8.55100 37.04200 37.84100
H  -9.05400 35.60900 38.74200
H  -7.47100 34.43700 37.71500
H  -6.54800 35.27200 38.90400
H  -10.77100 43.73300 39.85300
H  -9.31600 43.10300 40.42600
H  -10.19000 44.30100 41.40400
H  -15.49800 42.90300 41.80000
H  -15.26300 44.65200 42.11700
H  -15.08500 43.62600 43.43600
H  -16.59400 39.24500 43.70900
H  -15.60500 37.25500 45.48700
H  -16.85300 39.60900 45.95900
H  -15.62800 40.72900 45.60200
H  -15.12800 39.32800 46.39300
H  -17.69200 37.17100 44.17500
H  -16.91600 35.61200 44.03900
H  -16.64200 35.87300 41.77800
H  -16.28500 37.63600 41.83200
H  -17.94700 37.02100 42.00700
H  -12.24900 31.89300 43.94600
H  -13.13100 32.21200 42.44200
H  -13.68800 33.00400 43.88500
H  -8.42000 34.24400 40.38500
H  -4.91400 33.73700 42.85200
H  -5.30000 32.13000 42.54900
H  -6.11500 32.82400 43.91300

