158

Mg 42.27100 41.72700 26.34500
C  40.96300 43.93000 28.64900
C  42.90700 39.48100 28.80000
C  43.51400 39.73800 23.99500
C  41.69100 44.24100 23.92300
N  42.08300 41.76300 28.53900
C  41.36000 42.71700 29.23700
C  41.31500 42.37500 30.76400
C  42.02200 40.99000 30.73400
C  42.37300 40.68700 29.27400
C  43.26600 40.77000 31.60100
C  39.90700 42.39400 31.38600
C  39.58000 41.66000 32.63100
H  39.30200 42.50000 33.88500
N  42.92000 39.85400 26.38100
C  43.10200 39.00800 27.44600
C  43.46700 37.67700 27.05800
C  43.60700 37.74100 25.63900
C  43.40800 39.20800 25.29400
C  43.50500 36.45600 27.98100
C  43.70200 36.68400 24.62300
O  43.94900 36.79900 23.43900
C  43.61500 35.22800 25.11200
N  42.48200 41.93800 24.21500
C  43.24200 41.03500 23.51500
C  43.56500 41.52900 22.14300
C  42.68300 42.81500 21.99000
C  42.24500 43.04100 23.46100
C  45.13200 41.67900 21.94200
C  41.51900 42.77200 21.01000
C  40.07300 43.03400 21.42900
N  41.55100 43.62600 26.24800
C  41.36100 44.54100 25.20500
C  40.72900 45.78200 25.64600
C  40.64600 45.59500 27.05300
C  41.08200 44.27800 27.33600
C  40.29700 46.96100 24.88800
C  40.20900 46.22800 28.28700
O  39.74900 47.36200 28.47200
C  40.46700 45.16400 29.37200
C  41.50100 45.74600 30.30500
O  42.68100 45.75400 30.18100
O  40.93600 46.17600 31.47700
C  41.76100 46.50500 32.64600
H  43.29200 38.79100 29.55400
H  44.01300 39.28200 23.13800
H  41.56300 45.03300 23.18200
H  42.03000 43.03200 31.26000
H  41.22600 40.29100 30.99000
H  44.11600 40.75700 30.91900
H  43.16700 39.86800 32.20500
H  43.40100 41.62200 32.26800
H  39.13500 42.09700 30.67600
H  39.66800 43.45400 31.48200
H  40.48400 41.09500 32.85500
H  38.80300 40.91100 32.48000
H  44.45100 36.01500 27.66600
H  42.66000 35.80700 27.75000
H  43.54100 36.72100 29.03800
H  43.54000 34.63700 24.19900
H  42.63700 35.10700 25.57900
H  44.55500 34.94600 25.58500
H  43.18900 40.83500 21.39100
H  43.27800 43.71100 21.81100
H  45.67600 41.42000 22.85100
H  45.31300 42.74500 21.80200
H  45.54500 41.10400 21.11300
H  41.58200 41.84200 20.44500
H  41.75100 43.50700 20.23800
H  39.43900 42.57400 20.67200
H  39.88200 44.08600 21.21800
H  39.74800 42.78100 22.43900
H  39.77900 46.57600 24.00900
H  41.04000 47.72600 24.66400
H  39.72900 47.59600 25.56800
H  39.52700 45.04800 29.91300
H  41.57500 47.50000 33.04900
H  42.81500 46.57100 32.37600
H  41.59300 45.70300 33.36500
Mg 6.85100 53.21300 42.02900
C  6.25200 49.66000 41.54500
C  10.06000 52.62000 40.71200
C  7.36100 56.48200 41.81500
C  3.47300 53.51800 42.48500
N  7.94700 51.28100 41.02400
C  7.56800 49.96000 41.17500
C  8.78200 49.11200 40.73200
C  9.92500 50.04800 40.62500
C  9.33600 51.42000 40.91000
C  11.13400 49.76500 41.56500
C  8.67900 48.09200 39.60100
C  8.67100 48.65300 38.21200
H  7.35100 48.49800 37.54100
N  8.54400 54.35000 41.47000
C  9.76600 53.96800 40.98000
C  10.65400 55.16000 40.88000
C  9.87500 56.23100 41.34600
C  8.49500 55.71900 41.49900
C  12.11700 55.02300 40.51100
C  10.40300 57.59500 41.60000
O  11.55500 57.83200 41.46100
C  9.62100 58.78100 42.08100
N  5.59000 54.74100 42.04300
C  6.09000 56.01000 42.12600
C  5.04000 56.94400 42.61600
C  3.75200 56.00600 42.63200
C  4.29000 54.65600 42.43000
C  5.21300 57.80300 43.94200
C  2.65400 56.41900 41.63100
C  2.47800 55.58700 40.34600
N  5.17000 51.90200 42.11100
C  3.89800 52.20300 42.39200
C  3.07300 51.08200 42.48600
C  3.99000 50.03800 42.25700
C  5.23000 50.61800 41.98100
C  1.57800 51.01000 42.80800
C  4.15300 48.61900 42.22200
O  3.29900 47.80200 42.60100
C  5.60500 48.22900 41.76100
C  5.23100 47.57500 40.43800
O  4.62200 48.07500 39.48000
O  5.66200 46.26700 40.37900
C  5.14900 45.24400 39.42100
H  11.08100 52.44700 40.36700
H  7.64600 57.51800 42.01100
H  2.45000 53.72100 42.80800
H  8.80800 48.59600 41.69200
H  10.37000 50.01100 39.63100
H  10.65200 49.28200 42.41500
H  11.49800 50.72100 41.94000
H  11.97100 49.29100 41.05300
H  7.76000 47.51100 39.68000
H  9.60100 47.55000 39.81200
H  9.26100 47.98500 37.58400
H  8.78800 49.73500 38.15000
H  12.65800 54.94300 41.45400
H  12.36000 55.94400 39.98200
H  12.42600 54.24700 39.81000
H  8.98000 59.12500 41.26900
H  10.32500 59.58500 42.29200
H  9.10600 58.49700 42.99900
H  5.02000 57.67600 41.80800
H  3.19000 56.17200 43.55100
H  6.23200 58.00700 44.27000
H  4.54300 57.39200 44.69600
H  4.88800 58.83900 43.84000
H  2.78200 57.45700 41.32600
H  1.78300 56.28700 42.27300
H  3.44500 55.17700 40.05700
H  2.12000 56.18300 39.50600
H  1.79200 54.75500 40.50500
H  1.17300 50.81300 41.81600
H  1.24500 51.97200 43.20000
H  1.29400 50.17300 43.44500
H  6.08700 47.45500 42.35800
H  4.95300 45.62500 38.41900
H  4.25500 44.82900 39.88600
H  5.89000 44.44600 39.37700

