158

Mg -2.03000 35.48200 26.73600
C  -3.72400 33.72600 29.31700
C  -0.84900 37.66100 29.16900
C  -0.48000 37.03100 24.38200
C  -3.62400 33.22500 24.48100
N  -2.24200 35.66700 28.97100
C  -2.90500 34.79500 29.81100
C  -2.82800 35.19800 31.27200
C  -2.03100 36.53700 31.11100
C  -1.71300 36.67600 29.69300
C  -2.69000 37.75500 31.74000
C  -1.99600 34.18000 32.12700
C  -1.85500 34.54000 33.53800
H  -2.66500 33.64000 34.44900
N  -0.84700 37.17800 26.76400
C  -0.46500 37.96600 27.86300
C  0.40300 39.04100 27.37600
C  0.54100 38.86800 25.97000
C  -0.37400 37.64900 25.61000
C  1.07700 40.03000 28.26700
C  1.33500 39.57400 24.84900
O  1.47100 39.11300 23.74100
C  2.20800 40.78600 25.30800
N  -2.06700 35.19900 24.78300
C  -1.16100 35.85800 24.07600
C  -0.97000 35.15800 22.64200
C  -2.00300 33.95200 22.63200
C  -2.58700 34.09400 24.02500
C  -1.09400 36.21300 21.50500
C  -1.31500 32.54100 22.36100
C  -2.14000 31.59300 21.40200
N  -3.48800 33.90400 26.82300
C  -4.03200 33.11600 25.83800
C  -4.98900 32.20200 26.41600
C  -4.85100 32.42300 27.80700
C  -3.97000 33.41200 28.00300
C  -5.77900 31.17500 25.67900
C  -5.23000 31.91400 29.13600
O  -5.78900 30.87000 29.43800
C  -4.63300 32.87500 30.15500
C  -5.71200 33.67100 30.75400
O  -6.55700 34.17500 30.04900
O  -5.77300 33.54600 32.13000
C  -6.91600 34.20400 32.81200
H  -0.58000 38.38800 29.93700
H  0.05600 37.51600 23.56300
H  -3.94300 32.46200 23.76800
H  -3.82000 35.36000 31.69500
H  -1.05300 36.37900 31.56700
H  -3.72500 37.52200 31.98900
H  -2.64600 38.64700 31.11600
H  -2.31500 38.06800 32.71400
H  -0.98200 34.32200 31.75300
H  -2.47300 33.20100 32.10900
H  -2.08000 35.57800 33.78200
H  -0.80500 34.48300 33.82400
H  0.55200 40.98000 28.16800
H  2.09400 40.17500 27.90200
H  1.15200 39.82500 29.33400
H  2.42500 41.41100 24.44200
H  3.07200 40.40100 25.84900
H  1.63300 41.38600 26.01300
H  0.08300 34.88100 22.70300
H  -2.63600 34.21100 21.78400
H  -1.63500 37.09400 21.85200
H  -1.69400 35.84400 20.67400
H  -0.12200 36.51900 21.11700
H  -1.03500 32.08800 23.31200
H  -0.36000 32.73500 21.87300
H  -1.54700 31.10000 20.63100
H  -2.98100 32.12400 20.95600
H  -2.53100 30.79900 22.03700
H  -5.67300 31.32900 24.60500
H  -6.73900 31.19700 26.19400
H  -5.40400 30.18400 25.93800
H  -4.17500 32.23700 30.91100
H  -7.77800 34.15400 32.14700
H  -6.61100 35.22800 33.02800
H  -7.11000 33.63500 33.72200
Mg -10.41100 17.12900 41.20800
C  -6.97200 17.21300 41.30600
C  -10.37300 20.50100 40.40400
C  -13.68200 16.83400 40.19500
C  -10.23400 13.60700 41.52500
N  -8.81700 18.64700 40.82100
C  -7.49400 18.46800 40.85700
C  -6.69600 19.85000 40.66500
C  -7.88100 20.89600 40.88700
C  -9.10800 19.96600 40.78000
C  -7.77500 21.69700 42.26700
C  -5.94600 20.03600 39.32200
C  -4.54400 19.51400 39.20200
H  -4.24600 18.32100 38.34800
N  -11.87000 18.46500 40.59700
C  -11.65100 19.83200 40.34400
C  -12.92200 20.42100 40.11000
C  -13.94800 19.35700 40.06000
C  -13.17400 18.12800 40.26400
C  -13.14600 21.89800 39.76300
C  -15.38500 19.53800 39.75400
O  -15.78600 20.67400 39.59000
C  -16.36100 18.43100 39.63200
N  -11.73500 15.37800 40.77700
C  -13.03000 15.55600 40.47500
C  -13.80900 14.22700 40.38000
C  -12.64700 13.17900 40.75500
C  -11.43700 14.05100 41.03500
C  -15.08600 14.13600 41.28100
C  -12.27200 12.22600 39.65900
C  -11.56300 12.72200 38.37500
N  -8.96800 15.69700 41.47100
C  -9.04100 14.31800 41.68600
C  -7.66400 13.77100 41.95600
C  -6.85900 14.95700 41.86600
C  -7.70900 16.02000 41.51700
C  -7.29700 12.37300 42.34200
C  -5.46300 15.39700 41.93700
O  -4.45500 14.76200 42.12200
C  -5.52900 16.94300 41.57400
C  -4.92500 17.72400 42.74800
O  -3.72800 17.89300 42.96700
O  -5.90000 18.23800 43.50700
C  -5.51100 19.02200 44.67600
H  -10.38100 21.59200 40.36200
H  -14.68600 16.67500 39.79500
H  -10.16800 12.56300 41.83900
H  -5.88900 20.01500 41.37900
H  -8.04900 21.50600 40.00000
H  -8.62800 21.55200 42.93000
H  -7.49600 22.74700 42.18300
H  -6.97800 21.22900 42.84600
H  -6.03000 21.06100 38.96200
H  -6.48400 19.47200 38.56000
H  -4.14400 19.22600 40.17500
H  -4.06900 20.35400 38.69500
H  -13.70300 21.97900 38.83000
H  -12.16500 22.31200 39.52900
H  -13.62200 22.49300 40.54300
H  -16.21600 17.92700 38.67700
H  -17.37300 18.83100 39.56900
H  -16.19100 17.75500 40.47000
H  -13.99000 14.10600 39.31200
H  -12.92300 12.63400 41.65700
H  -15.16100 13.23000 41.88300
H  -15.99000 14.21600 40.67700
H  -15.14400 15.03000 41.90100
H  -13.16500 11.70600 39.31300
H  -11.66700 11.42400 40.08300
H  -10.48500 12.56500 38.37000
H  -11.87100 13.74200 38.14600
H  -11.87400 12.05000 37.57500
H  -8.00300 11.73300 42.87100
H  -6.33900 12.31500 42.86000
H  -7.18300 11.88300 41.37500
H  -4.84700 16.94800 40.72400
H  -6.42200 19.47100 45.07200
H  -4.77600 19.79900 44.46900
H  -5.12900 18.28400 45.38100

