158

Mg 26.18500 1.48400 29.55800
C  28.33100 1.15600 32.37700
C  23.54300 1.77200 31.71500
C  24.25600 1.68600 26.88100
C  28.97500 0.63200 27.54900
N  25.96400 1.27700 31.87600
C  26.98100 1.32000 32.77500
C  26.36800 1.56000 34.19800
C  24.78600 1.47100 34.00100
C  24.74800 1.52300 32.43600
C  24.17000 0.14100 34.52500
C  26.86000 2.80100 34.89300
C  27.90100 2.68300 36.08500
H  27.66100 3.60400 37.23000
N  24.17600 1.65400 29.32400
C  23.28500 1.86000 30.36800
C  22.01200 2.11700 29.77200
C  22.09700 1.95400 28.37300
C  23.54500 1.64600 28.11700
C  20.75900 2.44000 30.48600
C  21.12400 2.05500 27.25500
O  21.33000 1.69800 26.12100
C  19.73800 2.67400 27.46200
N  26.57600 1.18200 27.44600
C  25.62400 1.38600 26.52900
C  26.26700 1.33100 25.09900
C  27.66900 0.82200 25.30400
C  27.78200 0.97600 26.89400
C  25.35200 0.59000 24.08300
C  28.82600 1.50900 24.58400
C  29.84600 0.65800 23.71000
N  28.22500 0.98700 29.88300
C  29.23200 0.79200 28.90400
C  30.51700 0.56500 29.63700
C  30.13900 0.70500 30.96400
C  28.78500 0.97900 31.03900
C  31.87900 0.45400 29.01600
C  30.77900 0.69000 32.22300
O  31.92800 0.46400 32.67400
C  29.55700 1.06700 33.25900
C  29.42900 0.01900 34.27700
O  28.96500 -1.08800 34.07000
O  30.00000 0.46300 35.45200
C  30.16400 -0.49800 36.51100
H  22.71000 2.03900 32.36900
H  23.64700 2.04300 26.04700
H  29.79100 0.37300 26.87100
H  26.60400 0.81000 34.95300
H  24.21500 2.36600 34.24900
H  23.51200 -0.34500 33.80500
H  23.54300 0.27500 35.40700
H  24.93400 -0.51400 34.94400
H  26.01000 3.36000 35.28500
H  27.31100 3.48400 34.17300
H  28.91600 2.87300 35.73500
H  27.87000 1.63400 36.37900
H  20.31900 3.36700 30.11900
H  20.86600 2.61400 31.55600
H  20.13800 1.56100 30.31300
H  19.17200 2.31400 28.32100
H  19.15800 2.47500 26.56100
H  19.91200 3.74700 27.54400
H  26.21700 2.36400 24.75600
H  27.73700 -0.25700 25.16800
H  24.47200 0.17200 24.57200
H  25.90100 -0.26300 23.68500
H  25.13800 1.39000 23.37400
H  29.34800 2.12900 25.31300
H  28.34600 2.21500 23.90700
H  30.83500 1.09300 23.85500
H  29.50600 0.44000 22.69800
H  29.83600 -0.33300 24.16400
H  32.63000 1.08100 29.49700
H  31.79400 0.76600 27.97500
H  32.12100 -0.60800 28.98500
H  29.83000 2.00700 33.73800
H  29.19800 -0.70000 36.97500
H  30.92400 -0.16600 37.21700
H  30.52100 -1.43500 36.08300
Mg -1.48400 34.83100 26.83300
C  -3.25500 33.15200 29.42000
C  -0.51900 37.08000 29.22100
C  0.59100 36.03700 24.58200
C  -3.34300 33.03400 24.50700
N  -1.98900 35.13300 29.08200
C  -2.56400 34.26800 29.93700
C  -2.57500 34.81700 31.42200
C  -1.83800 36.20500 31.20100
C  -1.47400 36.17500 29.74800
C  -2.56800 37.52200 31.64700
C  -1.94100 33.87200 32.42200
C  -1.60500 34.45300 33.78000
H  -2.24900 33.72600 34.84900
N  -0.21500 36.41400 26.85500
C  0.05200 37.25000 27.92500
C  0.94300 38.26600 27.47900
C  1.41800 37.95800 26.16100
C  0.62100 36.74400 25.85100
C  1.24700 39.45200 28.35100
C  2.45500 38.59700 25.22900
O  2.84100 38.10500 24.17800
C  3.04200 39.94800 25.64200
N  -1.49800 34.69300 24.71300
C  -0.34000 35.10600 24.06600
C  -0.41800 34.54300 22.62000
C  -1.76500 33.73500 22.53800
C  -2.25800 33.81000 24.02700
C  -0.15400 35.58900 21.49100
C  -1.54500 32.27700 22.24200
C  -0.50600 31.43200 23.04800
N  -3.00600 33.39200 26.89800
C  -3.66300 32.77400 25.85700
C  -4.57300 31.77300 26.38100
C  -4.43900 31.86000 27.73700
C  -3.51000 32.92100 28.05500
C  -5.54700 31.04900 25.64400
C  -4.95200 31.32700 29.00900
O  -5.77900 30.40900 29.17800
C  -4.26300 32.25300 30.16400
C  -5.39500 32.93600 30.83300
O  -5.90500 33.94400 30.39300
O  -5.66900 32.35800 32.10600
C  -6.57300 33.19500 32.90500
H  -0.21400 37.77900 30.00400
H  1.29700 36.37500 23.82000
H  -3.97200 32.40300 23.87600
H  -3.64300 34.95200 31.59300
H  -0.89200 36.23500 31.74100
H  -1.88800 38.30900 31.97500
H  -3.18200 37.30300 32.52000
H  -3.20600 37.86200 30.83100
H  -0.98400 33.67900 31.93800
H  -2.58900 32.99900 32.50300
H  -1.78800 35.52800 33.78900
H  -0.55300 34.30500 34.02500
H  0.95500 39.37600 29.39800
H  0.78600 40.29700 27.83800
H  2.31900 39.64800 28.37400
H  2.32100 40.69600 25.97000
H  3.52500 40.30300 24.73200
H  3.72700 39.94000 26.49000
H  0.39000 33.81700 22.52500
H  -2.49100 34.10400 21.81500
H  -0.02600 36.62400 21.80600
H  -0.94500 35.50200 20.74500
H  0.76400 35.39400 20.93700
H  -1.15800 32.25300 21.22300
H  -2.52100 31.79700 22.17000
H  -0.10700 32.02300 23.87300
H  0.39300 31.06400 22.55500
H  -1.03700 30.58000 23.47100
H  -6.48700 31.59600 25.57800
H  -5.85500 30.16000 26.19400
H  -5.18600 30.82400 24.64000
H  -3.79900 31.57700 30.88100
H  -7.33700 33.64600 32.27100
H  -5.90500 33.96700 33.28600
H  -7.02000 32.66900 33.74900

