158

Mg 24.66100 -3.95800 45.58200
C  26.84800 -1.89700 44.07300
C  22.17500 -2.96000 43.68800
C  22.96600 -6.96800 46.19700
C  27.40100 -5.51000 47.26000
N  24.47000 -2.45500 44.22100
C  25.47800 -1.74500 43.59100
C  24.97000 -0.89900 42.42100
C  23.41900 -0.95700 42.61100
C  23.36600 -2.21200 43.54200
C  22.62100 0.15500 43.26700
C  25.51000 -1.13500 40.97000
C  24.83400 -0.33400 39.84600
H  25.19200 -0.71600 38.40000
N  22.78700 -4.78400 45.15300
C  21.87400 -4.17400 44.36000
C  20.65500 -4.86300 44.44900
C  20.80900 -6.02300 45.22500
C  22.23800 -5.92500 45.59800
C  19.41100 -4.43900 43.66100
C  19.79600 -7.08100 45.69600
O  18.62900 -7.06000 45.19400
C  20.14600 -8.03300 46.80100
N  25.27000 -6.20800 46.32400
C  24.34900 -7.17100 46.55400
C  24.87100 -8.30700 47.38700
C  26.40200 -7.79500 47.70400
C  26.42200 -6.47600 47.02900
C  23.95200 -8.67500 48.62700
C  27.45600 -8.79900 47.14200
C  27.85200 -9.99600 48.04900
N  26.67200 -3.63400 45.86900
C  27.66100 -4.36700 46.51300
C  28.95000 -3.71300 46.37800
C  28.71400 -2.74700 45.37900
C  27.27500 -2.73900 45.15200
C  30.27500 -4.07800 47.03300
C  29.29500 -1.81400 44.47100
O  30.50100 -1.60400 44.35900
C  28.06200 -1.09900 43.61200
C  28.05300 0.32700 43.94500
O  27.68100 0.79500 45.03600
O  28.65600 1.03800 42.93300
C  29.13700 2.33700 43.39100
H  21.33300 -2.58900 43.10100
H  22.37300 -7.82000 46.53500
H  28.28900 -5.89400 47.76600
H  25.41100 0.07400 42.63900
H  22.84400 -1.23100 41.72700
H  23.07300 1.03300 43.72800
H  22.07500 -0.28400 44.10200
H  21.96100 0.59600 42.52100
H  25.38600 -2.21600 40.90800
H  26.57700 -0.91800 40.91800
H  25.10400 0.70600 40.02700
H  23.74400 -0.35200 39.87700
H  19.42100 -5.03300 42.74800
H  19.64700 -3.43300 43.31400
H  18.47600 -4.55100 44.21200
H  19.15300 -8.38500 47.07900
H  20.54300 -7.52600 47.68100
H  20.64800 -8.93300 46.44500
H  24.92100 -9.14600 46.69200
H  26.49900 -7.76600 48.78900
H  23.50100 -9.64100 48.40000
H  23.07800 -8.03800 48.76500
H  24.63000 -8.71700 49.47900
H  28.31600 -8.14000 47.02500
H  27.19000 -9.16500 46.15000
H  27.77600 -10.93000 47.49200
H  27.17200 -10.01900 48.90100
H  28.84000 -9.87300 48.49100
H  30.07500 -4.14300 48.10300
H  30.91100 -3.20900 46.86600
H  30.68900 -5.04800 46.75800
H  28.18700 -1.11900 42.52900
H  28.66800 3.02500 42.68800
H  30.19700 2.21900 43.16500
H  28.95000 2.65400 44.41700
Mg 48.07800 16.65000 28.49800
C  45.96600 16.32800 31.40500
C  50.09200 18.68300 30.21800
C  49.46000 17.23700 25.57700
C  45.18100 15.19000 26.67200
N  47.99400 17.39400 30.54300
C  47.16800 17.11300 31.59400
C  47.62500 17.75300 32.90100
C  48.73400 18.71100 32.42200
C  48.93900 18.27600 30.98600
C  48.47400 20.26200 32.62400
C  47.96300 16.66900 33.98700
C  47.36200 16.96400 35.37900
H  47.10800 18.39200 35.81300
N  49.67300 17.73800 27.97900
C  50.48800 18.52000 28.84600
C  51.65000 18.92600 28.11300
C  51.41800 18.57200 26.77200
C  50.16900 17.75400 26.67500
C  52.79200 19.76400 28.66300
C  52.45300 18.69700 25.58200
O  52.13200 18.20700 24.46300
C  53.75300 19.35300 25.77400
N  47.32400 16.41600 26.36900
C  48.25500 16.64200 25.40100
C  47.70000 16.14800 24.02800
C  46.29600 15.54900 24.38000
C  46.17600 15.75500 25.92100
C  47.53900 17.34100 22.89200
C  46.09300 14.09300 23.80300
C  44.89600 13.97300 22.78900
N  46.02200 15.86300 28.85700
C  44.96700 15.36300 28.07200
C  43.89000 14.78800 28.88000
C  44.20000 15.20500 30.19900
C  45.47700 15.89200 30.09900
C  42.69800 14.02200 28.41700
C  43.72800 15.21700 31.53900
O  42.68400 14.89900 32.00800
C  44.87200 16.03100 32.48800
C  44.12000 17.20400 33.03700
O  44.16100 18.32200 32.56900
O  43.30400 16.87500 34.14700
C  42.79900 17.95100 34.92700
H  50.91900 19.25600 30.64200
H  50.02600 17.28900 24.64400
H  44.46200 14.57300 26.13000
H  46.79900 18.38300 33.23300
H  49.73500 18.54200 32.81800
H  47.41600 20.46000 32.79600
H  48.73600 20.69900 31.66100
H  49.06600 20.74900 33.39900
H  49.02700 16.60400 34.21500
H  47.72700 15.68700 33.57700
H  47.84900 16.51700 36.24600
H  46.43800 16.38900 35.44900
H  52.55300 20.11600 29.66700
H  53.12500 20.64700 28.11700
H  53.59000 19.05300 28.87700
H  53.65400 20.40900 26.02300
H  54.33600 19.35300 24.85300
H  54.21400 18.66000 26.47800
H  48.38500 15.39200 23.64400
H  45.47300 16.13300 23.96700
H  46.46000 17.48000 22.82300
H  47.98600 17.17200 21.91300
H  47.95500 18.22000 23.38400
H  46.00600 13.36700 24.61100
H  47.03400 13.94500 23.27300
H  44.88800 12.92200 22.50000
H  45.12000 14.57400 21.90700
H  44.01100 14.32600 23.31700
H  43.07800 13.18700 27.82800
H  41.98400 14.62400 27.85500
H  42.22600 13.71700 29.35100
H  45.16800 15.40900 33.33200
H  42.13300 18.50700 34.26900
H  43.51500 18.69400 35.27900
H  42.29900 17.62200 35.83800

