158

Mg 24.88400 -6.75500 47.75500
C  27.66500 -4.73800 46.90100
C  22.94400 -4.81500 45.87900
C  22.73800 -9.34600 47.83200
C  27.24400 -8.77800 49.63500
N  25.35200 -5.13800 46.21400
C  26.47100 -4.36800 46.17200
C  26.21800 -3.09600 45.39400
C  24.66700 -3.04500 45.29300
C  24.28900 -4.43100 45.85900
C  23.94300 -1.89800 46.03200
C  26.92200 -3.01200 43.99600
C  26.89600 -1.63500 43.22500
H  25.99000 -1.57100 42.02000
N  23.03900 -6.98100 46.99500
C  22.33000 -6.10100 46.21400
C  21.02400 -6.65200 45.86200
C  20.85900 -7.88600 46.58100
C  22.26500 -8.15900 47.16000
C  20.09600 -5.89600 44.98400
C  19.62900 -8.76500 46.59000
O  18.59300 -8.43800 46.03200
C  19.55600 -10.09200 47.25600
N  25.10100 -8.79900 48.44900
C  24.01800 -9.62200 48.50400
C  24.10800 -10.89000 49.33100
C  25.56100 -10.64900 49.95300
C  26.04700 -9.37300 49.32700
C  23.01400 -10.90500 50.43300
C  26.53100 -11.85200 49.80200
C  27.72400 -12.07900 50.76900
N  26.90900 -6.71800 48.33000
C  27.73500 -7.62000 49.13700
C  29.04500 -7.08200 49.23900
C  29.09000 -5.94000 48.40400
C  27.81100 -5.78800 47.86500
C  30.23800 -7.76500 49.78600
C  29.94000 -4.94700 47.86400
O  31.15200 -4.75100 47.94700
C  29.07600 -4.15100 46.87400
C  29.15200 -2.70400 47.24500
O  29.35100 -2.22900 48.29900
O  29.02800 -1.98700 46.09800
C  28.76500 -0.58400 46.26800
H  22.25400 -4.16300 45.33900
H  22.02600 -10.12700 48.10400
H  27.87800 -9.26400 50.37900
H  26.68400 -2.36200 46.05200
H  24.31300 -3.02800 44.26200
H  24.56600 -1.00500 46.01900
H  23.73300 -2.24800 47.04200
H  22.97300 -1.80800 45.54100
H  26.40400 -3.71600 43.34400
H  27.95900 -3.32500 44.11000
H  27.92000 -1.42700 42.91700
H  26.48200 -0.84000 43.84500
H  20.50200 -5.70200 43.99200
H  19.91500 -4.99200 45.56500
H  19.14600 -6.40400 44.81700
H  18.68400 -10.73400 47.13400
H  19.78500 -9.95000 48.31300
H  20.32300 -10.64100 46.71000
H  24.10300 -11.76800 48.68500
H  25.52800 -10.35000 51.00100
H  22.27100 -10.12200 50.28300
H  23.45600 -10.76300 51.41900
H  22.56100 -11.89000 50.55200
H  26.93300 -11.83200 48.78900
H  25.92800 -12.75900 49.85900
H  27.53900 -13.05900 51.20900
H  27.69100 -11.44500 51.65500
H  28.65500 -12.07100 50.20200
H  31.11100 -7.25700 49.37800
H  30.28400 -8.79500 49.43200
H  30.23000 -7.78800 50.87600
H  29.54900 -4.37800 45.91900
H  29.68000 -0.22600 46.74000
H  27.90600 -0.28300 46.86700
H  28.74000 -0.14600 45.27000
Mg 43.80100 4.15600 47.52300
C  41.55600 6.91700 47.27300
C  41.01700 2.19200 48.03600
C  45.72700 1.48200 47.26400
C  46.36300 6.28500 46.87300
N  41.54400 4.57100 47.62100
C  40.90600 5.74700 47.44300
C  39.40000 5.55700 47.63800
C  39.22500 4.03600 47.90900
C  40.66600 3.53800 47.90600
C  38.28700 3.60500 49.10700
C  38.47800 6.11800 46.54900
C  38.96900 6.09300 45.13300
H  38.53900 7.21000 44.16900
N  43.43100 2.09900 47.70300
C  42.22500 1.50600 47.89200
C  42.51400 0.05800 48.02200
C  43.84900 -0.20100 47.69900
C  44.39800 1.14500 47.58700
C  41.48300 -1.00700 48.30200
C  44.52900 -1.55800 47.70700
O  43.89800 -2.55900 48.00300
C  45.89300 -1.84800 47.26700
N  45.69800 3.91200 46.84800
C  46.27800 2.67500 47.04300
C  47.81600 2.82400 47.08700
C  48.04700 4.39700 46.88800
C  46.63500 4.92000 46.85500
C  48.54800 2.18400 48.36400
C  48.87800 4.73200 45.56900
C  50.32500 4.99100 45.86100
N  43.96300 6.20800 46.97000
C  45.13600 7.00100 46.86500
C  44.76600 8.40700 46.76100
C  43.39400 8.39500 46.86600
C  42.90800 7.09900 46.98100
C  45.69700 9.58500 46.63800
C  42.29400 9.23700 47.06000
O  42.27800 10.46600 47.13900
C  40.98200 8.32200 47.14600
C  40.07900 8.72800 48.33000
O  40.24600 8.46900 49.47800
O  38.96600 9.39200 47.78900
C  38.07300 9.97300 48.73800
H  40.11700 1.57600 48.09400
H  46.40800 0.63100 47.20800
H  47.25000 6.90800 46.74500
H  39.10500 6.08800 48.54300
H  38.69700 3.59300 47.06400
H  37.91000 4.53700 49.52800
H  38.85800 3.05100 49.85200
H  37.48500 2.92900 48.80900
H  38.07700 7.10900 46.76200
H  37.53400 5.57800 46.47600
H  38.49200 5.22000 44.68900
H  40.02900 5.84300 45.07900
H  41.65400 -1.44500 49.28500
H  41.51700 -1.60900 47.39400
H  40.45700 -0.64000 48.26400
H  46.73500 -1.45700 47.83700
H  46.00700 -1.41900 46.27100
H  45.93800 -2.93500 47.19300
H  48.32300 2.28000 46.29000
H  48.51900 4.66700 47.83200
H  47.75800 1.94500 49.07600
H  49.26900 2.80700 48.89300
H  49.00000 1.25600 48.01600
H  48.54600 5.71400 45.23200
H  48.71600 4.03600 44.74700
H  50.89000 4.83700 44.94100
H  50.76100 4.40900 46.67300
H  50.38300 6.03600 46.16700
H  46.49400 9.29800 45.95100
H  46.18600 9.66800 47.60900
H  45.19600 10.51900 46.38400
H  40.35400 8.35100 46.25600
H  38.59000 10.32100 49.63200
H  37.39800 9.17000 49.03400
H  37.62700 10.79100 48.17300

