158

Mg 0.57200 7.44700 25.69900
C  1.25100 9.67400 28.27500
C  0.88400 4.89500 27.92700
C  0.01300 5.20300 23.09500
C  1.00700 9.96000 23.39300
N  1.18900 7.29600 27.82400
C  1.22000 8.35500 28.69900
C  1.35300 7.89900 30.12100
C  1.53300 6.33000 29.96800
C  1.14100 6.16200 28.49300
C  2.90900 5.69600 30.33400
C  0.01000 8.31500 30.84800
C  0.16700 8.61500 32.36000
H  1.29800 8.01600 33.08300
N  0.47000 5.38800 25.54300
C  0.57900 4.50700 26.59800
C  0.13300 3.22100 26.15900
C  -0.00500 3.17000 24.76600
C  0.21900 4.66800 24.40800
C  -0.03900 2.09800 27.11400
C  -0.31200 2.06400 23.86100
O  -0.54000 2.30900 22.67600
C  -0.34600 0.56900 24.47100
N  0.76300 7.56000 23.51400
C  0.33800 6.51700 22.70400
C  0.06200 7.05300 21.28900
C  0.41800 8.53900 21.43600
C  0.70300 8.71200 22.87800
C  0.76700 6.29700 20.10100
C  -0.46100 9.58400 20.74800
C  -1.80000 9.88600 21.47200
N  0.99100 9.48700 25.74600
C  1.16900 10.37200 24.74600
C  1.60600 11.66400 25.35600
C  1.60900 11.42000 26.75000
C  1.12900 10.11800 26.95900
C  1.84300 12.98100 24.54400
C  1.89900 11.99500 28.01300
O  2.24500 13.12700 28.29800
C  1.69500 10.87600 29.08600
C  2.93100 10.72400 29.89200
O  3.98600 10.17400 29.53600
O  2.67600 11.20400 31.15200
C  3.80700 11.15100 32.12100
H  1.01500 4.04800 28.60300
H  -0.15400 4.60100 22.19900
H  0.98400 10.82100 22.72200
H  2.22800 8.28700 30.64400
H  0.81600 5.81000 30.60200
H  3.54000 6.53800 30.61800
H  3.40400 5.17200 29.51600
H  2.71600 5.06200 31.19900
H  -0.82500 7.67500 30.56300
H  -0.36300 9.24400 30.41700
H  -0.76100 8.36200 32.87200
H  0.21300 9.70400 32.38300
H  -0.30800 2.42500 28.11800
H  0.84400 1.46100 27.14300
H  -0.88200 1.48400 26.79500
H  -1.21500 0.30600 25.07400
H  0.59100 0.41900 25.00600
H  -0.36000 -0.16500 23.66500
H  -1.01900 6.97100 21.18300
H  1.36100 8.74100 20.92800
H  1.36000 5.61800 20.71500
H  1.53700 6.78900 19.50700
H  0.01800 5.74900 19.52900
H  -0.71700 9.50700 19.69100
H  0.10600 10.50900 20.85100
H  -1.84400 10.74600 22.14000
H  -2.08700 9.04300 22.10100
H  -2.55400 10.09900 20.71400
H  1.50100 13.80600 25.17000
H  1.38200 13.14300 23.57000
H  2.92600 13.04700 24.44400
H  0.93300 11.13800 29.82000
H  3.71300 11.69600 33.06000
H  4.79700 11.28300 31.68500
H  4.00300 10.14900 32.50100
Mg -10.84900 15.94400 43.42200
C  -7.53400 16.69700 43.12900
C  -11.75100 19.20300 42.80200
C  -14.20400 15.05700 43.59900
C  -10.02300 12.61700 43.69800
N  -9.78100 17.74400 42.97900
C  -8.40800 17.83200 42.94800
C  -7.96900 19.25000 42.71200
C  -9.40800 20.01100 42.61300
C  -10.42700 18.90600 42.87900
C  -9.54800 21.12000 43.61400
C  -7.12300 19.62400 41.42100
C  -5.76200 20.37900 41.58500
H  -4.99200 20.70800 40.37200
N  -12.74700 16.97600 43.12900
C  -12.85400 18.29300 42.94900
C  -14.21500 18.59000 42.77000
C  -15.04600 17.44800 42.96900
C  -14.00200 16.42700 43.25800
C  -14.58300 20.05100 42.59700
C  -16.61500 17.32200 42.88000
O  -17.19800 18.38100 42.51300
C  -17.34000 16.12400 43.25100
N  -12.00700 14.04400 43.29900
C  -13.29500 14.03000 43.73200
C  -13.68900 12.65500 44.25100
C  -12.35900 11.79600 44.21900
C  -11.41200 12.87100 43.65200
C  -14.45800 12.61700 45.61900
C  -12.23300 10.53500 43.31300
C  -12.12100 9.12500 43.98900
N  -9.13400 14.77200 43.38400
C  -8.94300 13.46700 43.52200
C  -7.51400 13.22900 43.57900
C  -6.87400 14.43300 43.37100
C  -7.94700 15.38900 43.24000
C  -6.97700 11.85000 43.82500
C  -5.59900 15.10600 43.25500
O  -4.48900 14.69100 43.21700
C  -5.93100 16.62000 43.06300
C  -5.27800 17.47300 44.06700
O  -5.85700 17.85700 45.08900
O  -3.91500 17.59300 43.86700
C  -3.14200 18.16800 44.96100
H  -11.90700 20.27100 42.63500
H  -15.17500 14.59500 43.79200
H  -9.68400 11.63100 44.02300
H  -7.39900 19.56700 43.58500
H  -9.69400 20.40700 41.63800
H  -8.60300 21.47700 44.02400
H  -10.22300 20.85700 44.42900
H  -10.03700 21.99700 43.19000
H  -7.67200 20.21200 40.68500
H  -6.89500 18.70600 40.87800
H  -5.07400 19.63300 41.98200
H  -5.91000 21.17700 42.31300
H  -15.62500 20.26500 42.83400
H  -14.35300 20.29100 41.55900
H  -14.05200 20.72300 43.27100
H  -18.38400 16.37000 43.05800
H  -17.19900 15.80800 44.28400
H  -17.01300 15.33300 42.57500
H  -14.34900 12.34700 43.44000
H  -11.95900 11.48600 45.18500
H  -14.09600 13.46000 46.20700
H  -14.07500 11.70700 46.08100
H  -15.52800 12.77100 45.47800
H  -11.40900 10.71300 42.62200
H  -13.13900 10.48700 42.70900
H  -11.57900 9.25700 44.92500
H  -11.67500 8.41100 43.29500
H  -13.11900 8.74100 44.20000
H  -7.32400 11.19900 43.02300
H  -7.23400 11.38700 44.77800
H  -5.89900 11.91800 43.68100
H  -5.49000 16.85500 42.09500
H  -2.36400 18.80200 44.53400
H  -2.61300 17.38600 45.50600
H  -3.65900 18.72800 45.74100

