158

Mg 24.24900 -5.98700 45.06200
C  26.58700 -3.74200 43.82700
C  21.73500 -4.61400 43.24200
C  22.40100 -8.84000 45.56000
C  27.05100 -7.75600 46.62300
N  24.20600 -4.36400 43.69600
C  25.24500 -3.53600 43.37100
C  24.77500 -2.43500 42.42800
C  23.22600 -2.58700 42.51700
C  22.99800 -3.99900 43.09800
C  22.42500 -1.48600 43.23400
C  25.42300 -2.60000 40.96300
C  25.72400 -1.28200 40.30100
H  25.05000 -1.10000 38.91900
N  22.26500 -6.51500 44.67400
C  21.38200 -5.80000 43.89000
C  20.13700 -6.51800 43.81700
C  20.27000 -7.72900 44.53800
C  21.66500 -7.73900 44.94700
C  19.03900 -6.09200 42.91200
C  19.17000 -8.75000 44.62500
O  17.98800 -8.48300 44.35600
C  19.37700 -10.20900 45.16000
N  24.70000 -7.98800 45.88200
C  23.69300 -8.91200 45.95700
C  24.19300 -10.23200 46.52500
C  25.57400 -9.83500 47.12800
C  25.80300 -8.43400 46.58900
C  23.28500 -10.95600 47.61000
C  26.77800 -10.77200 46.77800
C  27.70100 -11.14500 48.01900
N  26.34300 -5.87700 45.23800
C  27.33400 -6.56400 45.97900
C  28.62200 -5.86000 45.91100
C  28.35100 -4.75000 45.06700
C  26.95400 -4.82300 44.69000
C  29.87500 -6.38100 46.58300
C  28.99700 -3.63400 44.41900
O  30.13200 -3.17000 44.42400
C  27.86800 -2.87900 43.65000
C  27.79500 -1.50000 44.08400
O  27.61100 -1.09300 45.23900
O  27.97500 -0.61100 43.00200
C  27.92300 0.79700 43.35300
H  20.91500 -4.25100 42.61800
H  21.79300 -9.73500 45.70900
H  27.94100 -8.25700 47.01100
H  24.99900 -1.45800 42.85600
H  22.73300 -2.40500 41.56300
H  21.56300 -1.12400 42.67400
H  23.02300 -0.58200 43.35300
H  22.17000 -1.77200 44.25500
H  24.63900 -3.13000 40.42300
H  26.34100 -3.17800 41.06400
H  26.78000 -1.19200 40.04900
H  25.38800 -0.45200 40.92300
H  18.62100 -6.92300 42.34300
H  19.27300 -5.21900 42.30400
H  18.27200 -5.70700 43.58500
H  18.35200 -10.57800 45.16300
H  19.83100 -10.02800 46.13400
H  20.09200 -10.70400 44.50300
H  24.25100 -10.90500 45.66900
H  25.50100 -9.74200 48.21100
H  24.04000 -11.40300 48.25700
H  22.68200 -11.73300 47.14000
H  22.59400 -10.22700 48.03400
H  27.30700 -10.30300 45.94800
H  26.38400 -11.66900 46.29900
H  27.78700 -12.22600 47.90600
H  27.20400 -10.88900 48.95500
H  28.63800 -10.58900 48.00300
H  30.02000 -7.45300 46.45200
H  29.81200 -6.24900 47.66300
H  30.70800 -5.79300 46.19800
H  28.22800 -2.84400 42.62200
H  28.73300 1.05000 44.03700
H  26.92900 1.06200 43.71500
H  28.10400 1.46500 42.51000
Mg 35.87000 1.87200 30.27100
C  33.19800 3.08500 32.36700
C  37.90700 2.15300 32.91800
C  38.29600 0.93700 28.34900
C  33.55000 2.05300 27.63500
N  35.52700 2.45000 32.42600
C  34.34600 2.82600 33.08400
C  34.60900 3.05800 34.61000
C  36.20000 3.02300 34.66800
C  36.58600 2.51400 33.24800
C  36.83900 4.43500 35.07700
C  33.79000 2.06300 35.46400
C  34.40500 1.50700 36.68100
H  34.91400 2.52200 37.72200
N  37.77400 1.50300 30.61300
C  38.50100 1.61600 31.76000
C  39.86100 1.17800 31.57200
C  40.01300 0.94500 30.22400
C  38.66700 1.09000 29.64500
C  40.78000 1.08200 32.76400
C  41.25600 0.58900 29.41500
O  41.30800 0.66400 28.22000
C  42.59100 0.43200 30.18100
N  35.90000 1.57800 28.28700
C  37.04100 1.14500 27.66100
C  36.85600 0.86300 26.19100
C  35.32500 1.20400 25.97400
C  34.88700 1.65500 27.36500
C  37.79000 1.65300 25.25700
C  34.44500 0.07400 25.26200
C  33.47600 0.46800 24.07500
N  33.77000 2.45900 30.00600
C  32.98700 2.48300 28.87500
C  31.66000 2.88200 29.28100
C  31.65900 3.16000 30.62200
C  32.98300 2.87200 30.99700
C  30.56100 3.19800 28.34400
C  30.89200 3.74000 31.72800
O  29.81000 4.32400 31.74400
C  31.82200 3.53500 32.93200
C  31.95400 4.82400 33.69700
O  32.76100 5.71500 33.42000
O  31.24300 4.62900 34.81900
C  31.38000 5.60000 35.81800
H  38.56700 2.35900 33.76300
H  39.00400 0.60900 27.58500
H  32.84700 2.11400 26.80100
H  34.37400 4.08100 34.90100
H  36.57400 2.30300 35.39600
H  37.40100 4.40100 36.01000
H  36.19300 5.30800 34.98500
H  37.70500 4.63600 34.44500
H  33.21900 1.27500 34.97200
H  32.96200 2.68700 35.79800
H  35.23500 0.89600 36.32700
H  33.67400 0.87600 37.18700
H  41.33100 2.01300 32.63500
H  41.43900 0.21500 32.71200
H  40.27100 1.11700 33.72800
H  42.62100 1.33000 30.79800
H  43.37600 0.19600 29.46300
H  42.35000 -0.34200 30.91100
H  37.10500 -0.19400 26.10000
H  35.31700 2.10600 25.36200
H  38.65900 1.09900 24.90200
H  38.23900 2.58900 25.58900
H  37.16200 1.97000 24.42400
H  33.94700 -0.48000 26.05700
H  35.22400 -0.59700 24.90100
H  33.76400 -0.09200 23.18600
H  33.57900 1.52300 23.82000
H  32.43800 0.36600 24.39300
H  30.32600 2.38200 27.66000
H  30.76600 4.03100 27.67300
H  29.72500 3.45300 28.99500
H  31.38200 2.71900 33.50400
H  30.42900 5.83300 36.29800
H  31.72200 6.57600 35.47400
H  31.97000 5.23000 36.65700

