158

Mg 3.79400 -0.55300 43.41700
C  7.20300 0.04100 43.10400
C  3.12400 2.22800 41.59300
C  0.50600 -1.59200 43.07000
C  4.52600 -3.73700 44.67500
N  5.06500 0.87600 42.52200
C  6.45900 1.02000 42.48000
C  6.95600 2.24500 41.77400
C  5.56600 3.07300 41.76800
C  4.47200 2.01900 41.96800
C  5.39400 4.20200 42.82800
C  7.61000 1.99300 40.39700
C  7.27500 0.71200 39.60000
H  6.25200 0.78900 38.47000
N  2.03900 0.29000 42.46800
C  1.96600 1.49000 41.88900
C  0.63000 1.79900 41.56300
C  -0.23400 0.73800 42.02900
C  0.76600 -0.29700 42.55600
C  0.18300 3.08100 40.99900
C  -1.75700 0.65800 42.02200
O  -2.44100 1.56400 41.55900
C  -2.57700 -0.44900 42.49600
N  2.65900 -2.37500 43.82600
C  1.34900 -2.53000 43.58200
C  0.88100 -4.00300 43.95900
C  2.25500 -4.72200 44.29300
C  3.23600 -3.53300 44.25500
C  -0.11900 -4.10600 45.21000
C  2.67900 -5.91300 43.28700
C  2.89300 -7.19300 44.05200
N  5.42700 -1.60300 44.06100
C  5.58200 -2.84200 44.60200
C  6.99400 -3.13300 45.03700
C  7.66900 -2.04100 44.45400
C  6.69200 -1.11400 43.87300
C  7.51400 -4.31900 45.75200
C  9.02000 -1.46600 44.12200
O  10.16400 -1.80000 44.37400
C  8.75100 -0.11400 43.28000
C  9.37800 1.07000 43.92700
O  9.86000 2.02400 43.29700
O  9.21900 1.12000 45.28600
C  9.55900 2.32100 45.98800
H  3.03900 3.16200 41.03300
H  -0.51400 -1.92200 43.27600
H  4.66400 -4.71100 45.15000
H  7.70900 2.70700 42.41200
H  5.54200 3.62300 40.82700
H  5.20400 5.19400 42.41700
H  6.36500 4.36200 43.29900
H  4.57300 4.08100 43.53400
H  8.69700 1.92200 40.43500
H  7.48200 2.83100 39.71100
H  6.73700 0.05900 40.28800
H  8.22500 0.23000 39.36900
H  1.00100 3.46900 40.39100
H  0.08300 3.84400 41.77100
H  -0.66500 3.08300 40.31500
H  -2.47800 -0.73000 43.54500
H  -2.19400 -1.27200 41.89300
H  -3.63900 -0.30000 42.30300
H  0.49000 -4.48800 43.06500
H  2.28300 -5.09200 45.31800
H  0.14500 -5.03900 45.70900
H  -1.17800 -4.12200 44.95500
H  0.02500 -3.27700 45.90200
H  3.49700 -5.62700 42.62500
H  1.84500 -6.06800 42.60200
H  3.31400 -7.95900 43.40100
H  1.99400 -7.47600 44.60100
H  3.68300 -7.05500 44.79100
H  8.57600 -4.35700 45.99100
H  7.23700 -5.14900 45.10200
H  6.90600 -4.46100 46.64500
H  9.27400 -0.06200 42.32500
H  9.24100 2.10500 47.00800
H  8.88500 3.11300 45.66200
H  10.61700 2.55000 45.85700
Mg 47.08800 24.71100 28.63300
C  47.69700 27.08800 31.26000
C  45.87100 22.69500 30.93300
C  46.85500 22.53600 26.04900
C  48.36700 27.18700 26.38200
N  47.29900 24.74000 30.91800
C  47.28700 25.81300 31.73400
C  46.77500 25.50400 33.17100
C  46.36000 24.00800 33.08900
C  46.51100 23.78900 31.56600
C  47.11800 23.02000 33.87400
C  45.76300 26.47600 33.77500
C  46.07000 27.07400 35.22900
H  45.12900 26.75800 36.37100
N  46.50200 22.79600 28.54100
C  45.96300 22.12300 29.61300
C  45.36200 20.86500 29.08000
C  45.82200 20.74300 27.73200
C  46.47800 22.01600 27.34600
C  44.73500 19.78600 29.93600
C  45.72200 19.60700 26.75100
O  46.26400 19.60200 25.66500
C  44.92800 18.40400 27.15800
N  47.78000 24.80200 26.51300
C  47.42600 23.79500 25.70000
C  47.73900 24.17700 24.30000
C  47.75400 25.75300 24.34000
C  47.97800 25.98600 25.81700
C  49.09800 23.68300 23.80000
C  46.48400 26.45600 23.78800
C  45.43000 27.10200 24.78200
N  48.02000 26.64300 28.75200
C  48.44000 27.51500 27.75300
C  48.83000 28.81300 28.29800
C  48.54600 28.62500 29.63700
C  48.11300 27.33300 29.90100
C  49.22400 30.04400 27.60500
C  48.53000 29.35700 30.91800
O  48.97300 30.47800 31.23100
C  48.05700 28.29700 32.05700
C  49.07800 28.04300 33.09800
O  49.97500 27.23500 33.01900
O  48.99000 29.06000 34.07800
C  49.68300 28.89200 35.36500
H  45.30800 22.04200 31.60300
H  46.66000 21.83600 25.23400
H  48.54300 28.12100 25.84400
H  47.65700 25.53700 33.81000
H  45.27700 23.93200 33.19100
H  47.94600 23.46100 34.42900
H  47.49000 22.19100 33.27100
H  46.41700 22.55900 34.56900
H  44.77700 26.01100 33.78100
H  45.41900 27.18700 33.02400
H  46.15100 28.16100 35.23500
H  47.03400 26.73100 35.60300
H  43.78700 19.70400 29.40500
H  44.43900 20.13200 30.92600
H  45.03200 18.75000 29.77200
H  43.98000 18.65500 27.63300
H  45.54400 17.83100 27.85000
H  44.71800 17.71600 26.33900
H  46.86500 23.88500 23.71800
H  48.60600 26.17100 23.80300
H  49.72400 24.56200 23.64800
H  49.05600 23.05100 22.91200
H  49.67200 23.12500 24.53900
H  46.13100 25.63100 23.17000
H  46.92100 27.25600 23.18900
H  45.57000 26.87500 25.83900
H  44.50900 26.60400 24.47800
H  45.31400 28.16200 24.55800
H  50.11900 30.02600 26.98400
H  49.24100 30.93100 28.23900
H  48.42500 30.22300 26.88600
H  47.27700 28.71700 32.69100
H  50.70700 28.54700 35.22000
H  49.22800 28.15300 36.02400
H  49.54200 29.73700 36.03800

