158

Mg 48.46100 45.37100 42.29900
C  45.14300 45.73900 41.01700
C  48.37900 42.06200 41.29200
C  51.79800 45.48300 42.25200
C  48.39300 48.81500 43.04400
N  46.82900 44.05400 41.42300
C  45.61100 44.44400 40.97400
C  44.94800 43.30500 40.28100
C  45.87500 42.04000 40.70600
C  47.11300 42.71600 41.12600
C  45.34500 41.05600 41.75500
C  44.79300 43.50500 38.73100
C  43.67300 42.69800 38.01200
H  44.11000 41.45900 37.21700
N  49.91900 43.95800 41.88700
C  49.67900 42.69000 41.56000
C  50.93700 41.92500 41.45300
C  51.97900 42.90200 41.74900
C  51.27800 44.15600 42.02300
C  51.09900 40.47700 41.21300
C  53.42700 42.55900 41.87500
O  53.84700 41.41800 41.72600
C  54.42800 43.64900 42.16100
N  49.92500 46.96300 42.52700
C  51.26200 46.71100 42.47300
C  52.06800 47.96700 42.71900
C  50.96700 49.01400 43.20000
C  49.68300 48.22800 42.87800
C  53.26200 47.79400 43.79800
C  51.27400 50.45900 42.71800
C  51.23400 51.50500 43.76600
N  47.04000 46.96300 42.18000
C  47.18300 48.25500 42.51700
C  45.92000 48.91700 42.27500
C  45.05200 47.97100 41.67000
C  45.79300 46.82000 41.65900
C  45.51800 50.31300 42.55700
C  43.81200 47.73400 41.06200
O  42.91600 48.52100 40.77400
C  43.83000 46.28800 40.42000
C  42.48600 45.63300 40.84500
O  41.61500 45.23100 40.11400
O  42.55400 45.35900 42.13000
C  41.30600 44.95900 42.75500
H  48.33600 41.07700 40.82300
H  52.88800 45.52000 42.20900
H  48.39400 49.85800 43.36800
H  43.99300 43.22800 40.80200
H  45.94300 41.46100 39.78500
H  44.49000 41.55700 42.20900
H  46.08300 40.93100 42.54700
H  45.04100 40.09800 41.33200
H  45.72600 43.16900 38.27900
H  44.77600 44.57400 38.52000
H  43.08100 43.31900 37.33900
H  43.02500 42.30100 38.79300
H  51.65100 40.31500 40.28700
H  50.11800 40.00300 41.24700
H  51.67200 39.93200 41.96200
H  54.49100 44.44600 41.42000
H  55.43600 43.29200 42.36900
H  54.07700 44.00600 43.13000
H  52.44900 48.29800 41.75200
H  51.00200 49.01900 44.28900
H  53.40900 46.75200 44.08000
H  53.06300 48.34100 44.72000
H  54.10500 48.14700 43.20400
H  50.67900 50.71300 41.84100
H  52.21500 50.58400 42.18200
H  51.69900 51.16300 44.69100
H  50.22000 51.86300 43.94400
H  51.84900 52.37500 43.53700
H  46.27000 51.02900 42.22300
H  45.50000 50.32900 43.64700
H  44.50600 50.62600 42.30200
H  43.74300 46.35500 39.33600
H  40.41400 45.02900 42.13200
H  41.22400 45.40700 43.74600
H  41.53200 43.90300 42.90600
Mg 0.21100 43.45500 26.81500
C  2.50200 43.17400 29.35000
C  -2.35400 42.80200 29.05900
C  -2.02200 43.25200 24.16900
C  2.81900 43.53300 24.53000
N  0.08800 43.09300 28.97400
C  1.14100 43.18500 29.84400
C  0.68100 43.22100 31.29800
C  -0.79500 42.73600 31.17900
C  -1.07600 42.83600 29.61600
C  -1.03800 41.39100 31.78900
C  0.89200 44.61800 31.96800
C  1.19700 44.73500 33.47900
H  0.79900 43.58200 34.42800
N  -1.89500 43.25700 26.67100
C  -2.69500 43.00800 27.73000
C  -4.06200 42.95400 27.25700
C  -4.02300 43.04100 25.81700
C  -2.62200 43.10900 25.50500
C  -5.23100 43.00500 28.21200
C  -5.13500 43.12900 24.79800
O  -4.99300 43.09700 23.56700
C  -6.61000 43.08500 25.29500
N  0.31000 43.41100 24.67400
C  -0.68400 43.40700 23.81100
C  -0.21400 43.19100 22.35600
C  1.26200 43.47500 22.48000
C  1.50000 43.53100 23.98500
C  -0.64300 41.76100 21.83500
C  1.87500 44.68400 21.63800
C  1.77900 46.01500 22.44100
N  2.27300 43.26200 26.90300
C  3.19200 43.37100 25.85700
C  4.48800 43.47800 26.43600
C  4.24100 43.22100 27.80500
C  2.90300 43.21100 28.01000
C  5.74200 43.63600 25.57300
C  4.88400 43.02100 29.10700
O  6.07600 43.03400 29.41500
C  3.77600 42.92700 30.15900
C  3.79800 41.64300 30.84100
O  3.81400 40.54400 30.42400
O  3.78000 41.81000 32.21700
C  3.93100 40.62100 33.12600
H  -3.17400 42.54000 29.73100
H  -2.69600 43.12200 23.32000
H  3.59200 43.65600 23.76900
H  1.25100 42.51600 31.90300
H  -1.53000 43.31500 31.73700
H  -1.80100 41.40000 32.56700
H  -0.13900 41.04900 32.30100
H  -1.37300 40.66600 31.04800
H  0.06200 45.18100 31.54300
H  1.73100 45.04800 31.42200
H  0.62300 45.61900 33.75800
H  2.26400 44.95500 33.51200
H  -6.09600 43.57700 27.87600
H  -4.88100 43.49700 29.11900
H  -5.60000 42.02800 28.52500
H  -6.75600 42.11500 25.77200
H  -7.25400 43.03300 24.41700
H  -6.74000 43.99200 25.88500
H  -0.74300 43.82100 21.64100
H  1.86100 42.62200 22.16200
H  -1.14200 41.16000 22.59500
H  0.23800 41.23800 21.46300
H  -1.32000 41.87200 20.98800
H  1.40500 44.90000 20.67900
H  2.91100 44.37300 21.50000
H  2.03800 46.86200 21.80600
H  2.31700 45.85400 23.37400
H  0.75200 46.17900 22.76700
H  5.79000 42.97500 24.70800
H  6.64400 43.43600 26.15100
H  5.80100 44.66300 25.21200
H  3.91700 43.70400 30.91000
H  4.68800 40.84700 33.87800
H  4.39600 39.74600 32.67200
H  2.96400 40.56100 33.62400

