158

Mg 17.56600 -1.13600 27.80600
C  16.60700 0.96300 30.51700
C  19.29600 -3.05100 29.80900
C  18.84100 -2.60800 24.97100
C  15.87300 1.12300 25.62900
N  18.05000 -0.93100 30.04100
C  17.45600 -0.08800 30.94300
C  17.78700 -0.62900 32.38900
C  18.71400 -1.90100 32.10900
C  18.71200 -1.95600 30.55400
C  20.13600 -1.77600 32.78500
C  16.44700 -1.10000 33.02100
C  16.37100 -0.80000 34.57300
H  17.56300 -0.26200 35.42700
N  18.84100 -2.65400 27.40500
C  19.43900 -3.35600 28.42400
C  20.25400 -4.40600 27.94000
C  20.26700 -4.17600 26.48600
C  19.27700 -3.15900 26.24700
C  21.11800 -5.33100 28.77200
C  21.05000 -4.93200 25.43800
O  20.85900 -4.80100 24.22900
C  21.91800 -6.00900 25.88600
N  17.36800 -0.79400 25.58000
C  18.04800 -1.53900 24.64300
C  17.69400 -1.03300 23.20900
C  16.42000 -0.11200 23.48300
C  16.52600 0.07300 24.99500
C  18.85700 -0.28600 22.56800
C  15.05000 -0.67200 23.02200
C  13.96700 0.30100 22.70200
N  16.49400 0.64600 28.01700
C  15.87000 1.41100 27.04100
C  15.27300 2.51800 27.71100
C  15.42100 2.35000 29.02900
C  16.17300 1.18200 29.19200
C  14.44400 3.59800 27.10000
C  15.14400 2.95100 30.33500
O  14.53400 4.03000 30.62200
C  15.79400 1.94000 31.33000
C  16.62000 2.66600 32.35800
O  17.82700 2.80600 32.29400
O  15.68500 3.16200 33.26800
C  16.28900 3.78200 34.47600
H  19.84000 -3.60100 30.58000
H  19.08000 -3.19100 24.07900
H  15.40800 1.96100 25.10600
H  18.27800 0.12900 33.00000
H  18.27200 -2.82300 32.48600
H  20.22600 -1.00200 33.54700
H  20.83600 -1.55000 31.98100
H  20.45500 -2.75400 33.14500
H  16.28500 -2.17800 33.04700
H  15.58900 -0.64400 32.52900
H  15.99300 -1.67600 35.10000
H  15.67100 0.03500 34.55900
H  22.09800 -5.44200 28.30700
H  20.65500 -6.31200 28.88700
H  21.39400 -4.93000 29.74700
H  21.40100 -6.73000 26.51800
H  22.83100 -5.61700 26.33500
H  22.31500 -6.46400 24.97800
H  17.48800 -1.86200 22.53200
H  16.52300 0.83600 22.95400
H  18.76000 0.75100 22.89200
H  18.92400 -0.35200 21.48200
H  19.80400 -0.63100 22.98200
H  14.60000 -1.29900 23.79300
H  15.26000 -1.29200 22.15100
H  13.67300 0.24900 21.65300
H  14.38800 1.30300 22.61700
H  13.09800 0.24200 23.35800
H  13.42500 3.23300 26.97100
H  14.86400 3.86800 26.13100
H  14.42700 4.54800 27.63400
H  14.91400 1.51000 31.80800
H  16.10500 3.19100 35.37300
H  15.85100 4.73900 34.75900
H  17.35800 3.98500 34.54500
Mg 9.78600 47.95700 24.49300
C  7.43200 48.23900 27.20800
C  12.22700 49.15600 26.54200
C  11.88400 47.50500 22.05000
C  7.01200 47.56500 22.29600
N  9.72800 48.65500 26.61900
C  8.78200 48.48900 27.60700
C  9.32600 48.98500 29.01000
C  10.77600 49.43800 28.63000
C  10.94700 49.02600 27.14800
C  11.07600 50.95700 28.82000
C  9.24500 48.01100 30.19500
C  8.51700 48.36000 31.49400
H  8.51200 47.28400 32.56300
N  11.84400 48.22200 24.38400
C  12.68700 48.72800 25.30600
C  14.03800 48.64800 24.74400
C  14.00300 48.03800 23.44200
C  12.54100 47.84500 23.22700
C  15.19500 49.03700 25.51400
C  15.01800 47.55800 22.51300
O  14.71100 46.86600 21.54400
C  16.47200 47.94400 22.73400
N  9.43100 47.67400 22.43900
C  10.53100 47.51700 21.64600
C  10.08600 47.08800 20.26400
C  8.46300 47.13300 20.28100
C  8.30000 47.54100 21.74700
C  10.70700 47.94800 19.05500
C  7.84400 45.83700 19.80900
C  8.18100 44.51400 20.61400
N  7.69400 47.84200 24.65500
C  6.71400 47.68800 23.69300
C  5.45800 47.68200 24.32400
C  5.64000 47.95700 25.67400
C  7.05200 48.05900 25.82800
C  4.13600 47.43300 23.64300
C  5.04700 48.08500 27.00500
O  3.86000 47.92000 27.27100
C  6.11700 48.32800 28.02600
C  5.97200 47.27500 29.12300
O  6.38000 46.12900 28.99500
O  5.07600 47.77700 30.02200
C  5.00800 46.84000 31.20900
H  12.93900 49.61600 27.23100
H  12.52300 47.19500 21.22100
H  6.24800 47.39800 21.53400
H  8.74400 49.85500 29.31400
H  11.49400 48.82500 29.17500
H  11.12200 51.48600 27.86800
H  12.06300 51.19500 29.21500
H  10.39600 51.45000 29.51500
H  10.26700 47.65600 30.32700
H  8.65500 47.14700 29.88700
H  7.48300 48.56100 31.21500
H  8.99700 49.20900 31.98000
H  15.09200 49.59700 26.44300
H  15.76000 49.78300 24.95500
H  15.87000 48.20900 25.73300
H  16.49400 49.03100 22.65200
H  17.07300 47.43500 21.98100
H  16.93100 47.58300 23.65500
H  10.52600 46.10600 20.09000
H  8.05000 47.93000 19.66200
H  11.26400 48.79800 19.44800
H  9.84900 48.20700 18.43500
H  11.50300 47.36600 18.59100
H  8.16800 45.89500 18.76900
H  6.77300 46.03400 19.84800
H  7.26100 44.09400 21.02200
H  8.75700 44.81900 21.48800
H  8.81600 43.78200 20.11600
H  3.76500 48.39200 23.28100
H  3.52000 47.08600 24.47300
H  4.14200 46.70200 22.83400
H  6.10300 49.33100 28.45400
H  5.64500 45.96300 31.09600
H  3.96600 46.56600 31.37400
H  5.41600 47.35100 32.08100

