158

Mg 40.60500 8.84300 28.96500
C  42.60300 10.23200 31.67400
C  38.78600 7.29700 31.53200
C  38.87300 7.72200 26.63200
C  43.12600 9.97900 26.79300
N  40.65300 8.89000 31.34000
C  41.44200 9.60500 32.17700
C  40.91300 9.62100 33.56100
C  39.90400 8.40700 33.49600
C  39.76800 8.13800 32.03400
C  40.21000 7.10500 34.32500
C  40.28800 11.08300 33.79100
C  39.56700 11.30400 35.18300
H  39.96500 12.48400 36.00800
N  39.03700 7.68400 29.02500
C  38.40800 7.13100 30.16200
C  37.18700 6.47600 29.78600
C  37.15600 6.54300 28.30700
C  38.37000 7.33400 27.92500
C  36.11100 5.96500 30.76300
C  36.24900 5.89000 27.31700
O  36.28300 6.12000 26.13000
C  35.23200 4.77000 27.91600
N  41.10200 8.71400 26.94400
C  40.03700 8.34300 26.15800
C  40.34700 8.61700 24.73900
C  41.66200 9.44900 24.82700
C  41.98900 9.38200 26.26200
C  40.46600 7.24200 23.85500
C  41.46200 10.94100 24.33600
C  40.43800 11.86700 25.10300
N  42.43500 9.78100 29.13800
C  43.37700 10.13400 28.16200
C  44.57300 10.77300 28.76300
C  44.23900 10.86600 30.06400
C  42.94100 10.31600 30.25900
C  45.76200 11.24900 28.10900
C  44.79300 11.35600 31.33500
O  45.85000 11.84400 31.65700
C  43.71000 10.94200 32.42900
C  44.38800 9.99100 33.41900
O  44.73000 8.83200 33.13800
O  44.52700 10.63000 34.56600
C  45.08500 9.80400 35.63100
H  38.20500 6.73000 32.26300
H  38.34900 7.41200 25.72600
H  43.97800 10.39400 26.25100
H  41.57300 9.33600 34.38000
H  38.98300 8.75300 33.96600
H  40.49600 6.18600 33.81300
H  39.44400 6.92000 35.07900
H  41.14000 7.32300 34.84900
H  39.57800 11.27000 32.98500
H  41.11800 11.78800 33.73800
H  39.62100 10.33500 35.68000
H  38.54600 11.55400 34.89600
H  36.06700 6.43700 31.74400
H  36.31400 4.92200 31.00700
H  35.08000 5.86200 30.42300
H  35.83000 4.23200 28.65200
H  34.94600 4.07500 27.12600
H  34.41800 5.27700 28.43200
H  39.55800 9.24200 24.32200
H  42.37700 8.89100 24.22200
H  40.52900 6.36900 24.50400
H  41.42900 7.37700 23.36300
H  39.69500 7.09400 23.09900
H  41.20000 11.00100 23.28000
H  42.48200 11.32100 24.28500
H  40.90300 12.83900 25.27000
H  40.29000 11.33900 26.04400
H  39.54600 11.84900 24.47700
H  46.33000 11.87100 28.80100
H  45.62700 11.72900 27.14000
H  46.47600 10.45500 27.89100
H  43.43600 11.88900 32.89400
H  45.66500 10.38900 36.34600
H  45.84100 9.07800 35.33300
H  44.30100 9.34500 36.23300
Mg 35.96600 49.40300 25.08400
C  36.56800 47.60800 28.02700
C  34.87600 52.11300 27.07000
C  35.46700 51.12800 22.24000
C  37.13200 46.69800 23.28200
N  35.99300 49.91700 27.24800
C  36.14700 48.95100 28.19000
C  36.00500 49.55700 29.62200
C  35.16900 50.82800 29.25100
C  35.42500 51.02000 27.75800
C  33.64600 50.82800 29.51400
C  37.41800 49.80400 30.36600
C  37.44700 50.34100 31.76300
H  36.14200 50.40900 32.59800
N  35.18000 51.35900 24.74100
C  34.78500 52.31600 25.69200
C  34.29600 53.51200 24.94900
C  34.39800 53.23900 23.57500
C  35.00500 51.83900 23.45200
C  33.87900 54.85000 25.67600
C  34.18300 54.12800 22.38900
O  34.32900 53.80400 21.23200
C  33.60800 55.51100 22.51800
N  35.98000 48.87900 22.99900
C  35.84900 49.80000 22.02900
C  36.37200 49.30800 20.67600
C  37.02400 47.95300 21.01600
C  36.72000 47.82400 22.52400
C  35.20800 49.23600 19.72200
C  38.54500 47.90400 20.68600
C  39.04100 46.55600 20.15700
N  36.64900 47.42300 25.45600
C  37.14200 46.47500 24.62800
C  37.44600 45.30700 25.44600
C  37.26400 45.72800 26.77000
C  36.72800 47.04900 26.71500
C  37.91600 44.04800 24.93100
C  37.31300 45.30200 28.17300
O  37.65600 44.27300 28.71200
C  36.93400 46.51500 29.03400
C  35.97300 46.01600 30.08900
O  35.04900 45.25400 29.94200
O  36.37000 46.50100 31.32200
C  35.66100 46.24000 32.58300
H  34.52700 52.92000 27.71800
H  35.35700 51.66600 21.29600
H  37.56400 45.94500 22.61900
H  35.40800 48.78900 30.11400
H  35.62700 51.62900 29.83100
H  32.97600 50.67700 28.66700
H  33.38700 51.70400 30.10800
H  33.45100 49.88600 30.02700
H  37.86000 50.56200 29.72000
H  38.03400 48.90800 30.28700
H  37.93200 51.31600 31.82000
H  38.02200 49.62100 32.34500
H  33.94400 55.75000 25.06400
H  34.49400 54.82400 26.57500
H  32.81600 54.77800 25.90400
H  33.55600 55.93300 21.51400
H  34.24400 56.23600 23.02600
H  32.57700 55.38500 22.84800
H  37.16800 50.00800 20.42000
H  36.46700 47.14100 20.54900
H  35.12400 48.25400 19.25600
H  35.40000 49.68900 18.75000
H  34.22100 49.50700 20.09700
H  39.13100 48.25100 21.53700
H  38.69900 48.66300 19.91900
H  39.06900 46.47400 19.07100
H  38.26700 45.82400 20.38700
H  40.04000 46.37800 20.55600
H  37.61100 43.89000 23.89600
H  37.43500 43.26400 25.51600
H  39.00600 44.04400 24.90500
H  37.94500 46.77700 29.34700
H  34.77100 46.85100 32.73000
H  36.27400 46.53700 33.43400
H  35.46900 45.17600 32.72400

