158

Mg -2.31200 16.91400 26.33500
C  -2.76700 14.56800 29.02800
C  -2.58000 19.45800 28.62200
C  -2.42300 19.17400 23.88000
C  -2.77100 14.30100 24.11000
N  -2.59100 16.92700 28.50300
C  -2.77600 15.90800 29.43500
C  -2.84400 16.46000 30.87800
C  -2.89000 17.98400 30.63000
C  -2.70100 18.13000 29.14000
C  -4.11700 18.74200 31.06100
C  -1.76000 15.94100 31.78300
C  -1.28800 16.75500 32.99800
H  -0.69600 15.88400 34.12300
N  -2.28400 19.04300 26.28700
C  -2.31400 19.92100 27.34200
C  -2.26700 21.27100 26.84900
C  -2.19800 21.21800 25.43100
C  -2.34600 19.78200 25.13300
C  -2.36100 22.53400 27.69700
C  -1.91200 22.28900 24.34000
O  -1.78200 22.02300 23.14900
C  -1.74100 23.65500 24.76000
N  -2.56800 16.72800 24.34100
C  -2.40000 17.80100 23.48400
C  -2.51200 17.35800 21.98700
C  -2.39600 15.81300 22.14100
C  -2.61900 15.58300 23.61700
C  -3.91100 17.84800 21.37800
C  -0.94800 15.17900 21.83900
C  -0.90600 13.93400 20.94500
N  -2.49000 14.81700 26.46000
C  -2.78600 13.88900 25.47900
C  -2.89700 12.58700 26.08100
C  -2.85000 12.82800 27.44300
C  -2.61800 14.21300 27.65700
C  -2.99200 11.30100 25.43400
C  -3.13100 12.22000 28.67500
O  -3.41400 11.10000 29.01000
C  -2.89100 13.28100 29.79200
C  -1.59200 12.93500 30.52400
O  -0.48100 13.34300 30.37100
O  -1.91200 11.99800 31.39500
C  -0.96200 11.52300 32.36300
H  -2.64800 20.20300 29.41800
H  -2.41200 19.81500 22.99700
H  -3.02700 13.54500 23.36500
H  -3.77500 16.19100 31.37700
H  -1.94400 18.37900 31.00000
H  -3.80600 19.74400 31.35800
H  -4.61800 18.32900 31.93600
H  -4.79900 18.84800 30.21700
H  -0.88100 15.68800 31.18900
H  -2.21300 15.02100 32.15100
H  -2.08100 17.34900 33.45300
H  -0.41500 17.34900 32.72900
H  -1.42100 23.06900 27.56500
H  -2.47300 22.23200 28.73900
H  -3.28800 23.06300 27.48100
H  -1.89100 24.24300 23.85400
H  -0.78000 23.80900 25.25000
H  -2.50600 23.97300 25.46900
H  -1.62100 17.84100 21.58600
H  -3.04100 15.25800 21.46000
H  -4.57400 16.99300 21.24400
H  -3.80500 18.55100 20.55100
H  -4.38800 18.52100 22.09100
H  -0.38000 14.94200 22.73800
H  -0.32600 15.90400 21.31500
H  -0.24000 14.28500 20.15700
H  -1.90200 13.81500 20.51800
H  -0.58600 13.03700 21.47700
H  -1.97100 10.92600 25.50900
H  -3.30000 11.29200 24.38800
H  -3.69900 10.71600 26.02300
H  -3.72400 13.30800 30.49400
H  -0.59000 12.35900 32.95600
H  -0.12500 11.03700 31.86400
H  -1.34200 10.77000 33.05400
Mg 8.62500 3.10000 27.36400
C  9.63700 1.61900 30.31200
C  6.53400 5.11400 29.31900
C  7.34700 4.27300 24.58900
C  10.12400 0.50100 25.57200
N  8.11500 3.28000 29.61900
C  8.79900 2.67400 30.58000
C  8.40600 3.23200 31.98600
C  7.33400 4.39800 31.65900
C  7.27400 4.23500 30.12600
C  6.09200 4.35500 32.46800
C  9.59700 3.80900 32.84000
C  9.98300 3.18200 34.15200
H  10.13800 4.09300 35.36800
N  7.22600 4.53600 27.01900
C  6.42900 5.27400 27.90700
C  5.72300 6.23400 27.21600
C  5.98600 6.03400 25.83300
C  6.90300 4.93300 25.73500
C  4.91700 7.26900 27.94200
C  5.54500 6.81800 24.61100
O  5.75300 6.57700 23.41500
C  4.57400 7.94400 24.86100
N  8.58800 2.37500 25.39900
C  8.08600 3.12000 24.43600
C  8.12200 2.42800 23.11500
C  9.35700 1.56600 23.34100
C  9.35400 1.43900 24.85300
C  6.80500 1.61100 22.85600
C  10.72700 2.03400 22.82600
C  11.61900 0.92000 22.23000
N  9.66000 1.34800 27.74600
C  10.24800 0.44300 26.92300
C  11.02400 -0.44900 27.75000
C  10.90900 0.00000 29.07400
C  9.99700 1.10300 29.05500
C  11.85400 -1.50300 27.23500
C  11.30100 -0.26900 30.46300
O  12.06600 -1.11800 30.92500
C  10.40600 0.71000 31.30700
C  9.53200 0.06400 32.23100
O  8.45100 -0.41300 31.98900
O  10.17300 -0.18700 33.48100
C  9.41700 -0.89200 34.53700
H  6.06200 5.90400 29.90700
H  7.10500 4.77400 23.64900
H  10.67100 -0.22800 24.97000
H  7.84400 2.43200 32.46800
H  7.81500 5.37600 31.67600
H  5.95000 3.46200 33.07600
H  5.19300 4.40300 31.85400
H  6.05100 5.29800 33.01300
H  9.38400 4.85900 33.04100
H  10.54500 3.83800 32.30400
H  10.97600 2.73500 34.11800
H  9.20400 2.46400 34.41000
H  5.36700 8.20500 27.61100
H  4.98700 7.30100 29.02900
H  3.86700 7.30200 27.65100
H  3.68400 7.54800 25.35000
H  4.21200 8.34200 23.91300
H  5.21100 8.59100 25.46500
H  8.24600 3.14000 22.29900
H  9.15700 0.59600 22.88400
H  6.17400 1.84500 23.71300
H  7.09700 0.56900 22.73000
H  6.32400 2.01700 21.96500
H  11.14600 2.50800 23.71400
H  10.63700 2.87400 22.13600
H  12.46800 0.79900 22.90300
H  11.93200 1.30400 21.25900
H  11.00100 0.04300 22.03900
H  11.25800 -2.29900 26.78800
H  12.55300 -1.83400 28.00300
H  12.46500 -1.05500 26.45100
H  11.04900 1.43200 31.81000
H  8.71100 -1.57200 34.05900
H  8.82400 -0.19300 35.12700
H  10.02100 -1.53400 35.17800

