158

Mg 16.98000 -2.44000 28.39500
C  16.10100 -0.25900 31.13300
C  18.98600 -4.24100 30.73300
C  18.30600 -4.23400 25.90400
C  15.35900 -0.41000 26.25000
N  17.48700 -2.22300 30.60600
C  16.90100 -1.33700 31.50800
C  17.27400 -1.63600 32.96300
C  18.26100 -2.94100 32.77500
C  18.31100 -3.13300 31.25700
C  19.63400 -2.82800 33.39300
C  16.03900 -1.73400 34.04400
C  16.20300 -0.89800 35.26400
H  17.55500 -0.70100 35.85000
N  18.40500 -4.01600 28.35300
C  19.05600 -4.61800 29.39500
C  19.75500 -5.84900 28.89800
C  19.64200 -5.81300 27.46600
C  18.67400 -4.74900 27.19100
C  20.56900 -6.76700 29.87700
C  20.23900 -6.74100 26.47600
O  19.96700 -6.68800 25.30400
C  21.19100 -7.81400 26.98000
N  16.82000 -2.38100 26.40400
C  17.51000 -3.16700 25.55200
C  17.35300 -2.64300 24.08700
C  16.29700 -1.54300 24.21300
C  16.04000 -1.41800 25.68700
C  18.75000 -2.11100 23.51200
C  15.07000 -1.72700 23.37500
C  14.50000 -0.38800 22.84300
N  15.95200 -0.61200 28.53000
C  15.27100 0.04000 27.58900
C  14.66600 1.16300 28.18100
C  15.02400 1.10900 29.58400
C  15.77800 -0.01600 29.76600
C  13.97000 2.30100 27.53400
C  14.83000 1.80100 30.84800
O  14.35900 2.88300 31.01600
C  15.50100 0.91000 31.90500
C  16.51800 1.71000 32.64900
O  17.72700 1.76800 32.33500
O  16.02800 2.35200 33.81700
C  17.02700 3.10000 34.60800
H  19.54000 -4.83200 31.46500
H  18.70800 -4.72300 25.01400
H  14.68500 0.24800 25.69800
H  17.95100 -0.83100 33.24800
H  17.79600 -3.76400 33.31900
H  19.63900 -3.50000 34.25100
H  19.82500 -1.80500 33.71900
H  20.37700 -3.18200 32.67900
H  16.10500 -2.76100 34.40200
H  15.14500 -1.53400 33.45300
H  15.63000 -1.39400 36.04800
H  15.70600 0.06500 35.14700
H  21.62600 -6.64100 29.63900
H  20.26300 -7.71900 29.44400
H  20.22200 -6.79000 30.91000
H  21.78300 -7.35200 27.76900
H  21.77900 -8.07200 26.09900
H  20.57700 -8.68100 27.22500
H  16.93400 -3.47000 23.51200
H  16.70800 -0.56200 23.97500
H  18.83200 -1.02500 23.57100
H  18.83500 -2.44600 22.47900
H  19.59100 -2.53900 24.05700
H  14.19900 -2.25600 23.76200
H  15.32300 -2.13700 22.39700
H  14.96500 -0.09300 21.90200
H  14.58200 0.45000 23.53600
H  13.41900 -0.51900 22.88700
H  12.93200 2.11000 27.26300
H  14.59200 2.64000 26.70600
H  14.11000 3.12000 28.24000
H  14.75100 0.65100 32.65200
H  16.92700 4.17900 34.48900
H  18.06600 2.89000 34.35500
H  16.98600 2.96800 35.68900
Mg 47.83700 34.80100 27.61900
C  46.16600 32.89800 30.06100
C  47.94600 37.46000 29.90400
C  49.16000 36.77000 25.25700
C  46.84500 32.46300 25.27300
N  47.24800 35.07200 29.69300
C  46.60400 34.10900 30.47200
C  46.68700 34.58300 31.96000
C  46.78100 36.15300 31.79600
C  47.38800 36.25500 30.41000
C  45.45500 37.02400 31.89200
C  48.09400 34.02400 32.48700
C  48.24100 33.44500 33.91600
H  47.40100 34.03300 35.14300
N  48.56500 36.82500 27.62500
C  48.62900 37.66800 28.67500
C  49.39500 38.82300 28.36000
C  49.77900 38.67600 27.01700
C  49.15800 37.40800 26.54100
C  49.58200 39.93500 29.26800
C  50.50300 39.61300 26.14300
O  50.75700 39.35500 24.97500
C  50.88100 40.98000 26.68900
N  48.00300 34.66100 25.55100
C  48.55000 35.60700 24.73400
C  48.42400 35.22300 23.21700
C  47.70900 33.82400 23.33600
C  47.56600 33.61100 24.78700
C  47.67100 36.22000 22.31400
C  48.34100 32.69800 22.47600
C  47.59200 32.23800 21.22000
N  46.91200 32.98600 27.64500
C  46.57500 32.14000 26.59500
C  45.90700 30.94400 27.10800
C  45.76500 31.27800 28.50700
C  46.27000 32.48800 28.72700
C  45.45700 29.76500 26.32700
C  45.13300 30.80800 29.66500
O  44.44700 29.80600 29.86400
C  45.46200 31.82600 30.76400
C  46.25800 31.15700 31.88500
O  47.40600 30.83300 31.86700
O  45.27000 30.70300 32.81100
C  45.76600 29.93200 33.97800
H  48.05400 38.28000 30.61600
H  49.52300 37.40400 24.44500
H  46.70000 31.66200 24.54400
H  45.80000 34.19800 32.46400
H  47.54400 36.49300 32.49700
H  44.58600 36.36800 31.83500
H  45.47400 37.71800 31.05200
H  45.35200 37.58100 32.82300
H  48.77800 34.87200 32.47600
H  48.46400 33.24900 31.81500
H  49.31300 33.44700 34.11500
H  47.95300 32.41200 34.10800
H  49.40700 39.68700 30.31500
H  49.07500 40.83500 28.91900
H  50.62400 40.25200 29.22700
H  51.80500 41.04100 27.26400
H  50.04200 41.50400 27.14800
H  50.89600 41.69400 25.86500
H  49.39300 34.98300 22.77900
H  46.65600 33.87700 23.05900
H  46.92700 35.77200 21.65500
H  48.36600 36.92300 21.85400
H  47.16200 36.91400 22.98300
H  48.56300 31.88100 23.16300
H  49.16400 33.19400 21.96200
H  47.87000 32.77200 20.31200
H  46.51100 32.29200 21.34800
H  47.80600 31.18400 21.04400
H  44.45800 30.08700 26.03200
H  45.50600 28.95200 27.05100
H  46.18300 29.56400 25.53900
H  44.61500 32.30900 31.25200
H  46.32900 30.59600 34.63400
H  46.37300 29.13000 33.55900
H  44.88600 29.55700 34.50100

