158

Mg 42.66600 41.76500 25.89000
C  41.72400 44.09400 28.15300
C  43.45800 39.52100 28.41100
C  43.43900 39.34600 23.57000
C  42.17700 44.02400 23.15100
N  42.52100 41.81100 28.01600
C  42.03000 42.84200 28.77400
C  42.19500 42.53200 30.31800
C  43.11800 41.19300 30.22700
C  43.00300 40.83500 28.75700
C  44.57400 41.47400 30.72700
C  40.82800 42.34700 30.93600
C  40.81900 41.82600 32.41700
H  40.18000 42.75600 33.44900
N  43.52800 39.69300 25.93100
C  43.58500 38.94400 27.07800
C  44.01200 37.61000 26.73800
C  43.94900 37.53200 25.29700
C  43.65900 38.89800 24.86600
C  44.54100 36.58100 27.80600
C  44.05100 36.35600 24.34000
O  43.98400 36.32500 23.10600
C  44.21300 35.01600 25.01300
N  42.87500 41.69900 23.70600
C  43.13800 40.58900 22.95700
C  43.16200 40.93300 21.44100
C  42.43000 42.26200 21.34200
C  42.51200 42.70200 22.83600
C  44.46300 40.66200 20.65300
C  41.00600 42.08300 20.88100
C  39.83100 41.77200 21.81300
N  42.02500 43.70200 25.61900
C  41.89300 44.53700 24.49100
C  41.39000 45.75500 24.98700
C  41.32500 45.70600 26.38100
C  41.68300 44.41100 26.73800
C  40.98400 46.90300 24.16500
C  41.04000 46.37500 27.65000
O  40.73800 47.49600 27.90400
C  41.31000 45.35900 28.77500
C  42.17200 45.88300 29.81300
O  43.16000 46.59200 29.65000
O  41.59700 45.78800 31.05800
C  42.59300 46.01000 32.16700
H  43.65000 38.84000 29.24300
H  43.57100 38.58800 22.79500
H  42.04900 44.86400 22.46500
H  42.77100 43.39100 30.65900
H  42.68200 40.40100 30.83600
H  44.78200 40.61400 31.36400
H  44.66300 42.39900 31.29600
H  45.28700 41.41400 29.90500
H  40.32200 41.49200 30.48900
H  40.16800 43.16100 30.63500
H  41.84500 41.61300 32.72100
H  40.28000 40.87900 32.44500
H  44.99300 37.18800 28.59100
H  45.22900 35.82100 27.43900
H  43.63000 36.09500 28.15600
H  45.21600 34.69700 25.29600
H  43.83400 34.17200 24.43800
H  43.66800 35.05100 25.95600
H  42.44800 40.17800 21.11100
H  42.95100 42.95100 20.67600
H  45.16600 40.22200 21.36000
H  44.94400 41.58100 20.31800
H  44.27500 39.94500 19.85400
H  40.94500 41.40500 20.03000
H  40.68900 42.98200 20.35400
H  39.49900 40.73600 21.75100
H  38.95900 42.39800 21.62500
H  40.08600 41.87400 22.86800
H  41.88600 47.49500 24.01500
H  40.27600 47.46100 24.77900
H  40.45200 46.60200 23.26200
H  40.33400 45.07700 29.17100
H  42.23000 45.81300 33.17600
H  42.95200 47.03600 32.09300
H  43.50200 45.41100 32.11400
Mg -11.18500 16.47400 41.52600
C  -8.48200 14.21100 41.55100
C  -9.27300 18.89400 40.20300
C  -13.99800 18.27400 41.20300
C  -13.13800 13.68600 42.66400
N  -9.16200 16.41500 40.75500
C  -8.21100 15.46300 40.97500
C  -6.84600 15.99100 40.49300
C  -7.05600 17.51600 40.36700
C  -8.59100 17.63800 40.44700
C  -6.27600 18.48000 41.33800
C  -6.46500 15.22800 39.19700
C  -5.22200 14.24700 39.12600
H  -4.37400 14.43200 37.83800
N  -11.57400 18.31000 40.64400
C  -10.64100 19.18300 40.24800
C  -11.31600 20.49400 40.04700
C  -12.68500 20.25100 40.13700
C  -12.81400 18.87400 40.69100
C  -10.51800 21.67900 39.65400
C  -13.75700 21.27400 39.78300
O  -13.49100 22.34500 39.26200
C  -15.30700 21.01500 39.99500
N  -13.26500 15.95900 41.82800
C  -14.17500 16.97000 41.77300
C  -15.59400 16.38900 41.88800
C  -15.30000 15.04800 42.67100
C  -13.78600 14.83700 42.39300
C  -16.58600 17.25900 42.73100
C  -16.24900 13.84700 42.42300
C  -16.85400 13.34900 43.74900
N  -10.90500 14.32700 42.01700
C  -11.78200 13.39100 42.49700
C  -11.13100 12.08800 42.70300
C  -9.81700 12.40900 42.41600
C  -9.73700 13.75500 42.03300
C  -11.78500 10.80200 43.21200
C  -8.47500 11.91300 42.40500
O  -8.01500 10.81800 42.74800
C  -7.58600 13.02100 41.76000
C  -6.58000 13.38600 42.70000
O  -6.79500 14.08700 43.67300
O  -5.32000 12.92000 42.35100
C  -4.19600 13.55300 43.07600
H  -8.49500 19.64400 40.04600
H  -14.81800 18.99400 41.17700
H  -13.80800 12.92200 43.06400
H  -6.03800 15.90100 41.22000
H  -6.71300 17.79400 39.37100
H  -5.56400 19.07100 40.76200
H  -5.72300 17.85200 42.03600
H  -6.95300 19.14600 41.87400
H  -6.52200 15.93600 38.37000
H  -7.25600 14.52500 38.93600
H  -5.63400 13.23900 39.17900
H  -4.62100 14.28700 40.03500
H  -9.46700 21.67600 39.94200
H  -11.01200 22.58400 40.00700
H  -10.31700 21.76700 38.58600
H  -15.84500 21.84800 39.54300
H  -15.51200 20.89900 41.05900
H  -15.62900 20.06400 39.57200
H  -15.96200 16.03600 40.92500
H  -15.47500 15.38100 43.69400
H  -17.11100 17.91900 42.04000
H  -16.05100 17.86200 43.46400
H  -17.46100 16.76500 43.15300
H  -15.80000 13.00200 41.90100
H  -17.08600 14.13600 41.78800
H  -17.92600 13.54200 43.70400
H  -16.47200 13.80800 44.66100
H  -16.83900 12.25900 43.78400
H  -12.57200 10.58200 42.49200
H  -12.30600 10.86600 44.16700
H  -11.04000 10.00700 43.21500
H  -7.10800 12.68000 40.84200
H  -3.73000 12.84400 43.76100
H  -4.40100 14.56800 43.41900
H  -3.41200 13.72000 42.33700

