158

Mg 44.88800 5.49200 48.63600
C  42.89300 8.15100 47.88700
C  42.10000 3.35800 47.47900
C  46.79000 2.67200 48.67100
C  47.64000 7.47800 48.84600
N  42.68000 5.70900 47.96600
C  42.23700 6.95900 47.60200
C  40.99200 6.86100 46.80500
C  40.62200 5.36500 47.02700
C  41.81900 4.73700 47.56500
C  39.28000 5.10600 47.78600
C  41.06900 7.40200 45.34400
C  39.94800 8.41200 44.99100
H  39.31500 8.31700 43.59900
N  44.45700 3.35600 48.23300
C  43.31400 2.75400 47.81100
C  43.51800 1.33600 47.83000
C  44.89600 0.99000 48.24400
C  45.47300 2.33400 48.39900
C  42.40300 0.35300 47.41900
C  45.51100 -0.38800 48.30400
O  44.75100 -1.29700 48.15600
C  46.95100 -0.57900 48.66400
N  46.92900 5.12700 48.78600
C  47.49700 3.91700 48.75100
C  49.02200 4.04900 49.07600
C  49.28000 5.56400 48.99000
C  47.87000 6.14100 48.88100
C  49.58200 3.36500 50.39600
C  50.29600 5.92800 47.87200
C  51.37200 7.03500 48.25900
N  45.25500 7.38300 48.48500
C  46.42600 8.09500 48.57200
C  46.07300 9.51000 48.30600
C  44.69000 9.60100 48.14900
C  44.25700 8.24700 48.15000
C  47.05900 10.66400 48.25500
C  43.58800 10.52200 47.97900
O  43.50200 11.74700 47.99700
C  42.30600 9.55100 47.66700
C  41.19900 9.94700 48.52200
O  40.92200 9.56200 49.67100
O  40.42700 10.91900 48.00100
C  39.16900 11.37100 48.57400
H  41.23800 2.76200 47.17300
H  47.45700 1.84300 48.91800
H  48.55400 8.06500 48.95600
H  40.30700 7.46800 47.39700
H  40.41900 4.81600 46.10700
H  38.73300 6.03700 47.93400
H  39.62700 4.78100 48.76700
H  38.58900 4.44300 47.26600
H  41.06900 6.55000 44.66400
H  42.01400 7.93900 45.26000
H  40.32100 9.41700 45.18700
H  39.07100 8.16200 45.58800
H  42.84300 -0.17700 46.57500
H  41.47600 0.87400 47.18000
H  42.20700 -0.26600 48.29500
H  47.59200 -0.12000 47.91100
H  47.21100 -1.62700 48.80900
H  47.11300 -0.04500 49.60100
H  49.46200 3.43700 48.28800
H  49.62400 6.02600 49.91500
H  48.77300 2.72100 50.74000
H  49.82600 4.14200 51.12000
H  50.40100 2.75100 50.02200
H  49.79700 6.26500 46.96400
H  50.91900 5.06900 47.62500
H  51.30400 7.32800 49.30700
H  51.17900 7.85000 47.56200
H  52.39300 6.72700 48.03200
H  46.57500 11.60300 47.98800
H  47.97700 10.52700 47.68300
H  47.42200 10.87500 49.26100
H  42.09800 9.83500 46.63500
H  38.75800 12.14900 47.93100
H  39.30900 11.65800 49.61600
H  38.54700 10.47700 48.62400
Mg 0.45000 42.95200 26.24600
C  2.42400 42.71700 29.19700
C  -2.32500 42.57600 28.26400
C  -1.21500 42.26200 23.47600
C  3.44900 43.41200 24.43500
N  0.19500 42.36200 28.40200
C  1.05600 42.59500 29.43000
C  0.33600 42.63500 30.80500
C  -1.14100 42.25400 30.45300
C  -1.08200 42.48100 28.92200
C  -1.69700 40.86300 30.78400
C  0.54000 43.99000 31.61700
C  1.25100 43.81200 33.02500
H  0.85600 42.58000 33.83600
N  -1.55200 42.53400 25.92200
C  -2.58700 42.50400 26.85100
C  -3.80300 42.26000 26.16800
C  -3.50100 42.13500 24.76700
C  -2.02200 42.31100 24.66100
C  -5.03200 42.24500 27.00500
C  -4.41400 41.86800 23.64200
O  -4.01900 41.79400 22.47200
C  -5.89600 41.71700 23.86500
N  1.12000 42.75300 24.28800
C  0.17500 42.49500 23.34500
C  0.68300 42.58100 21.93000
C  1.99400 43.35700 22.20200
C  2.28700 43.13900 23.72200
C  0.77400 41.17200 21.21200
C  2.09800 44.87800 21.81800
C  2.76500 45.44100 20.60700
N  2.51800 43.18400 26.70200
C  3.58700 43.33500 25.82200
C  4.80800 43.34900 26.60000
C  4.43700 43.03100 27.91100
C  3.01800 42.97600 27.88200
C  6.18000 43.51600 26.12400
C  4.90400 42.84500 29.22700
O  6.05200 42.86200 29.66800
C  3.65000 42.76200 30.13200
C  3.67800 41.61300 31.05600
O  3.17600 40.59700 30.80000
O  4.49500 41.80100 32.10400
C  4.65300 40.71800 33.01700
H  -3.26200 42.56200 28.82400
H  -1.81700 42.33200 22.56700
H  4.31300 43.69900 23.83300
H  0.70600 41.82000 31.42800
H  -1.84800 42.97500 30.86400
H  -2.14700 40.33600 29.94200
H  -2.60400 41.00200 31.37200
H  -1.06700 40.23900 31.41700
H  -0.37500 44.54200 31.82900
H  1.17100 44.68100 31.05700
H  0.97100 44.73800 33.52800
H  2.34000 43.85900 33.01400
H  -5.09300 43.20100 27.52600
H  -4.97800 41.48500 27.78400
H  -5.99600 42.14200 26.50600
H  -6.09800 40.84600 24.48800
H  -6.34800 41.57400 22.88400
H  -6.26700 42.64900 24.29200
H  -0.05900 43.18500 21.40800
H  2.80000 42.81300 21.70900
H  1.37900 40.41200 21.70800
H  1.36300 41.51600 20.36200
H  -0.27400 40.96600 20.99600
H  2.56900 45.25900 22.72400
H  1.07000 45.23900 21.81400
H  2.20500 46.18500 20.04000
H  3.06800 44.65300 19.91700
H  3.67200 46.01600 20.79500
H  6.29800 43.88800 25.10700
H  6.67700 42.54600 26.08300
H  6.87300 44.12600 26.70400
H  3.69300 43.72700 30.63600
H  5.66200 40.40800 32.74600
H  3.99800 39.85900 32.87400
H  4.54300 40.93700 34.08000

