158

Mg 29.39900 58.78400 41.17200
C  26.45200 57.13900 40.30100
C  31.22700 56.23700 39.87700
C  32.05400 60.95000 40.90600
C  27.45600 61.65900 41.98100
N  28.84300 57.01600 40.15500
C  27.57700 56.43600 39.99300
C  27.69300 55.15300 39.20500
C  29.18900 54.73200 39.47300
C  29.83200 56.08700 39.87000
C  29.33800 53.54100 40.49800
C  27.32300 55.38000 37.66900
C  26.35700 54.42600 36.94900
H  25.62700 55.01100 35.69900
N  31.40400 58.52200 40.75200
C  31.96500 57.35100 40.26500
C  33.38800 57.60800 40.21200
C  33.66300 58.94300 40.53300
C  32.36200 59.54400 40.75500
C  34.39900 56.51000 39.68900
C  35.08000 59.50800 40.72500
O  36.00800 58.75200 40.66200
C  35.26200 60.86100 41.27300
N  29.72900 61.07000 41.52500
C  30.96300 61.58200 41.41700
C  30.98100 63.07900 41.73700
C  29.45200 63.35700 42.02400
C  28.80600 61.99100 41.93800
C  31.94400 63.40200 42.98000
C  28.77300 64.33800 41.05600
C  27.99700 65.48800 41.83600
N  27.38900 59.29900 41.22900
C  26.73200 60.48500 41.59800
C  25.25900 60.25600 41.47100
C  25.08200 59.00900 40.99800
C  26.44600 58.45000 40.86100
C  24.24700 61.35900 41.79000
C  24.12400 57.98700 40.58100
O  22.91500 58.01000 40.62700
C  24.97000 56.85300 40.13400
C  24.57900 55.67600 41.09200
O  24.51300 55.77400 42.33200
O  24.16300 54.52700 40.37800
C  23.86000 53.32800 41.11800
H  31.62700 55.28900 39.51200
H  32.88700 61.56400 40.55800
H  26.90100 62.53300 42.32700
H  26.96800 54.40100 39.51600
H  29.58700 54.38100 38.52000
H  29.57400 53.86200 41.51300
H  30.15700 52.88800 40.19600
H  28.41300 52.96500 40.50700
H  28.22900 55.35700 37.06300
H  26.98600 56.40500 37.51000
H  25.58300 54.11400 37.65100
H  26.88900 53.51700 36.67100
H  35.00400 56.97800 38.91200
H  33.89300 55.62600 39.30100
H  35.08700 56.09600 40.42700
H  35.16400 61.59800 40.47600
H  36.29900 60.92500 41.60500
H  34.59900 61.04200 42.12000
H  31.20200 63.59500 40.80300
H  29.38200 63.79000 43.02200
H  31.38300 63.91900 43.75900
H  32.72400 64.09000 42.65300
H  32.41200 62.49800 43.36900
H  28.10800 63.83100 40.35700
H  29.45900 64.76200 40.32300
H  26.91900 65.47300 41.67700
H  28.27900 66.50300 41.55400
H  28.26600 65.51000 42.89200
H  24.53100 62.27400 41.27100
H  24.45400 61.49400 42.85100
H  23.22000 61.04800 41.59500
H  24.70500 56.58100 39.11300
H  23.27300 52.76500 40.39300
H  23.36400 53.54500 42.06400
H  24.69200 52.64900 41.30300
Mg -1.12900 43.96100 25.17900
C  1.28500 43.51700 27.57300
C  -3.59500 43.36300 27.60000
C  -3.38900 43.74900 22.77400
C  1.44700 44.24500 22.80600
N  -1.13300 43.40100 27.32300
C  -0.02800 43.53200 28.09500
C  -0.39000 43.50100 29.59200
C  -1.93700 43.26300 29.61000
C  -2.26500 43.34100 28.06200
C  -2.30900 41.97500 30.31700
C  -0.05800 44.79200 30.33600
C  0.12000 44.66300 31.85800
H  0.17000 43.26500 32.49500
N  -3.20000 43.62300 25.19800
C  -4.02000 43.37300 26.29900
C  -5.44900 43.24600 25.84000
C  -5.36700 43.26900 24.41000
C  -3.97500 43.52200 24.02900
C  -6.70900 43.18900 26.76000
C  -6.52300 43.17700 23.41700
O  -6.38400 43.49200 22.28300
C  -7.95200 42.74400 23.84900
N  -0.97300 44.15700 23.12900
C  -2.06800 43.92200 22.35300
C  -1.67600 43.90500 20.80100
C  -0.21700 44.48700 20.89700
C  0.15200 44.35000 22.33700
C  -1.94100 42.59500 19.98800
C  0.07400 45.92300 20.26500
C  -0.01900 47.16900 21.10300
N  0.94000 43.84500 25.10900
C  1.87300 44.01900 24.08900
C  3.22200 43.83700 24.62400
C  3.01600 43.65800 26.00300
C  1.68400 43.69400 26.17900
C  4.42000 43.74700 23.81000
C  3.69900 43.29600 27.28000
O  4.83800 43.00900 27.53700
C  2.56500 43.27300 28.35800
C  2.58400 41.94700 29.09500
O  1.97100 40.93400 28.77300
O  3.44900 41.95800 30.14300
C  3.67400 40.68100 30.78700
H  -4.40000 43.44300 28.33300
H  -4.09400 43.56000 21.96200
H  2.28100 44.28500 22.10200
H  0.12400 42.61500 29.96600
H  -2.41800 44.15300 30.01700
H  -3.11800 41.49800 29.76400
H  -2.75000 42.20700 31.28600
H  -1.49400 41.26400 30.45800
H  -0.78400 45.59800 30.22400
H  0.89300 45.15500 29.94700
H  -0.40300 45.52300 32.27500
H  1.04200 45.16500 32.14800
H  -6.48700 43.69200 27.70200
H  -6.98700 42.17200 27.03500
H  -7.56700 43.68600 26.30800
H  -8.68700 43.50400 24.11400
H  -7.85700 42.02000 24.65900
H  -8.40100 42.22800 23.00000
H  -2.33600 44.63400 20.33100
H  0.45100 43.77500 20.41300
H  -2.48000 41.95800 20.69000
H  -0.93700 42.26900 19.71400
H  -2.45300 42.86000 19.06300
H  -0.62000 46.03600 19.43300
H  1.08600 45.78300 19.88500
H  0.84800 47.80600 20.92800
H  -0.03800 46.91900 22.16400
H  -0.93500 47.73400 20.93100
H  4.51700 42.67600 23.63000
H  5.37900 43.96900 24.27700
H  4.37000 44.06000 22.76700
H  2.63200 44.02200 29.14800
H  3.92800 39.88300 30.09000
H  2.82500 40.45000 31.43100
H  4.54700 40.85400 31.41700

