158

Mg 44.32000 3.77800 47.17500
C  42.48000 6.81500 47.44100
C  41.36100 2.06300 46.61400
C  46.11400 1.15900 46.33900
C  47.32700 5.82500 47.08800
N  42.19300 4.46600 47.20600
C  41.71700 5.68100 47.46900
C  40.18000 5.55200 47.53400
C  39.90400 4.05100 47.27200
C  41.23200 3.47400 47.05100
C  39.26900 3.24600 48.47700
C  39.46200 6.54600 46.50400
C  39.99700 6.57000 45.05800
H  39.12800 6.06100 43.85100
N  43.84600 1.76000 46.65700
C  42.57500 1.27200 46.55500
C  42.70100 -0.10500 45.98400
C  44.10800 -0.42800 45.92000
C  44.74700 0.82600 46.33500
C  41.47800 -0.98200 45.75500
C  44.76000 -1.67800 45.39300
O  43.96100 -2.57800 45.09200
C  46.29500 -1.94100 45.35700
N  46.36200 3.59100 46.63100
C  46.85200 2.31100 46.56000
C  48.39500 2.33500 46.36400
C  48.68700 3.86900 46.54700
C  47.36500 4.48100 46.80400
C  49.19900 1.30000 47.23600
C  49.57900 4.54700 45.47600
C  51.00400 4.92900 45.85200
N  44.84300 5.89800 47.21600
C  46.07500 6.54700 47.19500
C  45.87800 7.91900 47.14600
C  44.44000 8.09700 47.34800
C  43.90200 6.87600 47.30400
C  46.93500 9.01000 47.30700
C  43.45700 9.05700 47.54700
O  43.48200 10.30300 47.56200
C  42.13500 8.31900 47.57500
C  41.37100 8.48700 48.84000
O  41.39700 7.77000 49.84600
O  40.52800 9.59900 48.75600
C  39.74500 9.90400 49.94300
H  40.40100 1.63800 46.31300
H  46.86700 0.42300 46.04900
H  48.28300 6.34600 47.17600
H  40.06300 5.73900 48.60100
H  39.29900 3.94100 46.37200
H  38.62800 2.40300 48.22200
H  38.63500 3.96400 48.99700
H  40.06500 2.81400 49.08400
H  39.55000 7.56800 46.87200
H  38.39600 6.32400 46.46100
H  40.87700 5.94600 44.90000
H  40.40600 7.57800 44.98800
H  41.51500 -1.83600 46.43100
H  41.43000 -1.28500 44.71000
H  40.58000 -0.42700 46.02800
H  46.82200 -1.78100 46.29800
H  46.73700 -1.33700 44.56500
H  46.42600 -2.96900 45.01800
H  48.60600 2.02800 45.33900
H  49.20500 3.95000 47.50300
H  48.58900 0.65600 47.86900
H  50.02600 1.76700 47.77200
H  49.69200 0.76000 46.42800
H  48.98100 5.37700 45.10100
H  49.71600 3.83300 44.66300
H  51.61200 4.56700 45.02300
H  51.40100 4.44300 46.74300
H  51.05800 6.01700 45.84400
H  47.77300 8.75900 46.65600
H  47.45200 8.95300 48.26500
H  46.61600 10.01000 47.01300
H  41.64400 8.51900 46.62300
H  40.17300 10.78900 50.41400
H  39.51600 9.07300 50.61000
H  38.74300 10.18100 49.61500
Mg -6.07600 24.89400 25.08500
C  -4.53700 26.15000 28.11700
C  -7.53500 22.48100 27.10600
C  -6.83600 23.31600 22.33900
C  -3.83900 27.10100 23.35600
N  -5.95400 24.37800 27.30900
C  -5.33900 25.05600 28.32300
C  -5.83900 24.62400 29.64000
C  -6.55800 23.20100 29.32800
C  -6.57600 23.26100 27.77900
C  -5.83700 21.95600 29.89900
C  -6.82000 25.69000 30.26300
C  -6.62500 25.96800 31.73600
H  -5.86900 24.92100 32.58500
N  -7.24700 23.30000 24.78600
C  -7.81500 22.49600 25.70600
C  -8.69500 21.56400 25.01400
C  -8.45400 21.73100 23.63400
C  -7.46000 22.83600 23.51900
C  -9.48100 20.57200 25.79300
C  -8.97100 20.87500 22.41100
O  -8.68700 21.10600 21.24500
C  -10.00600 19.77800 22.59700
N  -5.43700 25.16900 23.14100
C  -5.96200 24.39600 22.10700
C  -5.50700 24.80400 20.74200
C  -4.58500 26.04200 21.02100
C  -4.59100 26.14800 22.61300
C  -4.73100 23.66500 19.99700
C  -5.02300 27.37000 20.28200
C  -4.01400 27.97400 19.37200
N  -4.50300 26.37000 25.52000
C  -3.76700 27.19500 24.70500
C  -2.89100 28.01900 25.47200
C  -3.16300 27.64500 26.81200
C  -4.19900 26.69500 26.78400
C  -1.82200 28.96500 24.83900
C  -2.79400 27.89900 28.22100
O  -1.97200 28.62300 28.69000
C  -3.75600 26.97900 29.06700
C  -2.91200 26.32800 30.09800
O  -2.27200 25.31700 29.88000
O  -2.84800 27.13300 31.23100
C  -1.87500 26.75900 32.28100
H  -8.12900 21.81900 27.74000
H  -7.13400 22.66100 21.51700
H  -3.35300 27.85200 22.73000
H  -4.92800 24.44600 30.21200
H  -7.60500 23.19600 29.62800
H  -4.99900 22.17700 30.56000
H  -5.51100 21.41900 29.00800
H  -6.59400 21.35300 30.40200
H  -7.83200 25.30200 30.14800
H  -6.97900 26.60300 29.69000
H  -7.49100 26.16400 32.36800
H  -6.03800 26.87600 31.87000
H  -8.87100 19.68500 25.96500
H  -10.37100 20.22200 25.27000
H  -9.88300 21.05600 26.68300
H  -9.70600 19.00200 23.30200
H  -10.21700 19.37900 21.60500
H  -10.91600 20.27900 22.92600
H  -6.42400 25.06500 20.21400
H  -3.54900 25.81900 20.76500
H  -3.95700 23.98800 19.30000
H  -5.49100 23.03100 19.53900
H  -4.17100 22.96900 20.62000
H  -5.21300 28.08400 21.08400
H  -5.92700 27.21800 19.69100
H  -3.93500 29.04300 19.56800
H  -4.36500 27.87100 18.34500
H  -3.03500 27.50100 19.44400
H  -2.07200 30.02300 24.92100
H  -1.61800 28.67700 23.80800
H  -0.83400 28.76200 25.25200
H  -4.50400 27.60700 29.55100
H  -0.85300 27.01400 32.00000
H  -1.85200 25.67100 32.35500
H  -2.25400 27.14800 33.22500

