158

Mg 8.27500 2.37600 28.08100
C  9.68300 1.03500 30.90200
C  6.58400 4.61500 30.09700
C  6.46800 3.34600 25.31100
C  9.69100 -0.19700 26.14300
N  8.01000 2.65500 30.22900
C  8.92600 2.13500 31.13100
C  8.78000 2.78900 32.52300
C  7.62900 3.78700 32.26100
C  7.38000 3.67200 30.72600
C  6.31200 3.51000 33.05500
C  10.09600 3.41900 33.01600
C  10.57000 3.00500 34.45800
H  10.76900 4.11700 35.57900
N  6.66700 3.74600 27.76300
C  6.16600 4.59000 28.73600
C  5.14600 5.38900 28.15200
C  5.08200 5.06500 26.72400
C  6.09600 4.00100 26.52000
C  4.23600 6.26800 28.96800
C  4.07400 5.64800 25.63700
O  4.14100 5.24900 24.50600
C  3.01200 6.63000 25.97800
N  8.19200 1.74500 26.03500
C  7.42400 2.27500 25.08900
C  7.65100 1.72500 23.71000
C  8.80500 0.70400 24.01400
C  8.92300 0.76300 25.50000
C  6.51200 1.10400 22.99600
C  10.21200 1.02700 23.20000
C  10.82500 -0.00000 22.23400
N  9.45900 0.76900 28.35200
C  9.99100 -0.18800 27.51100
C  10.81700 -1.13400 28.28000
C  10.66000 -0.71300 29.64700
C  9.88200 0.51200 29.61200
C  11.66000 -2.25000 27.79800
C  11.02800 -1.01000 31.01100
O  11.78700 -1.92200 31.42800
C  10.41100 0.15700 31.87000
C  9.54500 -0.42200 32.99500
O  8.33400 -0.46300 32.97700
O  10.40900 -0.76700 34.06700
C  9.75800 -1.04200 35.28000
H  6.11100 5.22500 30.87000
H  5.81200 3.50300 24.45200
H  9.99000 -0.98900 25.45300
H  8.45000 2.07400 33.27700
H  7.83400 4.82000 32.54200
H  5.38000 3.72900 32.53300
H  6.32900 4.08100 33.98300
H  6.30700 2.44100 33.26600
H  10.02200 4.50200 32.91000
H  10.96400 3.12100 32.42800
H  11.60200 2.68000 34.33100
H  10.12800 2.08500 34.84100
H  3.25400 5.81300 28.83900
H  4.18000 7.25000 28.49700
H  4.46900 6.32000 30.03100
H  3.46600 7.45100 26.53200
H  2.31000 6.12600 26.64300
H  2.65400 7.14200 25.08500
H  8.00600 2.49400 23.02400
H  8.37400 -0.28900 23.89000
H  5.65300 1.25200 23.65100
H  6.64700 0.04800 22.76300
H  6.46700 1.62700 22.04100
H  10.93800 1.30700 23.96300
H  10.11000 1.92800 22.59600
H  11.90300 -0.04600 22.38600
H  10.57000 0.31700 21.22300
H  10.34300 -0.96000 22.42100
H  11.87500 -2.12400 26.73700
H  11.16800 -3.20700 27.97200
H  12.59100 -2.23300 28.36500
H  11.20500 0.78600 32.27400
H  8.99600 -1.79700 35.08500
H  9.36400 -0.08100 35.61200
H  10.44600 -1.43200 36.03000
Mg -11.40700 16.32400 41.85000
C  -8.49800 14.42100 41.40700
C  -9.83800 18.84800 40.09200
C  -14.44200 17.88300 41.33200
C  -13.04900 13.49400 42.98900
N  -9.36600 16.50200 40.66400
C  -8.34300 15.64500 40.75100
C  -7.01300 16.26100 40.25600
C  -7.47100 17.75000 39.98200
C  -8.98300 17.71300 40.27400
C  -6.67300 18.85000 40.84200
C  -6.54100 15.50000 38.93700
C  -5.07000 15.24000 38.78800
H  -4.29000 15.81200 37.53300
N  -11.96100 18.20500 40.98000
C  -11.15800 19.12100 40.38600
C  -11.91300 20.27800 40.07200
C  -13.28200 20.01600 40.38400
C  -13.26500 18.70200 40.97700
C  -11.27900 21.46600 39.46400
C  -14.45600 20.94900 40.05400
O  -14.29700 22.09500 39.60400
C  -16.00300 20.58000 40.39000
N  -13.43000 15.77000 42.11100
C  -14.51500 16.57900 41.83900
C  -15.85700 15.87300 42.09200
C  -15.36800 14.69800 43.00000
C  -13.84100 14.62000 42.70400
C  -16.91500 16.74900 42.75800
C  -16.17600 13.39300 42.78000
C  -16.63900 12.67300 44.09700
N  -10.94200 14.39300 42.21900
C  -11.66600 13.35600 42.71800
C  -10.82600 12.11300 42.91300
C  -9.61300 12.54400 42.37000
C  -9.69400 13.85600 41.94900
C  -11.25200 10.78100 43.46900
C  -8.27100 12.11200 42.24200
O  -7.69500 11.09500 42.63800
C  -7.43300 13.27000 41.54100
C  -6.25900 13.70700 42.27500
O  -6.23000 14.00700 43.46600
O  -5.15000 13.78200 41.39400
C  -3.94900 14.33300 42.04400
H  -9.24400 19.68300 39.71400
H  -15.43100 18.27100 41.07700
H  -13.46900 12.60000 43.45700
H  -6.27000 16.42300 41.03700
H  -7.36300 17.98300 38.92300
H  -7.19000 18.85900 41.80100
H  -6.77000 19.80900 40.33400
H  -5.64100 18.50700 40.90900
H  -6.91300 16.05500 38.07600
H  -7.16000 14.61400 38.79800
H  -4.97500 14.15700 38.70300
H  -4.44700 15.64300 39.58600
H  -11.94300 21.90600 38.72000
H  -10.40700 21.39300 38.81400
H  -11.18800 22.19200 40.27200
H  -16.67800 21.42400 40.24900
H  -15.99500 20.31800 41.44800
H  -16.27600 19.81700 39.66100
H  -16.27700 15.42400 41.19200
H  -15.41500 14.93900 44.06200
H  -16.60500 17.78200 42.91300
H  -17.20500 16.40900 43.75200
H  -17.78200 16.70700 42.10000
H  -15.48300 12.75800 42.22800
H  -17.01500 13.60900 42.11900
H  -16.17000 11.69200 44.01700
H  -17.70800 12.72400 44.29900
H  -16.08700 13.09700 44.93600
H  -11.75200 10.91600 44.42800
H  -10.42100 10.11400 43.69800
H  -12.01300 10.33100 42.83100
H  -7.22600 13.03400 40.49700
H  -4.04500 15.41300 41.94000
H  -3.06400 13.94200 41.54200
H  -3.93600 13.94100 43.06100

