158

Mg 44.15900 4.74300 47.82900
C  41.81800 7.23900 47.46300
C  41.58000 2.46800 47.67700
C  46.44100 2.45700 48.38300
C  46.69500 7.19600 47.32200
N  41.93100 4.86500 47.52300
C  41.19300 6.00200 47.52100
C  39.64100 5.72400 47.57000
C  39.63500 4.16400 47.60000
C  41.18100 3.84300 47.66500
C  38.85400 3.53100 48.83000
C  38.62500 6.33600 46.53100
C  39.20000 6.77400 45.17300
H  38.62400 6.05500 43.97200
N  44.11600 2.68800 47.71600
C  42.92600 1.93100 47.72900
C  43.26600 0.55300 47.79100
C  44.64100 0.55100 47.98500
C  45.14200 1.92000 48.04300
C  42.26200 -0.57200 47.58000
C  45.41900 -0.74400 48.15000
O  44.84600 -1.85800 48.36200
C  46.91000 -0.71100 47.90400
N  46.25800 4.74000 47.53600
C  46.91500 3.74600 48.23400
C  48.38500 4.10600 48.44100
C  48.48400 5.54800 47.87400
C  47.08600 5.84900 47.51100
C  48.96800 4.01000 49.80400
C  49.50000 5.66300 46.71000
C  50.96200 5.88200 47.10100
N  44.27400 6.76700 47.46900
C  45.39300 7.61600 47.34200
C  44.97500 8.92900 47.23000
C  43.54200 8.86000 47.27800
C  43.16700 7.53500 47.38800
C  45.78200 10.19800 46.99600
C  42.28500 9.73700 47.24700
O  42.12200 10.93300 47.21600
C  41.12700 8.61500 47.35700
C  40.36400 8.85600 48.68000
O  40.48700 8.29900 49.74600
O  39.39300 9.77000 48.37900
C  38.41100 10.02800 49.44400
H  40.76400 1.74300 47.73200
H  47.20600 1.82000 48.83100
H  47.34100 8.07500 47.29000
H  39.37300 6.06300 48.57000
H  39.21400 3.71800 46.69900
H  38.31200 2.60700 48.63100
H  38.13000 4.25500 49.20500
H  39.60300 3.30800 49.59000
H  38.20800 7.21200 47.02800
H  37.81900 5.62600 46.34600
H  40.25400 6.50200 45.11800
H  39.12600 7.84600 44.98800
H  41.27700 -0.10800 47.61400
H  42.46600 -1.37700 48.28700
H  42.34600 -1.03900 46.59900
H  47.16200 0.23500 47.42400
H  47.25200 -1.58100 47.34400
H  47.41000 -0.73800 48.87200
H  48.87500 3.42400 47.74600
H  48.79400 6.32200 48.57600
H  48.27300 3.62700 50.55200
H  49.29400 4.97400 50.19300
H  49.81100 3.32200 49.87100
H  49.23000 6.49400 46.05900
H  49.50100 4.74100 46.12900
H  51.24600 6.93400 47.06400
H  51.57900 5.29300 46.42300
H  51.02900 5.43100 48.09100
H  46.42000 10.43000 47.84900
H  45.12400 11.05800 46.87000
H  46.41300 10.12800 46.11000
H  40.39900 8.52600 46.55100
H  37.69800 9.20900 49.53700
H  37.91100 10.99300 49.36100
H  38.93700 10.03800 50.39900
Mg 0.10400 42.77300 26.53800
C  2.56800 42.41500 28.90200
C  -2.16800 41.36500 28.59100
C  -2.23800 42.93600 23.98200
C  2.55300 43.69600 24.13500
N  0.17900 42.01000 28.45500
C  1.23400 42.09900 29.34700
C  0.84800 41.71800 30.79000
C  -0.58600 41.07800 30.51200
C  -0.88700 41.47300 29.07200
C  -0.62800 39.49700 30.72700
C  0.70000 42.98800 31.68500
C  1.26100 42.88800 33.08000
H  0.69400 41.55100 33.78800
N  -1.92000 42.37800 26.35900
C  -2.69100 41.81600 27.35200
C  -4.06200 41.64400 26.85000
C  -4.17500 42.23400 25.56900
C  -2.71200 42.55700 25.21200
C  -4.99200 40.90400 27.73100
C  -5.44100 42.41600 24.65600
O  -5.39100 42.85000 23.50300
C  -6.77900 42.19800 25.22900
N  0.18100 43.29900 24.39300
C  -0.97000 43.37700 23.61900
C  -0.80400 43.98000 22.25000
C  0.81500 44.18000 22.30200
C  1.25800 43.69100 23.64000
C  -1.32600 43.19900 21.03100
C  1.40000 45.63500 22.06100
C  0.75100 46.80300 22.77100
N  2.13400 42.99100 26.43500
C  3.02000 43.26100 25.45800
C  4.41300 43.18400 25.89400
C  4.26700 42.97900 27.33800
C  2.90600 42.80100 27.56900
C  5.70200 43.43600 25.12300
C  4.96000 42.76900 28.56900
O  6.16200 42.80500 28.83500
C  3.87200 42.53400 29.65100
C  4.23200 41.31100 30.34800
O  4.02100 40.18400 29.94100
O  4.68900 41.59400 31.63500
C  4.78800 40.45900 32.52400
H  -2.89100 41.19900 29.39300
H  -2.98000 42.96700 23.18100
H  3.32700 44.19400 23.54500
H  1.45900 40.95600 31.27300
H  -1.33700 41.50600 31.17700
H  0.39200 39.14000 30.86600
H  -1.09200 38.99500 29.87800
H  -1.30000 39.25700 31.55100
H  -0.37400 43.15300 31.77300
H  1.12100 43.86100 31.18500
H  1.07800 43.85400 33.55000
H  2.34200 42.95000 32.95700
H  -4.51500 40.17500 28.38600
H  -5.59400 40.33400 27.02300
H  -5.62900 41.62300 28.24700
H  -6.89300 41.11600 25.16300
H  -7.46300 42.76500 24.59900
H  -6.69900 42.58500 26.24500
H  -1.38600 44.88400 22.42900
H  1.35700 43.57600 21.57400
H  -0.95000 42.17600 21.01300
H  -1.00300 43.72500 20.13300
H  -2.39100 43.02300 20.87600
H  1.34000 45.67400 20.97400
H  2.47900 45.61900 22.21900
H  0.37800 47.53700 22.05700
H  1.50200 47.27600 23.40500
H  -0.08000 46.43000 23.36900
H  6.29200 42.52700 25.00600
H  6.27200 44.21200 25.63400
H  5.57100 43.78600 24.09900
H  3.78800 43.28900 30.43200
H  3.97000 40.56400 33.23700
H  5.74100 40.49100 33.05100
H  4.73000 39.47900 32.05100

