158

Mg 54.08000 23.89000 44.87700
C  51.82400 26.45600 43.74800
C  51.78000 21.60500 43.75400
C  56.41800 21.73600 45.29700
C  56.22200 26.53800 46.04500
N  52.06700 24.04200 43.69800
C  51.38900 25.18800 43.44100
C  50.05600 24.81900 42.75500
C  49.76900 23.42100 43.33200
C  51.30400 22.95800 43.63200
C  48.86800 23.46200 44.57000
C  50.09400 24.81800 41.21400
C  48.77500 25.27300 40.51200
H  48.31600 24.46300 39.29600
N  54.10900 21.90400 44.44200
C  53.06200 21.13300 44.13000
C  53.43400 19.73800 44.32300
C  54.83200 19.67400 44.66000
C  55.22600 21.16400 44.80600
C  52.51400 18.47800 43.85200
C  55.65800 18.40600 44.90400
O  55.17000 17.31000 44.85900
C  57.14100 18.50400 45.06400
N  56.15200 24.15800 45.40300
C  56.84300 23.03300 45.73100
C  58.22700 23.25300 46.28100
C  58.07500 24.80700 46.62200
C  56.70600 25.25100 45.99900
C  58.72200 22.39300 47.37500
C  59.27400 25.53000 45.95900
C  60.53400 25.64900 46.87700
N  54.05300 26.04700 44.99400
C  54.92800 26.90400 45.53600
C  54.26200 28.21500 45.65400
C  53.03900 28.09500 44.96000
C  52.99400 26.76700 44.49900
C  54.87600 29.44700 46.19900
C  51.82300 28.82500 44.46100
O  51.46800 29.99300 44.62100
C  50.98100 27.72900 43.67000
C  50.80200 28.27100 42.26200
O  51.70300 28.27400 41.41700
O  49.50000 28.69700 42.07900
C  49.10600 29.23300 40.76900
H  51.03400 20.84000 43.52700
H  57.12700 21.04600 45.75700
H  56.73900 27.41500 46.43900
H  49.26100 25.48300 43.09100
H  49.10100 22.85000 42.68800
H  48.06600 22.73600 44.43500
H  48.34300 24.38900 44.79700
H  49.38600 23.06000 45.44100
H  50.26700 23.81500 40.82500
H  50.94900 25.44600 40.96400
H  48.97600 26.30300 40.21800
H  47.96500 25.16200 41.23300
H  52.56900 18.41600 42.76500
H  51.48000 18.69200 44.12400
H  52.64300 17.44200 44.16500
H  57.55600 17.50800 44.91200
H  57.29800 18.88000 46.07500
H  57.41700 19.12400 44.21100
H  58.98300 23.03200 45.52700
H  58.22600 25.05900 47.67200
H  59.44500 21.74600 46.87900
H  57.94300 21.77100 47.81600
H  59.13000 23.05000 48.14400
H  59.01500 26.56700 45.74300
H  59.59500 25.06200 45.02800
H  60.52700 25.38000 47.93400
H  60.81400 26.70200 46.85200
H  61.41900 25.17200 46.45600
H  54.15700 30.26700 46.20500
H  55.69900 29.64800 45.51300
H  55.12100 29.19600 47.23100
H  49.98600 27.74600 44.11400
H  49.76200 29.99900 40.35400
H  48.08000 29.59900 40.77000
H  49.14100 28.41500 40.05000
Mg -5.72000 24.89100 26.29100
C  -4.41800 26.21000 29.26800
C  -7.34400 22.69500 28.16900
C  -6.56200 23.37800 23.51000
C  -3.69900 27.19200 24.45800
N  -5.89000 24.54600 28.59300
C  -5.37700 25.27100 29.59700
C  -5.82300 24.69100 31.00200
C  -6.60300 23.43700 30.53000
C  -6.57100 23.54800 29.01200
C  -6.00100 22.09500 31.12200
C  -6.69100 25.74100 31.79300
C  -6.23200 25.85600 33.23900
H  -5.97900 24.58800 34.06300
N  -6.88200 23.34200 25.82300
C  -7.49400 22.59900 26.75300
C  -8.44400 21.70800 26.13300
C  -8.25200 21.82700 24.68900
C  -7.20400 22.87800 24.60000
C  -9.47600 20.79800 26.87300
C  -8.91900 21.09700 23.53000
O  -8.61900 21.30100 22.36700
C  -9.96800 20.06900 23.80000
N  -5.18800 25.31200 24.28300
C  -5.65400 24.52800 23.32000
C  -5.09700 24.96600 21.98400
C  -4.31700 26.23900 22.22500
C  -4.40000 26.27300 23.74400
C  -4.30500 23.74300 21.38600
C  -4.95400 27.51300 21.63700
C  -4.02400 28.41200 20.79100
N  -4.35500 26.43000 26.71100
C  -3.59000 27.30200 25.84600
C  -2.80900 28.16800 26.74800
C  -3.03800 27.72700 28.03200
C  -3.98700 26.67700 27.97500
C  -1.81300 29.27300 26.28900
C  -2.57000 27.88400 29.34300
O  -1.66100 28.54400 29.81900
C  -3.42900 26.99300 30.24700
C  -2.54600 26.05300 30.96200
O  -1.94000 25.14500 30.44900
O  -2.54800 26.36300 32.26800
C  -1.87200 25.38600 33.15300
H  -7.71300 21.86700 28.77800
H  -6.89800 22.93000 22.57300
H  -2.94700 27.84100 24.00500
H  -4.88700 24.52500 31.53400
H  -7.68000 23.51000 30.67700
H  -6.69000 21.46600 31.68600
H  -5.21200 22.21500 31.86400
H  -5.57700 21.51300 30.30400
H  -7.77500 25.65200 31.71800
H  -6.53900 26.66300 31.23300
H  -6.95900 26.44300 33.80100
H  -5.29000 26.40400 33.26200
H  -10.48900 20.95300 26.50100
H  -9.58400 21.17600 27.89000
H  -9.18600 19.76500 26.68300
H  -10.84800 20.62900 24.11800
H  -9.52500 19.37200 24.51200
H  -10.23500 19.52000 22.89800
H  -5.94600 25.18500 21.33700
H  -3.32900 26.01800 21.82200
H  -4.57100 22.73700 21.70900
H  -3.23900 23.93400 21.51200
H  -4.52100 23.83200 20.32100
H  -5.31200 28.07900 22.49600
H  -5.88500 27.46300 21.07100
H  -4.33600 28.42900 19.74700
H  -2.99000 28.07300 20.73400
H  -3.94000 29.44300 21.13500
H  -2.09500 30.28800 26.56900
H  -1.53500 29.07100 25.25500
H  -0.93500 29.05900 26.89800
H  -3.90400 27.59100 31.02500
H  -2.27100 25.61800 34.14000
H  -0.80600 25.60100 33.22800
H  -2.15100 24.33800 33.04400

