158

Mg -0.71700 17.40400 27.48100
C  -1.74200 15.18300 29.97600
C  -1.83000 20.01600 29.43000
C  -0.46600 19.39600 24.77300
C  -0.20700 14.64200 25.35000
N  -1.71900 17.60100 29.53000
C  -1.83100 16.50500 30.44100
C  -2.26700 17.01000 31.82100
C  -2.52800 18.59500 31.56100
C  -1.94600 18.77700 30.12200
C  -3.94500 19.07700 31.91300
C  -1.22600 16.67300 32.91800
C  -1.14800 17.63800 34.19200
H  0.02000 17.39000 35.21700
N  -1.07800 19.45000 27.17100
C  -1.49900 20.37500 28.09300
C  -1.62100 21.73900 27.44200
C  -1.25100 21.49300 26.10700
C  -0.83400 20.10800 25.96400
C  -2.09900 23.01300 28.15000
C  -1.18400 22.53000 25.05900
O  -0.74500 22.26100 23.95000
C  -1.80800 23.82100 25.24900
N  -0.38700 17.03400 25.35400
C  -0.20300 18.06200 24.53900
C  -0.01700 17.57000 23.07000
C  0.41400 16.06500 23.35800
C  -0.05600 15.89100 24.77200
C  -1.26700 17.59600 22.17400
C  1.99300 15.81900 23.18200
C  2.97800 16.53000 24.13300
N  -0.97500 15.34800 27.58000
C  -0.61300 14.32100 26.66600
C  -0.85500 13.05900 27.26300
C  -1.20700 13.30600 28.55800
C  -1.40000 14.73600 28.69400
C  -0.58300 11.75100 26.57100
C  -1.52200 12.74000 29.77800
O  -1.58200 11.53800 30.04600
C  -1.89600 13.88100 30.80900
C  -0.93700 13.74900 31.82300
O  0.24300 14.13500 31.83700
O  -1.58000 13.21000 32.94300
C  -0.81900 12.86100 34.15700
H  -2.18700 20.92300 29.92200
H  -0.56600 19.99700 23.86600
H  0.01400 13.79300 24.70000
H  -3.20100 16.49100 32.03900
H  -1.96500 19.17300 32.29300
H  -4.25200 19.87900 31.24100
H  -4.09100 19.41300 32.94000
H  -4.65400 18.27000 31.73100
H  -0.24100 16.46200 32.50100
H  -1.47800 15.79400 33.51200
H  -2.14200 17.69300 34.63700
H  -0.86100 18.59500 33.75600
H  -1.59400 23.94800 27.90500
H  -1.83900 22.87200 29.20000
H  -3.18000 23.08400 28.02900
H  -1.85900 24.19500 24.22700
H  -1.06100 24.34200 25.84800
H  -2.78400 23.80200 25.73200
H  0.78100 18.15700 22.61600
H  0.01500 15.36500 22.62500
H  -1.96100 16.77300 22.34500
H  -0.93700 17.42000 21.15000
H  -1.70500 18.56200 22.42500
H  2.19400 16.06300 22.13900
H  2.12100 14.74000 23.25700
H  2.63100 17.34600 24.76700
H  3.80800 16.93800 23.55600
H  3.38100 15.79300 24.82800
H  -0.05200 11.81900 25.62100
H  -1.53200 11.23300 26.43400
H  -0.04800 11.10700 27.26900
H  -2.89900 13.59800 31.12800
H  -0.98200 13.58900 34.95200
H  0.25000 12.84400 33.94700
H  -1.15100 11.86300 34.44300
Mg 46.73000 15.60400 28.72800
C  44.69400 15.19000 31.64000
C  48.78900 17.37400 30.49800
C  48.24500 16.24200 25.82600
C  44.05600 14.12900 26.82800
N  46.70200 16.20600 30.82800
C  45.86800 15.94500 31.82400
C  46.37000 16.43700 33.15300
C  47.52500 17.36300 32.68700
C  47.66600 17.03100 31.21100
C  47.28900 18.84600 32.87400
C  46.80200 15.29400 34.03700
C  46.50700 15.41700 35.52700
H  46.43100 16.81700 36.11600
N  48.35800 16.58800 28.20300
C  49.13000 17.19600 29.13400
C  50.17700 17.90600 28.42800
C  50.09400 17.55300 27.02700
C  48.87500 16.77200 26.96800
C  51.19300 18.72900 29.14000
C  50.91300 17.97800 25.81100
O  50.56400 17.70200 24.67300
C  52.16100 18.71900 25.98800
N  46.21300 15.13400 26.59200
C  47.11700 15.52600 25.58000
C  46.57200 15.04700 24.19300
C  45.17600 14.49100 24.58200
C  45.13800 14.54200 26.07300
C  46.55400 16.16100 23.05800
C  44.91100 13.02400 24.15200
C  45.92500 11.94000 24.57800
N  44.79500 14.78500 29.16600
C  43.85000 14.20300 28.24100
C  42.75500 13.67800 29.06000
C  43.07100 14.04100 30.36900
C  44.31700 14.69500 30.39600
C  41.51000 12.87700 28.65700
C  42.59700 13.93200 31.76400
O  41.53600 13.39800 32.22500
C  43.62800 14.72300 32.64300
C  42.96700 15.95800 33.20700
O  42.32900 16.81400 32.57800
O  42.96800 15.84600 34.59400
C  42.39100 16.88100 35.44000
H  49.45900 18.01100 31.07800
H  48.80400 16.44000 24.90900
H  43.28600 13.54900 26.31400
H  45.59700 17.04200 33.62700
H  48.52200 17.13000 33.06000
H  48.03200 19.17700 33.60000
H  46.34300 19.14000 33.32800
H  47.40900 19.29900 31.89000
H  47.85800 15.08200 33.86900
H  46.24600 14.41500 33.71000
H  47.36000 14.99300 36.05500
H  45.63100 14.82600 35.79700
H  51.27400 19.72300 28.70000
H  52.13100 18.17800 29.06700
H  51.04200 18.87600 30.21000
H  51.81200 19.63900 26.45800
H  52.72100 18.63700 25.05600
H  52.83000 18.21100 26.68300
H  47.27300 14.32200 23.77800
H  44.40000 15.15000 24.19400
H  45.53900 16.47800 22.81600
H  47.13200 15.95000 22.15800
H  46.95300 17.07000 23.50700
H  44.96800 13.08600 23.06500
H  43.88500 12.73800 24.38500
H  45.52900 11.12400 25.18200
H  46.76600 12.31600 25.16100
H  46.45300 11.50600 23.72900
H  41.43000 12.89200 27.57000
H  40.67000 13.34400 29.17200
H  41.73300 11.88800 29.05800
H  44.04600 14.16200 33.47900
H  43.04200 17.75500 35.46000
H  42.27600 16.51300 36.45900
H  41.48300 17.26900 34.97900

