158

Mg 26.97300 50.85000 26.92600
C  24.88100 51.78400 29.52100
C  29.35100 49.86100 29.24700
C  29.01400 49.90700 24.41200
C  24.74400 52.24400 24.65100
N  27.06300 50.81100 29.02600
C  26.06000 51.20600 29.97000
C  26.52900 50.95800 31.38300
C  28.01200 50.69600 31.25200
C  28.13600 50.38000 29.73100
C  28.87000 51.82900 31.83900
C  25.69000 49.67400 31.92100
C  25.18400 49.67300 33.32700
H  25.88800 50.34600 34.51300
N  28.92500 50.01600 26.79400
C  29.77000 49.62000 27.89400
C  30.96500 48.97500 27.47300
C  30.94000 49.04900 26.08600
C  29.57200 49.68600 25.65200
C  31.94700 48.30000 28.42400
C  31.99000 48.65200 25.13300
O  31.91400 48.73300 23.91800
C  33.22500 47.97500 25.56100
N  26.83800 50.88300 24.89200
C  27.78200 50.48300 24.03200
C  27.41800 50.73800 22.52300
C  25.93600 51.29800 22.60900
C  25.85600 51.54100 24.16500
C  28.38100 51.70700 21.75800
C  24.93500 50.27700 22.15200
C  23.47500 50.61200 21.70800
N  25.18200 51.84300 26.93000
C  24.38000 52.36900 25.96700
C  23.27800 53.01400 26.56400
C  23.33200 52.79500 27.98100
C  24.52100 51.98200 28.11200
C  22.22800 53.82000 25.82700
C  22.74900 52.93800 29.31300
O  21.64100 53.38300 29.65300
C  23.70800 52.23000 30.39600
C  24.09300 53.27800 31.39500
O  24.85400 54.26200 31.23200
O  23.58600 52.86000 32.55000
C  23.73500 53.66200 33.79400
H  29.95100 49.56600 30.11100
H  29.50200 49.58900 23.48800
H  24.07000 52.76700 23.97000
H  26.27500 51.79400 32.03500
H  28.23600 49.73600 31.71800
H  29.29900 51.49300 32.78300
H  28.30000 52.74800 31.97500
H  29.78800 51.92900 31.25900
H  26.17500 48.71100 31.76200
H  24.70800 49.60300 31.45300
H  25.07800 48.60000 33.48900
H  24.12100 49.89000 33.43600
H  33.01300 48.48700 28.30400
H  31.67300 47.24600 28.47100
H  31.79300 48.66400 29.44000
H  33.81600 48.62900 26.20200
H  33.84000 47.68500 24.70900
H  32.93400 47.04000 26.04000
H  27.53700 49.75500 22.06800
H  25.82300 52.21700 22.03400
H  29.15600 52.07400 22.43100
H  27.87000 52.60400 21.40700
H  28.87400 51.11100 20.98900
H  24.76900 49.49500 22.89200
H  25.39300 49.78300 21.29500
H  22.70700 49.97300 22.14400
H  23.42000 50.49500 20.62500
H  23.17100 51.63100 21.94700
H  22.10500 54.78800 26.31300
H  21.38900 53.16000 26.04400
H  22.33700 53.93900 24.74900
H  23.18300 51.40600 30.87800
H  22.80300 53.92100 34.29700
H  24.19400 54.63500 33.62000
H  24.30200 53.09300 34.53100
Mg -10.42000 16.68000 42.95200
C  -7.06200 17.41700 43.39700
C  -11.00400 20.24300 42.45000
C  -13.75100 16.13300 42.39300
C  -9.79400 13.40000 42.84600
N  -9.23000 18.55200 42.84400
C  -7.86200 18.55800 43.11800
C  -7.28500 19.98300 42.82800
C  -8.57700 20.83700 42.90500
C  -9.69800 19.83000 42.72700
C  -8.75900 21.53500 44.26700
C  -6.56800 19.93900 41.44400
C  -5.20500 20.70400 41.50300
H  -4.09700 20.05700 40.70400
N  -12.17000 18.02600 42.46800
C  -12.19800 19.41100 42.42300
C  -13.55700 19.77200 42.19300
C  -14.35700 18.63600 42.03100
C  -13.43100 17.51900 42.26300
C  -13.87300 21.24700 42.06000
C  -15.82500 18.54600 41.65800
O  -16.49000 19.56200 41.69500
C  -16.60700 17.20400 41.33200
N  -11.61400 15.05900 42.64400
C  -12.98200 15.03900 42.62600
C  -13.54500 13.65600 42.66300
C  -12.22900 12.77000 42.47100
C  -11.13800 13.78400 42.64400
C  -14.38000 13.28100 44.02900
C  -12.10300 12.16300 41.02700
C  -11.36300 10.83100 40.99700
N  -8.77600 15.51300 43.07800
C  -8.64400 14.16900 43.12800
C  -7.22600 13.85100 43.38100
C  -6.58900 15.11800 43.50400
C  -7.58000 16.09900 43.25700
C  -6.61500 12.45100 43.49200
C  -5.30400 15.77200 43.66000
O  -4.23400 15.25100 43.78800
C  -5.57000 17.28300 43.58000
C  -5.02600 17.86500 44.83500
O  -5.44400 17.58000 45.93600
O  -4.05600 18.77100 44.58900
C  -3.77200 19.68900 45.68300
H  -11.15200 21.32200 42.37800
H  -14.80400 15.85400 42.31800
H  -9.43200 12.37000 42.82100
H  -6.67000 20.10100 43.72000
H  -8.67000 21.51700 42.05800
H  -9.16600 20.79600 44.95700
H  -9.49600 22.32900 44.14600
H  -7.85200 21.93000 44.72400
H  -7.18200 20.53700 40.77000
H  -6.51600 18.91400 41.07700
H  -4.83200 20.91400 42.50500
H  -5.56200 21.66800 41.14200
H  -14.59700 21.53200 41.29700
H  -13.09700 21.92300 41.70100
H  -14.33800 21.61000 42.97600
H  -17.45400 17.55500 40.74300
H  -16.96300 16.82600 42.29000
H  -16.07500 16.44600 40.75700
H  -14.20800 13.36800 41.84600
H  -12.08300 11.98700 43.21500
H  -14.22000 12.37100 44.60700
H  -15.40600 13.28700 43.66000
H  -14.33200 14.09000 44.75800
H  -11.62100 12.90700 40.39200
H  -13.10400 11.88600 40.69700
H  -12.13400 10.06200 40.96800
H  -10.60500 10.70800 41.77000
H  -10.82100 10.71700 40.05800
H  -7.24500 11.76100 42.93100
H  -6.50300 12.06700 44.50600
H  -5.62200 12.39800 43.04500
H  -5.19500 17.80800 42.70100
H  -4.22100 20.60900 45.30800
H  -2.70500 19.87800 45.80000
H  -4.17600 19.50300 46.67800

