158

Mg 17.32900 -1.20200 27.54800
C  16.21000 0.87400 30.04800
C  19.75100 -2.39000 29.72200
C  18.62000 -2.91700 25.00800
C  15.23500 0.56400 25.32000
N  18.00200 -0.74800 29.58700
C  17.21100 0.05000 30.47400
C  17.70000 -0.07000 31.96600
C  18.96200 -0.93900 31.83300
C  18.88300 -1.42600 30.29200
C  20.29800 -0.33300 32.23100
C  16.63100 -0.85100 32.85200
C  16.52000 -0.48300 34.35100
H  17.75300 0.06200 35.09200
N  18.81600 -2.66000 27.49100
C  19.76400 -2.95300 28.44000
C  20.52000 -4.09200 27.99700
C  20.31600 -4.10200 26.55800
C  19.16800 -3.18800 26.32900
C  21.59600 -4.86400 28.90100
C  21.06300 -4.94200 25.46700
O  20.80000 -4.84400 24.29000
C  22.10200 -5.97000 25.95600
N  16.97400 -1.20900 25.41100
C  17.63600 -1.99000 24.54000
C  17.31500 -1.68500 23.12200
C  16.13100 -0.66800 23.23900
C  16.08100 -0.41100 24.76500
C  18.52600 -1.07000 22.39600
C  14.82000 -1.09300 22.56100
C  13.79200 -1.84200 23.46000
N  15.94900 0.37900 27.58200
C  15.13100 0.99100 26.65800
C  14.31500 2.00000 27.27400
C  14.69000 1.91200 28.60800
C  15.63600 0.94400 28.75500
C  13.34100 2.91800 26.60200
C  14.39400 2.49600 29.86700
O  13.71200 3.50700 30.11600
C  15.39700 1.85500 30.91900
C  16.26000 2.90400 31.52400
O  17.40800 3.13200 31.38700
O  15.52800 3.53500 32.46900
C  16.20300 4.54300 33.32400
H  20.58400 -2.62100 30.39000
H  19.07400 -3.33200 24.10600
H  14.51000 0.95200 24.60100
H  17.88700 0.94300 32.32300
H  18.95100 -1.94200 32.26000
H  20.43800 -0.61900 33.27300
H  20.34200 0.75600 32.26200
H  21.11000 -0.71600 31.61200
H  16.85400 -1.91600 32.78600
H  15.67500 -0.73400 32.34300
H  16.18700 -1.33100 34.94900
H  15.67700 0.20500 34.40200
H  22.63200 -4.92800 28.57000
H  21.18400 -5.86700 29.01500
H  21.43900 -4.52000 29.92300
H  21.82600 -6.37900 26.92800
H  23.05100 -5.44000 26.02400
H  22.17300 -6.86500 25.33700
H  16.94700 -2.56400 22.59200
H  16.27700 0.30800 22.77700
H  19.26600 -0.73100 23.12200
H  18.24400 -0.21100 21.78800
H  19.04500 -1.82700 21.80900
H  15.15900 -1.70700 21.72700
H  14.42800 -0.16000 22.15700
H  12.77500 -1.45000 23.46000
H  14.12600 -1.96500 24.49100
H  13.69500 -2.90600 23.24500
H  13.02600 2.54400 25.62800
H  13.79300 3.89800 26.44900
H  12.53900 3.03800 27.33000
H  14.82900 1.31600 31.67800
H  16.70000 5.29500 32.71000
H  16.90400 3.99600 33.95500
H  15.45800 4.98800 33.98400
Mg -5.92000 25.83700 26.44300
C  -4.06100 27.08300 29.19900
C  -7.79400 23.99500 28.67400
C  -7.39500 24.40000 23.79100
C  -3.71800 27.60900 24.21200
N  -5.74300 25.44100 28.54800
C  -5.10400 26.20000 29.49400
C  -5.63800 25.96900 30.97000
C  -6.53400 24.74800 30.78400
C  -6.73400 24.75800 29.22500
C  -6.21800 23.37500 31.39300
C  -6.38500 27.19800 31.55800
C  -6.63400 27.34900 33.05800
H  -6.16300 26.19400 33.97300
N  -7.36100 24.39900 26.25300
C  -8.08000 23.82500 27.33600
C  -8.97400 22.82800 26.75800
C  -8.74100 22.86100 25.32500
C  -7.77600 23.97500 25.08300
C  -10.04300 22.14000 27.61800
C  -9.41600 21.94800 24.30800
O  -9.26200 22.01900 23.10900
C  -10.30800 20.88100 24.78100
N  -5.61900 25.93500 24.31300
C  -6.40800 25.33700 23.42000
C  -5.93900 25.55400 22.00900
C  -5.06400 26.80000 22.17800
C  -4.67400 26.74100 23.65700
C  -5.12700 24.32600 21.61300
C  -5.59400 28.26500 21.80100
C  -4.91900 28.81400 20.61200
N  -4.27100 27.17200 26.60600
C  -3.51000 27.82100 25.63800
C  -2.59900 28.71800 26.30500
C  -2.77500 28.37800 27.65500
C  -3.75200 27.44300 27.82200
C  -1.57800 29.62800 25.69100
C  -2.25100 28.64700 28.90500
O  -1.30900 29.37100 29.20000
C  -3.10700 27.76800 30.01100
C  -2.07800 26.84100 30.63800
O  -1.74600 25.81500 30.19100
O  -1.73000 27.39900 31.82400
C  -1.14200 26.47000 32.77400
H  -8.43200 23.56300 29.44700
H  -7.98900 23.98700 22.97300
H  -3.08900 28.10200 23.46800
H  -4.84400 25.77300 31.69200
H  -7.42500 25.03900 31.33900
H  -5.15800 23.21200 31.59200
H  -6.49400 22.62900 30.64800
H  -6.77300 23.02900 32.26500
H  -7.29900 27.35400 30.98600
H  -5.76300 28.05800 31.31100
H  -7.72300 27.33000 33.01300
H  -6.13200 28.22500 33.46900
H  -11.04000 22.51400 27.38500
H  -9.86500 22.30100 28.68100
H  -9.99500 21.08000 27.36700
H  -11.08000 21.49400 25.24500
H  -9.80500 20.14200 25.40400
H  -10.85700 20.39700 23.97400
H  -6.75400 25.71600 21.30400
H  -4.12000 26.58100 21.67900
H  -4.20900 24.20000 22.18600
H  -4.83700 24.40700 20.56500
H  -5.75000 23.44600 21.77400
H  -5.39000 29.03200 22.54800
H  -6.67000 28.25000 21.63000
H  -5.57200 28.82200 19.74000
H  -3.96600 28.29500 20.50700
H  -4.60000 29.83900 20.80100
H  -1.34800 29.29000 24.68000
H  -0.65800 29.72300 26.26800
H  -2.00800 30.62500 25.59300
H  -3.58200 28.37500 30.78100
H  -0.18500 26.85700 33.12600
H  -0.89400 25.44200 32.51100
H  -1.90300 26.33200 33.54200

