158

Mg 43.36700 3.79000 48.23100
C  41.29200 6.46400 47.35100
C  40.53600 1.65700 48.00000
C  45.37000 1.17100 48.27500
C  46.13900 5.93800 47.55200
N  41.10900 4.06400 47.70100
C  40.54100 5.26300 47.37700
C  39.01100 5.07000 47.20300
C  38.78300 3.53300 47.76800
C  40.22700 3.02100 47.89600
C  37.97000 3.47700 49.13300
C  38.51600 5.20400 45.76500
C  37.45400 6.33000 45.55600
H  36.77100 6.37400 44.14300
N  42.99300 1.75300 48.07700
C  41.79700 1.05200 48.01600
C  42.04500 -0.35100 48.11900
C  43.44100 -0.51600 48.06500
C  44.00900 0.78600 48.14000
C  41.03400 -1.49300 48.16700
C  44.15800 -1.84400 48.00900
O  43.46100 -2.92100 48.19400
C  45.60500 -1.96200 47.56100
N  45.45700 3.57000 47.68600
C  46.04700 2.40900 48.05000
C  47.59300 2.54100 48.11900
C  47.85400 4.01400 47.59200
C  46.39400 4.53600 47.60400
C  47.99200 2.44000 49.64500
C  48.42200 4.11800 46.13900
C  49.49500 5.11200 45.97100
N  43.66400 5.84200 47.88900
C  44.82000 6.55400 47.56900
C  44.48400 7.93700 47.37500
C  43.08700 7.96000 47.43700
C  42.61900 6.61800 47.56800
C  45.41500 9.11900 47.22800
C  41.87800 8.81500 47.44000
O  41.79400 10.06000 47.50200
C  40.71400 7.88900 47.24500
C  39.74200 8.25600 48.38100
O  39.85800 7.98500 49.53900
O  38.76700 9.09800 47.86300
C  37.86000 9.69000 48.84800
H  39.69000 1.00900 48.24200
H  46.01400 0.34300 48.57800
H  47.01600 6.58200 47.47000
H  38.47300 5.68600 47.92400
H  38.38900 2.87100 46.99600
H  37.43700 4.36800 49.46500
H  38.76100 3.19600 49.82900
H  37.42000 2.53600 49.12200
H  37.82400 4.37200 45.63400
H  39.28900 5.32300 45.00500
H  37.85000 7.33800 45.67300
H  36.69000 6.20200 46.32300
H  40.02600 -1.07900 48.19600
H  41.18800 -2.14600 49.02700
H  41.10400 -2.17000 47.31500
H  46.30900 -2.00300 48.39300
H  45.78000 -1.11900 46.89400
H  45.68900 -2.87000 46.96400
H  48.08100 1.78900 47.49900
H  48.55300 4.53700 48.24500
H  47.45600 1.58700 50.06200
H  47.65700 3.33700 50.16700
H  49.07600 2.38600 49.74500
H  47.68200 4.36800 45.37900
H  48.77500 3.13300 45.83100
H  49.18600 5.75100 45.14400
H  50.37800 4.53900 45.69100
H  49.76100 5.59800 46.91000
H  44.92600 9.86300 46.59900
H  46.28000 8.73600 46.68700
H  45.64300 9.44600 48.24200
H  40.21300 8.06500 46.29200
H  36.88600 9.22900 48.68800
H  37.71300 10.75400 48.66300
H  38.13600 9.50200 49.88500
Mg -11.01600 15.73400 43.56300
C  -7.58700 16.78400 43.51500
C  -11.77100 19.04500 42.85100
C  -14.07400 14.74800 43.14000
C  -9.85800 12.49300 43.41500
N  -9.84200 17.72700 43.20100
C  -8.44800 17.87000 43.20700
C  -8.08500 19.32200 42.78900
C  -9.42900 20.12200 42.89900
C  -10.40000 18.92700 43.03300
C  -9.59300 21.02400 44.16800
C  -7.48500 19.41500 41.41500
C  -6.18000 20.21200 41.27100
H  -4.97900 19.53500 40.54900
N  -12.74700 16.68200 43.04700
C  -12.85100 18.06200 42.89000
C  -14.24700 18.34100 42.60200
C  -14.95100 17.13000 42.62600
C  -13.93900 16.13400 42.90500
C  -14.75600 19.76700 42.21300
C  -16.49200 16.97000 42.32600
O  -17.09200 17.94300 41.92600
C  -17.21700 15.69300 42.49700
N  -11.82400 13.79900 43.27400
C  -13.17400 13.71100 43.27000
C  -13.63400 12.24100 43.40300
C  -12.25400 11.45300 43.42300
C  -11.22500 12.64000 43.41200
C  -14.49000 11.99300 44.62600
C  -12.03900 10.29600 42.28200
C  -11.93000 8.82800 42.64500
N  -9.15700 14.80600 43.54600
C  -8.90000 13.47200 43.55000
C  -7.49600 13.26400 43.69600
C  -6.94900 14.53700 43.78000
C  -7.98300 15.42100 43.61100
C  -6.81300 11.98200 43.65300
C  -5.73600 15.33400 44.03300
O  -4.59500 15.04400 44.26700
C  -6.21700 16.80700 44.02700
C  -6.15100 17.27700 45.46400
O  -6.32900 16.55500 46.44000
O  -5.69900 18.56500 45.44000
C  -5.20800 18.99400 46.72000
H  -12.09900 20.07900 42.73000
H  -15.06500 14.29200 43.18300
H  -9.42200 11.49200 43.39600
H  -7.34400 19.63000 43.52600
H  -9.70500 20.69600 42.01400
H  -8.61500 21.21300 44.60800
H  -10.35700 20.81400 44.91700
H  -9.99100 21.96400 43.78400
H  -8.19600 19.87000 40.72400
H  -7.35400 18.34600 41.24900
H  -5.88600 20.57400 42.25600
H  -6.50600 21.04100 40.64300
H  -15.37000 19.66500 41.31900
H  -14.00200 20.50300 41.93300
H  -15.25700 20.20300 43.07800
H  -18.29300 15.75500 42.33100
H  -17.07800 15.23300 43.47500
H  -16.94800 14.93900 41.75800
H  -14.25400 12.04100 42.52900
H  -12.04100 10.93500 44.35900
H  -15.48200 11.90200 44.18300
H  -14.44600 12.76400 45.39600
H  -14.26900 11.02800 45.08200
H  -11.32500 10.68000 41.55300
H  -12.98200 10.32200 41.73600
H  -11.30400 8.35200 41.89000
H  -12.89500 8.32500 42.58200
H  -11.60600 8.67000 43.67300
H  -5.73000 12.08400 43.58200
H  -7.16200 11.55800 42.71100
H  -7.03800 11.26900 44.44500
H  -5.55200 17.37700 43.38000
H  -4.64900 18.17900 47.17900
H  -6.00700 19.38200 47.35300
H  -4.41500 19.73100 46.59600

