158

Mg 29.82600 57.09400 40.99300
C  27.26300 55.12700 39.45200
C  32.15200 54.65800 39.49400
C  32.35800 59.09000 41.66400
C  27.45700 59.53100 41.40700
N  29.64000 55.14000 39.54100
C  28.51600 54.52800 39.18900
C  28.81700 53.17800 38.43100
C  30.42100 53.04300 38.53300
C  30.80100 54.35100 39.24700
C  31.03700 51.82300 39.23000
C  28.27900 53.09100 36.96200
C  28.67800 54.20900 36.00900
H  27.58100 54.94600 35.22400
N  31.87100 56.80900 40.76800
C  32.59900 55.84500 40.16800
C  34.00200 56.16600 40.27300
C  34.18800 57.32800 41.07100
C  32.76700 57.80600 41.21600
C  35.17500 55.30300 39.71600
C  35.48400 58.03100 41.44200
O  36.52600 57.63400 41.05900
C  35.42500 59.16600 42.41400
N  29.89600 59.06000 41.30400
C  31.08600 59.62300 41.75600
C  30.84800 61.03000 42.34300
C  29.27800 61.22900 42.20200
C  28.82000 59.89100 41.56200
C  31.34600 61.42700 43.72000
C  28.97400 62.45100 41.26000
C  29.89300 63.71700 41.47400
N  27.75300 57.29400 40.62700
C  26.90400 58.31600 40.92200
C  25.51300 57.98100 40.83200
C  25.63900 56.69300 40.25000
C  26.97100 56.36800 40.05900
C  24.32000 58.89800 41.01500
C  24.84800 55.66000 39.52600
O  23.64900 55.67400 39.19300
C  25.87700 54.52000 39.17800
C  25.55100 53.37400 40.08900
O  25.98900 53.30300 41.25200
O  24.56200 52.55400 39.56000
C  24.04800 51.46800 40.38200
H  32.90900 53.94700 39.15500
H  33.13300 59.79200 41.97800
H  26.81400 60.38700 41.62000
H  28.28200 52.43600 39.02400
H  30.85200 52.94500 37.53700
H  31.91200 51.54800 38.64100
H  30.31300 51.01200 39.15200
H  31.38800 51.91000 40.25900
H  27.20600 52.90400 36.94200
H  28.60900 52.17900 36.46400
H  29.49100 53.89100 35.35600
H  29.07800 55.03600 36.59600
H  35.95500 55.94800 39.31300
H  34.92000 54.77200 38.79900
H  35.50800 54.46900 40.33400
H  35.22200 60.11100 41.91000
H  36.42400 59.26100 42.84000
H  34.80800 58.91200 43.27600
H  31.50200 61.60600 41.68900
H  28.74400 61.46800 43.12200
H  30.48700 61.49100 44.38800
H  31.86500 62.38500 43.75600
H  32.07600 60.68300 44.03900
H  27.96700 62.86400 41.32300
H  29.19100 62.26200 40.20900
H  30.68100 63.78000 40.72300
H  30.32200 63.61200 42.47100
H  29.36100 64.64700 41.27500
H  23.87100 59.03200 41.99900
H  23.53500 58.60900 40.31700
H  24.45300 59.91000 40.63400
H  25.67200 54.31600 38.12700
H  23.55300 50.78300 39.69300
H  23.37200 51.98800 41.06100
H  24.78600 50.90600 40.95400
Mg 6.01100 54.56600 40.44900
C  5.90800 51.04900 40.65100
C  9.29700 54.09600 39.34200
C  5.97800 57.75200 39.89000
C  2.63400 54.52900 41.61700
N  7.38400 52.70200 39.85500
C  7.14100 51.44100 40.15900
C  8.38700 50.55700 39.86500
C  9.54200 51.57500 39.66700
C  8.69100 52.90200 39.55800
C  10.46900 51.67800 40.85300
C  8.29400 49.73200 38.53400
C  7.35000 50.17600 37.39400
H  7.92800 50.42300 36.04700
N  7.36900 55.77900 39.65700
C  8.72500 55.44300 39.36300
C  9.44200 56.61700 39.01600
C  8.51800 57.77600 39.13300
C  7.22400 57.15100 39.57900
C  10.85500 56.61900 38.50500
C  8.79900 59.21700 38.78200
O  9.85300 59.58700 38.35100
C  7.76300 60.31200 38.87400
N  4.44900 55.88400 40.54100
C  4.82400 57.23900 40.37500
C  3.60800 58.12800 40.62300
C  2.59900 57.13300 41.29000
C  3.21400 55.76800 41.08600
C  3.90400 59.42100 41.40600
C  1.25300 57.23200 40.62900
C  0.17900 57.53700 41.68700
N  4.52700 53.12200 40.90300
C  3.24100 53.22700 41.46300
C  2.78700 51.94500 42.03800
C  3.81000 51.04700 41.73300
C  4.74600 51.79300 40.95800
C  1.56800 51.66800 42.94000
C  4.32000 49.70400 41.93500
O  3.93300 48.68400 42.49200
C  5.58300 49.64200 41.10200
C  5.24900 48.64300 40.00100
O  4.88000 48.96200 38.87900
O  5.56400 47.39200 40.39300
C  5.14400 46.30100 39.43100
H  10.36700 53.95900 39.17700
H  5.88600 58.81000 39.63300
H  1.61500 54.56200 42.00600
H  8.54300 49.88100 40.70600
H  10.18500 51.49800 38.79000
H  10.20800 52.30500 41.70500
H  11.44200 51.89800 40.41300
H  10.45000 50.69100 41.31500
H  7.83100 48.80400 38.87100
H  9.26400 49.48300 38.10400
H  6.85700 51.11800 37.63600
H  6.61000 49.38300 37.29100
H  10.84000 57.12300 37.53900
H  11.18800 55.60300 38.29400
H  11.58700 57.17300 39.09200
H  8.27200 61.26400 38.72200
H  7.52800 60.29800 39.93800
H  6.92100 60.23700 38.18600
H  3.23500 58.44400 39.64900
H  2.56900 57.28700 42.36800
H  3.21500 59.38200 42.25000
H  3.52000 60.24600 40.80700
H  4.98100 59.51600 41.54600
H  1.05300 56.36500 39.99900
H  1.10100 58.08600 39.96900
H  -0.56900 56.75900 41.53200
H  -0.25400 58.53000 41.57100
H  0.48800 57.35400 42.71700
H  1.48400 50.59300 43.09900
H  0.64900 51.91800 42.41000
H  1.59200 52.41700 43.73200
H  6.35000 49.12900 41.68200
H  5.04700 45.36900 39.98800
H  5.82900 46.14900 38.59700
H  4.16500 46.58800 39.04700

