158

Mg 40.73600 9.31300 29.98100
C  42.60100 10.79600 32.48700
C  38.27600 8.49900 32.28400
C  38.98000 7.76900 27.51700
C  43.37400 9.72300 27.78400
N  40.52000 9.60600 32.18300
C  41.38900 10.26000 32.99000
C  40.75400 10.31500 34.44400
C  39.57100 9.34400 34.38500
C  39.42700 9.15300 32.85800
C  39.72100 8.06700 35.26500
C  40.40600 11.76700 34.95100
C  41.24600 12.30300 36.07900
H  40.61600 13.12500 37.26600
N  38.81000 8.43300 29.94000
C  38.00500 8.12800 30.94800
C  36.82700 7.51400 30.49100
C  36.88800 7.45600 29.06100
C  38.24900 7.92700 28.73500
C  35.69900 6.97600 31.42600
C  35.93300 6.94600 28.08100
O  36.02000 6.97400 26.83900
C  34.63800 6.40800 28.51900
N  41.05500 8.89800 27.85100
C  40.25900 8.10600 27.08700
C  40.77400 7.85000 25.64700
C  42.27500 8.40100 25.77800
C  42.22400 9.08800 27.22400
C  40.67400 6.41100 24.96800
C  42.70700 9.40800 24.66200
C  42.14800 10.84300 24.59300
N  42.71200 9.94500 30.10300
C  43.65000 10.15400 29.09500
C  44.81900 10.86600 29.62000
C  44.37800 11.14400 30.93900
C  43.16500 10.54500 31.18300
C  46.05900 11.24600 28.94200
C  44.74400 11.84400 32.14500
O  45.86000 12.30600 32.38100
C  43.65200 11.58300 33.28600
C  44.24800 10.70800 34.31600
O  44.44300 9.48500 34.22600
O  44.42700 11.42500 35.50900
C  44.46800 10.58500 36.72900
H  37.65600 8.08800 33.08400
H  38.30900 7.35900 26.75900
H  44.25800 9.82200 27.15100
H  41.65200 9.94100 34.93500
H  38.75900 9.95500 34.77800
H  40.64700 8.06500 35.84000
H  39.73800 7.11200 34.73900
H  38.85300 8.09200 35.92300
H  39.37100 11.90500 35.26400
H  40.55700 12.42500 34.09500
H  42.13000 12.88600 35.82100
H  41.54700 11.35300 36.51900
H  34.82000 7.61300 31.33300
H  35.90800 7.00100 32.49500
H  35.50900 5.92000 31.23700
H  34.09200 6.07600 27.63500
H  34.22000 7.28200 29.01900
H  34.69900 5.57300 29.21600
H  40.19300 8.35800 24.87800
H  43.02000 7.61000 25.86500
H  41.63000 6.02800 24.61100
H  40.13300 6.53200 24.02900
H  39.97900 5.73900 25.47100
H  42.49000 8.92700 23.70900
H  43.77900 9.49900 24.83400
H  42.81900 11.54800 25.08300
H  41.30100 10.90400 25.27700
H  41.77600 11.11600 23.60600
H  45.85400 11.84300 28.05300
H  46.46800 10.32100 28.53800
H  46.69700 11.65600 29.72500
H  43.29500 12.51500 33.72500
H  44.21000 11.21700 37.57900
H  45.54500 10.43300 36.79800
H  43.89200 9.66800 36.60500
Mg 35.50900 48.36200 25.36200
C  35.84000 46.32600 28.18200
C  34.44700 51.05000 27.47700
C  34.53900 49.97900 22.78500
C  36.02000 45.44400 23.51100
N  35.25700 48.64300 27.59100
C  35.37300 47.66700 28.48700
C  35.02100 48.14000 29.93200
C  34.52400 49.60000 29.68200
C  34.80200 49.78100 28.16300
C  33.01800 49.81600 29.92700
C  36.16400 48.12400 30.98200
C  35.78400 47.78300 32.39300
H  35.52100 48.84700 33.44700
N  34.61500 50.31100 25.17800
C  34.28900 51.29100 26.07000
C  33.92500 52.51600 25.41600
C  33.94100 52.26400 24.03900
C  34.39900 50.85200 23.89100
C  33.47400 53.76500 26.15200
C  33.69800 53.21500 22.77700
O  33.94500 52.85500 21.61600
C  33.21200 54.60200 22.97700
N  35.26600 47.73700 23.43500
C  34.98100 48.63100 22.54500
C  34.80600 47.95000 21.10600
C  35.49200 46.62700 21.33400
C  35.63500 46.59000 22.85900
C  33.28900 47.91200 20.76700
C  36.86100 46.48500 20.51800
C  38.16700 47.21300 21.01600
N  36.09000 46.33100 25.70600
C  36.28100 45.25300 24.86100
C  36.63000 44.11100 25.55700
C  36.42300 44.44900 26.85600
C  36.13300 45.85000 26.88700
C  36.82800 42.73500 24.89000
C  36.48800 43.95500 28.26600
O  36.77600 42.86700 28.73700
C  36.13300 45.16100 29.13000
C  34.96700 44.80000 29.95200
O  33.84000 44.70800 29.57400
O  35.36900 44.57900 31.26400
C  34.27400 44.27900 32.13400
H  34.20900 51.85600 28.17400
H  34.34600 50.49500 21.84200
H  36.10200 44.59800 22.82700
H  34.29300 47.38200 30.22100
H  35.11400 50.34400 30.21700
H  32.77100 50.70600 30.50500
H  32.65700 48.89200 30.37900
H  32.55800 49.95300 28.94900
H  36.55500 49.14200 30.97800
H  36.99500 47.48500 30.68400
H  36.56800 47.15200 32.81100
H  34.82400 47.26700 32.41500
H  34.08900 54.61900 25.86900
H  33.59900 53.55400 27.21400
H  32.41300 54.00600 26.21500
H  33.04900 54.96400 21.96200
H  33.98500 55.15200 23.51400
H  32.27600 54.47300 23.52100
H  35.33700 48.57800 20.39000
H  34.92000 45.75700 21.01100
H  32.96900 46.96100 20.34100
H  33.02500 48.67600 20.03600
H  32.71800 48.07000 21.68100
H  36.56400 46.77100 19.50900
H  37.12000 45.42600 20.54000
H  38.86000 46.40900 21.26500
H  37.89900 47.89100 21.82600
H  38.57200 47.82300 20.20800
H  35.97800 42.08100 25.08300
H  37.65400 42.19900 25.35700
H  36.92100 42.89700 23.81600
H  37.00200 45.29500 29.77500
H  33.78900 43.31600 31.97600
H  33.58700 45.12500 32.09400
H  34.83100 44.37400 33.06600

