158

Mg 35.49100 3.44500 29.50600
C  33.74400 4.18600 32.38500
C  38.37600 3.11500 31.30500
C  37.13200 2.78500 26.63100
C  32.62400 4.22000 27.67200
N  35.97400 3.77800 31.56200
C  35.10700 3.92200 32.61000
C  35.91100 3.75800 33.97700
C  37.44100 3.79700 33.56900
C  37.27900 3.55800 32.04400
C  38.16800 5.19500 33.84100
C  35.46100 2.42800 34.66000
C  35.20100 2.56900 36.20700
H  36.05800 3.47500 37.06500
N  37.45800 2.98300 29.09600
C  38.49000 2.81200 29.93100
C  39.60500 2.19500 29.25000
C  39.30300 2.25900 27.87300
C  37.91900 2.65900 27.78000
C  40.74600 1.53300 29.94300
C  40.23600 1.93000 26.69600
O  39.81600 2.13000 25.56700
C  41.66000 1.49400 26.93100
N  35.05200 3.59900 27.44100
C  35.81900 3.21300 26.42900
C  35.23700 3.55700 25.13200
C  33.69400 3.76000 25.48000
C  33.77700 3.88700 26.91900
C  35.85700 4.71600 24.35200
C  32.76200 2.67000 24.90400
C  32.38600 1.45900 25.84400
N  33.50700 4.06700 29.86600
C  32.46700 4.35800 29.08300
C  31.32100 4.62000 29.93000
C  31.71500 4.58500 31.24100
C  33.08500 4.34200 31.08900
C  29.87800 4.83000 29.46700
C  31.32900 4.62000 32.64100
O  30.19400 4.75400 33.10200
C  32.66400 4.39500 33.41400
C  32.88600 5.63700 34.12000
O  33.53800 6.60500 33.82400
O  32.09600 5.49200 35.20700
C  32.28400 6.46900 36.31900
H  39.29000 2.87200 31.85100
H  37.64800 2.37300 25.76100
H  31.83300 4.54300 26.99200
H  35.77900 4.57200 34.68900
H  38.03100 2.97100 33.96800
H  37.60500 5.76800 34.57800
H  38.25200 5.80300 32.94000
H  39.08400 5.06600 34.41800
H  36.25300 1.68700 34.55300
H  34.48100 2.09300 34.32100
H  35.25300 1.55600 36.60700
H  34.14700 2.83500 36.28700
H  40.79100 0.46700 29.72300
H  40.70400 1.66800 31.02400
H  41.66400 2.01400 29.60600
H  41.54800 0.66100 27.62600
H  42.41000 2.23300 27.21200
H  41.96700 1.00300 26.00700
H  35.48200 2.69900 24.50600
H  33.35300 4.74700 25.16800
H  36.25400 4.19200 23.48300
H  36.58500 5.32300 24.89000
H  35.01200 5.34300 24.07100
H  33.13800 2.37000 23.92600
H  31.78400 3.09000 24.66800
H  32.39600 0.51300 25.30300
H  31.34100 1.57400 26.13200
H  32.99300 1.45000 26.74900
H  29.40600 3.86600 29.65200
H  29.83500 5.17100 28.43200
H  29.35900 5.64900 29.96400
H  32.64500 3.50100 34.03900
H  32.84100 5.90400 37.06600
H  31.29500 6.66700 36.73200
H  32.66500 7.44800 36.02800
Mg 8.96800 47.91800 25.65300
C  6.82300 48.16500 28.47300
C  11.42800 49.59300 27.38000
C  10.68300 48.32700 22.83500
C  6.16800 46.98700 23.83400
N  8.98900 49.07900 27.63900
C  8.08200 48.80600 28.68300
C  8.64300 49.45100 29.99900
C  10.11300 49.97300 29.55900
C  10.22600 49.50800 28.08600
C  10.30300 51.53000 29.61800
C  8.70200 48.43900 31.20700
C  7.82000 48.80600 32.40400
H  8.06500 47.87100 33.65900
N  10.90200 48.55300 25.27500
C  11.78600 49.07600 26.10800
C  13.14400 49.04100 25.49000
C  12.97700 48.68800 24.12600
C  11.46700 48.50400 24.00900
C  14.38200 49.44000 26.24900
C  13.95700 48.51500 22.97800
O  13.62700 48.11600 21.88700
C  15.36800 48.83500 23.14400
N  8.45100 47.85600 23.67700
C  9.33200 48.01800 22.66700
C  8.72200 47.67000 21.28600
C  7.52400 46.72600 21.72800
C  7.32100 47.25300 23.19600
C  8.26100 48.95200 20.50700
C  7.75600 45.20300 21.66300
C  8.68700 44.45200 22.61100
N  6.95900 47.54200 26.08400
C  5.88600 47.21000 25.21300
C  4.58500 47.00400 25.94800
C  5.00000 47.34800 27.25200
C  6.39300 47.67100 27.23000
C  3.22500 46.68800 25.43200
C  4.51600 47.58900 28.62900
O  3.40800 47.57600 29.02400
C  5.76400 47.88200 29.50100
C  5.82300 46.58000 30.33400
O  6.60100 45.63900 30.10800
O  5.04700 46.53900 31.47100
C  5.40100 45.46900 32.39500
H  12.19700 50.13900 27.93000
H  11.26400 48.42400 21.91600
H  5.34300 46.59600 23.23400
H  8.10300 50.35100 30.29300
H  10.97800 49.44700 29.96200
H  11.36100 51.61700 29.86300
H  9.62300 51.99700 30.33100
H  10.14400 51.97400 28.63500
H  9.71200 48.27300 31.58300
H  8.28400 47.48000 30.90000
H  6.75300 48.69300 32.20900
H  8.03800 49.82900 32.70900
H  14.84800 50.24300 25.67900
H  15.07400 48.60300 26.15100
H  14.31600 49.91000 27.23000
H  15.51500 49.74300 23.72900
H  15.86000 48.87000 22.17200
H  15.86500 48.04200 23.70400
H  9.48000 47.14700 20.70300
H  6.61600 47.02000 21.20200
H  8.71200 49.81400 20.99800
H  7.20200 48.92100 20.25000
H  8.77500 48.90800 19.54700
H  8.19800 45.20600 20.66700
H  6.80000 44.68000 21.68000
H  9.02900 45.13600 23.38700
H  9.54200 44.15100 22.00600
H  8.20400 43.54300 22.97000
H  2.79500 45.84500 25.97300
H  3.13500 46.58100 24.35100
H  2.72600 47.63000 25.65800
H  5.54300 48.62400 30.26700
H  4.68600 44.64700 32.42900
H  5.37900 46.00700 33.34300
H  6.44000 45.16700 32.26400

