158

Mg 35.23100 2.86900 29.93900
C  32.90400 3.78000 32.55800
C  37.69200 2.97800 32.28100
C  37.37300 2.12600 27.51700
C  32.62600 3.02300 27.67400
N  35.31200 3.45000 32.14900
C  34.26200 3.72600 32.99500
C  34.76900 3.83200 34.47800
C  36.32000 3.98700 34.27800
C  36.49100 3.48600 32.82100
C  36.83300 5.51500 34.38200
C  34.39800 2.69500 35.44300
C  34.04400 3.17500 36.91200
H  35.01900 4.03100 37.65400
N  37.22500 2.63300 29.92200
C  38.07600 2.57100 30.99700
C  39.38500 2.14700 30.57900
C  39.35400 2.09200 29.17700
C  37.92100 2.34700 28.80300
C  40.53900 1.90900 31.57000
C  40.50300 1.77000 28.18100
O  40.35500 1.77300 26.97900
C  41.87300 1.50400 28.79800
N  34.98100 2.44900 27.96700
C  36.04500 2.17700 27.14500
C  35.62200 1.98000 25.63400
C  34.09100 2.21700 25.79600
C  33.85600 2.60400 27.26400
C  36.37400 2.98800 24.63300
C  33.25900 1.01400 25.42700
C  32.62800 1.01200 23.98400
N  33.15300 3.41900 30.04500
C  32.20600 3.48600 28.99500
C  30.93000 3.92500 29.56500
C  31.19900 4.09700 30.91600
C  32.55200 3.72500 31.16800
C  29.59500 3.95600 28.78600
C  30.55400 4.29400 32.20400
O  29.36700 4.41000 32.36500
C  31.65200 4.08500 33.31400
C  31.83000 5.41000 34.01700
O  32.31300 6.38700 33.42100
O  31.45700 5.30700 35.31700
C  31.64900 6.52700 36.16900
H  38.46500 3.05100 33.04900
H  38.00000 1.84900 26.66700
H  31.68100 2.93200 27.13400
H  34.42600 4.75300 34.95100
H  36.84500 3.31200 34.95500
H  37.54300 5.53600 35.20900
H  36.12800 6.32200 34.58100
H  37.40300 5.79400 33.49600
H  35.29100 2.09500 35.61900
H  33.59300 2.21000 34.89100
H  34.03500 2.26900 37.51800
H  33.08100 3.67700 36.82000
H  41.36600 2.59400 31.38300
H  40.95500 0.91100 31.43900
H  40.31600 1.89200 32.63700
H  42.13900 2.36100 29.41700
H  42.59900 1.42000 27.98900
H  41.92200 0.56400 29.34800
H  36.00700 0.98200 25.42300
H  33.74100 3.05900 25.19900
H  36.40000 3.95600 25.13400
H  35.73600 2.94400 23.75000
H  37.34300 2.53500 24.42100
H  32.47000 0.70400 26.11300
H  33.94100 0.16500 25.38900
H  31.58300 0.70700 24.03600
H  33.24600 0.32000 23.41200
H  32.55000 1.97800 23.48400
H  29.17800 2.94900 28.80500
H  29.72800 4.33300 27.77200
H  28.97300 4.64500 29.35700
H  31.39400 3.29800 34.02300
H  32.27600 7.30100 35.72600
H  32.15700 6.22500 37.08600
H  30.74000 7.01200 36.52400
Mg 36.06900 49.22200 26.24400
C  36.40000 47.02600 29.07800
C  35.02700 51.59100 28.48200
C  35.43800 51.05100 23.67300
C  36.91600 46.61600 24.16500
N  35.64900 49.19300 28.47400
C  35.96800 48.28400 29.44500
C  35.99100 48.84300 30.91900
C  35.26100 50.14700 30.67100
C  35.33300 50.37300 29.10800
C  33.78000 50.19400 31.09500
C  37.43900 49.12500 31.49600
C  37.65200 48.88000 33.00400
H  36.49500 49.19900 33.96600
N  35.38700 51.11200 26.07900
C  35.03100 51.93000 27.10600
C  34.60000 53.14900 26.54000
C  34.82500 53.11300 25.13800
C  35.28400 51.72900 24.93200
C  34.15700 54.21100 27.45700
C  34.55300 54.08400 24.00500
O  34.76900 53.86800 22.82300
C  33.99800 55.34900 24.45400
N  36.22600 48.87700 24.13200
C  35.79500 49.72500 23.28100
C  35.67100 49.23600 21.83600
C  36.18300 47.77400 22.05900
C  36.44300 47.71400 23.52800
C  34.31600 49.38200 21.12700
C  37.45400 47.44500 21.16200
C  38.83500 47.37300 21.79500
N  36.60700 47.23000 26.48400
C  37.01400 46.30100 25.52400
C  37.34400 45.14000 26.17500
C  37.06900 45.33500 27.58200
C  36.67700 46.65400 27.72900
C  37.70600 43.87700 25.50600
C  37.08700 44.67700 28.86500
O  37.44700 43.54300 29.11200
C  36.68100 45.76500 29.95100
C  35.52700 45.27500 30.65600
O  34.41800 45.13000 30.20500
O  35.90600 45.17700 31.97200
C  34.79200 44.70300 32.75900
H  34.62400 52.28200 29.22400
H  34.99600 51.70200 22.91600
H  37.23000 45.76000 23.56500
H  35.51700 48.13600 31.60000
H  35.64800 51.01100 31.21200
H  33.56100 49.50000 31.90600
H  33.13300 49.87500 30.27800
H  33.63100 51.22900 31.40300
H  37.77600 50.10700 31.16300
H  38.11200 48.38300 31.06700
H  38.36600 49.60900 33.38800
H  37.99400 47.86200 33.19000
H  33.53400 53.91000 28.30000
H  33.65200 54.97600 26.86700
H  34.99400 54.76200 27.88700
H  34.00800 56.03700 23.60800
H  34.66800 55.80000 25.18600
H  32.99900 55.14500 24.84000
H  36.34300 49.85300 21.23900
H  35.37300 47.06500 21.88900
H  33.69900 49.99600 21.78200
H  33.67600 48.51200 20.98100
H  34.55600 49.90100 20.19900
H  37.49300 48.16800 20.34700
H  37.17500 46.50900 20.67900
H  38.83700 47.47100 22.88100
H  39.39600 48.19300 21.34700
H  39.35100 46.41600 21.72200
H  36.78900 43.35900 25.22600
H  38.32200 43.32300 26.21400
H  38.40600 44.10000 24.70100
H  37.49800 45.89700 30.66000
H  33.82900 45.19100 32.61400
H  35.10000 44.99900 33.76200
H  34.71900 43.61900 32.66800

