158

Mg 26.46600 0.88800 29.27200
C  28.34700 0.33900 32.06400
C  23.61700 1.04800 31.30900
C  24.70500 1.36900 26.53000
C  29.26000 -0.11300 27.23400
N  25.96000 0.57700 31.44900
C  27.01600 0.53600 32.35300
C  26.43500 0.58700 33.81900
C  24.91300 0.55200 33.56800
C  24.82300 0.77000 32.04800
C  24.07800 -0.59000 34.11300
C  26.96800 1.78900 34.60200
C  27.57600 1.51900 35.97900
H  27.04400 2.46700 37.01600
N  24.48600 1.12600 28.94100
C  23.46700 1.21200 29.85300
C  22.21100 1.47300 29.21800
C  22.46600 1.49800 27.82900
C  23.95900 1.31800 27.70400
C  20.90400 1.60700 30.01200
C  21.55900 1.63700 26.60200
O  21.86900 1.66300 25.40800
C  20.04300 1.57100 26.82300
N  26.88100 0.56200 27.10400
C  26.01100 1.00100 26.22800
C  26.62300 1.07700 24.84200
C  28.09800 0.62000 25.02000
C  28.12800 0.33400 26.51900
C  25.92000 0.31500 23.73800
C  29.12600 1.68400 24.65400
C  30.38200 1.21400 24.08700
N  28.43600 0.31100 29.58300
C  29.44400 -0.12100 28.71000
C  30.60200 -0.50500 29.42000
C  30.35600 -0.19500 30.79400
C  28.92800 0.17700 30.83300
C  31.76800 -1.14600 28.71000
C  30.78600 -0.22100 32.21800
O  31.81400 -0.58100 32.78800
C  29.47000 0.10500 33.03700
C  29.29400 -1.06700 33.95600
O  28.95500 -2.19900 33.57000
O  29.67600 -0.65000 35.18400
C  29.92100 -1.69400 36.16400
H  22.89300 1.31200 32.08200
H  24.31700 1.81900 25.61400
H  30.02500 -0.48200 26.54700
H  26.63100 -0.41300 34.20400
H  24.52800 1.50900 33.92000
H  23.49400 -0.13500 34.91300
H  24.74800 -1.26800 34.64300
H  23.48400 -1.13500 33.37900
H  26.15100 2.50800 34.66400
H  27.70800 2.29500 33.98400
H  28.65000 1.63500 35.83500
H  27.45200 0.49100 36.31800
H  20.50100 2.51200 29.55800
H  20.91200 1.89100 31.06500
H  20.34200 0.67700 29.92900
H  19.87100 0.74300 27.51100
H  19.55700 1.18700 25.92600
H  19.67000 2.47700 27.30000
H  26.55800 2.15200 24.67500
H  28.27200 -0.30400 24.46800
H  24.98800 -0.18100 24.00800
H  26.63200 -0.24300 23.13000
H  25.57000 1.10600 23.07400
H  29.41000 2.19100 25.57600
H  28.63900 2.48400 24.09600
H  30.22500 0.21900 23.67200
H  31.13500 1.03900 24.85600
H  30.75200 1.86600 23.29600
H  32.64900 -1.06000 29.34500
H  31.89900 -0.69900 27.72400
H  31.65900 -2.20000 28.45200
H  29.55000 1.01700 33.62900
H  29.73400 -2.72800 35.87500
H  29.26600 -1.49900 37.01300
H  30.94400 -1.57200 36.51900
Mg 47.30500 35.04700 26.04000
C  45.48500 33.76200 28.73200
C  47.81200 37.88500 27.82400
C  48.74200 36.34300 23.36600
C  46.22400 32.18500 24.16300
N  46.62800 35.68600 27.96100
C  46.08200 34.97100 28.97100
C  46.10200 35.71900 30.28700
C  46.51900 37.15500 29.78600
C  46.96600 36.92800 28.41200
C  45.29600 38.15700 29.82700
C  47.24700 35.12000 31.26200
C  47.01400 34.93000 32.76700
H  46.01300 35.93100 33.35000
N  48.40300 36.71100 25.76100
C  48.50000 37.82900 26.59300
C  49.38600 38.75600 26.04600
C  49.54600 38.42000 24.69800
C  48.84700 37.12300 24.50900
C  49.88200 39.97200 26.79300
C  50.20900 39.20400 23.50400
O  50.40000 38.68500 22.39600
C  50.77100 40.59400 23.63000
N  47.17600 34.47000 23.98800
C  48.03800 35.14500 23.14100
C  48.06000 34.45200 21.73600
C  47.52400 33.00800 22.04300
C  46.95100 33.21100 23.49900
C  47.23600 35.19900 20.65900
C  48.50600 31.80200 21.98100
C  48.16300 30.56000 21.07300
N  45.91600 33.39100 26.31600
C  45.62500 32.32700 25.46900
C  45.05900 31.32200 26.18800
C  44.75400 31.90200 27.46300
C  45.43300 33.11500 27.52100
C  44.68000 29.97200 25.72300
C  44.20300 31.63000 28.70200
O  43.57700 30.68300 29.08500
C  44.52800 32.88200 29.59900
C  45.11300 32.30500 30.87600
O  46.20500 31.78200 30.95900
O  44.13300 32.36100 31.83300
C  44.51900 31.54400 33.04500
H  47.92200 38.83300 28.35400
H  49.26400 36.69000 22.47300
H  45.84100 31.33200 23.59800
H  45.06000 35.71000 30.60500
H  47.19500 37.70800 30.43800
H  44.59100 37.88400 30.61200
H  44.69700 38.12500 28.91700
H  45.67000 39.17400 29.94200
H  48.07500 35.82400 31.34900
H  47.67000 34.19900 30.86200
H  47.91600 35.17700 33.32800
H  46.74200 33.95500 33.17000
H  50.93700 40.17300 26.61000
H  49.87900 39.88400 27.87900
H  49.25800 40.85000 26.62400
H  51.46000 40.62200 24.47400
H  50.01400 41.36900 23.74600
H  51.38000 40.76000 22.74100
H  49.11900 34.44200 21.47700
H  46.63000 32.77600 21.46400
H  46.74100 36.10200 21.01600
H  46.36600 34.68900 20.24700
H  47.89000 35.47600 19.83200
H  48.61200 31.43600 23.00200
H  49.47800 32.12800 21.61100
H  47.33300 30.79200 20.40500
H  47.74700 29.89500 21.82900
H  49.01000 30.16400 20.51200
H  44.32700 29.36300 26.55600
H  45.59500 29.54800 25.30800
H  43.81800 30.03200 25.06000
H  43.51100 33.25900 29.71100
H  45.55700 31.72500 33.32400
H  44.56300 30.47400 32.83800
H  43.86500 31.85000 33.86100

