158

Mg 1.93900 -2.20900 44.56200
C  5.41900 -1.49000 44.28700
C  1.35800 0.93400 43.02100
C  -1.28300 -3.01200 44.37400
C  2.73100 -5.33400 45.77500
N  3.29200 -0.52900 43.60400
C  4.69400 -0.48400 43.68900
C  5.21500 0.86500 43.25900
C  3.87500 1.66900 43.00600
C  2.75900 0.64500 43.19400
C  3.68000 2.88800 43.93500
C  6.14400 0.77100 41.93200
C  5.77100 -0.33400 40.86300
H  5.41300 0.05800 39.40600
N  0.37900 -1.23100 43.67700
C  0.28200 0.01600 43.05600
C  -1.02800 0.21900 42.56300
C  -1.76200 -0.94200 42.91800
C  -0.88400 -1.80000 43.71400
C  -1.38200 1.52000 41.80100
C  -3.12900 -1.22500 42.44100
O  -3.71000 -0.36000 41.79100
C  -3.87700 -2.44600 42.64900
N  0.87400 -3.98300 44.94400
C  -0.48600 -3.99300 44.95400
C  -1.04000 -5.36900 45.29400
C  0.21800 -6.17400 45.64900
C  1.35800 -5.19400 45.42000
C  -2.31300 -5.31700 46.21700
C  0.48300 -7.51200 44.98300
C  0.39300 -8.76300 45.84400
N  3.63600 -3.25800 45.09000
C  3.82000 -4.47200 45.63900
C  5.16500 -4.71700 45.91100
C  5.88400 -3.57100 45.43900
C  4.89900 -2.67600 44.88900
C  5.76100 -5.94200 46.51400
C  7.15400 -2.93300 45.24500
O  8.30200 -3.32100 45.39100
C  6.93300 -1.58500 44.50800
C  7.32700 -0.49200 45.47100
O  6.76200 -0.36700 46.54800
O  8.29600 0.28700 44.91700
C  8.62000 1.43000 45.75900
H  1.23800 1.95800 42.66100
H  -2.32200 -3.32500 44.25000
H  2.84300 -6.35600 46.14300
H  5.81900 1.34900 44.02700
H  3.85500 1.94300 41.95100
H  3.47400 3.79200 43.36200
H  4.59700 3.03900 44.50300
H  2.91200 2.64000 44.66800
H  7.17200 0.47300 42.13700
H  6.20200 1.75000 41.45600
H  4.93400 -0.87900 41.30100
H  6.65300 -0.97500 40.85600
H  -1.36100 1.44400 40.71400
H  -0.76900 2.39300 42.02500
H  -2.37200 1.91400 42.02800
H  -4.80600 -2.63500 42.11100
H  -4.05900 -2.56900 43.71600
H  -3.21800 -3.25300 42.32700
H  -1.40700 -5.86800 44.39700
H  0.09300 -6.27900 46.72600
H  -3.10700 -5.73600 45.59900
H  -2.60800 -4.31800 46.53700
H  -2.28200 -5.93800 47.11200
H  1.51200 -7.60000 44.63300
H  -0.01900 -7.61000 44.02000
H  -0.62200 -9.14500 45.72600
H  0.47100 -8.58900 46.91700
H  1.11900 -9.49800 45.49800
H  5.78300 -6.79300 45.83400
H  5.14100 -6.04700 47.40400
H  6.79000 -5.68100 46.76200
H  7.43000 -1.57400 43.53800
H  8.42100 1.26600 46.81800
H  8.06100 2.32100 45.47500
H  9.69800 1.58900 45.72800
Mg 30.96800 58.29100 40.12200
C  28.36500 56.20700 38.80300
C  33.24600 56.11600 38.67100
C  33.32800 60.66300 40.79400
C  28.54700 60.68500 40.93000
N  30.77100 56.35600 38.80800
C  29.67100 55.66200 38.51300
C  30.04200 54.31500 37.74300
C  31.61400 54.16500 38.08000
C  31.92300 55.61300 38.48800
C  32.03700 53.07200 39.08100
C  29.65400 54.27800 36.25000
C  29.43900 55.73000 35.50600
H  29.01700 55.61800 33.99800
N  32.94700 58.37300 39.93500
C  33.71000 57.34100 39.32100
C  35.07100 57.81300 39.31400
C  35.12100 58.97300 40.08900
C  33.77000 59.42400 40.32700
C  36.10800 56.90500 38.61000
C  36.46000 59.68100 40.40400
O  37.50300 59.26200 39.91600
C  36.65000 60.91700 41.33000
N  30.98000 60.41700 40.73200
C  32.10200 61.17700 41.06400
C  31.75600 62.56400 41.53100
C  30.21900 62.46300 41.81100
C  29.88700 61.08700 41.18600
C  32.52900 63.09200 42.69900
C  29.47300 63.65900 41.17700
C  28.52400 64.35300 42.10700
N  28.84500 58.42600 39.98800
C  28.04300 59.48100 40.30600
C  26.63600 59.19500 39.87000
C  26.70600 57.86400 39.40900
C  28.08300 57.48800 39.35300
C  25.43900 60.05300 39.83600
C  26.00500 56.72000 38.85000
O  24.80000 56.56200 38.71800
C  27.02700 55.64000 38.34300
C  26.69600 54.25200 38.75900
O  26.79700 53.75200 39.85600
O  26.20400 53.62600 37.60700
C  25.84400 52.26400 37.79100
H  34.03500 55.43600 38.34500
H  34.07300 61.44600 40.95000
H  27.78500 61.43200 41.16200
H  29.51100 53.49800 38.23300
H  32.22800 53.96900 37.20100
H  32.27000 53.59700 40.00800
H  32.96800 52.58500 38.79000
H  31.32800 52.27200 39.29300
H  28.75000 53.69400 36.07800
H  30.38400 53.68800 35.69500
H  30.45200 56.12900 35.44800
H  28.87600 56.50500 36.02600
H  37.05500 57.44400 38.56800
H  35.75600 56.84100 37.58000
H  36.13900 55.97800 39.18200
H  37.66600 60.99300 41.71800
H  35.89800 61.05000 42.10800
H  36.40900 61.71400 40.62800
H  32.00600 63.05500 40.59000
H  30.03100 62.35000 42.87900
H  33.31900 63.72900 42.30100
H  32.86700 62.32600 43.39700
H  32.10800 63.76000 43.45000
H  28.80700 63.46300 40.33700
H  30.19700 64.39300 40.82100
H  27.54400 63.87500 42.09800
H  28.46000 65.41000 41.85100
H  28.82500 64.13100 43.13100
H  25.40000 60.80200 40.62700
H  24.52500 59.49500 40.04200
H  25.47000 60.66800 38.93700
H  27.26200 55.63200 37.27800
H  24.86700 52.25400 38.27600
H  26.49500 51.68300 38.44400
H  25.74800 51.70500 36.86000

