158

Mg 44.35200 5.07200 47.54700
C  42.04000 7.81100 47.51600
C  41.66800 2.97900 47.03000
C  46.56400 2.66200 46.93400
C  46.92000 7.45300 47.18700
N  42.15200 5.34100 47.45100
C  41.46900 6.56400 47.39900
C  39.92600 6.31100 47.39000
C  39.83000 4.68100 47.35700
C  41.29800 4.30100 47.28000
C  38.93800 4.07100 48.50300
C  39.11800 6.99200 46.23800
C  40.03600 7.17700 45.00700
H  39.43900 6.69500 43.66900
N  44.18200 3.04000 47.16200
C  42.97500 2.35200 46.97100
C  43.25500 1.01600 46.62100
C  44.64000 0.89900 46.46000
C  45.18700 2.20600 46.86800
C  42.18400 -0.01900 46.32700
C  45.30400 -0.40900 45.95800
O  44.74200 -1.52000 45.77900
C  46.73200 -0.31500 45.57200
N  46.44400 5.03100 47.17100
C  47.16300 3.88300 46.99900
C  48.65000 4.04000 47.12200
C  48.73300 5.59100 46.92400
C  47.30700 6.10800 47.08900
C  49.24000 3.60300 48.47700
C  49.24900 5.93900 45.51400
C  50.62200 5.48400 45.16300
N  44.50400 7.16300 47.37300
C  45.63100 7.97700 47.28500
C  45.18700 9.33000 47.24200
C  43.81900 9.33400 47.44600
C  43.38500 7.98700 47.44900
C  46.11600 10.52100 47.15100
C  42.62100 10.14900 47.65200
O  42.51400 11.38100 47.73700
C  41.42400 9.24300 47.66000
C  40.58500 9.44700 48.90600
O  40.60300 8.74300 49.91400
O  39.52500 10.32100 48.63700
C  38.27600 10.22300 49.47600
H  40.81400 2.33300 46.81600
H  47.34300 1.90200 46.83900
H  47.81300 8.05100 46.99300
H  39.48600 6.65900 48.32400
H  39.45700 4.37200 46.38100
H  39.55700 3.63300 49.28700
H  38.31800 3.22400 48.21200
H  38.29100 4.81100 48.97400
H  38.76600 7.99200 46.49100
H  38.24300 6.39500 45.98000
H  41.04900 6.78700 45.09800
H  40.12600 8.26200 44.96900
H  41.15300 0.26400 46.54000
H  42.34400 -0.93300 46.89900
H  42.22500 -0.24300 45.26000
H  46.95300 -1.13900 44.89400
H  47.29700 -0.57300 46.46700
H  47.04000 0.59800 45.06200
H  49.04700 3.62200 46.19600
H  49.40400 6.01400 47.67200
H  49.93900 4.31300 48.92100
H  49.67300 2.60300 48.48600
H  48.44600 3.45300 49.20800
H  49.15100 7.02400 45.47700
H  48.48200 5.56000 44.83900
H  51.12900 4.72100 45.75400
H  51.15200 6.43600 45.17800
H  50.70200 5.12900 44.13500
H  45.62900 11.49400 47.07500
H  46.69600 10.42200 46.23300
H  46.83300 10.35600 47.95500
H  40.87500 9.53900 46.76500
H  38.27400 11.08400 50.14400
H  38.25900 9.41100 50.20400
H  37.38800 10.13300 48.85100
Mg 46.74300 17.21600 28.05600
C  44.85400 16.56000 30.96800
C  49.00900 18.87600 29.94600
C  48.34000 18.14700 25.24000
C  44.21000 15.74900 26.06200
N  46.93400 17.71100 30.19100
C  46.09700 17.21600 31.19700
C  46.46500 17.76100 32.55000
C  47.82400 18.58900 32.22300
C  47.91000 18.40600 30.72700
C  47.79100 20.06500 32.82000
C  46.64800 16.65800 33.65200
C  45.98600 16.92400 34.98800
H  45.88500 18.31500 35.57900
N  48.37600 18.41500 27.66900
C  49.23700 18.86000 28.59400
C  50.37600 19.46700 27.91300
C  50.17300 19.40400 26.53400
C  48.95600 18.63300 26.42000
C  51.57400 19.98500 28.72400
C  50.93400 20.02500 25.35800
O  50.67900 19.78300 24.17500
C  51.97300 21.05300 25.71400
N  46.26000 17.06700 25.99300
C  47.21400 17.43500 25.08200
C  46.66400 17.16500 23.62800
C  45.57600 16.19100 23.92100
C  45.37700 16.28600 25.43500
C  46.34300 18.38000 22.78000
C  45.73500 14.72500 23.52500
C  44.86000 14.14400 22.43900
N  44.92200 16.21500 28.39500
C  43.94400 15.75700 27.50800
C  42.87000 15.22100 28.26100
C  43.16500 15.49900 29.64400
C  44.39000 16.10600 29.64300
C  41.76300 14.41400 27.72300
C  42.70800 15.33000 31.02100
O  41.71400 14.77300 31.42700
C  43.75100 16.04500 31.87900
C  42.97800 17.19700 32.48500
O  42.37400 18.08800 31.82700
O  42.94200 17.09600 33.80800
C  42.10000 18.12000 34.51500
H  49.69000 19.44600 30.58100
H  48.71200 18.46900 24.26500
H  43.34400 15.39400 25.50000
H  45.76500 18.45100 33.02200
H  48.73300 18.11500 32.59200
H  48.56200 20.18800 33.58100
H  46.81300 20.28500 33.24800
H  48.10200 20.71800 32.00400
H  47.71600 16.50800 33.81000
H  46.10600 15.74500 33.40700
H  46.55700 16.24200 35.61900
H  44.98200 16.49800 35.00700
H  51.38100 20.95900 29.17400
H  52.51100 20.07300 28.17500
H  51.76400 19.35200 29.59100
H  52.15800 21.77100 24.91500
H  52.90300 20.52500 25.92600
H  51.70300 21.67900 26.56400
H  47.56200 16.77000 23.15200
H  44.59400 16.44700 23.52400
H  47.28900 18.60500 22.28800
H  45.91400 19.17000 23.39700
H  45.71600 18.21100 21.90500
H  45.60100 13.98200 24.31200
H  46.77400 14.57500 23.23000
H  44.39500 13.25200 22.86000
H  45.48600 13.81800 21.60900
H  43.99900 14.77100 22.20500
H  40.97300 14.98500 27.23400
H  41.19700 13.92500 28.51600
H  42.14900 13.73500 26.96300
H  44.02800 15.34400 32.66600
H  42.54000 19.05800 34.17600
H  42.27900 18.02700 35.58600
H  41.09200 17.85600 34.19400

