158

Mg 35.30300 2.90100 30.12700
C  33.06600 4.12700 32.45300
C  37.89600 3.28500 32.41300
C  37.66100 2.13900 27.72500
C  32.83200 3.16400 27.71800
N  35.41400 3.65700 32.15300
C  34.38200 4.01200 32.98700
C  34.80600 4.29300 34.41900
C  36.41200 4.30000 34.17100
C  36.60400 3.70500 32.81100
C  37.08000 5.77400 34.23500
C  34.39600 3.24400 35.44400
C  33.78800 3.80900 36.76600
H  34.69800 3.77000 37.96100
N  37.47100 2.53500 30.14600
C  38.29100 2.69600 31.20600
C  39.66800 2.28200 30.83800
C  39.58400 1.88000 29.49500
C  38.21100 2.22500 29.05600
C  40.73200 2.29000 31.93000
C  40.68600 1.43400 28.59000
O  40.48800 1.18900 27.43400
C  42.08900 1.23500 29.11700
N  35.25300 2.51500 28.09100
C  36.36600 2.31400 27.26900
C  35.91500 2.40300 25.84600
C  34.34200 2.21500 25.93800
C  34.08000 2.70300 27.35700
C  36.36900 3.74800 25.10100
C  33.94500 0.69500 25.76800
C  32.50800 0.36300 25.67700
N  33.30800 3.50600 30.02700
C  32.44200 3.59600 28.99300
C  31.15800 4.01000 29.44800
C  31.33300 4.06300 30.82200
C  32.68100 3.84400 31.10800
C  29.86100 4.19200 28.77000
C  30.64800 4.41900 32.07400
O  29.48000 4.77200 32.32400
C  31.78400 4.47100 33.15400
C  31.79300 5.80200 33.70900
O  32.10700 6.81300 33.10700
O  31.45200 5.76100 35.05000
C  31.55500 7.04500 35.78800
H  38.61300 3.56000 33.19000
H  38.39100 1.95100 26.93500
H  32.03600 3.17600 26.97000
H  34.57400 5.33000 34.66300
H  37.01300 3.69200 34.84700
H  36.35700 6.56700 34.42600
H  37.51800 5.99100 33.26000
H  37.85100 5.73100 35.00400
H  35.16500 2.60600 35.87900
H  33.73500 2.58100 34.88600
H  32.80400 3.42200 37.02900
H  33.55600 4.86200 36.60400
H  40.24100 2.49000 32.88300
H  41.49400 3.00900 31.62700
H  41.25400 1.33300 31.94700
H  42.59600 2.19700 29.20300
H  42.62400 0.69200 28.33900
H  42.32300 0.61200 29.98000
H  36.30500 1.58800 25.23700
H  33.81000 2.75300 25.15300
H  35.50400 4.38300 24.91000
H  36.75600 3.49900 24.11300
H  37.03800 4.37300 25.69200
H  34.41500 0.22900 26.63400
H  34.36900 0.36200 24.82100
H  32.25000 -0.32700 26.48000
H  32.10800 -0.08000 24.76400
H  31.89900 1.26300 25.76900
H  29.62200 5.24500 28.62000
H  29.16300 3.65300 29.41000
H  30.03300 3.71900 27.80200
H  31.48100 3.75800 33.92000
H  32.17600 7.85500 35.40800
H  32.03900 6.88600 36.75200
H  30.59600 7.51500 36.00600
Mg 48.12700 16.57800 28.60100
C  46.31900 16.46600 31.55400
C  50.56400 18.41500 30.13700
C  49.57900 17.23800 25.52900
C  45.47600 15.08000 26.81600
N  48.46800 17.34200 30.66600
C  47.55600 17.12400 31.70500
C  48.08800 17.67400 33.00700
C  49.46700 18.30300 32.53400
C  49.52300 18.00100 31.01400
C  49.41500 19.83600 32.75100
C  48.36900 16.38500 34.02800
C  47.79300 16.51700 35.44700
H  47.54400 18.00200 35.96200
N  50.00500 17.42000 27.94300
C  50.80200 18.13800 28.77800
C  51.95500 18.58300 28.00200
C  51.73400 18.21400 26.63700
C  50.38900 17.54300 26.63800
C  53.12100 19.34900 28.65700
C  52.60300 18.49500 25.39800
O  52.31000 18.07300 24.29300
C  53.95200 19.21000 25.57000
N  47.62600 16.23500 26.47800
C  48.37100 16.64500 25.44200
C  47.70000 16.23400 24.08300
C  46.45600 15.44900 24.53300
C  46.58200 15.48400 26.03900
C  47.42900 17.52400 23.23700
C  46.21900 13.96700 24.01300
C  45.40600 13.75300 22.71400
N  46.29700 15.87300 29.11400
C  45.29900 15.28000 28.23700
C  44.12600 15.00000 29.08200
C  44.57700 15.43500 30.36700
C  45.83200 15.95300 30.32500
C  42.80800 14.42800 28.55300
C  44.15600 15.52400 31.73500
O  43.07300 15.20400 32.14600
C  45.24900 16.09900 32.61200
C  44.67800 17.29000 33.25900
O  44.75000 18.43000 32.90500
O  43.98600 16.88300 34.35000
C  43.45800 17.97300 35.13900
H  51.17300 19.18900 30.60800
H  50.06900 17.40500 24.56800
H  44.62200 14.52700 26.41700
H  47.38000 18.38300 33.43600
H  50.21100 17.84700 33.18600
H  49.50600 19.99100 33.82600
H  48.46700 20.35700 32.62200
H  50.15100 20.39500 32.17300
H  49.42000 16.11200 34.11900
H  47.88700 15.52400 33.56500
H  48.49800 16.13400 36.18500
H  46.83200 16.00400 35.47300
H  53.96700 18.68500 28.83400
H  52.69100 19.85300 29.52300
H  53.41200 20.20000 28.04100
H  53.90700 20.20200 26.01900
H  54.24800 19.36700 24.53400
H  54.69500 18.65000 26.13800
H  48.41000 15.51500 23.67500
H  45.55600 15.95500 24.18300
H  47.57100 18.47600 23.74900
H  46.45800 17.51600 22.74200
H  48.09400 17.50000 22.37500
H  45.96700 13.27900 24.82000
H  47.19400 13.62300 23.66900
H  44.34800 13.52400 22.83600
H  45.79700 12.99100 22.04000
H  45.43400 14.74600 22.26600
H  42.65500 14.54600 27.48000
H  41.99600 14.96400 29.04400
H  42.87900 13.34900 28.68800
H  45.58100 15.32000 33.29900
H  42.50000 18.26600 34.71100
H  44.02200 18.89300 35.29000
H  43.33800 17.60400 36.15800

