158

Mg 24.70100 -7.14900 47.32400
C  27.34900 -5.26100 46.29500
C  22.95700 -6.18200 44.66000
C  22.67900 -9.84300 47.75900
C  27.05600 -8.89200 49.50600
N  25.20100 -5.96000 45.66500
C  26.28300 -5.17100 45.41100
C  26.09300 -4.30800 44.18200
C  24.67800 -4.66900 43.69400
C  24.20700 -5.60400 44.78100
C  23.71700 -3.51000 43.39700
C  27.23500 -4.41200 43.09800
C  27.87200 -3.11400 42.61100
H  27.81600 -2.71200 41.19800
N  22.89200 -7.71000 46.59300
C  22.32300 -7.16600 45.44700
C  21.03500 -7.80300 45.20000
C  20.88500 -8.75900 46.24200
C  22.15800 -8.83500 46.96600
C  20.08300 -7.22800 44.11800
C  19.65800 -9.57600 46.44300
O  18.69900 -9.46500 45.75000
C  19.60400 -10.51600 47.56200
N  24.81900 -9.09100 48.47000
C  23.81000 -9.92600 48.46500
C  24.03700 -11.12400 49.38300
C  25.34000 -10.70500 50.10900
C  25.83400 -9.60800 49.19400
C  22.92800 -11.48900 50.36200
C  26.39600 -11.80900 50.24900
C  26.72700 -12.26100 51.65900
N  26.71900 -7.01600 47.98600
C  27.55400 -7.69600 48.83600
C  28.82000 -7.07400 48.91200
C  28.77000 -6.02700 47.98900
C  27.47800 -6.05800 47.41200
C  30.08200 -7.50000 49.66900
C  29.54600 -4.94900 47.38100
O  30.69200 -4.54800 47.57800
C  28.54600 -4.38200 46.31500
C  28.25100 -2.98700 46.76200
O  28.12000 -2.51700 47.92600
O  28.16500 -2.21400 45.64000
C  27.86700 -0.80400 45.86700
H  22.28200 -5.87000 43.86000
H  22.03800 -10.72500 47.69800
H  27.72500 -9.36500 50.22700
H  26.10600 -3.27300 44.52500
H  24.69500 -5.28100 42.79200
H  23.22600 -3.61600 42.43000
H  24.24600 -2.56100 43.31100
H  22.94800 -3.53300 44.16900
H  26.81600 -4.83600 42.18500
H  27.86600 -5.20700 43.49400
H  28.93100 -3.09500 42.87200
H  27.30000 -2.29300 43.04300
H  19.14700 -7.78600 44.07600
H  20.57500 -7.21500 43.14600
H  19.75600 -6.21800 44.36600
H  20.03500 -9.95000 48.38800
H  20.10100 -11.47000 47.38600
H  18.57500 -10.61700 47.90400
H  24.20300 -11.92900 48.66700
H  24.96600 -10.25400 51.02800
H  22.45300 -10.53900 50.61000
H  23.24700 -12.08000 51.22100
H  22.21700 -12.06000 49.76500
H  27.28100 -11.48800 49.69900
H  25.93700 -12.70800 49.83600
H  26.07900 -11.78800 52.39700
H  27.78800 -12.02100 51.72700
H  26.62900 -13.34600 51.63700
H  30.04100 -8.23300 50.47500
H  30.38200 -6.65400 50.28700
H  30.89600 -7.66500 48.96400
H  29.04400 -4.29000 45.35000
H  28.41000 -0.44700 46.74100
H  26.80800 -0.62500 46.05700
H  28.20800 -0.21900 45.01200
Mg 16.34100 51.79100 25.62800
C  18.00200 50.30600 28.50600
C  14.08500 53.03200 27.89200
C  14.62900 52.57900 22.99400
C  18.78700 50.08300 23.67800
N  16.14000 51.71700 27.90700
C  16.89600 51.04600 28.85000
C  16.55400 51.43800 30.28800
C  15.19400 52.12500 30.07700
C  15.11000 52.28400 28.51400
C  13.85400 51.54200 30.64300
C  17.53000 52.56000 30.83600
C  17.86400 52.46400 32.31100
H  16.96000 51.65400 33.29000
N  14.62300 52.65000 25.43100
C  13.77500 53.20300 26.44600
C  12.68100 53.87400 25.88200
C  12.82300 53.76000 24.49500
C  14.03800 52.94200 24.20900
C  11.68100 54.62600 26.69700
C  11.86000 54.15800 23.33700
O  12.14000 53.91000 22.14400
C  10.61600 54.93100 23.58000
N  16.61500 51.32900 23.63500
C  15.81100 51.91900 22.75100
C  16.30200 51.68200 21.34900
C  17.70900 51.13800 21.55800
C  17.72900 50.78400 23.03600
C  15.26800 50.68400 20.63600
C  18.82700 52.17000 21.33700
C  19.85100 51.86600 20.29500
N  18.11800 50.53400 25.97300
C  18.94700 49.90300 25.08100
C  20.03400 49.27500 25.82300
C  19.66200 49.42600 27.16600
C  18.46400 50.11400 27.18100
C  21.22500 48.50300 25.33900
C  20.07900 49.06900 28.51100
O  21.09300 48.47500 28.82800
C  19.01700 49.63900 29.49200
C  18.49700 48.46700 30.25600
O  17.48800 47.80500 30.02000
O  19.34300 48.19800 31.29700
C  19.01400 46.99300 32.09200
H  13.39800 53.47200 28.61800
H  14.09900 52.81800 22.06900
H  19.65300 49.75300 23.10200
H  16.55300 50.56700 30.94300
H  15.09900 53.06500 30.62000
H  14.12400 50.63300 31.17900
H  13.16500 51.23800 29.85500
H  13.32300 52.19600 31.33400
H  17.26300 53.56500 30.50900
H  18.43300 52.43800 30.23700
H  17.78500 53.47900 32.70100
H  18.91100 52.18500 32.43500
H  11.40600 55.53700 26.16600
H  11.99100 54.85500 27.71700
H  10.77700 54.01700 26.71200
H  9.92500 55.07500 22.74900
H  10.99500 55.92200 23.83000
H  10.09700 54.60200 24.48000
H  16.14200 52.59100 20.76900
H  17.87300 50.18900 21.04800
H  14.79500 49.99900 21.34000
H  15.81000 50.04200 19.94300
H  14.54100 51.29900 20.10600
H  19.35300 52.36700 22.27100
H  18.39900 53.12900 21.04400
H  20.27800 52.73700 19.79900
H  19.57700 51.17900 19.49400
H  20.64200 51.43500 20.90800
H  22.04200 49.17500 25.07500
H  21.03200 47.85500 24.48400
H  21.46100 47.72800 26.06700
H  19.56700 50.31600 30.14500
H  19.77800 46.78500 32.84100
H  19.02200 46.20900 31.33400
H  18.08500 47.20800 32.62000

