158

Mg 36.37900 49.34900 26.23500
C  36.64800 47.48500 29.34200
C  35.43500 52.06300 28.04500
C  36.06600 50.81900 23.28700
C  37.66000 46.44600 24.59400
N  36.06000 49.68900 28.49600
C  36.31700 48.86200 29.54600
C  36.25900 49.61600 30.87900
C  35.86200 51.08200 30.41100
C  35.84900 50.98200 28.88000
C  34.64800 51.77200 31.09700
C  37.61400 49.59000 31.75200
C  37.70000 49.29700 33.31000
H  36.53200 49.60500 34.21300
N  35.68700 51.22600 25.75400
C  35.41500 52.21600 26.61500
C  35.11200 53.42300 25.89100
C  35.25900 53.09100 24.48100
C  35.68000 51.67900 24.42900
C  34.79400 54.77500 26.55200
C  35.21600 53.99500 23.27200
O  35.17000 53.50200 22.17500
C  35.16300 55.42400 23.51100
N  36.77600 48.63700 24.22200
C  36.64200 49.52600 23.17800
C  37.05600 48.87800 21.91700
C  37.80400 47.52800 22.30400
C  37.43600 47.54100 23.82000
C  36.01200 48.80900 20.77200
C  39.39100 47.47900 22.06500
C  39.94400 46.05800 21.85100
N  36.81800 47.37000 26.75000
C  37.35900 46.35600 25.95900
C  37.44300 45.16600 26.79600
C  37.20900 45.57900 28.07700
C  36.78500 46.92400 28.01500
C  37.94800 43.83000 26.38100
C  37.20600 45.11900 29.45400
O  37.59400 44.05800 29.93700
C  36.89600 46.35500 30.34700
C  35.83300 45.94500 31.27800
O  34.67600 45.43700 31.01500
O  36.16200 46.32400 32.54100
C  35.08100 46.20100 33.55600
H  35.20200 52.97100 28.60400
H  35.94500 51.38800 22.36300
H  38.03400 45.51900 24.15500
H  35.50100 49.11500 31.48200
H  36.75700 51.65700 30.64900
H  34.87700 52.62000 31.74300
H  34.06000 51.05300 31.66800
H  33.90900 52.16800 30.40100
H  38.15800 50.52800 31.64100
H  38.18900 48.77400 31.31300
H  38.57400 49.82400 33.69300
H  37.94300 48.24100 33.43000
H  35.65600 55.41400 26.74000
H  34.35100 54.58300 27.52900
H  34.05500 55.32800 25.97200
H  34.13700 55.72200 23.72400
H  35.54900 55.91300 22.61700
H  35.89600 55.66400 24.28100
H  37.87300 49.49400 21.54200
H  37.26300 46.69600 21.85400
H  35.62600 47.80300 20.61000
H  36.45900 49.03200 19.80300
H  35.15200 49.45800 20.93600
H  39.92200 47.82500 22.95200
H  39.68200 47.99700 21.15200
H  39.11600 45.35000 21.82000
H  40.63300 45.77100 22.64600
H  40.58100 45.83600 20.99500
H  37.71600 43.75800 25.31800
H  37.40700 43.11600 27.00200
H  39.03600 43.80100 26.43800
H  37.81000 46.56700 30.90100
H  34.71100 45.23100 33.88600
H  34.24900 46.79100 33.17200
H  35.35800 46.69500 34.48700
Mg 17.12100 53.39500 26.22600
C  18.88100 51.75300 28.83100
C  14.61100 53.91700 28.55600
C  15.50400 54.92000 23.87500
C  19.47600 52.20500 24.00200
N  16.90000 53.00500 28.50800
C  17.68900 52.36700 29.31800
C  17.25200 52.54200 30.76400
C  15.75300 52.99300 30.62900
C  15.70100 53.28400 29.14700
C  14.70100 51.95800 31.17100
C  18.10700 53.65400 31.46800
C  18.29600 53.35900 32.93900
H  17.25600 52.52500 33.75200
N  15.39500 54.44000 26.26600
C  14.48400 54.53100 27.29400
C  13.49400 55.44000 26.92100
C  13.72300 55.87000 25.56000
C  14.88200 55.03200 25.16200
C  12.31400 55.85600 27.85500
C  12.88400 56.72300 24.66400
O  13.24000 56.91800 23.50600
C  11.80500 57.57700 25.31600
N  17.19600 53.21000 24.07000
C  16.53400 54.06900 23.34300
C  17.09500 54.00800 21.91300
C  18.42500 53.21300 21.97300
C  18.41100 52.84100 23.49100
C  16.08600 53.38300 20.87500
C  19.66000 54.17400 21.65800
C  20.72900 53.70900 20.73300
N  18.80600 52.13900 26.28200
C  19.69200 51.81100 25.34500
C  20.72500 50.95500 25.86600
C  20.36600 50.79200 27.20100
C  19.23800 51.63200 27.43900
C  21.89900 50.22000 25.08600
C  20.77100 50.20900 28.47300
O  21.62100 49.34600 28.74400
C  19.95300 50.94800 29.57700
C  19.45200 50.00600 30.67700
O  18.79200 49.02100 30.48300
O  19.81400 50.44800 31.91000
C  19.57400 49.43800 33.01200
H  13.79300 54.04000 29.26900
H  15.08600 55.54600 23.08500
H  20.20800 51.90400 23.25000
H  17.36500 51.61000 31.31700
H  15.47200 53.85200 31.23700
H  14.14600 51.49500 30.35500
H  13.92900 52.51000 31.70600
H  15.21400 51.27000 31.84300
H  17.52500 54.56100 31.30600
H  19.04600 53.85000 30.95000
H  18.48700 54.28600 33.48000
H  19.16500 52.73700 33.15400
H  11.35900 55.63800 27.37600
H  12.44300 56.91700 28.07200
H  12.31800 55.24500 28.75700
H  10.96900 56.98200 25.68400
H  11.39200 58.19300 24.51700
H  12.27900 58.20500 26.07000
H  17.16400 55.04200 21.57600
H  18.52800 52.28000 21.41900
H  15.90700 54.30000 20.31400
H  15.13900 53.16200 21.36700
H  16.51000 52.59200 20.25600
H  20.11700 54.58100 22.56000
H  19.25600 55.05800 21.16500
H  20.57500 52.71100 20.32200
H  21.69900 53.89600 21.19400
H  20.61000 54.25900 19.80000
H  22.68900 50.91200 24.79300
H  21.53400 49.67900 24.21300
H  22.33800 49.47400 25.74800
H  20.52800 51.59700 30.23800
H  20.01700 49.88300 33.90300
H  19.97000 48.45800 32.74700
H  18.50700 49.27500 33.16600

