158

Mg 24.67100 1.84700 29.45600
C  26.95900 1.61900 32.16100
C  22.10600 1.88400 31.69700
C  22.65000 2.00200 26.85800
C  27.38800 1.31400 27.32800
N  24.58900 1.74200 31.68100
C  25.63700 1.89300 32.56800
C  25.12200 2.11500 34.00600
C  23.57200 1.94300 33.89200
C  23.39500 1.89000 32.35300
C  22.81200 0.78200 34.73500
C  25.59500 3.36400 34.80100
C  24.97400 3.63800 36.20100
H  25.90300 3.40600 37.35700
N  22.69200 1.96000 29.34100
C  21.75600 1.90800 30.35100
C  20.41600 1.82300 29.77600
C  20.58100 1.80300 28.35000
C  22.03200 1.98000 28.12400
C  19.18600 1.80500 30.60600
C  19.48100 1.54300 27.30800
O  19.74900 1.57100 26.07600
C  18.00200 1.17700 27.78300
N  25.01300 1.80400 27.43900
C  23.99700 1.98000 26.49900
C  24.49100 1.87300 24.99900
C  26.10200 1.88900 25.24600
C  26.20100 1.59900 26.73500
C  23.98800 0.73000 24.22500
C  26.91000 3.16800 24.75900
C  26.68300 4.43500 25.53400
N  26.80300 1.53900 29.65700
C  27.71400 1.24700 28.67300
C  29.04500 1.04900 29.29500
C  28.78900 1.20600 30.73100
C  27.36600 1.43100 30.82800
C  30.37300 0.66900 28.62900
C  29.39900 1.20500 32.04200
O  30.57600 0.98500 32.30300
C  28.25300 1.57500 33.02000
C  28.19000 0.60200 34.11000
O  27.50400 -0.38600 34.20900
O  29.01600 0.95300 35.10800
C  29.19400 -0.02800 36.20400
H  21.31100 1.87300 32.44700
H  21.94900 1.98700 26.02100
H  28.18900 1.02300 26.64600
H  25.44600 1.22300 34.54300
H  23.04300 2.82500 34.25400
H  21.93900 0.96800 35.36100
H  23.57700 0.23600 35.28600
H  22.43800 0.14500 33.93400
H  25.33000 4.20000 34.15400
H  26.67900 3.24800 34.79200
H  24.09300 3.02000 36.37300
H  24.61100 4.66500 36.14700
H  18.83200 2.82900 30.48800
H  19.37100 1.79200 31.68000
H  18.51200 0.98800 30.34500
H  17.51700 1.92200 28.41300
H  18.14900 0.18200 28.20400
H  17.53700 0.83900 26.85600
H  24.21900 2.75400 24.41700
H  26.62300 1.11500 24.68400
H  23.00300 0.38900 24.54400
H  24.62100 -0.15700 24.27100
H  23.83500 0.92100 23.16300
H  26.47100 3.42700 23.79500
H  27.90900 2.88900 24.42600
H  26.37800 4.40700 26.58000
H  25.98900 5.08300 24.99700
H  27.67000 4.89600 25.54500
H  30.55100 1.33300 27.78400
H  30.44000 -0.33200 28.20400
H  31.12900 0.90600 29.37800
H  28.53200 2.54800 33.42600
H  28.49800 0.15300 37.02400
H  30.14600 0.09900 36.71900
H  29.15800 -1.03200 35.78000
Mg 34.63600 2.73500 28.96600
C  32.82600 3.94100 31.70400
C  37.42900 2.49100 31.00000
C  36.31000 2.00800 26.30300
C  31.74700 3.44000 26.96100
N  35.04200 3.16200 31.12600
C  34.11100 3.60600 32.04000
C  34.81000 3.65900 33.49400
C  36.36700 3.42800 33.09700
C  36.27300 2.94800 31.64400
C  37.32900 4.61800 33.34800
C  34.28900 2.62200 34.53300
C  34.00700 3.22500 35.98100
H  35.14800 4.15500 36.51800
N  36.57100 2.36100 28.67600
C  37.59000 2.28700 29.57600
C  38.79800 1.93600 28.91400
C  38.50300 1.95800 27.49500
C  37.05900 2.12600 27.44300
C  40.15300 1.78100 29.68300
C  39.49600 1.89600 26.33600
O  39.11800 2.00600 25.19600
C  40.90300 1.48300 26.67500
N  34.13500 2.87300 26.85200
C  34.97900 2.36700 26.01000
C  34.36100 2.22300 24.62200
C  32.80800 2.45400 24.90900
C  32.89200 2.95800 26.31600
C  34.97800 3.14100 23.52900
C  31.97900 1.12200 24.84900
C  31.11000 1.05700 23.60400
N  32.75500 3.58500 29.17000
C  31.69900 3.86700 28.33100
C  30.55000 4.32400 29.00200
C  30.89900 4.32000 30.33600
C  32.28300 3.91300 30.37700
C  29.23900 4.68200 28.36100
C  30.47200 4.55500 31.67000
O  29.34000 4.66600 32.17300
C  31.77300 4.40800 32.65000
C  32.07600 5.72100 33.30000
O  32.50000 6.72800 32.71100
O  31.69500 5.72200 34.61900
C  31.77900 6.93400 35.44000
H  38.26300 2.39200 31.69700
H  36.80400 1.72500 25.37100
H  30.86900 3.57700 26.32600
H  34.67000 4.65700 33.91000
H  36.77500 2.64400 33.73500
H  37.91600 4.34400 34.22500
H  36.71700 5.46800 33.65000
H  38.08200 4.82800 32.58700
H  34.87100 1.70600 34.63200
H  33.40100 2.19000 34.07100
H  33.87100 2.46100 36.74600
H  33.05500 3.75300 35.93700
H  40.51000 0.77500 29.46500
H  39.97300 1.86100 30.75500
H  40.90400 2.45000 29.26300
H  41.31000 1.21400 25.70000
H  40.79700 0.59400 27.29600
H  41.42500 2.30900 27.15900
H  34.65800 1.19800 24.40000
H  32.30900 3.14100 24.22600
H  34.33300 3.06900 22.65300
H  35.99100 2.96300 23.16900
H  34.74400 4.18600 23.73000
H  31.38300 1.00300 25.75300
H  32.69900 0.30400 24.87800
H  30.09500 1.32500 23.89600
H  31.21700 0.07800 23.13700
H  31.49700 1.72300 22.83200
H  29.30700 4.63400 27.27500
H  28.87000 5.62200 28.77300
H  28.47600 3.94000 28.59500
H  31.60200 3.72600 33.48300
H  31.09900 7.69700 35.06100
H  32.82700 7.23000 35.49200
H  31.57500 6.56100 36.44400

