158

Mg 35.68200 2.38600 30.45700
C  33.36200 3.30800 32.86100
C  38.13900 2.45900 33.01700
C  37.95900 1.49300 28.19400
C  33.15600 2.65900 27.95300
N  35.66400 2.73200 32.66700
C  34.64000 3.12300 33.40700
C  34.97500 3.03900 34.86900
C  36.51200 3.13300 34.88300
C  36.84100 2.70600 33.45100
C  36.96000 4.65400 35.19100
C  34.40100 1.77500 35.57700
C  34.04900 1.96300 37.12200
H  34.80900 3.01200 37.99300
N  37.73200 1.98500 30.62900
C  38.53200 2.02500 31.72900
C  39.90100 1.51100 31.38400
C  39.77600 1.20400 29.98300
C  38.44800 1.61500 29.55300
C  41.02400 1.32400 32.40300
C  40.84800 0.53400 29.14800
O  40.67800 0.28700 27.95100
C  42.16400 0.20200 29.73100
N  35.56500 2.20300 28.38500
C  36.68800 1.76300 27.65100
C  36.41500 1.55500 26.14700
C  34.83000 1.69100 26.16000
C  34.47900 2.23100 27.51700
C  37.26400 2.49000 25.22500
C  34.10600 0.38800 25.83600
C  34.34200 -0.23700 24.45300
N  33.68600 2.97500 30.37700
C  32.83300 3.01300 29.24900
C  31.51800 3.47800 29.78300
C  31.64400 3.51100 31.19900
C  33.03600 3.28200 31.48600
C  30.31900 3.74700 28.98400
C  30.94400 3.77200 32.40500
O  29.73500 4.06400 32.57500
C  32.06500 3.66900 33.54100
C  32.25500 5.01100 34.23900
O  32.63300 5.98900 33.71000
O  31.87500 4.97900 35.58300
C  32.08700 6.20800 36.33100
H  38.86700 2.61700 33.81600
H  38.76300 1.22800 27.50500
H  32.34600 2.70800 27.22300
H  34.54600 3.94200 35.30300
H  36.99500 2.54600 35.66400
H  37.60700 4.58300 36.06500
H  36.18700 5.39500 35.39300
H  37.46400 5.00600 34.29100
H  34.93100 0.83100 35.45600
H  33.43000 1.50300 35.16500
H  34.15900 1.00800 37.63400
H  32.97300 2.13900 37.09200
H  41.13500 0.26600 32.64000
H  40.85200 1.89700 33.31400
H  41.94000 1.72300 31.96600
H  42.17100 -0.55500 30.51500
H  42.57400 1.18700 29.95300
H  42.79200 -0.23400 28.95400
H  36.65600 0.50300 25.99200
H  34.67600 2.46200 25.40500
H  38.24100 2.03200 25.07200
H  37.34300 3.51400 25.59100
H  36.77000 2.34400 24.26400
H  33.02600 0.53500 25.84500
H  34.39300 -0.34600 26.58900
H  34.99700 0.44100 23.90500
H  33.37400 -0.28600 23.95500
H  34.76900 -1.22700 24.29300
H  30.50200 4.06500 27.95800
H  29.74100 4.45700 29.57600
H  29.73300 2.83700 28.85900
H  31.78200 2.92100 34.28100
H  31.39200 6.93000 35.90100
H  33.07700 6.59200 36.08300
H  32.06100 6.02100 37.40400
Mg -10.91900 16.66400 40.50700
C  -7.44200 16.53000 40.52500
C  -10.66700 20.07600 39.91700
C  -14.34300 16.89000 39.92000
C  -10.99700 13.26800 40.09500
N  -9.30900 18.08900 40.38200
C  -7.96700 17.84900 40.39800
C  -7.12900 19.08500 40.16400
C  -8.16300 20.22200 40.54000
C  -9.46900 19.42600 40.22300
C  -8.10000 20.75800 42.08300
C  -6.63300 19.08900 38.70100
C  -5.08700 19.00800 38.43900
H  -4.68200 18.23000 37.21800
N  -12.33500 18.35300 40.03500
C  -12.06500 19.65600 39.86600
C  -13.22400 20.50300 39.68600
C  -14.31900 19.58700 39.91400
C  -13.71900 18.19300 39.95200
C  -13.09200 22.02100 39.35900
C  -15.76600 19.97600 39.88900
O  -15.93700 21.20100 39.84900
C  -16.96300 19.07300 40.01300
N  -12.43900 15.30300 40.12900
C  -13.72800 15.59000 39.91400
C  -14.59600 14.38500 39.76800
C  -13.49900 13.22400 39.67300
C  -12.23700 13.97100 40.01700
C  -15.71400 14.26800 40.84900
C  -13.44000 12.62400 38.23100
C  -12.70300 11.19000 38.10900
N  -9.56000 15.16700 40.56100
C  -9.74000 13.79500 40.33800
C  -8.40100 13.11900 40.23400
C  -7.52400 14.18200 40.28500
C  -8.23200 15.34200 40.48700
C  -8.13300 11.69600 40.00300
C  -6.09600 14.46700 40.24500
O  -5.11300 13.70300 40.04500
C  -6.03100 15.96700 40.55800
C  -5.22600 16.08600 41.81400
O  -5.34800 15.39500 42.83500
O  -4.36700 17.21000 41.66300
C  -3.58300 17.56900 42.88000
H  -10.52100 21.14300 39.73500
H  -15.43500 16.89200 39.93600
H  -11.05200 12.20000 39.87500
H  -6.24800 19.26600 40.78000
H  -8.02900 21.08300 39.88600
H  -8.93700 20.35500 42.65300
H  -7.98300 21.83800 42.16700
H  -7.15000 20.50400 42.55300
H  -6.99700 20.01600 38.25800
H  -7.01200 18.24900 38.11900
H  -4.61300 18.57200 39.31800
H  -4.61900 19.97900 38.27800
H  -13.12700 22.03600 38.27000
H  -12.13000 22.46700 39.61400
H  -13.80700 22.70200 39.82200
H  -17.82300 19.71900 40.18800
H  -16.87200 18.36600 40.83700
H  -16.94600 18.62100 39.02100
H  -15.11900 14.40800 38.81200
H  -13.57400 12.50200 40.48600
H  -15.93000 13.20000 40.79800
H  -16.62600 14.72900 40.46800
H  -15.28800 14.45600 41.83400
H  -12.84100 13.33500 37.66100
H  -14.41600 12.46500 37.77300
H  -12.94600 10.76700 39.08300
H  -11.65700 11.22500 37.80400
H  -13.20300 10.44600 37.48900
H  -8.25100 11.10100 40.90900
H  -7.09200 11.55300 39.71400
H  -8.72000 11.15500 39.26000
H  -5.37900 16.27700 39.74100
H  -2.72100 18.03300 42.39900
H  -3.22800 16.68400 43.40800
H  -3.92400 18.31300 43.59900

