158

Mg 45.19600 5.23500 46.86200
C  42.81400 7.75600 46.16000
C  42.75000 2.90100 46.48400
C  47.60200 2.74200 47.19300
C  47.68400 7.55100 46.84000
N  42.96200 5.30400 46.22300
C  42.23500 6.47500 46.09900
C  40.72400 6.16600 46.06800
C  40.77300 4.56100 46.18000
C  42.21500 4.18100 46.27400
C  40.01900 3.96800 47.35900
C  39.86700 6.75500 44.90600
C  40.34200 6.34800 43.53500
H  40.64300 7.48000 42.50700
N  45.15900 3.11900 46.84100
C  44.03600 2.36300 46.70700
C  44.36700 1.01300 46.71700
C  45.78500 0.94500 46.85400
C  46.25900 2.31700 46.91700
C  43.36300 -0.11800 46.52900
C  46.53600 -0.33400 46.93000
O  45.95100 -1.41800 46.86100
C  48.00200 -0.39900 47.01800
N  47.45500 5.10400 46.66300
C  48.15500 4.06600 47.07100
C  49.66900 4.39800 47.10200
C  49.63300 5.90700 47.25100
C  48.18600 6.26100 46.79800
C  50.44200 3.56500 48.14900
C  50.82000 6.55000 46.47300
C  52.03900 6.93400 47.33100
N  45.32300 7.26800 46.58600
C  46.38800 8.10100 46.59800
C  45.94200 9.47200 46.62100
C  44.57500 9.37700 46.39100
C  44.25800 7.98100 46.40700
C  46.78500 10.66100 46.79600
C  43.40300 10.17100 46.20900
O  43.26200 11.35700 46.27900
C  42.16000 9.13100 46.03800
C  41.23700 9.30100 47.23100
O  41.20900 8.64500 48.27700
O  40.36700 10.27000 46.84000
C  39.29200 10.57700 47.82500
H  41.91800 2.25100 46.20600
H  48.43700 2.04500 47.28600
H  48.43600 8.33600 46.95000
H  40.32700 6.58100 46.99400
H  40.31900 4.07200 45.31900
H  40.21100 4.68500 48.15700
H  40.29100 2.92900 47.54300
H  38.95500 3.95600 47.12300
H  39.90700 7.83800 45.02100
H  38.80400 6.53100 44.98700
H  39.61600 5.74300 42.99200
H  41.26300 5.77400 43.64200
H  43.61900 -0.77400 45.69700
H  42.40800 0.27800 46.18400
H  43.25200 -0.74400 47.41500
H  48.34500 0.26500 46.22500
H  48.35200 -1.40700 46.79500
H  48.47600 -0.17400 47.97400
H  49.98200 4.19900 46.07700
H  49.77700 6.12800 48.30900
H  50.93400 4.26200 48.82800
H  51.14300 2.84300 47.73000
H  49.78800 2.91800 48.73500
H  50.51600 7.48500 46.00400
H  51.23000 5.90800 45.69400
H  51.96200 6.56300 48.35400
H  52.20600 7.99800 47.49400
H  52.92200 6.54200 46.82700
H  47.67800 10.60400 47.41900
H  46.03400 11.36400 47.15700
H  47.12000 10.99400 45.81400
H  41.69700 9.33700 45.07300
H  38.29800 10.72100 47.40000
H  39.38800 11.57200 48.25900
H  39.17700 9.76000 48.53800
Mg 41.39000 41.28100 26.90700
C  40.48000 43.62200 29.44600
C  42.54600 39.12800 29.38300
C  42.61000 39.30200 24.45100
C  40.48200 43.56100 24.67100
N  41.57800 41.39600 29.13900
C  41.02700 42.42400 29.95000
C  41.20100 42.14900 31.47400
C  42.05000 40.78200 31.42200
C  42.14200 40.37600 29.90700
C  43.50600 40.88600 31.99400
C  39.74900 42.03500 32.24300
C  39.70000 42.80400 33.54500
H  39.03600 42.11800 34.76400
N  42.38300 39.39100 26.94500
C  42.75100 38.68600 28.06400
C  43.45300 37.51200 27.59900
C  43.36500 37.47700 26.19700
C  42.81000 38.76300 25.76300
C  43.98800 36.46800 28.56500
C  43.72400 36.29000 25.20600
O  43.40200 36.28700 24.03900
C  44.49100 35.08800 25.78100
N  41.67600 41.52100 24.76300
C  42.01800 40.50800 23.92700
C  41.76000 40.82100 22.43600
C  40.73700 41.99100 22.63700
C  40.98100 42.37200 24.11700
C  43.01500 41.25100 21.63400
C  39.25300 41.45700 22.38900
C  38.40900 40.76300 23.41200
N  40.68700 43.13600 26.96500
C  40.39700 44.01100 25.96700
C  39.98000 45.35500 26.51000
C  40.00100 45.17000 27.89200
C  40.39700 43.83400 28.08400
C  39.65500 46.56800 25.62400
C  39.75100 45.88800 29.05200
O  39.29200 46.98400 29.30100
C  40.03100 44.88300 30.17000
C  41.02200 45.42400 31.05900
O  42.24000 45.34200 30.87000
O  40.42400 45.81100 32.26200
C  41.40100 46.05500 33.38000
H  42.84900 38.46800 30.19900
H  42.90200 38.58900 23.67700
H  40.09700 44.13600 23.82600
H  41.82000 42.93000 31.91500
H  41.48200 40.01400 31.94700
H  44.26700 40.90500 31.21400
H  43.71600 40.11700 32.73800
H  43.58100 41.81100 32.56600
H  39.59500 40.97300 32.43900
H  38.91500 42.38800 31.63600
H  39.29200 43.81100 33.45300
H  40.68400 42.97300 33.98300
H  44.91800 36.05800 28.17200
H  43.28900 35.65100 28.74600
H  44.30600 36.89800 29.51400
H  44.01200 34.57400 26.61400
H  45.51300 35.40900 25.98300
H  44.69200 34.35100 25.00400
H  41.25300 40.04700 21.86000
H  40.86600 42.84000 21.96600
H  43.84800 40.97800 22.28100
H  42.85100 42.31600 21.47200
H  43.10300 40.66500 20.71800
H  39.31200 40.83200 21.49800
H  38.57500 42.28900 22.19700
H  38.89300 40.79200 24.38800
H  38.27000 39.71700 23.13600
H  37.47100 41.31600 23.45700
H  40.07900 46.36200 24.64100
H  40.12700 47.51500 25.88300
H  38.58300 46.65200 25.44500
H  39.05900 44.79000 30.65400
H  42.17000 46.72800 33.00000
H  41.86300 45.17000 33.81700
H  40.84600 46.53000 34.18900

