158

Mg 29.25100 58.46000 40.94700
C  26.16000 56.97000 40.00200
C  30.78700 55.79900 39.70900
C  32.03300 60.32800 41.07600
C  27.28700 61.38200 41.75800
N  28.48200 56.65600 39.82200
C  27.23800 56.15300 39.68800
C  27.29000 54.75300 39.15700
C  28.76800 54.34700 39.32000
C  29.40400 55.71200 39.64100
C  29.03400 53.28400 40.40800
C  26.86900 54.63300 37.70800
C  27.77900 55.27200 36.62400
H  27.06200 56.07800 35.58800
N  31.14400 58.08800 40.58800
C  31.60700 56.89800 40.10500
C  33.08300 56.93200 40.12400
C  33.38700 58.32500 40.24800
C  32.14000 59.02400 40.59800
C  34.02500 55.77000 39.83400
C  34.79200 58.90500 40.00100
O  35.72500 58.17600 39.70800
C  35.01900 60.38300 40.00400
N  29.57500 60.53000 41.32900
C  30.86300 61.03500 41.32900
C  30.80000 62.53000 41.72200
C  29.29500 62.84000 42.08200
C  28.66500 61.51100 41.67400
C  31.75700 62.88000 42.89800
C  28.75600 64.09200 41.31100
C  27.92300 65.02700 42.12000
N  27.13100 59.01600 40.99000
C  26.56700 60.22900 41.35300
C  25.13500 60.09100 41.33000
C  24.90500 58.79900 40.84100
C  26.19000 58.25100 40.53900
C  24.12500 61.03300 41.81500
C  23.92500 57.82600 40.59800
O  22.70700 57.85700 40.77100
C  24.68800 56.61500 40.00500
C  24.37800 55.34100 40.84400
O  24.72600 55.15900 42.00700
O  23.76300 54.37900 40.13200
C  23.36600 53.16800 40.76800
H  31.30300 54.87000 39.45500
H  32.92500 60.93200 41.25500
H  26.64900 62.22400 42.03500
H  26.55100 54.20000 39.73600
H  29.24300 53.95600 38.42100
H  28.05800 52.95200 40.76200
H  29.66900 53.70900 41.18500
H  29.50800 52.35200 40.09900
H  25.88600 55.10100 37.66900
H  26.81400 53.56300 37.51000
H  28.42600 54.52400 36.16700
H  28.46800 56.03000 36.99700
H  34.98000 55.88000 40.34700
H  34.19700 55.36500 38.83600
H  33.51700 55.07600 40.50400
H  34.99000 60.79500 41.01300
H  34.28300 60.87000 39.36400
H  36.01700 60.56500 39.60500
H  31.08200 63.11500 40.84600
H  29.09800 62.81600 43.15400
H  31.27900 63.43300 43.70800
H  32.62500 63.45200 42.57100
H  32.18900 61.95900 43.28800
H  28.13400 63.82800 40.45500
H  29.53700 64.72900 40.89700
H  28.52900 65.68200 42.74600
H  27.30900 64.40600 42.77200
H  27.19700 65.60800 41.55300
H  24.52400 61.95100 42.24500
H  23.52700 60.43100 42.49800
H  23.62900 61.36400 40.90200
H  24.49400 56.51200 38.93700
H  22.96200 52.54800 39.96800
H  22.63800 53.43200 41.53400
H  24.23200 52.58000 41.07600
Mg 17.23100 52.32700 26.27800
C  18.99200 50.95700 29.11000
C  14.97800 53.60700 28.53300
C  15.60800 53.59700 23.70200
C  19.43400 50.62200 24.22300
N  17.03800 52.20000 28.57800
C  17.98500 51.77000 29.48300
C  17.51800 52.26700 30.87500
C  16.04500 52.81100 30.70900
C  15.98100 52.84900 29.18700
C  15.06800 51.82400 31.29900
C  18.38400 53.42000 31.47500
C  18.40700 53.39600 33.03100
H  17.34800 52.59100 33.78900
N  15.47500 53.46300 26.17800
C  14.70800 53.89300 27.15100
C  13.65200 54.74900 26.67400
C  13.80300 54.77700 25.21400
C  15.00800 53.99600 24.96100
C  12.61500 55.53500 27.50100
C  12.96000 55.43700 24.15500
O  13.33700 55.48700 22.95800
C  11.61400 56.08800 24.53800
N  17.48600 52.08100 24.25200
C  16.69100 52.79400 23.39000
C  17.11900 52.53100 21.96300
C  18.38800 51.70000 22.17000
C  18.49800 51.51200 23.63400
C  16.04300 51.80900 21.11800
C  19.58600 52.35500 21.56700
C  20.14200 53.60000 22.32400
N  18.84100 51.02700 26.49200
C  19.64000 50.46500 25.59600
C  20.60300 49.61300 26.18600
C  20.46300 49.86600 27.60200
C  19.35700 50.65700 27.72900
C  21.59400 48.80200 25.48100
C  21.00300 49.58400 28.91700
O  22.00800 48.91600 29.18600
C  20.13300 50.34300 29.94400
C  19.68500 49.38900 30.93900
O  18.93500 48.43100 30.61600
O  20.11100 49.68100 32.23300
C  19.81700 48.67400 33.28800
H  14.23500 53.97700 29.24300
H  15.04700 53.88800 22.81100
H  20.04600 50.08100 23.49800
H  17.60600 51.34900 31.45700
H  15.70700 53.72200 31.20300
H  14.76300 51.08200 30.56100
H  14.23500 52.40500 31.69700
H  15.44600 51.21600 32.12100
H  18.00700 54.33200 31.01100
H  19.41600 53.20600 31.19700
H  18.36200 54.44200 33.33600
H  19.36900 52.95100 33.28300
H  12.60300 56.58800 27.22200
H  13.11600 55.48100 28.46800
H  11.62300 55.09200 27.60100
H  11.17700 55.43700 25.29500
H  10.82800 56.14400 23.78400
H  11.74200 57.12300 24.85700
H  17.45600 53.48800 21.56400
H  18.17000 50.78500 21.61800
H  16.56100 51.33300 20.28600
H  15.33200 52.54000 20.73300
H  15.59800 50.98600 21.67600
H  19.41400 52.50500 20.50100
H  20.42300 51.66500 21.67400
H  20.19500 54.34600 21.53200
H  21.10300 53.52200 22.83400
H  19.31600 53.85000 22.98900
H  22.41900 49.41800 25.12300
H  21.11800 48.10700 24.79000
H  22.20300 48.30900 26.23900
H  20.84400 51.05900 30.35700
H  20.46800 47.80000 33.31400
H  18.78000 48.34200 33.23100
H  19.80800 49.03400 34.31600

