158

Mg 41.42000 40.80700 27.04700
C  40.60400 43.09700 29.52300
C  42.21100 38.56300 29.50300
C  42.16600 38.62200 24.65000
C  40.70600 43.23500 24.59500
N  41.37200 40.81000 29.26000
C  40.97800 41.86600 30.02200
C  41.06400 41.45700 31.48800
C  41.51900 39.95700 31.47500
C  41.68200 39.70900 29.99100
C  42.78600 39.58100 32.24600
C  39.72700 41.83700 32.33000
C  39.96000 42.46800 33.73700
H  39.23600 41.79100 34.92400
N  42.22200 38.86900 27.06900
C  42.37800 38.05100 28.20400
C  42.98200 36.89400 27.80600
C  43.00900 36.83300 26.37200
C  42.37700 38.08600 25.94100
C  43.54400 35.81200 28.77100
C  43.37800 35.78800 25.41900
O  43.36300 35.99900 24.20300
C  43.76500 34.32800 25.86800
N  41.52400 40.91100 24.90200
C  41.78000 39.90600 24.15000
C  41.56300 40.22000 22.61700
C  41.28200 41.80100 22.64400
C  41.06800 41.99600 24.16500
C  42.66400 39.89100 21.55900
C  40.24300 42.28700 21.66100
C  38.80200 42.60300 22.10400
N  40.82400 42.79700 27.01800
C  40.66300 43.66700 25.96300
C  40.52800 45.03800 26.46100
C  40.38700 44.91000 27.81900
C  40.59200 43.48300 28.13300
C  40.45600 46.23100 25.64700
C  40.08600 45.57500 29.06700
O  39.76700 46.75000 29.32600
C  40.11200 44.39700 30.20600
C  40.99600 44.91400 31.24300
O  42.19300 44.63100 31.36300
O  40.36400 45.76300 32.09900
C  41.02300 46.08700 33.30900
H  42.54900 37.87000 30.27700
H  42.36200 38.09000 23.71700
H  40.69000 44.09800 23.92700
H  41.83000 42.02800 32.01100
H  40.68400 39.31100 31.74500
H  43.61300 39.08900 31.73500
H  42.50900 39.02600 33.14300
H  43.20800 40.52300 32.59700
H  39.19400 40.88800 32.36900
H  38.95600 42.35800 31.76300
H  39.64600 43.51000 33.68400
H  41.01200 42.30600 33.97400
H  43.59900 36.22200 29.78000
H  44.46500 35.34400 28.42400
H  42.77800 35.03600 28.80300
H  43.00700 34.09900 26.61700
H  44.77400 34.45500 26.26100
H  43.85700 33.76600 24.93900
H  40.71700 39.62300 22.27300
H  42.16600 42.40000 22.42600
H  43.26500 39.05000 21.90500
H  43.22400 40.82600 21.56300
H  42.39700 39.78800 20.50700
H  40.07200 41.44700 20.98800
H  40.59500 43.10100 21.02800
H  38.48500 41.79700 22.76600
H  38.01600 42.67900 21.35400
H  38.80800 43.55000 22.64400
H  39.46700 46.23600 25.18900
H  41.21800 46.04300 24.89100
H  40.69600 47.14100 26.19800
H  39.11800 44.27100 30.63500
H  41.23300 45.19300 33.89600
H  40.25400 46.56100 33.91900
H  41.79800 46.82000 33.08400
Mg 8.56400 48.87900 25.00200
C  6.53900 49.40300 27.90100
C  11.10800 50.37500 26.86600
C  10.51300 48.37900 22.43600
C  5.71200 48.40200 23.14900
N  8.77100 49.83800 27.15700
C  7.88600 49.72300 28.21600
C  8.50900 50.16300 29.59600
C  9.82200 50.84300 29.07000
C  9.90500 50.38100 27.57900
C  9.88200 52.36100 29.16800
C  8.80600 49.09800 30.67800
C  8.33300 49.54700 32.04600
H  8.14300 48.50200 33.07300
N  10.56500 49.27200 24.69700
C  11.44800 49.79500 25.59700
C  12.79100 49.55800 25.04700
C  12.64200 48.80100 23.80300
C  11.23200 48.80200 23.59000
C  13.98100 50.02700 25.75400
C  13.59400 48.08100 22.79300
O  13.26900 47.41500 21.85700
C  15.10200 48.22800 22.96900
N  8.22900 48.45600 23.08800
C  9.17900 48.28200 22.16700
C  8.61800 47.92000 20.76500
C  7.03300 47.97600 21.00900
C  7.00100 48.18000 22.52900
C  9.06700 48.97300 19.72200
C  6.31400 46.60200 20.63200
C  5.46200 46.59600 19.38000
N  6.54100 48.88400 25.38400
C  5.49900 48.64100 24.56800
C  4.25600 48.77200 25.28600
C  4.61100 49.02100 26.61500
C  6.00800 49.13400 26.66500
C  2.88700 48.72900 24.63600
C  4.11800 49.25800 27.94400
O  2.92600 49.22900 28.35700
C  5.37600 49.48900 28.85400
C  5.36500 48.50600 29.88300
O  5.82900 47.32600 29.71300
O  4.55200 48.90500 30.94100
C  4.27100 47.84500 32.01800
H  11.86300 50.76600 27.55100
H  11.14800 48.13600 21.58200
H  4.80900 48.38500 22.53500
H  8.00500 51.06200 29.95000
H  10.75700 50.52400 29.53100
H  9.13000 52.82900 29.80300
H  9.57900 52.61300 28.15100
H  10.90800 52.65600 29.38500
H  9.88000 48.94800 30.78900
H  8.46200 48.08700 30.45900
H  7.42800 50.07700 31.74800
H  9.08900 50.17800 32.51300
H  14.65100 50.66500 25.17800
H  14.59500 49.21500 26.14600
H  13.70700 50.61100 26.63300
H  15.30200 49.29800 23.02400
H  15.58800 47.72100 22.13600
H  15.31700 47.83500 23.96200
H  8.90800 46.92600 20.42500
H  6.54000 48.83700 20.55700
H  9.88900 49.53900 20.15900
H  8.22800 49.54600 19.32700
H  9.38400 48.34400 18.89000
H  5.62500 46.25600 21.40200
H  7.12900 45.89100 20.76300
H  5.47900 47.59200 18.93700
H  4.43500 46.37600 19.67100
H  5.79800 45.79200 18.72500
H  2.10300 49.21500 25.21700
H  2.60600 47.67700 24.58500
H  2.81200 49.06700 23.60200
H  5.20100 50.49200 29.24400
H  3.64600 48.27700 32.79900
H  5.19800 47.54000 32.50300
H  3.66400 47.07100 31.55000

