158

Mg 47.60800 15.97700 28.61800
C  45.34800 15.61300 31.30700
C  49.33400 18.16300 30.52000
C  49.50500 16.70800 25.87900
C  45.50000 13.99900 26.59400
N  47.36000 16.67000 30.65500
C  46.40600 16.43400 31.68400
C  46.80200 17.06800 32.97000
C  47.88900 18.07500 32.55300
C  48.19800 17.62800 31.13100
C  47.49500 19.61300 32.69000
C  47.26400 16.16800 34.17100
C  47.57300 16.98300 35.48500
H  48.60600 16.37000 36.47800
N  49.20000 17.24300 28.28300
C  49.81200 18.01500 29.22200
C  50.97000 18.79700 28.63800
C  51.04400 18.35700 27.24800
C  49.88900 17.36900 27.06100
C  51.78000 19.80300 29.42500
C  51.94700 18.81800 26.09900
O  51.96400 18.24000 25.00500
C  52.67000 20.06000 26.22800
N  47.50800 15.38100 26.57800
C  48.43600 15.78700 25.63600
C  48.30700 14.99200 24.29900
C  47.22000 13.91800 24.67800
C  46.74100 14.43600 26.06100
C  47.92000 15.96900 23.10600
C  47.74000 12.47000 24.64000
C  48.88900 12.04300 23.71700
N  45.82600 15.07400 28.85200
C  45.00600 14.38300 27.92700
C  43.77400 13.96800 28.56100
C  43.91900 14.36800 29.87500
C  45.11600 15.03600 30.02600
C  42.62600 13.24300 28.02600
C  43.24800 14.41100 31.15900
O  42.12700 14.00700 31.49500
C  44.19700 15.13700 32.21400
C  43.47000 16.19300 32.86800
O  42.73300 16.99700 32.30300
O  43.86000 16.28800 34.19400
C  43.12200 17.36000 34.92000
H  49.92100 18.89200 31.08300
H  50.13400 16.72100 24.98600
H  44.95100 13.31000 25.94900
H  46.00300 17.67900 33.38900
H  48.81100 17.98200 33.12700
H  46.44800 19.81400 32.91900
H  47.77600 20.24800 31.85100
H  48.05900 19.95400 33.55800
H  48.24600 15.80900 33.86500
H  46.63200 15.32500 34.45200
H  46.61300 17.02700 36.00000
H  47.95400 17.99100 35.32100
H  51.48300 19.97700 30.45900
H  51.82900 20.85300 29.13700
H  52.82400 19.49200 29.46400
H  52.00700 20.90500 26.41300
H  53.09200 20.28100 25.24700
H  53.56100 19.94300 26.84500
H  49.31200 14.62600 24.09000
H  46.36400 14.00000 24.00800
H  46.95900 15.68000 22.67900
H  48.69300 15.93700 22.33900
H  47.87200 17.04200 23.29200
H  46.90400 11.79600 24.45800
H  48.15300 12.25100 25.62400
H  48.58800 11.17200 23.13400
H  49.76000 11.72500 24.28800
H  49.33200 12.78300 23.05000
H  42.96600 12.82000 27.08100
H  41.81500 13.96000 27.89200
H  42.19200 12.52000 28.71700
H  44.58000 14.44500 32.96400
H  43.55600 17.29400 35.91800
H  42.03700 17.32000 35.01600
H  43.36400 18.33900 34.50500
Mg 0.00200 43.94800 25.80700
C  2.42000 43.51700 28.21100
C  -2.37600 42.95100 28.06400
C  -2.12800 43.94000 23.18700
C  2.59400 44.60700 23.53900
N  0.06000 43.26200 27.91700
C  1.10900 43.31400 28.69600
C  0.69800 43.24200 30.10300
C  -0.78400 42.85100 30.05400
C  -1.09000 43.00000 28.59000
C  -1.02300 41.43800 30.59300
C  1.05200 44.49200 30.98200
C  1.28000 44.32100 32.47800
H  0.98300 42.90300 33.05500
N  -2.01700 43.52600 25.60800
C  -2.83700 43.11000 26.65500
C  -4.05800 42.77900 26.12200
C  -4.04900 43.04500 24.71900
C  -2.69500 43.53500 24.40700
C  -5.16300 42.21500 27.01500
C  -5.14500 42.78200 23.67100
O  -5.04000 43.09700 22.50500
C  -6.38600 42.07300 24.06600
N  0.21100 44.38200 23.66400
C  -0.85000 44.29200 22.81800
C  -0.41800 44.59700 21.37200
C  1.13800 44.76100 21.47200
C  1.35000 44.68400 23.02100
C  -0.88800 43.57800 20.27700
C  1.64300 46.06600 20.80300
C  1.31600 47.36900 21.50800
N  2.04500 43.98000 25.80100
C  2.96100 44.26900 24.81400
C  4.36600 44.07300 25.31100
C  4.20200 43.73900 26.68200
C  2.78900 43.78500 26.91300
C  5.66000 44.32300 24.54700
C  4.84700 43.30400 27.87700
O  6.03500 42.99200 28.05100
C  3.72400 43.30800 28.98700
C  3.68700 42.03100 29.77800
O  3.61400 40.85400 29.36600
O  4.26200 42.34100 30.98500
C  4.57800 41.15700 31.83600
H  -3.15900 42.69000 28.77900
H  -2.86600 43.89200 22.38400
H  3.49700 44.87400 22.98600
H  1.35300 42.48400 30.53400
H  -1.41400 43.54100 30.61500
H  -0.14500 40.81900 30.77800
H  -1.65600 40.84400 29.93300
H  -1.55100 41.62800 31.52700
H  0.30000 45.26800 30.84300
H  1.98600 44.96500 30.67800
H  0.57200 45.03500 32.90000
H  2.32100 44.54700 32.70900
H  -5.53600 41.29000 26.57600
H  -5.97800 42.93800 27.03200
H  -4.83200 41.97000 28.02400
H  -6.21700 41.02900 24.33300
H  -6.99800 41.89500 23.18300
H  -6.86700 42.62300 24.87500
H  -0.91800 45.53600 21.13800
H  1.66900 43.89000 21.08700
H  -1.28600 44.12700 19.42400
H  -1.53100 42.76900 20.62500
H  -0.02100 43.03700 19.89700
H  1.19000 46.07600 19.81200
H  2.69700 46.10900 20.53000
H  1.19800 47.21200 22.58100
H  0.33900 47.60100 21.08500
H  1.90000 48.25500 21.25900
H  5.54400 45.36800 24.26200
H  6.00000 43.61300 23.79300
H  6.41400 44.25500 25.33100
H  3.83300 44.21000 29.59000
H  3.84500 40.36700 31.67000
H  4.29600 41.25100 32.88500
H  5.59800 40.80600 31.68100

