158

Mg 49.24700 36.08500 27.58800
C  47.48300 34.25400 30.06200
C  49.97400 38.53900 30.05900
C  51.13100 37.67000 25.30500
C  48.26300 33.81600 25.26100
N  48.69100 36.33300 29.81800
C  48.08000 35.41300 30.61500
C  48.09100 35.90300 32.10400
C  48.54400 37.37100 31.92700
C  49.03900 37.47400 30.45000
C  47.38700 38.39400 32.41800
C  49.19600 34.95500 32.87100
C  49.08000 34.72600 34.39500
H  48.29600 35.64300 35.24700
N  50.33400 37.86900 27.63300
C  50.52700 38.71000 28.75000
C  51.41900 39.80300 28.41700
C  51.72300 39.61300 26.98600
C  51.06300 38.36000 26.56100
C  51.55200 40.94900 29.37500
C  52.47400 40.53200 26.05100
O  52.65000 40.35300 24.88200
C  53.27700 41.72300 26.67300
N  49.57400 35.84500 25.53400
C  50.42800 36.60400 24.81000
C  50.35900 36.31500 23.32500
C  49.44200 35.08400 23.23600
C  49.08800 34.83500 24.77800
C  49.86500 37.44400 22.48400
C  50.05800 33.79100 22.59600
C  49.51300 33.42000 21.19100
N  48.21700 34.30800 27.59200
C  47.83600 33.56900 26.56900
C  46.80000 32.58300 27.00400
C  46.67100 32.81200 28.35000
C  47.53000 33.89800 28.68700
C  46.16900 31.57300 26.15500
C  46.05600 32.35700 29.51900
O  45.27800 31.43800 29.68300
C  46.48600 33.34500 30.61900
C  46.85300 32.63700 31.92300
O  47.83700 31.93800 32.05100
O  45.85000 32.89200 32.81500
C  45.91600 31.98400 34.00800
H  50.18800 39.30500 30.80800
H  51.62000 38.16300 24.46200
H  47.81400 33.10800 24.56200
H  47.12500 35.77800 32.59300
H  49.49700 37.55900 32.42100
H  46.42600 37.88400 32.48400
H  47.30300 39.27400 31.78100
H  47.69200 38.70700 33.41700
H  50.22600 35.15700 32.57700
H  49.20400 33.95500 32.43500
H  50.10100 34.65100 34.76900
H  48.83300 33.68500 34.60100
H  52.19500 41.76300 29.04100
H  52.08600 40.63500 30.27200
H  50.62300 41.49200 29.54900
H  53.85900 41.44300 27.55100
H  52.59100 42.53200 26.92300
H  53.89000 42.07800 25.84400
H  51.36600 36.00200 23.05000
H  48.45600 35.20100 22.78700
H  49.10800 37.96000 23.07500
H  49.34700 37.06800 21.60200
H  50.71900 38.06900 22.22200
H  49.82800 32.90400 23.18700
H  51.13800 33.93200 22.58700
H  48.78800 34.13900 20.81100
H  49.06500 32.42800 21.24700
H  50.30100 33.51500 20.44300
H  45.25800 32.02300 25.76000
H  45.86600 30.76200 26.81700
H  46.82000 31.26400 25.33700
H  45.58000 33.92900 30.78000
H  45.32200 32.49300 34.76700
H  46.89200 31.72300 34.41700
H  45.36700 31.07800 33.75000
Mg 6.75300 54.55000 41.75100
C  4.60700 51.72200 41.68000
C  9.25300 52.47400 40.50000
C  8.73700 57.23900 41.54100
C  4.11500 56.42900 42.99900
N  6.78700 52.40800 40.99200
C  5.83700 51.48100 41.08700
C  6.41500 50.06700 40.53000
C  8.00900 50.38300 40.49600
C  8.02700 51.83900 40.81800
C  8.81300 49.60600 41.45900
C  5.85600 49.73400 39.08300
C  5.25100 48.27500 38.87700
H  5.44300 47.64400 37.52100
N  8.67100 54.91500 40.91400
C  9.53800 53.91600 40.49500
C  10.83500 54.51300 40.03300
C  10.70500 55.87900 40.32400
C  9.36100 56.06900 40.95700
C  11.97700 53.72100 39.52300
C  11.72000 56.92000 40.10500
O  12.82500 56.62600 39.63100
C  11.43600 58.31600 40.32300
N  6.37900 56.66700 42.02000
C  7.44300 57.47400 42.02400
C  6.98700 58.88300 42.40400
C  5.53000 58.64600 43.04400
C  5.25800 57.23300 42.60300
C  7.95200 59.82100 43.28300
C  4.46300 59.74400 42.71000
C  3.84100 60.41500 43.97800
N  4.76600 54.26400 42.18400
C  3.76400 55.11300 42.70400
C  2.54300 54.39600 42.92100
C  2.88200 53.08100 42.61400
C  4.13900 53.04800 42.09600
C  1.21000 54.97200 43.30400
C  2.37900 51.67300 42.66200
O  1.35400 51.16200 43.17900
C  3.50100 50.84800 42.01800
C  3.01700 50.13000 40.85200
O  2.64200 50.64700 39.83800
O  2.76700 48.80500 41.11000
C  1.63800 48.22300 40.41700
H  10.08900 51.79600 40.31800
H  9.42300 58.08900 41.57200
H  3.31000 57.02200 43.43800
H  6.16300 49.39200 41.34800
H  8.35000 50.29600 39.46400
H  9.47600 48.90300 40.95500
H  8.21100 49.03000 42.16200
H  9.47100 50.29700 41.98600
H  6.62600 49.82500 38.31700
H  4.98200 50.36900 38.94000
H  4.20900 48.21400 39.19000
H  5.85600 47.68600 39.56600
H  12.61800 54.37800 38.93500
H  11.71400 52.81500 38.97600
H  12.54200 53.46200 40.41800
H  12.30400 58.89000 39.99800
H  11.54400 58.35000 41.40700
H  10.61200 58.92100 39.94400
H  6.80600 59.37600 41.44900
H  5.59500 58.60700 44.13100
H  8.83200 59.19700 43.43800
H  7.63000 60.06000 44.29600
H  8.27400 60.74200 42.79800
H  3.66700 59.37200 42.06600
H  4.89300 60.54200 42.10400
H  4.04000 61.48600 44.00600
H  4.37600 60.03500 44.84900
H  2.75500 60.33900 44.03300
H  0.57200 54.38800 43.96600
H  0.58300 55.20400 42.44300
H  1.33800 55.90300 43.85500
H  3.94300 50.11100 42.68900
H  1.85100 47.97500 39.37700
H  0.71800 48.80400 40.35000
H  1.35300 47.26300 40.84700

