158

Mg 53.12600 23.46900 44.85200
C  50.82800 25.96400 43.84200
C  51.08100 21.05600 43.46600
C  55.64700 21.25700 45.17000
C  55.26300 26.05700 45.95800
N  51.22600 23.56100 43.79800
C  50.37600 24.69700 43.47500
C  49.07800 24.24200 42.80700
C  49.02000 22.70900 43.35500
C  50.55000 22.40400 43.51900
C  48.20200 22.54200 44.59200
C  49.02100 24.49000 41.27700
C  47.59900 24.87900 40.69400
H  47.28500 24.47700 39.26600
N  53.34000 21.44200 44.38000
C  52.38700 20.62200 43.82200
C  52.93900 19.29000 43.71400
C  54.29100 19.34000 44.16400
C  54.45800 20.68900 44.66500
C  52.20600 18.18000 42.98300
C  55.19100 18.11600 44.22800
O  54.77000 16.96700 43.92800
C  56.69100 18.35700 44.35000
N  55.31700 23.68700 45.07500
C  56.05800 22.57800 45.42400
C  57.41500 22.86500 46.06900
C  57.21000 24.41200 46.39800
C  55.83400 24.79700 45.74900
C  57.73200 21.91200 47.25300
C  58.48900 25.32500 45.97000
C  59.92100 24.75900 46.00400
N  53.10100 25.56100 44.97600
C  54.02400 26.45400 45.48200
C  53.42300 27.74700 45.59400
C  52.22900 27.62600 44.90800
C  52.06700 26.26800 44.55500
C  54.02800 29.03000 46.24000
C  51.10100 28.33900 44.38700
O  50.88000 29.54000 44.46900
C  50.17200 27.31100 43.63400
C  50.16900 27.81600 42.24500
O  51.19800 28.09800 41.64900
O  48.93900 27.91400 41.81200
C  48.74400 28.57100 40.48600
H  50.40000 20.24100 43.21300
H  56.36500 20.48200 45.44600
H  55.89800 26.79000 46.45900
H  48.21600 24.74600 43.24500
H  48.62900 22.08600 42.55000
H  47.71100 23.47900 44.85200
H  48.85400 22.35000 45.44500
H  47.46400 21.74100 44.56800
H  49.30100 23.59300 40.72400
H  49.57000 25.37100 40.94600
H  47.48100 25.96100 40.74600
H  46.86600 24.34500 41.29900
H  52.93400 17.86700 42.23400
H  51.38300 18.51000 42.35000
H  51.89300 17.32400 43.58000
H  56.88300 19.33800 43.91700
H  57.36800 17.62800 43.90500
H  56.98900 18.33700 45.39800
H  58.16200 22.61400 45.31700
H  57.21800 24.61600 47.46800
H  58.32700 21.08400 46.87000
H  56.76700 21.48700 47.53000
H  58.16000 22.34100 48.16000
H  58.49500 26.15800 46.67300
H  58.32200 25.69300 44.95800
H  60.37400 24.99500 45.04100
H  60.02700 23.67500 45.95900
H  60.61800 25.24000 46.69000
H  53.29800 29.78600 45.94800
H  54.98000 29.38900 45.85100
H  54.00200 28.83600 47.31200
H  49.15600 27.25100 44.02500
H  47.99300 28.07800 39.87000
H  49.66700 28.76200 39.93800
H  48.42200 29.59000 40.70300
Mg 46.28800 25.56100 28.08000
C  47.64800 27.39600 30.72600
C  45.48300 23.20900 30.55700
C  45.60600 23.35100 25.72600
C  48.00400 27.52200 25.85300
N  46.37300 25.43700 30.35400
C  46.83800 26.39300 31.21200
C  46.43800 26.18100 32.65200
C  45.90000 24.71200 32.68300
C  45.91000 24.38700 31.10900
C  46.48400 23.61600 33.53400
C  45.35500 27.19100 33.10800
C  44.62500 26.94000 34.45600
H  45.00200 27.83500 35.66900
N  45.57400 23.59100 28.12600
C  45.33200 22.76000 29.20300
C  44.78400 21.48800 28.79400
C  44.71000 21.55100 27.41000
C  45.29700 22.86900 27.03100
C  44.45500 20.27200 29.72800
C  44.29300 20.44900 26.47600
O  44.32600 20.48300 25.26500
C  43.75000 19.15600 27.06200
N  46.73500 25.47800 26.00800
C  46.15900 24.50100 25.23200
C  46.30400 24.97000 23.73800
C  47.00200 26.37200 23.79000
C  47.21100 26.51600 25.30300
C  46.83800 23.88700 22.73000
C  46.40400 27.62900 23.06800
C  46.13700 27.62500 21.61900
N  47.63400 27.11500 28.13500
C  48.30500 27.85800 27.17900
C  49.17500 28.83600 27.83100
C  48.85100 28.72900 29.19700
C  47.96400 27.62300 29.39100
C  49.98700 29.83900 27.16300
C  49.09100 29.30700 30.47400
O  49.80000 30.21100 30.84200
C  48.24200 28.57100 31.50900
C  49.08700 28.08700 32.63600
O  50.02700 27.30200 32.51100
O  48.71900 28.67300 33.79600
C  49.34100 28.17400 35.01100
H  45.10100 22.58400 31.36600
H  45.17400 22.63800 25.02000
H  48.53200 28.11400 25.10200
H  47.31400 26.19700 33.30000
H  44.83600 24.80100 32.90300
H  45.73700 23.25200 34.24000
H  47.19900 24.17900 34.13500
H  46.89300 22.74500 33.02100
H  44.60200 27.34800 32.33600
H  45.92600 28.11900 33.13200
H  44.95000 25.94400 34.75500
H  43.55300 26.87900 34.27000
H  43.49100 19.76400 29.75900
H  44.53900 20.62700 30.75500
H  45.19000 19.49900 29.50300
H  42.85300 19.47100 27.59500
H  44.49100 18.68900 27.71100
H  43.44200 18.39700 26.34300
H  45.30800 25.28800 23.42800
H  48.01600 26.21900 23.41800
H  46.73200 22.90900 23.20000
H  47.90100 24.07400 22.57900
H  46.31300 23.83900 21.77500
H  47.09100 28.45100 23.27100
H  45.43800 27.87000 23.51000
H  46.64100 26.67900 21.42300
H  46.65100 28.43000 21.09300
H  45.08300 27.56100 21.34900
H  50.11000 29.68200 26.09100
H  51.00900 29.81800 27.53900
H  49.56900 30.83900 27.28200
H  47.45900 29.24300 31.86000
H  49.65000 29.09600 35.50500
H  50.24500 27.58200 34.87300
H  48.58400 27.72400 35.65300

