158

Mg 30.25200 58.27000 41.13000
C  27.50000 56.29800 40.05700
C  32.34800 55.53700 40.19400
C  32.80900 60.29200 41.10100
C  28.03000 60.87300 41.43100
N  30.01800 56.20100 40.12000
C  28.74500 55.63900 39.88000
C  28.95400 54.27100 39.21700
C  30.40900 53.89500 39.77200
C  30.98400 55.30300 40.00500
C  30.51800 53.02000 41.07100
C  28.94100 54.45700 37.61600
C  27.94600 53.56900 36.88800
H  26.95100 54.26600 35.96400
N  32.33600 57.97800 40.83600
C  32.95000 56.84100 40.38800
C  34.42900 57.02600 40.36200
C  34.63300 58.39600 40.60700
C  33.23200 58.98200 40.82300
C  35.42500 55.83300 40.09500
C  35.93000 59.13500 40.65600
O  36.97700 58.39300 40.61700
C  36.12100 60.60300 40.73500
N  30.37900 60.28500 41.12300
C  31.57300 60.88300 41.35600
C  31.39600 62.38100 41.59100
C  29.94200 62.50500 41.87900
C  29.40100 61.14800 41.37900
C  32.35300 63.10500 42.61300
C  29.22400 63.77600 41.29300
C  28.18200 64.39600 42.19400
N  28.14300 58.55400 40.92300
C  27.40200 59.67300 41.14000
C  25.99400 59.41300 40.88700
C  25.97500 58.04600 40.65500
C  27.31800 57.62900 40.48700
C  24.85900 60.35800 40.90500
C  25.13700 56.89800 40.36200
O  23.88000 56.85100 40.40300
C  26.06800 55.70500 39.83100
C  25.87400 54.54300 40.71200
O  26.49300 54.26800 41.77400
O  24.89200 53.76500 40.14900
C  24.63600 52.49100 40.85800
H  32.88900 54.60100 40.03800
H  33.62000 60.97800 41.35300
H  27.42300 61.77900 41.49000
H  28.17300 53.59700 39.57000
H  30.98700 53.36800 39.01300
H  30.86400 53.57600 41.94200
H  31.25500 52.24500 40.86000
H  29.54400 52.60600 41.33300
H  29.90500 54.11600 37.23900
H  28.72500 55.47300 37.28400
H  27.36100 53.03400 37.63600
H  28.48600 52.79100 36.34900
H  35.84100 55.97300 39.09700
H  35.08500 54.81500 39.90500
H  36.16800 55.66000 40.87400
H  35.74900 60.84100 41.73200
H  35.58300 60.92600 39.84400
H  37.15800 60.92100 40.63100
H  31.60200 62.83300 40.62100
H  29.72900 62.41500 42.94400
H  33.19100 63.70600 42.25700
H  32.79100 62.31100 43.21700
H  31.70600 63.63400 43.31300
H  28.85900 63.54000 40.29300
H  30.02500 64.49900 41.13900
H  28.68800 65.20300 42.72500
H  27.95900 63.75400 43.04600
H  27.20900 64.68600 41.79900
H  25.31800 61.30300 40.61300
H  24.43200 60.46200 41.90300
H  24.15400 60.01200 40.15000
H  25.74200 55.44200 38.82500
H  24.33200 52.74200 41.87400
H  25.55400 51.91800 40.98000
H  23.85500 52.07500 40.22200
Mg -9.75100 40.12900 41.50900
C  -8.57800 36.85100 40.61800
C  -6.82600 41.38900 40.33700
C  -11.19600 43.09800 41.67400
C  -12.85500 38.69200 42.25700
N  -7.95300 39.20500 40.49400
C  -7.64800 37.85300 40.38400
C  -6.28400 37.71200 39.74100
C  -5.60100 39.07700 40.08000
C  -6.88000 39.96400 40.40100
C  -4.64100 39.08800 41.28700
C  -6.41600 37.41400 38.16800
C  -5.59900 36.32000 37.51300
H  -4.40700 36.81500 36.60700
N  -9.01100 41.97100 41.29300
C  -7.85200 42.30700 40.67700
C  -7.84700 43.75000 40.61800
C  -9.00000 44.27500 41.18600
C  -9.82800 43.10900 41.40900
C  -6.64500 44.43600 40.12000
C  -9.30100 45.74600 41.32400
O  -8.39300 46.55300 41.05200
C  -10.61600 46.24400 41.89000
N  -11.81900 40.80400 42.08800
C  -12.10800 42.12600 42.02900
C  -13.64300 42.31400 42.12000
C  -14.11100 40.92000 42.60500
C  -12.89300 40.06300 42.30700
C  -14.20000 43.46500 43.08100
C  -15.29800 40.41900 41.81500
C  -16.22800 39.42500 42.53200
N  -10.51000 38.17400 41.57200
C  -11.80900 37.77900 41.90300
C  -11.90100 36.34100 41.87900
C  -10.66200 35.95400 41.34300
C  -9.84200 37.12300 41.12100
C  -13.23900 35.59100 42.23900
C  -9.83700 34.80200 40.91600
O  -10.09600 33.58900 40.97500
C  -8.52100 35.35900 40.46400
C  -7.42300 34.75600 41.20100
O  -7.28600 34.87500 42.39600
O  -6.47800 34.14700 40.35500
C  -5.36700 33.70800 41.11800
H  -5.92700 41.84800 39.91900
H  -11.66200 44.08500 41.70500
H  -13.83900 38.31200 42.54000
H  -5.81700 36.92600 40.33300
H  -5.07200 39.44700 39.20300
H  -4.64400 38.10400 41.75500
H  -4.88300 39.77900 42.09400
H  -3.63000 39.26900 40.92000
H  -6.06000 38.34000 37.71500
H  -7.43700 37.23500 37.83100
H  -6.33600 35.71900 36.98000
H  -5.20100 35.74400 38.34800
H  -6.81500 44.62800 39.06100
H  -5.73500 43.85000 40.25100
H  -6.41600 45.38000 40.61600
H  -10.67100 45.94600 42.93700
H  -11.51100 46.00700 41.31400
H  -10.52000 47.32600 41.97400
H  -13.90500 42.57100 41.09400
H  -14.19400 40.89600 43.69200
H  -13.40000 43.82100 43.73100
H  -14.89800 43.02000 43.78900
H  -14.61600 44.31600 42.54100
H  -14.93300 39.90800 40.92400
H  -15.87200 41.25200 41.40900
H  -17.30200 39.58100 42.43200
H  -15.92100 39.38200 43.57700
H  -15.95100 38.50900 42.00900
H  -13.82600 35.31600 41.36300
H  -13.87800 36.20400 42.87400
H  -12.97900 34.63200 42.68600
H  -8.41900 35.10900 39.40800
H  -4.80900 34.50400 41.61200
H  -4.75700 33.07700 40.47200
H  -5.70700 32.97700 41.85100

