158

Mg 45.10500 4.11000 48.78700
C  43.54700 7.05200 47.89900
C  42.32000 2.36500 48.13500
C  46.97500 1.40900 48.65500
C  48.25400 6.10400 48.97400
N  43.11900 4.71400 48.26800
C  42.68600 5.96200 47.88000
C  41.18300 5.96200 47.69600
C  40.78400 4.48300 47.71800
C  42.13100 3.79600 48.07200
C  39.56700 4.07800 48.59500
C  40.61000 6.84000 46.59300
C  39.23700 6.59500 46.01400
H  38.97200 6.49900 44.45300
N  44.71200 2.10100 48.62400
C  43.44500 1.57100 48.29400
C  43.56800 0.15700 48.02300
C  44.94700 -0.19300 48.07300
C  45.59600 1.15300 48.44300
C  42.32700 -0.65300 47.69300
C  45.52200 -1.51800 47.84300
O  44.82300 -2.45900 47.53500
C  46.93800 -1.84000 48.05300
N  47.28300 3.87000 48.94500
C  47.76200 2.53400 48.89800
C  49.28200 2.48300 49.10900
C  49.68300 4.02200 49.26300
C  48.33300 4.73000 49.02700
C  49.75400 1.45400 50.21100
C  50.99700 4.52100 48.54900
C  51.93400 5.39200 49.45800
N  45.77400 6.18400 48.59000
C  47.06500 6.82200 48.69300
C  46.88100 8.22400 48.46200
C  45.53800 8.36500 48.19400
C  44.90300 7.04300 48.22900
C  48.00200 9.25700 48.50900
C  44.54200 9.25800 47.85500
O  44.53800 10.47700 47.72400
C  43.25000 8.46300 47.71000
C  42.17900 8.96100 48.71400
O  41.76100 8.34600 49.70100
O  41.59800 10.04400 48.12500
C  40.30600 10.40100 48.74300
H  41.39000 1.87400 47.84300
H  47.58600 0.50400 48.67500
H  49.17900 6.67400 48.86200
H  40.73800 6.31600 48.62500
H  40.53000 4.09700 46.73100
H  38.79000 3.58800 48.00900
H  38.95800 4.93500 48.88100
H  39.92300 3.59600 49.50600
H  41.33900 6.65700 45.80400
H  40.61300 7.91600 46.76400
H  38.70800 7.50400 46.29900
H  38.82700 5.75000 46.56900
H  42.54200 -1.23800 46.79800
H  41.38200 -0.13200 47.54000
H  42.14200 -1.40000 48.46500
H  47.22000 -1.65200 49.08900
H  47.51100 -1.45500 47.20900
H  46.99800 -2.91900 47.91300
H  49.77300 2.14000 48.19800
H  49.77800 4.24200 50.32600
H  50.17500 2.02200 51.04100
H  50.66800 0.92500 49.94300
H  48.89900 0.92400 50.63100
H  50.68000 5.21800 47.77300
H  51.55400 3.68700 48.12200
H  51.98400 6.36000 48.95700
H  52.89800 4.88900 49.53400
H  51.56300 5.58400 50.46500
H  48.38400 9.51100 47.52100
H  48.73900 8.82200 49.18400
H  47.55700 10.08800 49.05700
H  42.91500 8.72600 46.70700
H  39.79700 10.96300 47.96000
H  40.36000 10.94400 49.68700
H  39.68500 9.52400 48.92300
Mg 48.47200 15.69900 29.35400
C  46.21900 15.40800 31.82200
C  50.47400 17.48200 31.37200
C  50.48600 16.35100 26.73900
C  46.03300 14.49400 27.08600
N  48.22400 16.55200 31.29400
C  47.34400 16.13500 32.19700
C  47.77600 16.39100 33.64400
C  48.96400 17.38300 33.41900
C  49.26200 17.13600 31.93500
C  48.68000 18.87000 33.64600
C  48.15500 15.07300 34.34700
C  47.86800 15.14100 35.89200
H  47.70500 16.54200 36.57800
N  50.26100 16.74900 29.09300
C  50.93200 17.34100 30.08500
C  52.27100 17.56900 29.62800
C  52.29300 17.42900 28.23500
C  50.95500 16.85600 27.96200
C  53.33900 18.21800 30.53000
C  53.33900 17.62500 27.22700
O  53.12300 17.43800 26.04000
C  54.78200 18.03600 27.65800
N  48.19300 15.69600 27.22100
C  49.26800 15.86900 26.36000
C  48.96800 15.50700 24.87800
C  47.63200 14.70700 25.09300
C  47.21900 14.97700 26.56300
C  48.81200 16.76500 24.08100
C  47.78800 13.25100 24.74500
C  48.46700 12.26800 25.73700
N  46.52200 15.00800 29.46400
C  45.64600 14.51700 28.55000
C  44.42300 14.09200 29.22000
C  44.62400 14.40100 30.52500
C  45.91600 14.96400 30.57200
C  43.25600 13.43000 28.65000
C  44.08400 14.32900 31.85000
O  42.98800 13.82400 32.10400
C  45.14600 14.93500 32.79400
C  44.47600 16.04100 33.55300
O  43.85900 16.92500 32.98900
O  44.49100 15.75200 34.91100
C  43.76600 16.79100 35.64700
H  51.15900 18.11700 31.93900
H  51.13500 16.46300 25.86700
H  45.33800 14.08300 26.35100
H  46.99800 16.90000 34.21400
H  49.88400 17.07800 33.91800
H  47.65700 19.13400 33.91500
H  48.85800 19.34400 32.68100
H  49.44000 19.30700 34.29400
H  49.23300 14.91500 34.32300
H  47.57800 14.24400 33.93800
H  48.62300 14.70600 36.54700
H  46.99000 14.49800 35.95600
H  53.53700 19.22900 30.17500
H  54.24700 17.65400 30.31400
H  53.10000 18.21500 31.59400
H  54.74900 19.07700 27.97700
H  55.51000 17.99500 26.84800
H  55.26400 17.41600 28.41400
H  49.80100 14.88200 24.55700
H  46.82100 15.08200 24.46900
H  49.66500 16.70800 23.40500
H  48.70600 17.71600 24.60300
H  47.93500 16.78600 23.43400
H  48.41700 13.20800 23.85600
H  46.80900 12.88400 24.44000
H  49.29200 11.84500 25.16200
H  47.81500 11.47100 26.09300
H  48.87700 12.80300 26.59400
H  42.43200 13.94300 29.14600
H  43.27900 12.38300 28.95200
H  43.17300 13.45000 27.56300
H  45.39500 14.19800 33.55700
H  42.70000 16.58300 35.55200
H  44.03900 17.81900 35.41300
H  43.89600 16.63300 36.71800

