158

Mg 35.74800 49.59500 25.33900
C  35.39700 47.64300 28.30700
C  34.45600 52.24700 27.07500
C  35.29300 51.03900 22.44800
C  36.79100 46.59000 23.75800
N  35.04500 49.88900 27.40800
C  35.09000 49.00000 28.46500
C  34.67900 49.66500 29.78500
C  34.45800 51.20000 29.40600
C  34.64000 51.13200 27.87700
C  33.19100 51.82900 29.90900
C  35.72400 49.53000 30.91300
C  35.24200 49.10800 32.26800
H  33.78500 49.49100 32.64100
N  35.04600 51.37600 24.80800
C  34.59000 52.44600 25.69400
C  34.23400 53.63500 24.88900
C  34.47500 53.27300 23.50500
C  34.88900 51.80500 23.50900
C  33.73900 54.91500 25.44900
C  34.32800 54.07000 22.19800
O  34.71700 53.67800 21.12000
C  33.48300 55.35000 22.18300
N  36.10700 48.89700 23.41300
C  35.81200 49.70600 22.32600
C  36.39800 49.14000 20.99400
C  36.88900 47.75300 21.52100
C  36.59500 47.72600 22.97500
C  35.58300 49.21900 19.70800
C  38.32000 47.36100 21.13000
C  39.44200 47.93400 21.98200
N  35.97000 47.51000 25.85000
C  36.43700 46.43700 25.12000
C  36.33800 45.15900 25.87900
C  36.01400 45.61900 27.18300
C  35.83400 47.04300 27.09400
C  36.59900 43.71200 25.32500
C  35.80800 45.28600 28.55600
O  35.94500 44.18500 29.07700
C  35.40600 46.56500 29.35000
C  34.08200 46.26800 30.03400
O  32.97000 46.15900 29.58200
O  34.32500 45.97100 31.36300
C  33.36700 45.48600 32.33500
H  34.20900 53.13700 27.65800
H  35.13700 51.38200 21.42300
H  37.01300 45.68400 23.19000
H  33.71800 49.22300 30.04900
H  35.29800 51.78100 29.78800
H  33.49500 52.39500 30.79000
H  32.37900 51.14400 30.15200
H  32.78700 52.46400 29.12000
H  36.22100 50.45700 31.19800
H  36.56300 48.92500 30.56900
H  35.97500 49.47200 32.98800
H  35.33600 48.02200 32.30300
H  32.66700 54.79600 25.60600
H  34.14300 55.72500 24.84100
H  34.09300 55.09300 26.46400
H  34.01800 56.24500 22.49900
H  32.67400 55.17000 22.89200
H  33.04100 55.40100 21.18700
H  37.30900 49.67400 20.72400
H  36.34500 46.94200 21.03500
H  36.12600 49.64400 18.86300
H  34.63000 49.74300 19.78300
H  35.35000 48.21100 19.36500
H  38.47700 47.77800 20.13500
H  38.49100 46.30800 20.90400
H  39.84600 47.11400 22.57500
H  39.20700 48.60400 22.80900
H  40.27700 48.37400 21.43800
H  37.59700 43.64800 24.89000
H  35.84200 43.20300 24.72800
H  36.70700 43.18200 26.27100
H  36.15000 46.83900 30.09800
H  33.67800 44.49300 32.65800
H  32.40700 45.52300 31.82100
H  33.28700 46.07900 33.24600
Mg -2.15700 34.57200 26.15000
C  -3.32300 32.93200 29.00700
C  -0.75000 36.99400 28.17200
C  -1.46600 36.40400 23.36400
C  -3.95900 32.26200 24.20400
N  -1.96700 34.88900 28.38500
C  -2.48900 34.02700 29.33600
C  -2.14200 34.50900 30.75300
C  -1.43000 35.91800 30.48700
C  -1.43100 35.99400 28.90400
C  -2.15400 37.07300 31.16700
C  -1.30200 33.38900 31.64200
C  -1.83100 33.06000 33.03600
H  -0.84100 33.00200 34.24700
N  -1.19600 36.40700 25.79600
C  -0.63300 37.20200 26.75500
C  0.05000 38.33800 26.06600
C  -0.27200 38.26400 24.69300
C  -1.02100 36.99300 24.55300
C  0.79200 39.53700 26.83000
C  -0.00100 39.26300 23.57700
O  -0.25100 39.13400 22.39300
C  0.70500 40.54900 23.79200
N  -2.67000 34.33600 24.08900
C  -2.17900 35.22000 23.20400
C  -2.50400 34.68400 21.74500
C  -3.32500 33.39300 21.96900
C  -3.27300 33.28500 23.50200
C  -3.37600 35.66200 20.91000
C  -2.76100 32.13100 21.21900
C  -1.34900 31.67800 21.60100
N  -3.32700 32.97800 26.48600
C  -4.03900 32.18700 25.62500
C  -4.78800 31.18800 26.33700
C  -4.55000 31.47200 27.71200
C  -3.67300 32.55600 27.74900
C  -5.79700 30.28400 25.78800
C  -4.82700 31.05800 29.09000
O  -5.60400 30.20400 29.51100
C  -4.01700 31.91200 29.99400
C  -4.94300 32.54600 31.04300
O  -5.53600 33.60400 30.93700
O  -4.91400 31.76500 32.21700
C  -5.81500 32.35500 33.24300
H  -0.15500 37.65800 28.80300
H  -1.23400 36.88900 22.41400
H  -4.36400 31.54700 23.48500
H  -3.14700 34.58300 31.17000
H  -0.38300 35.86600 30.78400
H  -1.47400 37.85500 31.50600
H  -2.71200 36.69700 32.02500
H  -2.85000 37.46200 30.42400
H  -0.27200 33.72800 31.75800
H  -1.09100 32.43400 31.16000
H  -2.33700 32.09600 32.98500
H  -2.58500 33.83100 33.19000
H  0.80500 39.37000 27.90700
H  0.34300 40.52800 26.76900
H  1.80800 39.40200 26.45800
H  0.09600 41.16100 24.45700
H  0.74200 41.20100 22.91900
H  1.72900 40.43100 24.14800
H  -1.57800 34.29800 21.31900
H  -4.34500 33.54400 21.61700
H  -3.25400 36.68700 21.25800
H  -4.45500 35.51400 20.96900
H  -3.18000 35.56000 19.84300
H  -2.71900 32.60900 20.24000
H  -3.47700 31.30900 21.23000
H  -1.31200 30.59000 21.65900
H  -0.95200 32.05800 22.54200
H  -0.66300 31.88700 20.77900
H  -6.46800 30.01500 26.60400
H  -5.33100 29.39400 25.36700
H  -6.36000 30.84400 25.04100
H  -3.29500 31.22600 30.43700
H  -6.83400 32.51900 32.89100
H  -5.42900 33.27800 33.67700
H  -5.92100 31.63200 34.05200

