158

Mg 48.19600 15.25500 27.97300
C  46.40300 15.09200 30.93300
C  50.55200 17.29800 29.56300
C  49.82000 15.64200 25.03300
C  45.53700 13.74100 26.27400
N  48.37100 16.05300 30.00300
C  47.55100 15.92200 31.08900
C  47.96000 16.65200 32.29900
C  49.07100 17.58300 31.65900
C  49.40100 16.91200 30.28200
C  48.76000 19.12000 31.60100
C  48.48500 15.77100 33.49400
C  47.95400 16.16500 34.88100
H  49.05800 16.25500 35.93800
N  50.07100 16.21200 27.40700
C  50.87800 16.90800 28.24000
C  52.04600 17.26100 27.51600
C  51.81000 16.99200 26.15500
C  50.53100 16.21600 26.14400
C  53.20700 17.84600 28.27000
C  52.62300 17.30900 24.99500
O  52.46700 16.73500 23.87900
C  53.93900 18.12600 25.20200
N  47.71300 14.71500 25.86300
C  48.61300 14.92800 24.83900
C  48.20500 14.25700 23.56300
C  46.84100 13.59300 24.01900
C  46.66000 13.96700 25.48500
C  48.09400 15.26700 22.28800
C  46.62700 12.11400 23.77800
C  47.25400 11.03400 24.72300
N  46.31300 14.57100 28.42200
C  45.37200 13.95600 27.64400
C  44.34400 13.44600 28.50800
C  44.70200 13.85100 29.80200
C  45.91200 14.52600 29.68600
C  43.17200 12.54100 27.98400
C  44.36300 13.72500 31.19000
O  43.45800 13.16600 31.80700
C  45.37800 14.66700 31.95800
C  44.41200 15.72700 32.50600
O  44.02200 16.66600 31.83900
O  44.06900 15.42600 33.80400
C  43.05300 16.19400 34.44300
H  51.27800 17.97300 30.02000
H  50.37400 15.72400 24.09500
H  44.70000 13.22400 25.80000
H  47.07700 17.25600 32.50800
H  49.94100 17.53900 32.31400
H  47.80500 19.35200 32.07200
H  48.75800 19.46900 30.56800
H  49.56700 19.72200 32.01900
H  49.57300 15.79300 33.43700
H  48.23300 14.73400 33.26800
H  47.18600 15.40500 35.02600
H  47.49400 17.15100 34.92800
H  53.24700 17.25600 29.18600
H  53.10500 18.87700 28.60700
H  54.16800 17.76700 27.76200
H  54.67800 17.39300 25.52600
H  53.67800 18.87700 25.94800
H  54.31000 18.63200 24.31100
H  48.88500 13.42400 23.38200
H  46.09300 14.11900 23.42600
H  48.86500 15.06900 21.54300
H  48.22200 16.32500 22.51500
H  47.14100 15.04400 21.80800
H  46.95800 11.99500 22.74700
H  45.55100 12.14100 23.94800
H  47.82100 11.60500 25.45700
H  47.91800 10.38900 24.14700
H  46.42500 10.50200 25.19000
H  43.53000 11.86800 27.20500
H  42.35400 13.18000 27.65000
H  42.80300 11.88200 28.76900
H  45.73600 14.09500 32.81300
H  42.22300 16.52800 33.82000
H  43.45700 17.11600 34.86100
H  42.74300 15.64900 35.33500
Mg 30.69800 59.41800 39.11500
C  27.75100 57.78300 37.63400
C  32.45500 56.70500 37.85900
C  33.49400 61.29600 39.34400
C  28.71500 62.38300 39.25500
N  30.16900 57.51000 37.74800
C  28.89300 57.02600 37.43400
C  28.97400 55.61300 36.81700
C  30.46200 55.21900 37.10000
C  31.09600 56.56700 37.53500
C  30.67500 54.00100 38.09900
C  28.65500 55.61400 35.29500
C  27.66200 54.67300 34.75300
H  26.72200 55.26900 33.68100
N  32.74400 58.98400 38.80100
C  33.25600 57.76900 38.39600
C  34.71000 57.84800 38.53000
C  35.02500 59.16900 38.95300
C  33.72800 59.89600 39.08600
C  35.62500 56.72500 38.18000
C  36.44800 59.64500 39.15000
O  37.39800 58.92900 38.95300
C  36.71200 61.00500 39.69700
N  31.03500 61.52600 39.36000
C  32.33400 62.07000 39.53100
C  32.22900 63.61700 39.57200
C  30.66500 63.91700 39.65900
C  30.06600 62.54100 39.36600
C  33.07700 64.21600 40.73100
C  30.04200 65.01900 38.69300
C  29.12700 65.98200 39.38700
N  28.64100 59.99000 38.79500
C  28.00100 61.21100 38.97200
C  26.59400 61.05600 38.65800
C  26.48400 59.73400 38.13900
C  27.71700 59.09400 38.22600
C  25.53600 62.17800 38.61700
C  25.55900 58.80300 37.54700
O  24.34000 58.93200 37.28600
C  26.30200 57.51100 37.25600
C  25.71600 56.43900 38.12300
O  25.73200 56.33900 39.36600
O  25.16100 55.54100 37.29200
C  24.57500 54.41600 37.99700
H  32.91900 55.72200 37.75800
H  34.32100 62.00500 39.41100
H  28.17900 63.32700 39.37400
H  28.28100 55.00500 37.39800
H  31.01000 54.96300 36.19300
H  31.08200 54.32900 39.05500
H  31.35700 53.31800 37.59300
H  29.74900 53.44100 38.22800
H  29.58700 55.43100 34.76000
H  28.37200 56.63800 35.05500
H  27.03700 54.27900 35.55400
H  28.23200 53.86900 34.28800
H  36.40700 56.57000 38.92300
H  36.09600 57.10100 37.27200
H  35.11700 55.76600 38.08800
H  37.77000 61.12600 39.92600
H  36.07000 61.19700 40.55600
H  36.53100 61.75800 38.93000
H  32.64100 63.87000 38.59500
H  30.33300 64.04300 40.68900
H  32.65300 64.91200 41.45500
H  33.84000 64.81600 40.23700
H  33.58600 63.47200 41.34400
H  29.44500 64.45400 37.97700
H  30.80200 65.55300 38.12300
H  29.53200 66.99400 39.36800
H  28.96100 65.72600 40.43400
H  28.10600 65.95200 39.00900
H  24.95700 62.18600 37.69400
H  25.91600 63.16700 38.87300
H  24.87000 62.03600 39.46800
H  26.22400 57.31200 36.18800
H  25.26700 53.57400 38.01300
H  23.63600 54.21500 37.48100
H  24.35000 54.53200 39.05700

