158

Mg 40.77800 9.26300 30.30300
C  42.63800 10.23100 33.10400
C  38.16600 8.54400 32.53300
C  39.03600 8.04000 27.64000
C  43.53200 9.79300 28.29500
N  40.53500 9.33900 32.59800
C  41.32700 9.93900 33.55800
C  40.63900 10.09600 34.89000
C  39.32000 9.35000 34.66300
C  39.35600 9.06700 33.17900
C  39.18400 7.94500 35.28800
C  40.42700 11.63200 35.18500
C  39.94400 11.94200 36.63200
H  40.93100 12.71500 37.55600
N  38.88400 8.46600 30.06700
C  38.01700 8.17300 31.11300
C  36.85100 7.52000 30.54500
C  37.06200 7.44400 29.13400
C  38.40900 7.98000 28.86800
C  35.56600 7.14400 31.39600
C  36.13100 6.91200 28.03400
O  36.42300 6.82300 26.86500
C  34.68700 6.44600 28.33800
N  41.28000 8.75900 28.28500
C  40.35100 8.48800 27.39400
C  40.86200 8.77000 25.94600
C  42.31800 9.23300 26.15300
C  42.33200 9.27900 27.69400
C  40.68000 7.62400 24.87800
C  42.78300 10.65900 25.52900
C  42.14200 11.16600 24.25600
N  42.73200 9.83000 30.56200
C  43.77100 10.08000 29.64700
C  44.99200 10.44700 30.34600
C  44.55700 10.58000 31.65900
C  43.17900 10.22600 31.78900
C  46.35600 10.56700 29.84800
C  44.99200 10.91300 33.01700
O  46.06300 11.33800 33.37000
C  43.81100 10.80500 33.95700
C  44.09500 9.93300 35.15400
O  44.80200 8.93200 35.19000
O  43.73600 10.60300 36.32700
C  44.07400 9.97200 37.60200
H  37.30900 8.57600 33.20900
H  38.41900 7.87900 26.75300
H  44.36300 9.91200 27.59600
H  41.33300 9.48200 35.46400
H  38.46400 9.97100 34.92800
H  39.89300 7.72100 36.08500
H  39.25600 7.13600 34.56100
H  38.21400 7.92400 35.78300
H  39.79300 12.07400 34.41600
H  41.39700 12.11100 35.04700
H  39.64100 11.03500 37.15600
H  39.01900 12.46200 36.38200
H  35.71000 7.26400 32.46900
H  35.31700 6.10000 31.20400
H  34.65500 7.65200 31.08200
H  34.17000 7.38900 28.51000
H  34.63000 5.96700 29.31500
H  34.24100 5.83500 27.55300
H  40.30600 9.66200 25.65900
H  42.94300 8.36600 25.94400
H  40.07500 8.13400 24.12900
H  40.13300 6.72700 25.16700
H  41.64500 7.28900 24.49900
H  43.86900 10.69000 25.45000
H  42.45700 11.45200 26.20300
H  41.50500 10.40000 23.81300
H  42.93400 11.48700 23.57900
H  41.52900 12.03800 24.48300
H  46.85300 9.59700 29.82100
H  46.91900 11.34500 30.36300
H  46.27200 10.94500 28.82900
H  43.62800 11.82700 34.28900
H  43.80100 10.51100 38.51000
H  45.13700 9.73400 37.62100
H  43.47900 9.06000 37.65000
Mg 47.88600 23.87600 28.71200
C  49.00900 26.04800 31.19800
C  47.36900 21.60300 31.15200
C  47.19800 21.79900 26.28800
C  49.06500 26.29900 26.29100
N  48.22000 23.84800 30.87600
C  48.50900 24.93000 31.69400
C  48.26300 24.52900 33.18700
C  48.07100 22.99000 33.10400
C  47.92900 22.78700 31.65900
C  49.11500 22.14800 33.79900
C  47.06700 25.30400 33.92200
C  47.51000 26.29800 35.02500
H  46.46300 26.57400 36.12100
N  47.24500 22.01100 28.72700
C  46.97600 21.24200 29.84800
C  46.40400 19.99500 29.40800
C  46.36800 20.00900 27.98400
C  46.97800 21.29800 27.58100
C  45.97300 18.96400 30.34400
C  45.88500 18.94400 26.99800
O  45.85800 19.15500 25.77800
C  45.51000 17.57300 27.48400
N  48.28800 23.96500 26.62600
C  47.72800 23.00900 25.83300
C  47.72900 23.39000 24.34500
C  48.04600 24.93000 24.42100
C  48.50000 25.10400 25.88600
C  48.82600 22.54900 23.57800
C  46.89200 25.85000 23.96900
C  45.58400 25.79000 24.73900
N  48.82400 25.88400 28.67400
C  49.28400 26.69600 27.64000
C  49.88000 27.88900 28.20500
C  49.73700 27.77100 29.60100
C  49.14200 26.46800 29.83800
C  50.54400 28.99200 27.45100
C  50.11900 28.32300 30.93900
O  50.68200 29.35000 31.29000
C  49.54400 27.29300 31.99100
C  50.60600 26.98900 32.95900
O  51.49700 26.18500 32.83800
O  50.36800 27.72200 34.09200
C  51.21500 27.43800 35.30300
H  46.97300 20.99500 31.96800
H  46.84000 21.21700 25.43700
H  49.40400 26.91000 25.45200
H  49.14700 24.74600 33.78600
H  47.14600 22.58200 33.51400
H  49.95300 22.68200 34.24700
H  49.44400 21.36700 33.11300
H  48.71000 21.64300 34.67600
H  46.30400 24.60400 34.26200
H  46.63700 25.93500 33.14500
H  47.74300 27.25200 34.55300
H  48.43400 25.92500 35.46700
H  46.79000 18.24200 30.33800
H  45.02800 18.64700 29.90400
H  45.82200 19.32300 31.36200
H  46.27100 17.21800 28.17900
H  45.34400 16.78000 26.75400
H  44.66400 17.66900 28.16400
H  46.74600 23.28800 23.88500
H  48.90600 25.09500 23.77200
H  49.81300 23.01100 23.55600
H  48.47700 22.45800 22.54900
H  48.69600 21.53700 23.96300
H  46.65600 25.60500 22.93300
H  47.30400 26.85800 23.91600
H  45.53900 26.79700 25.15500
H  45.67100 24.91100 25.37800
H  44.74100 25.64200 24.06500
H  49.95600 29.34800 26.60500
H  51.47300 28.62000 27.02000
H  50.74300 29.89100 28.03500
H  48.76100 27.79600 32.55900
H  52.19700 27.07600 34.99700
H  50.61700 26.82000 35.97200
H  51.35200 28.42300 35.75000

