158

Mg 48.13900 34.74200 27.26200
C  46.35900 33.19100 29.80200
C  48.40500 37.58100 29.21000
C  49.53700 36.40500 24.55600
C  47.52700 32.05900 25.08200
N  47.57800 35.23200 29.26400
C  46.92500 34.38400 30.16500
C  47.02500 34.95200 31.57100
C  47.24500 36.53100 31.33600
C  47.74100 36.48700 29.82100
C  45.98100 37.37800 31.50200
C  48.21400 34.24000 32.34200
C  48.07400 34.06800 33.91100
H  48.82000 35.09700 34.76300
N  48.75600 36.77500 26.87600
C  48.77400 37.76500 27.83200
C  49.39800 39.02700 27.24600
C  49.92600 38.57100 25.99300
C  49.41100 37.20000 25.73100
C  49.52000 40.26900 28.12000
C  50.81300 39.35700 25.01400
O  51.30500 38.91300 23.96700
C  51.06300 40.84300 25.30700
N  48.58800 34.19000 25.09900
C  49.11200 35.09400 24.23200
C  49.16900 34.51600 22.83600
C  48.58800 33.08400 23.13800
C  48.15000 33.09100 24.50500
C  48.28200 35.40200 21.85400
C  49.41500 31.91900 22.63300
C  49.68700 31.87300 21.10500
N  47.10000 32.91300 27.36500
C  46.98100 31.96500 26.39500
C  46.17800 30.91200 26.94200
C  45.85700 31.30800 28.27400
C  46.50800 32.52600 28.50500
C  45.73100 29.69900 26.22500
C  45.14400 31.01500 29.56500
O  44.61500 29.95900 29.92700
C  45.29800 32.28500 30.48100
C  45.43100 31.95900 31.90100
O  46.32100 31.29900 32.44400
O  44.35900 32.48900 32.53100
C  44.31600 32.32900 33.99800
H  48.51600 38.40500 29.91800
H  49.98700 36.88300 23.68400
H  47.27200 31.22300 24.42700
H  46.06300 34.79700 32.05900
H  48.00600 36.73600 32.08900
H  46.12700 37.99800 32.38700
H  45.08500 36.75900 31.51400
H  45.90000 38.02600 30.62900
H  49.09200 34.81100 32.04100
H  48.38300 33.23500 31.95700
H  48.49000 33.14500 34.31300
H  47.01100 34.15600 34.13600
H  49.52000 41.16700 27.50200
H  50.48000 40.23300 28.63500
H  48.66000 40.34900 28.78500
H  51.57900 41.23400 24.43000
H  51.64900 40.87600 26.22500
H  50.13700 41.37600 25.52100
H  50.18000 34.53300 22.42900
H  47.67100 33.09600 22.54800
H  47.38400 34.83200 21.61700
H  48.82400 35.55000 20.92000
H  48.06700 36.33100 22.38300
H  48.94500 30.99800 22.97800
H  50.35900 31.96200 23.17600
H  49.29100 32.75600 20.60300
H  49.38900 30.93400 20.63700
H  50.77100 31.94600 21.01700
H  45.38100 29.00500 26.98900
H  46.54500 29.16400 25.73600
H  44.95400 29.91000 25.49100
H  44.32000 32.76300 30.41700
H  43.38700 32.74600 34.38500
H  45.05000 32.91700 34.54900
H  44.42700 31.27400 34.25000
Mg 5.16500 53.64600 41.89400
C  4.66800 50.24400 41.12300
C  7.99500 53.64500 40.16300
C  5.38900 57.09100 42.51000
C  1.94300 53.64300 43.30900
N  6.12900 52.11300 40.59500
C  5.77800 50.88000 40.49300
C  6.71800 50.18100 39.50400
C  7.98200 51.04700 39.69500
C  7.35900 52.39900 40.11000
C  9.07200 50.60000 40.67800
C  6.16100 50.05600 38.03200
C  6.74700 48.95700 37.16100
H  5.97000 48.34900 36.04700
N  6.51600 55.12900 41.46700
C  7.60900 54.90100 40.68200
C  8.46000 56.06000 40.61600
C  7.74300 57.08100 41.38500
C  6.46800 56.44200 41.83100
C  9.79200 56.18300 39.88200
C  8.27300 58.43000 41.74500
O  9.43500 58.76100 41.45300
C  7.45400 59.50200 42.56300
N  3.73800 55.33100 42.55700
C  4.12900 56.55000 42.86800
C  2.98100 57.26400 43.60600
C  1.93200 56.18000 43.80300
C  2.52000 54.96000 43.20600
C  3.56400 57.83400 44.89700
C  0.50600 56.62500 43.25700
C  -0.69500 56.64500 44.27100
N  3.55000 52.32800 42.03400
C  2.43400 52.41300 42.77600
C  1.79600 51.16700 42.81900
C  2.68200 50.26300 42.28900
C  3.69500 51.03500 41.74200
C  0.37400 50.82600 43.12100
C  2.95000 48.84900 42.02800
O  2.43100 47.80900 42.22600
C  4.33500 48.79600 41.24800
C  4.20400 48.09600 39.96900
O  3.43000 48.42800 39.08300
O  4.90100 46.98300 39.94300
C  4.47400 45.94000 38.98400
H  9.02000 53.66100 39.78400
H  5.50000 58.14200 42.78500
H  0.96000 53.77900 43.76400
H  6.91800 49.15700 39.82100
H  8.50000 51.16400 38.74300
H  8.88500 49.59100 41.04300
H  9.15700 51.29900 41.51000
H  10.00200 50.48500 40.12100
H  6.60600 50.97500 37.64900
H  5.08600 50.23200 37.99100
H  6.88900 48.10700 37.82800
H  7.67000 49.34500 36.73100
H  9.83800 57.15500 39.39300
H  9.90100 55.37200 39.16200
H  10.54600 56.16100 40.66900
H  8.13700 60.33700 42.71500
H  7.26200 59.22300 43.59900
H  6.55700 59.82900 42.03600
H  2.52300 58.11500 43.10100
H  1.79200 55.83800 44.82900
H  4.46700 57.25200 45.08200
H  2.98400 57.61000 45.79200
H  3.79800 58.89300 44.79000
H  0.20800 55.80900 42.59900
H  0.61700 57.47800 42.58700
H  -0.30700 56.29400 45.22700
H  -1.39400 55.87000 43.95500
H  -1.06100 57.63600 44.53700
H  -0.14400 51.28600 43.96300
H  0.12600 49.77800 43.28900
H  -0.17500 51.22500 42.26700
H  4.97600 48.25600 41.94500
H  5.34700 45.43100 38.57600
H  3.96100 46.32900 38.10500
H  3.95600 45.26100 39.66200

