158

Mg 27.11200 50.68900 26.85900
C  24.92400 51.74400 29.18300
C  29.51500 50.33800 29.41100
C  29.31800 49.53700 24.58400
C  24.80700 51.46800 24.36300
N  27.17300 51.08500 28.98500
C  26.07600 51.36200 29.80300
C  26.32300 51.11700 31.33100
C  27.87800 50.93100 31.32100
C  28.17900 50.71400 29.72600
C  28.66700 52.07500 31.94900
C  25.56600 49.99400 31.95400
C  24.42600 50.25900 32.92800
H  24.27800 49.39000 34.15100
N  29.15800 50.19500 26.99500
C  29.96500 50.05300 28.12000
C  31.18500 49.37300 27.76400
C  31.19000 49.15900 26.35700
C  29.85500 49.65600 25.93300
C  32.21200 49.05500 28.79800
C  32.24200 48.50100 25.50400
O  32.15000 48.39900 24.32200
C  33.52400 48.04100 26.07300
N  26.95800 50.51200 24.79900
C  28.03100 49.92700 24.03900
C  27.76800 49.80600 22.53500
C  26.22300 50.32400 22.53700
C  25.99100 50.85100 23.97300
C  28.65800 50.64800 21.54800
C  25.19400 49.11200 22.08200
C  24.04200 49.62000 21.28000
N  25.27300 51.45300 26.75900
C  24.41300 51.76100 25.67700
C  23.23600 52.40800 26.16200
C  23.37200 52.39200 27.59000
C  24.60000 51.80400 27.84000
C  22.16500 52.98100 25.31600
C  22.70400 52.69100 28.77100
O  21.64700 53.26700 28.95300
C  23.68200 52.34600 29.90900
C  23.97700 53.48700 30.84400
O  24.92600 54.23700 30.74200
O  23.10500 53.45500 31.92900
C  23.64400 54.22000 33.06100
H  30.19400 50.12000 30.23800
H  30.04600 49.14600 23.87000
H  24.11300 51.71500 23.55700
H  25.97700 52.03300 31.81100
H  28.21000 50.01300 31.80600
H  28.84100 51.66800 32.94500
H  28.07300 52.98600 32.01300
H  29.60800 52.25600 31.43000
H  26.25200 49.34600 32.50100
H  25.16900 49.38300 31.14400
H  23.53900 50.16400 32.30100
H  24.44700 51.29900 33.25300
H  32.28100 47.96800 28.83600
H  32.02100 49.46900 29.78800
H  33.12800 49.48600 28.39200
H  34.22900 48.80800 26.39400
H  33.94300 47.41800 25.28200
H  33.48400 47.33900 26.90600
H  27.84600 48.74000 22.32400
H  26.03100 51.20100 21.91900
H  29.37300 51.15400 22.19700
H  28.12500 51.44500 21.02800
H  28.99000 50.03600 20.71000
H  24.88100 48.65300 23.02000
H  25.64700 48.31900 21.48700
H  23.94200 50.70400 21.22800
H  23.05400 49.33400 21.64200
H  24.24800 49.21900 20.28800
H  22.24900 52.53400 24.32500
H  22.34300 54.05200 25.22400
H  21.25200 52.75800 25.86800
H  23.11300 51.59400 30.45700
H  24.52500 53.77100 33.52100
H  22.76800 54.38900 33.68700
H  23.87100 55.21600 32.68000
Mg 7.30600 54.10100 41.69300
C  6.73800 50.66800 40.99600
C  10.46900 53.81700 40.19700
C  7.52000 57.46700 41.41700
C  3.99600 54.28100 42.70800
N  8.34600 52.48400 40.47900
C  7.90100 51.18900 40.45500
C  8.96800 50.41200 39.69400
C  10.29300 51.24200 39.88400
C  9.70400 52.62500 40.18900
C  11.28900 50.72200 40.94900
C  8.51200 50.17900 38.20200
C  8.71300 48.76000 37.56600
H  7.98200 48.36500 36.28500
N  8.81800 55.48300 41.00600
C  10.12000 55.15000 40.55200
C  10.86200 56.31500 40.24700
C  10.03800 57.43400 40.67100
C  8.68900 56.85700 41.01900
C  12.27000 56.31000 39.58000
C  10.40800 58.90500 40.72000
O  11.54400 59.19800 40.38200
C  9.55300 59.99900 41.29200
N  5.94000 55.60800 41.87400
C  6.26400 56.95200 41.77700
C  5.24700 57.86000 42.49800
C  4.01100 56.84100 42.67400
C  4.65800 55.49400 42.38600
C  5.80200 58.41000 43.82000
C  2.91800 57.23300 41.66500
C  2.15100 58.50300 42.11300
N  5.74800 52.77000 41.96300
C  4.47400 53.02200 42.47500
C  3.75200 51.79500 42.71000
C  4.62000 50.83200 42.14000
C  5.70100 51.49000 41.61000
C  2.37000 51.76500 43.40600
C  4.70900 49.41300 41.88700
O  3.96300 48.43100 42.15600
C  6.06200 49.27100 40.97200
C  5.68200 48.58600 39.71600
O  5.31300 49.17700 38.70700
O  5.74800 47.22900 39.86700
C  5.37700 46.29900 38.81400
H  11.52300 53.68000 39.94400
H  7.67100 58.54800 41.38300
H  3.04500 54.56700 43.16200
H  9.08200 49.42400 40.14200
H  10.92000 51.24000 38.99300
H  10.87000 49.84300 41.43700
H  11.54000 51.52100 41.64700
H  12.23300 50.49600 40.45200
H  9.02500 50.98300 37.67300
H  7.47000 50.45900 38.05100
H  8.43300 47.96500 38.25600
H  9.73200 48.63300 37.19900
H  12.88600 57.18100 39.80200
H  12.22600 56.09000 38.51300
H  12.80100 55.54600 40.14800
H  9.24400 59.76600 42.31100
H  8.66600 60.14200 40.67500
H  10.17200 60.89300 41.36400
H  4.95700 58.72000 41.89500
H  3.57600 56.91500 43.67100
H  5.10300 58.42800 44.65600
H  5.94100 59.47500 43.63400
H  6.79300 57.97300 43.93900
H  2.35100 56.39400 41.26000
H  3.43100 57.48700 40.73800
H  2.32200 59.37500 41.48200
H  2.42600 58.75900 43.13600
H  1.06300 58.43100 42.08900
H  2.52100 52.30600 44.34000
H  2.14800 50.72500 43.64900
H  1.57300 52.15900 42.77600
H  6.77600 48.59000 41.43500
H  5.83400 45.33800 39.05300
H  5.77300 46.57200 37.83600
H  4.30300 46.11700 38.77400

