158

Mg -2.79100 17.75300 26.86900
C  -3.35700 15.47500 29.49100
C  -3.18800 20.27800 29.14300
C  -2.36000 19.78900 24.37600
C  -2.82000 14.91400 24.68100
N  -3.11600 17.80600 29.00200
C  -3.20500 16.81500 29.89100
C  -3.22700 17.27700 31.36600
C  -3.44300 18.77000 31.18800
C  -3.22200 18.97400 29.65800
C  -4.83400 19.24800 31.72400
C  -1.92100 16.90900 32.04100
C  -1.50300 17.77600 33.31200
H  -1.08700 16.98400 34.63500
N  -2.76500 19.79700 26.80100
C  -2.85800 20.64400 27.80700
C  -2.81000 21.99000 27.29200
C  -2.38500 21.85000 25.93000
C  -2.48500 20.45900 25.66100
C  -3.09500 23.23200 28.16000
C  -1.86000 22.89700 24.99700
O  -1.54100 22.68100 23.80400
C  -1.62500 24.30300 25.44700
N  -2.78400 17.43300 24.76100
C  -2.41100 18.42500 23.98400
C  -2.32000 17.94200 22.50300
C  -2.24400 16.36300 22.59700
C  -2.64100 16.18000 24.06400
C  -3.42000 18.46100 21.62000
C  -0.77000 15.88100 22.32500
C  0.17100 15.80700 23.55700
N  -3.14700 15.62300 26.95500
C  -3.15200 14.64100 26.03800
C  -3.44200 13.33800 26.65300
C  -3.47100 13.58500 27.99400
C  -3.25800 14.94600 28.15500
C  -3.59600 11.98500 26.04400
C  -3.58100 12.99500 29.24000
O  -3.76800 11.87300 29.59300
C  -3.56900 14.18400 30.28600
C  -2.47700 13.84400 31.20600
O  -1.27500 13.79100 30.98000
O  -3.08700 13.40000 32.41900
C  -2.13600 12.90500 33.42200
H  -3.14500 21.13900 29.81300
H  -2.19400 20.38400 23.47600
H  -2.74200 14.07500 23.98700
H  -4.04900 16.77600 31.87800
H  -2.78400 19.44400 31.73600
H  -5.17100 18.67700 32.58900
H  -5.60800 19.14900 30.96300
H  -4.70600 20.31800 31.88900
H  -1.08100 16.95100 31.34700
H  -1.87000 15.89800 32.44500
H  -2.37500 18.40600 33.48900
H  -0.76300 18.53100 33.04700
H  -3.98000 23.02000 28.76000
H  -3.37000 24.11100 27.57800
H  -2.27900 23.48100 28.83700
H  -2.49200 24.95100 25.57100
H  -0.94200 24.75600 24.72900
H  -1.07100 24.16200 26.37500
H  -1.42700 18.46500 22.16000
H  -2.87500 15.80400 21.90600
H  -4.42800 18.13900 21.88200
H  -3.42500 17.97700 20.64300
H  -3.30900 19.54600 21.60600
H  -0.30900 16.48600 21.54500
H  -1.01700 14.88700 21.95200
H  -0.32000 15.97500 24.51600
H  1.00400 16.49300 23.40400
H  0.64600 14.83100 23.64800
H  -2.74400 11.40300 26.39500
H  -3.61700 11.99000 24.95500
H  -4.53800 11.61300 26.44700
H  -4.48900 14.31500 30.85600
H  -1.31300 12.38300 32.93200
H  -2.63900 12.23100 34.11500
H  -1.85400 13.80000 33.97500
Mg 47.68700 16.67600 27.53500
C  45.73900 16.69800 30.40500
C  49.99300 18.71500 28.95800
C  49.16100 17.00100 24.49400
C  44.90200 15.28400 25.85600
N  47.83200 17.57100 29.44800
C  47.01400 17.29800 30.49700
C  47.72600 17.74000 31.75900
C  48.97900 18.52300 31.25700
C  48.96500 18.26100 29.80800
C  49.03100 20.05200 31.48400
C  48.05700 16.63500 32.78000
C  48.35300 17.00600 34.23700
H  47.92000 18.35100 34.71800
N  49.38400 17.69600 26.86700
C  50.26600 18.41600 27.59900
C  51.36800 18.85300 26.81100
C  50.98900 18.50300 25.47000
C  49.81200 17.67000 25.56300
C  52.50200 19.67200 27.34800
C  51.62100 19.08700 24.12000
O  51.13000 18.92300 23.02700
C  52.85300 19.97800 24.06400
N  47.04500 16.32300 25.41100
C  47.95800 16.47100 24.42200
C  47.34900 15.96400 23.08400
C  45.95200 15.38400 23.51300
C  45.90000 15.68300 25.03200
C  47.18500 17.17200 22.11600
C  45.59200 13.95300 23.09600
C  44.33600 13.81900 22.25500
N  45.79000 16.07600 28.01900
C  44.71900 15.54600 27.24500
C  43.58800 15.16200 28.11900
C  43.98500 15.60600 29.37800
C  45.23500 16.21400 29.24100
C  42.35700 14.49500 27.70400
C  43.54900 15.63600 30.75600
O  42.60300 15.10400 31.26600
C  44.72900 16.44000 31.53900
C  44.13300 17.59400 32.21400
O  43.85800 18.68600 31.73800
O  43.96000 17.31500 33.57900
C  43.34500 18.35000 34.36800
H  50.62600 19.43800 29.47700
H  49.62400 16.99100 23.50400
H  44.04900 14.76400 25.41500
H  46.96500 18.44300 32.09800
H  49.87900 18.12800 31.72900
H  48.30000 20.39700 32.21600
H  48.84500 20.75000 30.66800
H  50.06700 20.32700 31.68600
H  48.89600 16.07600 32.36500
H  47.21700 15.94800 32.88200
H  49.39700 16.71600 34.35600
H  47.97200 16.23000 34.90100
H  52.19300 20.71300 27.44300
H  53.38300 19.68300 26.70600
H  52.70900 19.24700 28.33100
H  53.67400 19.46400 24.56300
H  52.61900 20.84700 24.67900
H  53.06300 20.22200 23.02200
H  48.01900 15.16400 22.77000
H  45.24900 16.07700 23.05100
H  47.28500 18.11700 22.65000
H  46.25000 17.16400 21.55600
H  47.94600 17.04000 21.34600
H  45.68500 13.35800 24.00400
H  46.30300 13.59400 22.35100
H  44.59200 13.32700 21.31700
H  43.78600 14.73100 22.02300
H  43.59200 13.15000 22.68800
H  42.52900 13.69000 26.99000
H  41.74300 15.21400 27.16100
H  41.80800 13.98000 28.49300
H  45.14200 15.71600 32.24100
H  42.27900 18.19400 34.53400
H  43.63800 19.33900 34.01500
H  43.82700 18.18800 35.33200

