158

Mg -0.01500 7.84800 26.46900
C  0.84000 9.84400 29.39900
C  -0.28900 5.15800 28.59200
C  -0.42100 6.11900 23.78900
C  0.42400 10.74800 24.63100
N  0.48900 7.51400 28.72900
C  0.59200 8.49000 29.75900
C  0.44500 7.83900 31.11300
C  0.20600 6.32600 30.73100
C  0.13500 6.32400 29.24700
C  1.33500 5.39100 31.33300
C  -0.71300 8.39200 31.94300
C  -0.39800 8.74000 33.40300
H  0.83500 8.11900 33.99200
N  -0.28000 5.91400 26.22800
C  -0.41800 4.93500 27.18800
C  -0.83600 3.67300 26.58400
C  -0.81000 3.92600 25.18400
C  -0.55400 5.39000 25.01400
C  -1.23600 2.45600 27.38600
C  -1.04500 3.00100 24.01100
O  -1.02600 3.30600 22.82200
C  -1.29400 1.50300 24.21200
N  0.02500 8.26800 24.51300
C  -0.14700 7.37100 23.49800
C  0.05100 8.05300 22.14000
C  -0.26600 9.56800 22.44600
C  0.00500 9.53500 23.99700
C  1.36300 7.91300 21.36100
C  -1.71500 9.95500 22.30400
C  -2.10600 10.60600 20.99800
N  0.55100 9.90700 26.79400
C  0.76400 10.93200 25.97300
C  1.21700 12.15800 26.67700
C  1.13700 11.73900 28.02300
C  0.81600 10.36700 28.02000
C  1.54400 13.46800 26.02400
C  1.34900 12.19400 29.30400
O  1.68300 13.31700 29.64900
C  1.16000 10.97700 30.28600
C  2.33500 10.95000 31.13800
O  3.31500 10.28100 30.81100
O  2.20300 11.73900 32.24700
C  3.28000 11.82200 33.29800
H  -0.63300 4.27500 29.13400
H  -0.41400 5.56000 22.85000
H  0.61300 11.53500 23.89900
H  1.43300 7.85700 31.57300
H  -0.73100 5.91500 31.10600
H  0.99200 5.11000 32.32900
H  2.30500 5.87300 31.21200
H  1.48700 4.48300 30.74900
H  -1.58600 7.74500 32.03200
H  -1.01400 9.28600 31.39800
H  -1.27600 8.41100 33.95900
H  -0.28600 9.81300 33.55400
H  -0.90000 1.56400 26.85600
H  -2.31700 2.50200 27.25200
H  -0.87800 2.39200 28.41400
H  -0.53500 0.93800 24.75300
H  -1.54600 1.11300 23.22600
H  -2.20900 1.44700 24.80300
H  -0.72100 7.66800 21.47400
H  0.40700 10.25900 21.94000
H  2.05200 8.74100 21.53000
H  1.19300 7.71400 20.30300
H  1.94200 7.11100 21.81700
H  -1.97200 10.74000 23.01600
H  -2.33800 9.07900 22.48900
H  -1.55200 10.41700 20.07800
H  -2.01600 11.69100 21.06600
H  -3.10300 10.31000 20.67100
H  0.60600 14.02000 25.96000
H  2.06200 13.28900 25.08200
H  2.11800 14.07200 26.72600
H  0.27100 11.21900 30.86900
H  4.16900 11.41700 32.81500
H  3.18800 11.22000 34.20300
H  3.44600 12.86100 33.58100
Mg 16.59700 -1.35400 27.70800
C  15.90400 0.58400 30.58800
C  19.08900 -2.95800 29.43900
C  17.70900 -2.79600 24.75200
C  14.65000 0.89300 25.82100
N  17.40700 -1.28700 29.91700
C  16.95200 -0.41400 30.89500
C  17.69100 -0.77600 32.21400
C  18.83000 -1.86400 31.72800
C  18.39000 -2.10300 30.30000
C  20.26300 -1.34100 31.93400
C  16.78000 -1.17100 33.49900
C  16.82000 -0.23700 34.69800
H  18.15900 -0.14300 35.37400
N  17.99700 -2.88200 27.24700
C  18.87000 -3.38300 28.12400
C  19.59800 -4.54600 27.47400
C  19.20200 -4.52100 26.08500
C  18.25800 -3.37200 25.97100
C  20.39400 -5.57400 28.15900
C  19.46800 -5.47700 24.93900
O  18.93600 -5.40600 23.84700
C  20.34400 -6.68500 25.18700
N  16.29700 -0.93300 25.63600
C  16.83000 -1.68900 24.65900
C  16.21300 -1.36300 23.32300
C  15.01600 -0.42600 23.72000
C  15.26600 -0.15400 25.19100
C  17.29600 -0.71900 22.36500
C  13.57100 -0.98600 23.42700
C  12.75600 -0.34500 22.30700
N  15.45800 0.38400 28.05500
C  14.66700 1.12700 27.15800
C  13.93000 2.07200 27.94900
C  14.32700 1.84100 29.24800
C  15.27400 0.85600 29.28400
C  12.82800 3.07900 27.52200
C  14.07500 2.29200 30.56700
O  13.26300 3.08300 30.98800
C  15.10300 1.55100 31.58300
C  15.99400 2.60600 32.19900
O  17.07300 2.95100 31.74000
O  15.39600 3.07300 33.32500
C  16.15400 4.01000 34.17800
H  19.93500 -3.45200 29.92100
H  17.95500 -3.33800 23.83600
H  13.98100 1.55600 25.26900
H  18.14500 0.16100 32.53800
H  18.79500 -2.82300 32.24500
H  20.21800 -0.41100 32.50000
H  20.55900 -1.09500 30.91400
H  20.96100 -2.10900 32.27000
H  17.09100 -2.18700 33.74200
H  15.72000 -1.06600 33.26400
H  15.98100 -0.50500 35.34200
H  16.63600 0.77700 34.34300
H  21.37800 -5.68800 27.70400
H  20.02500 -6.57200 27.92400
H  20.42200 -5.60100 29.24800
H  20.44600 -7.37500 24.34900
H  19.86200 -7.23800 25.99300
H  21.36700 -6.47600 25.49800
H  15.91600 -2.30300 22.85800
H  15.06300 0.46400 23.09200
H  18.27900 -0.94100 22.78100
H  17.17800 0.35800 22.47700
H  17.23200 -1.15600 21.36800
H  12.96000 -0.93500 24.32800
H  13.50900 -2.05900 23.24500
H  11.97500 -0.96600 21.86800
H  13.49300 -0.05600 21.55800
H  12.37600 0.61700 22.65100
H  13.03800 3.59900 26.58800
H  12.61200 3.76400 28.34200
H  11.89900 2.53400 27.35500
H  14.54000 1.05600 32.37400
H  15.70900 3.91700 35.16900
H  16.08600 5.03700 33.82100
H  17.21300 3.78000 34.29300

