158

Mg 46.82600 16.65200 28.38300
C  44.51400 16.33500 31.18600
C  48.71000 18.51700 30.30900
C  48.56100 17.18900 25.58800
C  44.23100 15.21200 26.47100
N  46.69300 17.17500 30.57700
C  45.70200 16.98000 31.54700
C  46.31000 17.23400 32.96500
C  47.55300 18.12500 32.60500
C  47.62200 17.98500 31.06800
C  47.57200 19.71000 33.06300
C  46.53300 15.89200 33.76900
C  46.08700 15.97700 35.21000
H  45.61300 17.27900 35.94200
N  48.39900 17.67500 27.99100
C  49.05500 18.51000 28.91400
C  50.17300 19.09200 28.22900
C  50.14000 18.62800 26.87400
C  49.02500 17.76800 26.75200
C  51.16200 20.00500 28.98300
C  51.13600 18.94900 25.77000
O  50.91000 18.69600 24.55400
C  52.37100 19.78100 26.05700
N  46.40900 16.25900 26.30200
C  47.36000 16.51800 25.41000
C  46.97100 15.96300 24.00900
C  45.60000 15.15600 24.31900
C  45.42800 15.45800 25.77600
C  46.81800 17.09900 22.99500
C  45.59200 13.64500 23.84300
C  45.76300 13.31100 22.35700
N  44.80300 15.99000 28.72300
C  43.93300 15.42300 27.82900
C  42.68200 14.97700 28.47500
C  42.93800 15.37400 29.80000
C  44.15400 15.97200 29.87300
C  41.54500 14.24200 27.88300
C  42.38300 15.32700 31.12500
O  41.30600 14.93800 31.56300
C  43.36100 16.07300 32.08500
C  42.67300 17.28600 32.49500
O  42.46800 18.29500 31.85200
O  42.19900 16.97700 33.74600
C  41.54100 18.04600 34.38800
H  49.41600 19.09900 30.90400
H  49.13300 17.12700 24.65900
H  43.50700 14.64000 25.88700
H  45.61700 17.92000 33.45200
H  48.39900 17.71000 33.15400
H  47.51000 20.43100 32.24800
H  48.52800 19.92500 33.54200
H  46.86900 19.94300 33.86300
H  47.60000 15.67300 33.81200
H  46.05400 15.03700 33.29000
H  46.81100 15.57100 35.91600
H  45.21800 15.32100 35.16200
H  52.13400 19.55200 29.18000
H  50.71100 20.32800 29.92200
H  51.26400 20.99300 28.53400
H  52.07800 20.76500 26.42200
H  52.95200 19.91100 25.14400
H  52.94000 19.16200 26.75100
H  47.69400 15.21400 23.68700
H  44.70200 15.69300 24.01600
H  45.84000 17.02700 22.51800
H  47.57300 17.04600 22.21000
H  46.90200 18.02300 23.56700
H  44.62100 13.25800 24.15100
H  46.39300 13.05500 24.28800
H  44.92900 12.76400 21.91700
H  46.67000 12.74200 22.15300
H  45.81100 14.27400 21.84800
H  41.27200 14.70400 26.93500
H  40.74000 14.47300 28.58100
H  41.69700 13.18300 27.67600
H  43.71000 15.48800 32.93600
H  40.50300 18.20100 34.09400
H  42.17900 18.91700 34.23500
H  41.60300 17.94600 35.47200
Mg -12.32300 37.99800 41.91500
C  -10.23300 35.40700 40.83300
C  -10.28000 40.21000 40.15200
C  -14.52800 40.41600 42.50500
C  -14.24700 35.69700 43.44200
N  -10.59400 37.73800 40.58100
C  -9.88900 36.61300 40.29400
C  -8.83800 36.86100 39.19400
C  -8.71200 38.43300 39.33900
C  -10.02200 38.87000 40.03900
C  -7.44200 38.84700 40.21300
C  -9.03200 36.23500 37.76900
C  -7.78800 35.47900 37.17200
H  -6.78600 36.37600 36.30500
N  -12.34400 40.12600 41.50000
C  -11.41300 40.76800 40.81600
C  -11.84800 42.16800 40.81200
C  -13.16400 42.30400 41.44800
C  -13.39000 40.91000 41.88800
C  -11.02900 43.14800 40.16700
C  -13.94200 43.54800 41.73400
O  -13.51800 44.66000 41.44000
C  -15.30800 43.54400 42.34900
N  -14.14100 38.05400 42.69100
C  -14.89200 39.14600 42.88500
C  -16.21100 38.80500 43.72600
C  -16.12800 37.24700 43.94200
C  -14.77700 36.98500 43.29900
C  -16.19100 39.64400 44.94000
C  -17.21300 36.39200 43.26900
C  -17.91500 35.33600 44.09200
N  -12.32400 35.90600 42.06900
C  -13.07800 35.13500 42.93000
C  -12.53600 33.76800 43.09600
C  -11.32600 33.80600 42.32200
C  -11.31800 35.10200 41.67900
C  -12.99700 32.64900 43.99600
C  -10.15500 33.17500 41.81800
O  -9.73400 32.03900 42.01700
C  -9.55300 34.07800 40.65400
C  -8.03000 34.14600 40.77100
O  -7.24200 34.79600 41.46200
O  -7.57000 33.17300 39.90800
C  -6.11900 33.07600 39.83200
H  -9.58200 40.87300 39.63700
H  -15.32200 41.15000 42.65400
H  -14.81400 34.91200 43.94600
H  -7.88000 36.49500 39.56300
H  -8.67000 38.93800 38.37400
H  -6.81200 38.05200 40.61300
H  -7.82300 39.39200 41.07600
H  -6.81500 39.55200 39.66700
H  -9.26100 36.93300 36.96300
H  -9.78500 35.44900 37.81400
H  -8.14200 34.64700 36.56300
H  -7.24100 35.01200 37.99100
H  -11.66200 43.98600 39.87600
H  -10.48000 42.86700 39.26800
H  -10.29700 43.40000 40.93400
H  -15.97600 42.91200 41.76300
H  -15.66400 44.56000 42.52300
H  -15.26400 43.09400 43.34000
H  -17.09500 39.08000 43.15100
H  -16.07200 37.05700 45.01300
H  -15.13000 39.75300 45.16900
H  -16.60100 39.05900 45.76300
H  -16.73200 40.58900 44.89600
H  -16.74200 35.80900 42.47700
H  -17.88900 37.08800 42.77300
H  -17.96100 35.52200 45.16500
H  -17.61700 34.28900 44.03000
H  -18.91000 35.25700 43.65500
H  -12.36200 31.77100 43.87500
H  -14.03600 32.39800 43.78400
H  -13.11400 32.98200 45.02700
H  -9.95400 33.66500 39.72900
H  -5.69800 32.67400 40.75400
H  -5.74500 34.08400 39.65300
H  -5.87300 32.29100 39.11700

