158

Mg 44.06200 3.00600 47.46400
C  42.15900 5.79600 46.70500
C  41.29700 1.02800 47.36500
C  46.04800 0.31600 47.57200
C  46.95200 5.03900 47.17700
N  41.92300 3.39500 47.04300
C  41.40800 4.61600 46.72300
C  39.88700 4.42500 46.51200
C  39.61300 2.94400 46.91200
C  41.03600 2.40200 47.13300
C  38.68400 2.66100 48.11200
C  39.38700 4.63300 45.02200
C  37.98500 5.10700 44.63500
H  38.01400 5.99900 43.45500
N  43.73000 0.93600 47.39900
C  42.52200 0.31000 47.41700
C  42.72100 -1.03600 47.52900
C  44.11300 -1.34000 47.52400
C  44.73300 0.00100 47.52000
C  41.56400 -2.00000 47.72900
C  44.74100 -2.75700 47.61600
O  44.03700 -3.80300 47.65900
C  46.24100 -2.90200 47.73700
N  46.18800 2.71200 47.41300
C  46.74700 1.47400 47.54100
C  48.27500 1.56900 47.64100
C  48.57700 3.15500 47.74500
C  47.20100 3.64700 47.41300
C  48.97700 0.65100 48.69500
C  49.67100 3.55500 46.73000
C  49.09600 3.62600 45.25800
N  44.49800 5.00400 47.02300
C  45.71200 5.71200 47.04800
C  45.52600 7.11000 46.86500
C  44.14700 7.18400 46.74500
C  43.59300 5.89200 46.83000
C  46.62800 8.13300 46.76400
C  43.00500 8.03500 46.50900
O  42.93900 9.23900 46.25400
C  41.68600 7.23900 46.48700
C  40.78000 7.82000 47.62000
O  40.91000 7.39200 48.77700
O  39.87300 8.74400 47.21000
C  38.77500 8.97800 48.14600
H  40.40600 0.40200 47.45300
H  46.69800 -0.56200 47.56500
H  47.84000 5.67400 47.14700
H  39.35200 5.10000 47.18000
H  39.14900 2.41400 46.08100
H  38.09500 3.53000 48.40500
H  39.23800 2.17400 48.91500
H  38.01900 1.83700 47.85700
H  39.47400 3.67300 44.51300
H  40.13400 5.32000 44.62600
H  37.46100 5.49900 45.50600
H  37.55300 4.16000 44.31300
H  41.77700 -3.03700 47.47100
H  40.66800 -1.69300 47.19000
H  41.35200 -1.99100 48.79900
H  46.77600 -2.59300 46.83900
H  46.56400 -3.90900 48.00200
H  46.63000 -2.26800 48.53400
H  48.62800 1.20700 46.67500
H  48.70500 3.51400 48.76600
H  48.14200 0.12100 49.15400
H  49.40100 1.24800 49.50200
H  49.73400 0.02500 48.22300
H  50.54500 2.90400 46.72800
H  49.90100 4.57000 47.05500
H  48.67000 4.61000 45.06200
H  48.24300 2.95600 45.16100
H  49.87400 3.30300 44.56600
H  46.29400 9.08600 46.35400
H  47.44300 7.95200 46.06300
H  47.03700 8.38800 47.74100
H  41.31700 7.35300 45.46700
H  38.79700 9.93300 48.67100
H  38.67400 8.17200 48.87300
H  37.80500 8.86100 47.66400
Mg 41.30200 41.26300 26.40300
C  40.37500 43.33200 28.99400
C  42.32100 38.89100 28.81200
C  42.53400 39.39000 23.89400
C  40.77000 43.82900 24.10000
N  41.58400 41.25400 28.64600
C  40.89400 42.09800 29.45500
C  40.83400 41.62200 30.92400
C  41.68700 40.33400 30.80500
C  41.93500 40.10000 29.29000
C  43.05400 40.36600 31.57500
C  39.39800 41.54500 31.56700
C  39.06100 42.59100 32.59300
H  38.39200 42.12400 33.97000
N  42.30600 39.39700 26.32800
C  42.56400 38.57200 27.46400
C  43.07800 37.38700 26.95600
C  43.10100 37.39300 25.44900
C  42.70500 38.77700 25.14700
C  43.60500 36.21000 27.90000
C  43.42900 36.29900 24.49000
O  43.56400 36.49000 23.28600
C  43.50600 34.83500 25.06600
N  41.64600 41.55800 24.36600
C  42.13000 40.64300 23.54200
C  42.21900 41.16200 22.04600
C  41.23100 42.38800 22.06800
C  41.19500 42.62800 23.59700
C  43.63600 41.36600 21.49300
C  39.79000 42.18800 21.45100
C  39.14200 40.89100 21.83900
N  40.60600 43.18900 26.43600
C  40.44800 44.15800 25.44000
C  40.06700 45.36700 26.02900
C  39.91800 45.12200 27.44100
C  40.25500 43.73900 27.61700
C  39.98800 46.69200 25.30500
C  39.58600 45.64900 28.71400
O  39.28300 46.80000 28.98900
C  39.79900 44.50900 29.77600
C  40.75200 45.03700 30.65400
O  41.98600 45.10900 30.49100
O  40.14400 45.66600 31.70200
C  41.07100 46.21800 32.68600
H  42.38100 38.14700 29.60900
H  42.76000 38.76700 23.02600
H  40.70700 44.58400 23.31400
H  41.34900 42.36000 31.53800
H  41.18200 39.55100 31.37000
H  42.97300 39.56300 32.30700
H  43.21000 41.31800 32.08300
H  43.89700 40.13500 30.92400
H  39.29800 40.56100 32.02700
H  38.71600 41.51300 30.71700
H  38.36900 43.29300 32.12800
H  39.93500 43.17800 32.87700
H  43.36300 36.35600 28.95200
H  44.68500 36.24600 27.75100
H  43.27000 35.19200 27.70600
H  42.61300 34.66000 25.66600
H  44.37500 34.70800 25.71000
H  43.60500 34.10500 24.26200
H  41.81600 40.41300 21.36400
H  41.78400 43.24700 21.68800
H  44.38900 41.35300 22.28100
H  43.73400 42.30900 20.95600
H  43.87700 40.52000 20.85000
H  39.89200 42.29400 20.37100
H  39.24700 43.05700 21.82100
H  38.88800 40.37200 20.91400
H  38.19500 41.11300 22.33100
H  39.79500 40.26100 22.44200
H  40.08800 47.47700 26.05500
H  38.97300 46.85700 24.94500
H  40.78500 46.80800 24.57100
H  38.84400 44.21900 30.21300
H  41.64800 47.05900 32.30300
H  41.64900 45.42400 33.15900
H  40.49500 46.58700 33.53400

