158

Mg -1.48300 17.78400 27.24500
C  -1.86900 15.32100 29.72700
C  -2.06500 20.16800 29.48100
C  -1.36900 19.89400 24.67200
C  -1.58300 15.03400 24.73900
N  -1.91200 17.66400 29.41200
C  -1.96500 16.62800 30.26100
C  -2.31400 17.17900 31.65700
C  -2.60900 18.67600 31.40500
C  -2.18700 18.87400 29.96300
C  -4.02500 19.09500 31.74500
C  -1.16900 16.84800 32.69000
C  -1.59000 16.06300 33.94800
H  -0.44200 15.98700 34.99000
N  -1.61400 19.76500 27.04800
C  -1.70100 20.58400 28.16600
C  -1.57200 21.92900 27.73800
C  -1.38200 21.91000 26.38200
C  -1.37400 20.53100 25.97700
C  -1.82200 23.15300 28.62300
C  -1.13200 22.99800 25.38600
O  -1.03300 22.84200 24.18800
C  -1.02000 24.41200 25.85300
N  -1.45100 17.46600 25.05100
C  -1.46600 18.57400 24.25100
C  -1.83300 18.16600 22.78700
C  -1.67500 16.63600 22.80100
C  -1.54500 16.40600 24.28100
C  -3.22900 18.51300 22.31400
C  -0.47600 15.98900 22.03100
C  0.99400 16.28800 22.56100
N  -1.56800 15.64700 27.19000
C  -1.54800 14.72600 26.14100
C  -1.76900 13.38700 26.70400
C  -1.90400 13.58700 28.08900
C  -1.74300 14.98100 28.32100
C  -2.09100 12.20700 25.92200
C  -2.17900 12.90700 29.29400
O  -2.30100 11.68600 29.51100
C  -2.22200 13.98900 30.43200
C  -1.11500 13.58500 31.42000
O  0.04800 13.97100 31.34000
O  -1.55200 12.93000 32.52900
C  -0.62300 12.55000 33.64500
H  -2.15500 21.02000 30.15800
H  -1.52500 20.50300 23.77900
H  -1.66000 14.21000 24.02800
H  -3.20700 16.70700 32.06700
H  -1.99300 19.39900 31.94100
H  -4.55900 18.49000 32.47800
H  -4.52000 19.19900 30.78000
H  -3.96600 20.12100 32.11000
H  -0.79500 17.82900 32.98200
H  -0.37900 16.35400 32.12400
H  -1.82700 15.04400 33.63900
H  -2.40600 16.63500 34.39000
H  -2.67400 23.75700 28.31000
H  -0.89300 23.69800 28.78600
H  -2.18400 22.99600 29.63900
H  -1.93700 24.70100 26.36600
H  -0.86900 25.03000 24.96800
H  -0.29000 24.41000 26.66300
H  -1.12200 18.64900 22.11600
H  -2.56700 16.12700 22.43800
H  -3.59800 18.96200 23.23700
H  -3.85000 17.63400 22.14500
H  -3.22300 19.17100 21.44500
H  -0.57200 16.34100 21.00400
H  -0.53500 14.90100 21.99700
H  1.02500 16.75500 23.54500
H  1.49200 16.92000 21.82500
H  1.60700 15.39900 22.71000
H  -2.22800 11.46700 26.71000
H  -1.34300 11.84700 25.21600
H  -3.05400 12.41700 25.45700
H  -3.22400 13.93200 30.85600
H  -0.01100 11.68700 33.38400
H  -1.14400 12.35800 34.58400
H  0.06500 13.39000 33.73600
Mg -1.51400 34.70900 27.18600
C  -3.25000 32.77100 29.61600
C  -0.24900 36.65900 29.53900
C  0.06800 36.22800 24.62600
C  -3.20300 32.64300 24.70400
N  -1.89600 34.86500 29.33000
C  -2.51000 33.89500 30.15700
C  -2.41300 34.31400 31.64000
C  -1.57500 35.57600 31.59100
C  -1.12300 35.65400 30.07100
C  -2.27000 36.86700 32.14600
C  -1.81100 33.13800 32.51800
C  -1.07200 33.41900 33.89900
H  -1.58500 32.69600 35.12900
N  -0.40900 36.32000 27.08600
C  0.01900 37.01100 28.15400
C  0.84500 38.11100 27.73200
C  0.97300 37.97900 26.33400
C  0.21700 36.77500 25.91800
C  1.55600 39.03300 28.74800
C  1.78200 38.94200 25.33200
O  1.71900 38.75700 24.14600
C  2.62900 40.04600 25.71300
N  -1.64400 34.53800 25.05800
C  -0.80800 35.20000 24.23400
C  -0.80400 34.69500 22.76600
C  -1.86600 33.61600 22.80700
C  -2.26400 33.55500 24.29300
C  -1.05100 35.78700 21.68300
C  -1.20700 32.23100 22.25200
C  -0.27700 31.58700 23.27900
N  -2.98000 33.11100 27.14700
C  -3.54300 32.41200 26.07000
C  -4.38600 31.34000 26.61200
C  -4.31400 31.43900 28.00200
C  -3.39200 32.48900 28.26900
C  -5.22000 30.35200 25.83100
C  -4.74300 30.88700 29.19700
O  -5.51200 30.02000 29.45200
C  -4.14800 31.81600 30.36100
C  -5.29100 32.35900 31.17300
O  -6.32100 32.85500 30.68400
O  -5.04300 32.17000 32.42700
C  -5.98700 32.68800 33.44700
H  0.41200 37.10000 30.28800
H  0.51500 36.80600 23.81400
H  -3.58800 31.93600 23.96600
H  -3.43800 34.49000 31.96700
H  -0.64600 35.55700 32.16100
H  -2.40000 37.54400 31.30100
H  -1.74700 37.41000 32.93300
H  -3.29000 36.64500 32.46100
H  -1.08800 32.62800 31.88100
H  -2.59100 32.41700 32.76600
H  -1.34900 34.47000 33.97800
H  0.01700 33.38400 33.85900
H  1.08100 40.00800 28.64100
H  2.62200 39.06400 28.52400
H  1.43700 38.73100 29.78900
H  2.01400 40.90100 25.99500
H  3.11300 40.30600 24.77100
H  3.40100 39.82100 26.44900
H  0.19700 34.32800 22.53800
H  -2.75600 33.85700 22.22700
H  -0.26700 35.97100 20.94900
H  -1.28100 36.76000 22.11800
H  -1.94600 35.57900 21.09800
H  -0.60700 32.30400 21.34500
H  -2.06000 31.56500 22.11900
H  -0.67900 30.57500 23.23000
H  -0.31100 31.97500 24.29700
H  0.74700 31.46700 22.92500
H  -5.03000 30.54800 24.77600
H  -6.26700 30.49300 26.09800
H  -4.83900 29.38700 26.16400
H  -3.61000 31.24500 31.11900
H  -6.81700 33.07900 32.85900
H  -5.51100 33.51700 33.97100
H  -6.19700 31.89100 34.16000

