158

Mg 49.31600 47.27000 42.98100
C  45.97900 47.59500 42.24000
C  49.21200 44.25400 41.04200
C  52.60900 46.85100 43.36600
C  49.43300 50.61600 44.06300
N  47.71200 46.01200 41.71000
C  46.41700 46.41300 41.58800
C  45.60300 45.45500 40.57300
C  46.74300 44.42500 40.25600
C  47.96400 44.88000 41.07800
C  46.45400 42.89300 40.22700
C  44.89400 46.16200 39.35100
C  43.38500 45.90100 39.29900
H  42.80300 45.76400 37.92500
N  50.69600 45.75000 42.31400
C  50.44100 44.59800 41.66500
C  51.61300 43.78500 41.65400
C  52.66800 44.46700 42.29000
C  52.01700 45.76100 42.67900
C  51.59600 42.37600 41.14200
C  54.10300 43.96000 42.55500
O  54.43200 42.86200 42.15000
C  55.19100 44.78800 43.34900
N  50.85500 48.63700 43.42700
C  52.12500 48.18900 43.69300
C  53.00600 49.31400 44.22900
C  51.98900 50.40900 44.56100
C  50.66100 49.87400 44.03900
C  54.01100 48.93600 45.39300
C  52.42200 51.82400 43.97900
C  52.07800 52.17800 42.58200
N  48.01700 48.84500 43.25900
C  48.16300 50.18400 43.72400
C  46.90600 50.86200 43.76700
C  45.99000 49.89600 43.15600
C  46.72000 48.62700 42.96400
C  46.72400 52.25200 44.29500
C  44.61300 49.70200 42.84200
O  43.58200 50.28600 43.00000
C  44.52700 48.25100 42.25300
C  43.51700 47.41600 43.02000
O  43.75100 46.72200 44.05000
O  42.31600 47.32600 42.33500
C  41.55300 46.10000 42.71800
H  49.32300 43.41900 40.34700
H  53.65100 46.80100 43.68800
H  49.40900 51.63700 44.45100
H  44.86600 44.96000 41.20600
H  47.07400 44.70500 39.25600
H  46.39100 42.40200 39.25600
H  45.65200 42.83100 40.96200
H  47.36700 42.44200 40.61400
H  45.45400 46.08300 38.41900
H  44.99100 47.22700 39.56000
H  43.02200 46.76500 39.85700
H  43.04700 44.99000 39.79300
H  51.74200 42.48200 40.06700
H  50.67900 41.81300 41.31600
H  52.40000 41.76200 41.54800
H  55.42800 45.77000 42.93900
H  56.18300 44.35500 43.47800
H  54.76400 44.89100 44.34600
H  53.59900 49.52100 43.33800
H  51.89400 50.50500 45.64200
H  54.63500 49.81900 45.25500
H  54.62600 48.05900 45.19100
H  53.50100 49.00100 46.35400
H  53.49700 51.91400 44.13700
H  51.89800 52.54200 44.61000
H  51.57300 51.32900 42.12000
H  53.00700 52.32500 42.03200
H  51.51400 53.10600 42.48700
H  45.66100 52.48500 44.36200
H  47.13800 52.92800 43.54800
H  47.13000 52.39500 45.29700
H  43.98300 48.24800 41.30800
H  40.86400 45.75400 41.94700
H  40.94400 46.34600 43.58700
H  42.07700 45.21100 43.06800
Mg 16.83000 51.80100 25.79500
C  18.64400 50.11100 28.30200
C  14.77500 53.10700 28.17700
C  14.73600 52.78100 23.23700
C  18.76100 50.15500 23.44500
N  16.67700 51.57500 27.98400
C  17.53400 50.84800 28.79600
C  16.98300 50.78800 30.22200
C  15.74100 51.79500 30.23400
C  15.69000 52.19400 28.72700
C  14.44100 51.17100 30.82800
C  18.01700 51.31200 31.32100
C  17.74300 50.76300 32.72100
H  16.94400 51.60300 33.66500
N  15.12500 52.98200 25.73300
C  14.46100 53.51700 26.82900
C  13.32300 54.22300 26.39200
C  13.30000 54.20300 24.95500
C  14.41100 53.27000 24.55200
C  12.23800 54.71600 27.34800
C  12.54700 55.01200 23.92000
O  12.86600 54.98600 22.75200
C  11.40300 55.83100 24.44800
N  16.74600 51.56400 23.61100
C  15.80600 52.08900 22.84700
C  16.05300 51.63900 21.34200
C  17.51500 51.05300 21.37400
C  17.71400 50.90000 22.88600
C  15.04500 50.60300 20.77700
C  18.66500 51.80600 20.67300
C  19.90400 52.33300 21.36000
N  18.36200 50.41100 25.84500
C  19.05600 49.86700 24.78200
C  20.15900 49.03700 25.26300
C  20.04000 49.09000 26.63300
C  18.94300 49.96000 26.94000
C  21.17500 48.29800 24.39600
C  20.62500 48.65400 27.90300
O  21.62300 47.99000 28.12200
C  19.76300 49.30600 29.06500
C  19.36300 48.23300 30.06700
O  18.64100 47.33000 29.85400
O  19.97200 48.48200 31.28600
C  19.54500 47.56200 32.36000
H  14.17400 53.46400 29.01600
H  13.98400 52.87100 22.45000
H  19.51000 49.86000 22.70700
H  16.81300 49.72300 30.38500
H  15.90800 52.69100 30.83100
H  14.73400 50.32600 31.45200
H  13.74500 50.90000 30.03400
H  14.04200 51.87000 31.56300
H  18.10800 52.39700 31.36900
H  19.02500 50.89900 31.27300
H  18.70300 50.67400 33.23000
H  17.19300 49.82500 32.65900
H  11.39200 54.02800 27.36200
H  12.01200 55.77100 27.19500
H  12.56700 54.73400 28.38600
H  10.59600 56.11300 23.77200
H  11.67000 56.71300 25.03100
H  10.91700 55.26600 25.24400
H  16.02800 52.49200 20.66400
H  17.61200 50.03500 20.99800
H  14.08000 50.54000 21.28000
H  15.41900 49.59200 20.61800
H  14.85900 50.85200 19.73200
H  18.26200 52.65800 20.12600
H  19.12300 51.12500 19.95600
H  19.91400 52.24700 22.44600
H  20.00300 53.36700 21.03100
H  20.80100 51.81200 21.02500
H  20.68900 47.95800 23.48200
H  21.54200 47.40400 24.90100
H  22.06700 48.88300 24.16900
H  20.29500 50.10000 29.59100
H  18.73200 47.98100 32.95200
H  20.35900 47.51100 33.08300
H  19.33500 46.56500 31.97100

