158

Mg 46.74300 17.21600 28.05600
C  44.85400 16.56000 30.96800
C  49.00900 18.87600 29.94600
C  48.34000 18.14700 25.24000
C  44.21000 15.74900 26.06200
N  46.93400 17.71100 30.19100
C  46.09700 17.21600 31.19700
C  46.46500 17.76100 32.55000
C  47.82400 18.58900 32.22300
C  47.91000 18.40600 30.72700
C  47.79100 20.06500 32.82000
C  46.64800 16.65800 33.65200
C  45.98600 16.92400 34.98800
H  45.88500 18.31500 35.57900
N  48.37600 18.41500 27.66900
C  49.23700 18.86000 28.59400
C  50.37600 19.46700 27.91300
C  50.17300 19.40400 26.53400
C  48.95600 18.63300 26.42000
C  51.57400 19.98500 28.72400
C  50.93400 20.02500 25.35800
O  50.67900 19.78300 24.17500
C  51.97300 21.05300 25.71400
N  46.26000 17.06700 25.99300
C  47.21400 17.43500 25.08200
C  46.66400 17.16500 23.62800
C  45.57600 16.19100 23.92100
C  45.37700 16.28600 25.43500
C  46.34300 18.38000 22.78000
C  45.73500 14.72500 23.52500
C  44.86000 14.14400 22.43900
N  44.92200 16.21500 28.39500
C  43.94400 15.75700 27.50800
C  42.87000 15.22100 28.26100
C  43.16500 15.49900 29.64400
C  44.39000 16.10600 29.64300
C  41.76300 14.41400 27.72300
C  42.70800 15.33000 31.02100
O  41.71400 14.77300 31.42700
C  43.75100 16.04500 31.87900
C  42.97800 17.19700 32.48500
O  42.37400 18.08800 31.82700
O  42.94200 17.09600 33.80800
C  42.10000 18.12000 34.51500
H  49.69000 19.44600 30.58100
H  48.71200 18.46900 24.26500
H  43.34400 15.39400 25.50000
H  45.76500 18.45100 33.02200
H  48.73300 18.11500 32.59200
H  48.56200 20.18800 33.58100
H  46.81300 20.28500 33.24800
H  48.10200 20.71800 32.00400
H  47.71600 16.50800 33.81000
H  46.10600 15.74500 33.40700
H  46.55700 16.24200 35.61900
H  44.98200 16.49800 35.00700
H  51.38100 20.95900 29.17400
H  52.51100 20.07300 28.17500
H  51.76400 19.35200 29.59100
H  52.15800 21.77100 24.91500
H  52.90300 20.52500 25.92600
H  51.70300 21.67900 26.56400
H  47.56200 16.77000 23.15200
H  44.59400 16.44700 23.52400
H  47.28900 18.60500 22.28800
H  45.91400 19.17000 23.39700
H  45.71600 18.21100 21.90500
H  45.60100 13.98200 24.31200
H  46.77400 14.57500 23.23000
H  44.39500 13.25200 22.86000
H  45.48600 13.81800 21.60900
H  43.99900 14.77100 22.20500
H  40.97300 14.98500 27.23400
H  41.19700 13.92500 28.51600
H  42.14900 13.73500 26.96300
H  44.02800 15.34400 32.66600
H  42.54000 19.05800 34.17600
H  42.27900 18.02700 35.58600
H  41.09200 17.85600 34.19400
Mg -12.81200 16.68000 41.77100
C  -9.77200 15.03900 41.27300
C  -11.42300 19.60400 40.56900
C  -15.88300 17.94000 41.53700
C  -14.26300 13.50800 42.68500
N  -10.86600 17.16300 40.80700
C  -9.73100 16.36900 40.90200
C  -8.57100 17.22200 40.47100
C  -9.12400 18.62100 40.17600
C  -10.55300 18.51000 40.63400
C  -8.33800 19.79500 40.83200
C  -7.68900 16.55600 39.42300
C  -6.11900 16.48300 39.66400
H  -5.37500 15.34700 39.01900
N  -13.45400 18.53100 41.27000
C  -12.75700 19.59600 40.77700
C  -13.65500 20.70200 40.50900
C  -15.00000 20.31200 40.84500
C  -14.78900 18.83900 41.26100
C  -13.12600 22.02500 40.00100
C  -16.29300 21.21500 40.81800
O  -16.29800 22.35400 40.35700
C  -17.65300 20.75700 41.51800
N  -14.80200 15.79600 42.28100
C  -15.91300 16.57400 41.97400
C  -17.16500 15.71100 42.06600
C  -16.63300 14.36500 42.48000
C  -15.10500 14.52300 42.41000
C  -18.45900 16.36900 42.78700
C  -17.24900 13.25600 41.64800
C  -17.49600 11.84800 42.32200
N  -12.24500 14.76400 41.96300
C  -12.90100 13.59300 42.40100
C  -11.92200 12.59100 42.65200
C  -10.70300 13.13400 42.18100
C  -10.91500 14.37600 41.72300
C  -12.20100 11.12300 43.16600
C  -9.31300 12.76900 42.04300
O  -8.68400 11.73800 42.15400
C  -8.68000 14.02000 41.42300
C  -7.68900 14.45700 42.46900
O  -7.91600 15.14600 43.46500
O  -6.51500 13.85600 42.15100
C  -5.47500 13.93600 43.23900
H  -10.90700 20.47900 40.16800
H  -16.87600 18.30300 41.26800
H  -14.65000 12.53600 42.99700
H  -7.87600 17.44400 41.28100
H  -9.06300 18.96800 39.14400
H  -7.38200 19.51500 41.27400
H  -8.92700 20.29500 41.60000
H  -8.00300 20.45300 40.03000
H  -7.70300 17.14000 38.50300
H  -8.10800 15.59300 39.13400
H  -6.03400 16.32900 40.73900
H  -5.61900 17.41600 39.40600
H  -13.89000 22.73600 39.68500
H  -12.54900 21.73400 39.12300
H  -12.52900 22.42000 40.82300
H  -18.31600 21.49900 41.96300
H  -17.41000 20.13000 42.37500
H  -18.23500 20.26900 40.73600
H  -17.45300 15.58400 41.02200
H  -16.68100 14.19200 43.55500
H  -18.75500 15.86200 43.70500
H  -19.27600 16.25300 42.07500
H  -18.37900 17.44000 42.97300
H  -16.59600 13.09400 40.79000
H  -18.23700 13.53400 41.28000
H  -18.53400 11.69400 42.61500
H  -17.03400 11.81000 43.30900
H  -17.04000 11.13900 41.63100
H  -11.23600 10.66300 43.37700
H  -12.76100 10.51000 42.45900
H  -12.71500 11.09800 44.12600
H  -8.15300 13.66200 40.53900
H  -5.29800 14.98700 43.46500
H  -4.51200 13.66100 42.80800
H  -5.59400 13.34400 44.14600

