158

Mg -2.00000 17.22700 26.89700
C  -2.12800 15.01800 29.70000
C  -2.66300 19.81400 29.03300
C  -2.42300 19.20600 24.12800
C  -2.34800 14.34900 24.74300
N  -2.19300 17.33800 29.14500
C  -2.29700 16.37800 30.06500
C  -2.63500 16.92600 31.43900
C  -3.22000 18.37200 31.08600
C  -2.62700 18.53600 29.68200
C  -4.78900 18.50800 31.25300
C  -1.45100 17.08500 32.42900
C  -1.77700 17.27900 33.97200
H  -0.79400 16.80100 34.98100
N  -2.18100 19.29400 26.58500
C  -2.42200 20.13300 27.65200
C  -2.48000 21.46800 27.07800
C  -2.36900 21.35700 25.64900
C  -2.34600 19.89700 25.38000
C  -2.64600 22.66300 27.95900
C  -2.35000 22.39500 24.62300
O  -2.51100 22.13900 23.43200
C  -2.14300 23.83500 25.03500
N  -2.32400 16.84700 24.82900
C  -2.46500 17.86300 23.88400
C  -2.88200 17.23300 22.55100
C  -2.35100 15.75600 22.69800
C  -2.32500 15.63500 24.18300
C  -4.37000 17.47400 22.23700
C  -0.93000 15.43700 22.02100
C  -0.69300 14.04000 21.34100
N  -2.12200 15.09100 27.09100
C  -2.30100 14.07100 26.11300
C  -2.47100 12.78100 26.85800
C  -2.30500 13.08200 28.24600
C  -2.05600 14.51100 28.30800
C  -2.83500 11.41300 26.30500
C  -2.27100 12.47100 29.56900
O  -2.31900 11.31800 29.96500
C  -2.17200 13.70100 30.54000
C  -1.09400 13.60500 31.50600
O  0.10700 13.69200 31.22500
O  -1.61400 13.35500 32.71000
C  -0.63200 13.25000 33.79800
H  -2.81800 20.60700 29.76700
H  -2.60400 19.88400 23.29100
H  -2.43200 13.50300 24.05800
H  -3.35500 16.29600 31.96200
H  -2.86100 19.20800 31.68600
H  -5.32500 18.48500 30.30400
H  -4.90700 19.48000 31.73300
H  -5.25600 17.68200 31.78900
H  -0.98500 18.05500 32.25200
H  -0.66500 16.34000 32.30800
H  -2.77400 16.84400 34.05000
H  -1.83000 18.34600 34.19000
H  -2.41700 22.53200 29.01700
H  -3.62700 23.12100 27.83600
H  -2.06500 23.48300 27.53700
H  -1.15500 24.09200 25.41600
H  -2.94200 24.20500 25.67700
H  -2.19800 24.44100 24.13100
H  -2.35300 17.72200 21.73200
H  -3.05600 15.06400 22.23700
H  -4.76900 18.13000 23.01000
H  -4.87600 16.51100 22.18000
H  -4.56700 18.05400 21.33500
H  -0.16200 15.52600 22.78900
H  -0.80300 16.28200 21.34400
H  0.00800 14.06900 20.50700
H  -1.59600 13.64800 20.87200
H  -0.33500 13.28300 22.03900
H  -2.45600 11.40400 25.28300
H  -3.90500 11.25800 26.16300
H  -2.38700 10.65500 26.94700
H  -3.08500 13.73500 31.13500
H  -1.14100 12.81100 34.65600
H  -0.16300 14.17600 34.13100
H  0.05700 12.49800 33.41400
Mg 46.63100 44.88300 44.83500
C  43.18500 44.77800 44.03300
C  46.93000 41.48200 44.24100
C  49.96900 45.23900 44.89200
C  46.24100 48.36200 45.16800
N  45.29200 43.40500 44.12800
C  43.88200 43.55700 43.83200
C  43.27400 42.25200 43.22800
C  44.40900 41.20000 43.60500
C  45.66000 42.06700 44.09200
C  44.09600 39.99900 44.64100
C  43.25800 42.44300 41.75200
C  41.89100 42.15300 41.09100
H  41.76000 41.29500 39.85800
N  48.23400 43.48700 44.77900
C  48.12800 42.15900 44.56700
C  49.44300 41.59800 44.35600
C  50.41100 42.63800 44.49300
C  49.53600 43.88900 44.80500
C  49.73500 40.12100 44.08400
C  51.89000 42.49000 44.43200
O  52.33500 41.36700 44.26400
C  52.83600 43.64900 44.57800
N  47.92000 46.54800 44.77300
C  49.28200 46.44700 44.83400
C  49.95300 47.82500 44.92500
C  48.76800 48.72400 45.34300
C  47.55800 47.86200 45.09700
C  51.22800 47.98300 45.87100
C  48.74500 50.14800 44.62900
C  48.74500 51.40500 45.47900
N  45.08400 46.30800 44.72400
C  45.00500 47.69900 44.92400
C  43.63200 48.18800 44.75600
C  42.90500 47.07800 44.36700
C  43.80400 45.96900 44.38300
C  43.14400 49.68600 44.73400
C  41.55900 46.58200 43.98300
O  40.41000 47.11500 43.97200
C  41.70600 44.99300 43.81300
C  40.84700 44.29300 44.76900
O  39.85100 43.63800 44.48300
O  41.29700 44.40000 46.08600
C  40.47600 43.63400 47.03900
H  46.97200 40.42500 43.96900
H  51.04100 45.44000 44.93000
H  46.26400 49.42200 45.43100
H  42.36100 42.13900 43.81300
H  44.66900 40.63200 42.71200
H  44.50000 39.06200 44.25700
H  43.04700 39.98400 44.93700
H  44.72300 40.17300 45.51600
H  44.04100 41.86400 41.26300
H  43.54000 43.46600 41.50200
H  41.44300 43.11300 40.83400
H  41.19400 41.52500 41.64600
H  48.80200 39.56600 43.98700
H  50.31600 39.66700 44.88700
H  50.26300 39.97100 43.14300
H  52.60300 43.99900 45.58400
H  52.61000 44.37000 43.79200
H  53.86600 43.29500 44.61500
H  50.24400 48.11500 43.91600
H  48.79200 48.81200 46.42900
H  52.18000 47.95300 45.34000
H  51.25200 47.26400 46.69000
H  51.29800 48.96800 46.33200
H  47.87900 50.27300 43.97800
H  49.64700 50.09200 44.02000
H  49.53200 52.12300 45.24800
H  48.83800 51.10400 46.52300
H  47.77700 51.90100 45.41200
H  42.45300 49.91600 43.92400
H  44.11600 50.17700 44.67200
H  42.59700 49.85600 45.66200
H  41.31800 44.78100 42.81600
H  40.97400 42.67200 47.16200
H  39.46700 43.29200 46.80900
H  40.40500 44.19200 47.97200

