158

Mg 53.88800 24.07100 46.21200
C  51.19300 26.08000 45.01100
C  52.01700 21.28000 45.03500
C  56.50600 22.22600 46.68700
C  55.64300 26.97400 46.91800
N  51.81500 23.79700 45.14400
C  50.93800 24.76400 44.76700
C  49.71500 24.14600 44.08000
C  49.79300 22.71600 44.69500
C  51.31200 22.57300 44.94000
C  49.08900 22.51900 46.04800
C  49.73700 24.13600 42.47900
C  48.40800 24.70800 41.96500
H  47.96900 24.43700 40.47500
N  54.26800 22.03900 45.93800
C  53.34900 21.12500 45.31500
C  54.08900 19.86300 45.25000
C  55.35300 20.07300 45.81900
C  55.44800 21.45600 46.21400
C  53.47200 18.61300 44.58900
C  56.37100 18.95700 46.01500
O  56.24600 17.80800 45.53100
C  57.55100 19.13500 46.90000
N  55.75700 24.53300 46.70400
C  56.70700 23.55600 46.95300
C  58.01700 24.05100 47.52300
C  57.73000 25.63100 47.55000
C  56.27900 25.74100 47.08500
C  58.52800 23.41600 48.80300
C  58.66700 26.51900 46.68900
C  59.15400 27.87300 47.24800
N  53.48200 26.09800 46.13100
C  54.30000 27.12700 46.49700
C  53.52600 28.35300 46.48800
C  52.37000 28.05800 45.80600
C  52.31400 26.67500 45.64900
C  53.80600 29.64000 47.24600
C  51.05600 28.56500 45.36200
O  50.56100 29.68000 45.43900
C  50.36300 27.35100 44.67200
C  50.35400 27.65400 43.21700
O  51.22500 27.44600 42.39400
O  49.09500 27.97000 42.84900
C  48.87000 28.28100 41.46900
H  51.31100 20.45600 44.91300
H  57.44400 21.69300 46.85700
H  56.13700 27.91700 47.16300
H  48.78100 24.58400 44.43100
H  49.49700 21.89100 44.04600
H  48.41900 21.65900 46.05200
H  48.45600 23.36500 46.31400
H  49.82100 22.33300 46.83400
H  49.80300 23.07800 42.22500
H  50.53800 24.75300 42.07100
H  48.40100 25.76900 42.21300
H  47.54600 24.26800 42.46700
H  54.07700 18.31100 43.73500
H  52.50000 18.86700 44.16600
H  53.29100 17.86900 45.36500
H  57.43000 19.88600 47.68100
H  58.37400 19.40300 46.23600
H  57.66200 18.16300 47.37900
H  58.80500 23.88400 46.78800
H  57.85600 25.92200 48.59300
H  57.95100 22.51000 48.98700
H  58.40300 24.00300 49.71300
H  59.58900 23.21200 48.65300
H  58.04100 26.92100 45.89200
H  59.52800 25.94200 46.35200
H  60.24100 27.87100 47.16000
H  58.98800 27.95000 48.32300
H  58.60000 28.70800 46.82100
H  52.84000 30.14300 47.28200
H  54.47300 30.21100 46.60000
H  54.27900 29.51200 48.21900
H  49.34100 27.31100 45.05100
H  49.61800 28.12900 40.69100
H  48.61500 29.34100 41.44000
H  47.98200 27.67000 41.30900
Mg -11.41400 15.98600 43.74800
C  -7.91400 16.60300 43.60100
C  -12.05400 19.18600 42.85200
C  -14.61600 15.08200 43.90800
C  -10.52900 12.49300 44.09300
N  -10.12100 17.62800 43.24100
C  -8.73300 17.71100 43.18400
C  -8.21900 19.14700 42.74500
C  -9.52800 19.99300 42.85100
C  -10.68200 18.85600 42.94400
C  -9.46300 20.87600 44.12400
C  -7.49600 19.01600 41.37000
C  -6.02700 19.49400 41.26300
H  -5.06400 18.76800 40.35000
N  -13.07200 16.94800 43.36500
C  -13.15000 18.30700 42.92000
C  -14.50700 18.59700 42.70000
C  -15.33800 17.40100 42.94300
C  -14.32400 16.37800 43.37600
C  -14.97700 19.94400 42.26600
C  -16.81600 17.27200 42.74400
O  -17.36300 18.32900 42.34300
C  -17.59000 16.04000 43.03300
N  -12.51100 14.00700 43.91900
C  -13.87500 14.02900 44.21400
C  -14.27600 12.63600 44.68600
C  -13.04200 11.68300 44.49800
C  -11.97900 12.73900 44.17900
C  -14.98200 12.60700 46.06600
C  -13.19400 10.50300 43.46000
C  -12.41700 9.25500 43.96200
N  -9.69500 14.74500 43.99300
C  -9.50200 13.38300 44.06800
C  -8.05800 13.10600 44.28000
C  -7.43000 14.33700 44.06300
C  -8.45800 15.32000 43.89600
C  -7.45900 11.77900 44.59400
C  -6.12500 15.02300 43.90600
O  -4.97100 14.56800 43.94400
C  -6.39500 16.51400 43.74800
C  -6.02100 17.27500 45.01300
O  -6.38400 17.08700 46.15800
O  -5.06500 18.19500 44.56500
C  -4.64500 19.23300 45.61300
H  -12.22200 20.25500 42.70700
H  -15.65000 14.96800 44.24200
H  -10.20800 11.44900 44.06800
H  -7.48000 19.40600 43.50300
H  -9.66000 20.64000 41.98300
H  -9.93200 20.38800 44.97900
H  -10.01400 21.80900 44.01000
H  -8.42900 21.07800 44.40200
H  -8.13200 19.60500 40.71000
H  -7.41900 17.96400 41.09400
H  -5.65100 19.74000 42.25700
H  -6.12600 20.48900 40.83100
H  -15.49200 19.92000 41.30500
H  -14.14900 20.64000 42.13000
H  -15.66300 20.28100 43.04300
H  -18.60400 16.20000 42.66800
H  -17.69900 15.85100 44.10100
H  -17.07200 15.21500 42.54300
H  -14.99200 12.35000 43.91500
H  -12.72000 11.28300 45.46000
H  -15.11000 13.63700 46.39900
H  -14.45500 12.04700 46.83900
H  -15.91900 12.06600 45.93100
H  -13.01800 10.79400 42.42400
H  -14.23400 10.17700 43.44600
H  -13.15900 8.67200 44.50800
H  -11.46100 9.44200 44.45100
H  -12.17100 8.71200 43.04900
H  -6.40800 11.80000 44.87800
H  -7.66500 10.95100 43.91500
H  -8.00500 11.40200 45.45900
H  -5.90600 16.89700 42.85300
H  -5.50400 19.43100 46.25400
H  -4.17800 20.08600 45.12200
H  -3.83400 18.83300 46.22100

