158

Mg 25.67200 1.32900 29.27200
C  27.76600 0.80700 32.04200
C  23.04700 1.70700 31.38000
C  23.80400 1.44500 26.58000
C  28.40600 0.30200 27.24200
N  25.47400 1.31000 31.40500
C  26.48500 1.22900 32.32800
C  25.96000 1.58400 33.68200
C  24.38300 1.47500 33.54000
C  24.24100 1.51300 32.03300
C  23.68200 0.19700 34.21600
C  26.42300 2.96100 34.19600
C  27.50500 3.03300 35.31400
H  27.16100 3.80100 36.59200
N  23.61600 1.57500 29.04000
C  22.71700 1.73600 30.00900
C  21.41300 2.02400 29.36800
C  21.71100 2.03700 27.94500
C  23.06500 1.71900 27.76400
C  20.18500 2.37700 30.11600
C  20.70300 2.27300 26.84300
O  20.97200 2.41600 25.62500
C  19.24100 2.35700 27.15000
N  25.92000 0.56700 27.35300
C  25.05000 0.88700 26.43700
C  25.52200 0.64600 24.99300
C  27.09600 0.57300 25.15800
C  27.12000 0.45900 26.71000
C  24.84600 -0.55000 24.43700
C  27.78100 1.90600 24.72800
C  29.04600 1.66400 23.83900
N  27.69900 0.61100 29.46900
C  28.74000 0.32400 28.58700
C  29.95300 0.06300 29.24100
C  29.62300 0.21900 30.64600
C  28.24000 0.53400 30.68100
C  31.26400 -0.24000 28.61100
C  30.20300 0.17400 31.95700
O  31.30700 -0.10100 32.38200
C  28.98300 0.65000 32.95700
C  28.90600 -0.27000 34.16600
O  28.28300 -1.28500 34.21900
O  29.56100 0.29600 35.18700
C  29.38800 -0.41700 36.43700
H  22.22300 1.91400 32.06600
H  23.26700 1.47700 25.63000
H  29.28500 0.20100 26.60200
H  26.28300 0.85000 34.42100
H  24.02000 2.37900 34.02900
H  22.97900 0.61500 34.93800
H  24.37700 -0.44100 34.76200
H  23.29300 -0.48500 33.46000
H  25.61100 3.64900 34.43300
H  26.78000 3.50000 33.31900
H  28.36800 3.55600 34.90300
H  27.78000 2.01100 35.57600
H  19.68100 3.24600 29.69300
H  20.35200 2.65400 31.15700
H  19.41300 1.60900 30.05900
H  18.88600 1.49900 27.72100
H  18.69900 2.49300 26.21400
H  19.17100 3.30100 27.69100
H  25.27800 1.58800 24.50200
H  27.57500 -0.33500 24.79100
H  24.80400 -1.32300 25.20400
H  25.29300 -1.05500 23.58000
H  23.84300 -0.23400 24.15200
H  28.14500 2.57000 25.51300
H  27.14500 2.44300 24.02400
H  29.84700 2.33000 24.16000
H  28.81300 1.76100 22.77900
H  29.45600 0.65700 23.92200
H  31.09000 -0.97500 27.82500
H  31.91200 -0.74200 29.32800
H  31.70900 0.63300 28.13400
H  29.24200 1.61300 33.39700
H  29.69100 -1.46400 36.39600
H  28.33700 -0.35400 36.71700
H  29.92200 0.05000 37.26400
Mg -2.54900 34.67300 26.61700
C  -4.39100 33.45200 29.19900
C  -1.41500 37.27100 28.62400
C  -0.94200 36.04100 23.96200
C  -4.00100 32.30000 24.43200
N  -2.96300 35.25500 28.61100
C  -3.59700 34.54800 29.53800
C  -3.27300 35.05000 30.92600
C  -2.63000 36.48100 30.63300
C  -2.29800 36.31200 29.21800
C  -3.55800 37.71000 30.89400
C  -2.41000 34.15100 31.86000
C  -3.10000 33.81900 33.20600
H  -2.90700 34.85000 34.32300
N  -1.29600 36.35800 26.31300
C  -0.89800 37.23900 27.28800
C  -0.00100 38.17900 26.74500
C  0.15600 37.93000 25.34600
C  -0.69500 36.73200 25.15300
C  0.58700 39.42800 27.50000
C  0.85700 38.65200 24.28700
O  0.81500 38.34400 23.10400
C  1.78700 39.81200 24.58300
N  -2.52800 34.23200 24.42300
C  -1.76600 34.95100 23.55500
C  -1.85700 34.42600 22.11800
C  -2.59900 33.03100 22.31500
C  -3.08300 33.16900 23.84400
C  -2.40200 35.47700 21.13700
C  -1.83000 31.68200 22.05700
C  -2.74100 30.58700 21.57900
N  -3.88800 33.11800 26.77000
C  -4.35000 32.22000 25.85000
C  -5.23600 31.28700 26.49900
C  -5.35100 31.72500 27.83300
C  -4.41100 32.81800 27.91000
C  -5.95100 30.01900 25.93500
C  -5.95000 31.57800 29.18400
O  -6.85200 30.83100 29.48800
C  -5.17900 32.54100 30.12300
C  -6.09700 33.38800 30.99500
O  -6.76700 34.43000 30.73300
O  -6.33900 32.53900 32.10200
C  -7.34400 32.96600 33.08100
H  -1.03900 37.97800 29.36700
H  -0.29300 36.37400 23.14900
H  -4.36200 31.45000 23.84900
H  -4.21400 35.32100 31.40400
H  -1.71600 36.62700 31.21000
H  -3.89800 38.10500 29.93600
H  -3.04100 38.52300 31.40500
H  -4.49800 37.47600 31.39300
H  -1.40700 34.53500 32.04400
H  -2.32800 33.18900 31.35400
H  -2.77500 32.82000 33.49700
H  -4.13800 33.58700 32.96900
H  0.31200 39.61200 28.53800
H  0.06200 40.21900 26.96400
H  1.67100 39.49700 27.40700
H  1.18300 40.61500 25.00400
H  2.08200 40.07400 23.56700
H  2.65200 39.47700 25.15600
H  -0.78600 34.30600 21.95300
H  -3.49100 33.06400 21.69000
H  -1.56100 35.51800 20.44400
H  -2.73200 36.38000 21.65100
H  -3.27800 35.12800 20.59000
H  -1.40000 31.33400 22.99700
H  -0.99800 31.85800 21.37600
H  -2.37000 30.10000 20.67700
H  -3.78300 30.83800 21.38200
H  -2.85500 29.96400 22.46600
H  -5.19800 29.23300 25.88500
H  -6.20400 30.18100 24.88800
H  -6.74800 29.70800 26.61100
H  -4.47800 31.98400 30.74400
H  -8.13900 32.99200 32.33600
H  -7.09100 33.95800 33.45300
H  -7.64600 32.29500 33.88500

