158

Mg 46.93900 34.74800 27.73200
C  45.47200 33.11000 30.48600
C  46.94500 37.50400 29.72400
C  47.83300 36.34100 25.12000
C  46.31200 31.79900 25.81100
N  46.28800 35.21400 29.94500
C  45.86300 34.36900 30.89200
C  45.97700 34.96800 32.27500
C  46.03000 36.46000 31.90700
C  46.41800 36.44300 30.41600
C  44.78900 37.35600 32.16600
C  47.22000 34.52600 33.04300
C  46.98600 34.39800 34.61300
H  45.87800 35.11900 35.36600
N  47.50600 36.57100 27.50100
C  47.54000 37.59200 28.44200
C  48.23700 38.74900 27.86400
C  48.41000 38.42200 26.48000
C  47.91200 37.09200 26.30300
C  48.61600 40.05300 28.63900
C  49.03400 39.33100 25.45900
O  49.15300 39.00300 24.28600
C  49.55900 40.74500 25.83600
N  47.09800 34.11400 25.75200
C  47.49900 35.01000 24.81700
C  47.58900 34.33600 23.44300
C  47.31400 32.83000 23.76300
C  46.92200 32.87000 25.19500
C  46.78800 35.06300 22.35300
C  48.36900 31.64400 23.55300
C  47.78000 30.35000 23.00300
N  46.14600 32.78100 28.02100
C  45.92900 31.70500 27.17600
C  45.31000 30.59000 27.85500
C  45.06300 31.12600 29.14900
C  45.66400 32.41100 29.22700
C  45.14200 29.18100 27.31700
C  44.48900 30.90300 30.47500
O  43.81100 29.98500 30.81200
C  44.55400 32.17100 31.30300
C  44.92200 31.71700 32.75800
O  46.00000 31.25500 33.10100
O  43.67200 31.54200 33.42300
C  43.87900 30.88400 34.69800
H  46.85800 38.43400 30.29000
H  48.08600 36.88200 24.20500
H  46.05600 30.94700 25.17900
H  45.08100 34.76300 32.86100
H  46.82400 36.89900 32.51100
H  44.68000 38.08500 31.36400
H  44.86600 37.85100 33.13400
H  43.86300 36.78200 32.21000
H  48.06400 35.18700 32.84700
H  47.44800 33.50500 32.74000
H  47.88200 34.53900 35.21700
H  46.84600 33.32400 34.73300
H  47.94000 40.89600 28.49800
H  49.62300 40.42200 28.44400
H  48.52300 39.90200 29.71500
H  50.35600 40.79400 26.57800
H  48.72600 41.40400 26.08400
H  49.97400 41.23200 24.95400
H  48.62100 34.44400 23.10900
H  46.44100 32.45200 23.23000
H  46.21000 35.87200 22.79800
H  46.17600 34.40900 21.73200
H  47.40400 35.53700 21.58900
H  48.86500 31.30100 24.46100
H  49.13600 32.08000 22.91300
H  48.36400 30.18900 22.09700
H  46.70100 30.26000 22.88500
H  47.92600 29.57300 23.75400
H  45.30000 28.40000 28.06000
H  45.88400 29.01400 26.53600
H  44.16100 28.95300 26.90000
H  43.52700 32.53500 31.31500
H  42.89800 30.82900 35.16800
H  44.51500 31.50500 35.32900
H  44.37800 29.92500 34.83500
Mg 16.24400 51.50700 26.02800
C  18.34600 50.48400 28.62800
C  13.72200 52.06800 28.45300
C  14.18300 52.38300 23.47900
C  18.63000 50.61600 23.67700
N  16.03400 51.33900 28.25700
C  17.12500 51.10300 29.09100
C  16.72300 51.33200 30.59200
C  15.19000 51.47100 30.47100
C  14.96300 51.63000 28.97100
C  14.39300 50.23000 30.94100
C  17.47000 52.54300 31.15900
C  17.34400 52.82000 32.72000
H  16.37600 51.90400 33.54400
N  14.22900 52.02800 25.94100
C  13.40100 52.30100 27.04100
C  12.05900 52.52500 26.50000
C  12.10800 52.47900 25.03300
C  13.54700 52.23500 24.73800
C  10.79400 52.73300 27.26400
C  11.01100 52.56000 23.93900
O  11.32500 52.52800 22.75500
C  9.59600 52.71300 24.29400
N  16.37300 51.70400 23.97700
C  15.44700 52.19400 23.11600
C  16.00500 52.26600 21.69700
C  17.44900 51.84700 21.88800
C  17.48400 51.31700 23.33700
C  15.10300 51.60500 20.62100
C  18.58400 52.89900 21.56900
C  19.00300 53.00900 20.10500
N  18.10800 50.70300 26.10300
C  18.95100 50.27800 25.02100
C  20.11800 49.56600 25.61800
C  19.94100 49.57300 27.00600
C  18.68000 50.28200 27.23700
C  21.23600 49.02300 24.81000
C  20.44000 49.28300 28.33500
O  21.47000 48.63200 28.66200
C  19.40700 49.81700 29.46400
C  19.02700 48.62200 30.30600
O  18.71300 47.49900 29.92100
O  19.26200 48.96500 31.63500
C  18.96900 47.95400 32.67500
H  12.93400 52.20000 29.19600
H  13.58600 52.73300 22.63400
H  19.41400 50.44900 22.93600
H  17.17200 50.47800 31.09900
H  14.81100 52.30500 31.06100
H  14.00000 49.68100 30.08500
H  13.48100 50.48900 31.47900
H  14.92100 49.57800 31.63700
H  17.02100 53.36600 30.60300
H  18.48800 52.51800 30.76900
H  17.14400 53.88400 32.84400
H  18.35300 52.65800 33.10100
H  10.09200 51.97200 26.92300
H  10.35400 53.68000 26.95100
H  10.98800 52.57900 28.32600
H  9.01200 52.68600 23.37300
H  9.50100 53.71500 24.71200
H  9.19700 51.94900 24.96100
H  15.95700 53.31100 21.39000
H  17.50900 51.02900 21.17000
H  14.39800 50.88000 21.02800
H  15.76200 51.14800 19.88200
H  14.56000 52.45700 20.21200
H  19.37700 52.77900 22.30700
H  18.09100 53.86100 21.71000
H  18.31300 52.39800 19.52300
H  20.04100 52.67600 20.12700
H  18.94400 54.03900 19.75300
H  22.15900 49.59800 24.88100
H  21.06400 49.12000 23.73800
H  21.50500 48.02300 25.15100
H  19.80200 50.54200 30.17500
H  18.25500 47.18700 32.37200
H  18.44100 48.45600 33.48600
H  19.89000 47.45900 32.98100

