158

Mg 7.34700 1.62300 27.49600
C  8.75800 0.16300 30.59600
C  5.51200 3.54300 29.56100
C  5.72700 2.42100 24.91400
C  9.08300 -1.02500 25.90800
N  7.25600 1.77400 29.83500
C  7.92600 1.24800 30.86500
C  7.58600 1.86400 32.22900
C  6.47400 2.88000 31.79600
C  6.35700 2.72900 30.30800
C  5.11100 2.65500 32.45700
C  8.82100 2.60000 32.94300
C  8.48900 3.03400 34.42100
H  9.45300 2.54800 35.50200
N  5.89500 2.96800 27.20400
C  5.23200 3.67000 28.18100
C  4.24700 4.53700 27.51000
C  4.34800 4.26500 26.12700
C  5.29200 3.13900 26.02000
C  3.31200 5.58100 28.21500
C  3.57700 4.86600 24.99200
O  3.73200 4.45300 23.82400
C  2.57200 5.93100 25.28100
N  7.17600 0.62200 25.70700
C  6.57800 1.35700 24.72800
C  6.94100 0.65200 23.37400
C  8.09200 -0.31700 23.69200
C  8.20200 -0.21200 25.19500
C  5.74900 -0.10600 22.76600
C  9.48100 -0.05100 23.02900
C  10.43000 0.99500 23.71000
N  8.70700 -0.10100 28.01500
C  9.28800 -1.05800 27.25400
C  10.09300 -1.96900 28.10200
C  9.90700 -1.47700 29.43800
C  9.00600 -0.39500 29.27400
C  10.92900 -3.13600 27.53800
C  10.29000 -1.65100 30.80600
O  11.07800 -2.43100 31.32100
C  9.54700 -0.59100 31.58500
C  8.77100 -1.25700 32.69300
O  7.68700 -1.87200 32.63000
O  9.44500 -1.08900 33.91300
C  9.13800 -1.75900 35.15000
H  4.89800 4.23100 30.14600
H  5.21900 2.75900 24.00900
H  9.46600 -1.80100 25.24200
H  7.16500 1.07300 32.84900
H  6.81600 3.90900 31.90300
H  5.38200 2.20100 33.41000
H  4.51300 2.00600 31.81600
H  4.44600 3.51600 32.52700
H  9.02000 3.46600 32.31200
H  9.76700 2.06300 32.87400
H  7.47400 2.64400 34.48400
H  8.39800 4.12000 34.38000
H  3.66800 5.60500 29.24500
H  2.27100 5.25900 28.22900
H  3.63100 6.55900 27.85500
H  3.06700 6.78800 25.73800
H  1.82500 5.47800 25.93200
H  2.15600 6.19800 24.30900
H  7.32200 1.36000 22.63800
H  7.75100 -1.30000 23.36800
H  4.93800 -0.09300 23.49400
H  5.93100 -1.10900 22.38000
H  5.40800 0.40900 21.86700
H  9.34400 0.27300 21.99800
H  9.98000 -1.01600 22.93700
H  9.90500 1.50700 24.51600
H  10.70900 1.79800 23.02800
H  11.37000 0.50600 23.96900
H  11.27200 -2.93500 26.52400
H  10.49900 -4.13700 27.54200
H  11.81600 -3.16000 28.17000
H  10.29400 -0.01800 32.13300
H  8.43600 -2.56200 34.92400
H  8.70700 -1.03600 35.84300
H  10.00800 -2.14400 35.68200
Mg 9.96900 47.78400 26.05000
C  8.20900 47.67400 28.88500
C  12.48400 49.30700 27.76400
C  11.85000 47.74500 23.21100
C  7.30800 46.49300 24.27500
N  10.17000 48.46600 28.04200
C  9.42500 48.21800 29.09200
C  9.92800 48.77200 30.38700
C  11.06500 49.65200 29.87600
C  11.29200 49.08000 28.45000
C  10.82000 51.21100 29.86200
C  10.36700 47.74500 31.49500
C  9.79100 47.72400 32.90900
H  9.77200 46.36800 33.65100
N  11.89500 48.37500 25.55700
C  12.83500 48.85600 26.42500
C  14.07600 48.94500 25.77000
C  13.98000 48.35700 24.45300
C  12.53000 48.13400 24.34700
C  15.38900 49.46800 26.43900
C  15.03300 48.06300 23.28000
O  14.71700 47.74600 22.15100
C  16.45900 48.29400 23.51900
N  9.50400 47.59600 23.96100
C  10.47300 47.46800 23.04700
C  9.94100 47.28400 21.59700
C  8.59600 46.51200 21.93400
C  8.42500 46.82700 23.47700
C  9.77800 48.61500 20.87600
C  8.75400 45.06500 21.50200
C  9.94200 44.34500 22.21100
N  8.07700 47.33700 26.44200
C  7.09400 46.82300 25.64000
C  5.87400 46.66000 26.29700
C  6.24400 46.93300 27.65500
C  7.60300 47.30300 27.65400
C  4.51400 46.24800 25.84400
C  5.79500 47.05300 29.03100
O  4.67100 46.94500 29.53400
C  7.11400 47.35000 29.89200
C  7.39800 46.06100 30.59600
O  8.12600 45.19000 30.16500
O  6.75600 46.01200 31.83700
C  6.89500 44.77300 32.57000
H  13.21500 49.81200 28.39800
H  12.42000 47.69900 22.28100
H  6.50800 45.99800 23.72000
H  9.13700 49.39200 30.81000
H  12.00200 49.44700 30.39300
H  9.89000 51.39600 30.40000
H  10.76900 51.61000 28.84900
H  11.64400 51.72200 30.36000
H  11.45300 47.76200 31.58300
H  10.17000 46.82300 30.94700
H  8.83600 48.25000 32.92700
H  10.48800 48.32200 33.49600
H  15.10600 49.67500 27.47100
H  15.85200 50.31200 25.92800
H  16.11100 48.65200 26.47900
H  17.07100 48.36900 22.62000
H  16.85400 47.54200 24.20200
H  16.47900 49.26800 24.00800
H  10.60300 46.68800 20.97000
H  7.68800 46.93300 21.50100
H  10.29700 49.36700 21.47000
H  8.76000 48.96600 20.70600
H  10.22900 48.52100 19.88800
H  8.98900 45.00300 20.43900
H  7.81900 44.56500 21.75500
H  10.42100 43.62300 21.55000
H  9.50100 43.79200 23.04000
H  10.75000 44.97900 22.57700
H  3.73900 46.76000 26.41400
H  4.37100 45.18100 26.02000
H  4.38000 46.50400 24.79300
H  6.89200 48.14400 30.60600
H  7.01600 45.04100 33.61900
H  7.67000 44.08400 32.23200
H  5.92700 44.32000 32.35500

