158

Mg 17.61000 51.49000 25.74000
C  19.38900 50.14800 28.40100
C  15.22100 52.46700 28.00600
C  15.89000 52.79700 23.15500
C  19.80000 50.06500 23.46300
N  17.44400 51.50600 28.04100
C  18.30400 50.88100 28.90000
C  17.75400 50.85500 30.30800
C  16.34400 51.59800 30.17200
C  16.25200 51.82300 28.63200
C  15.14300 50.74800 30.57500
C  18.65000 51.54200 31.39500
C  18.45800 51.06200 32.83800
H  17.50400 51.78100 33.84800
N  15.89300 52.43200 25.61800
C  15.03000 52.72500 26.60500
C  13.83000 53.33900 26.11400
C  13.99800 53.54300 24.64300
C  15.30100 52.93700 24.42400
C  12.76500 53.80700 27.02200
C  13.09600 54.24600 23.60800
O  13.24300 54.31100 22.38600
C  11.90100 54.85800 24.20700
N  17.73300 51.31000 23.59900
C  16.97100 52.00700 22.73400
C  17.27900 51.75000 21.20700
C  18.59400 50.99000 21.39200
C  18.79900 50.79200 22.90700
C  16.15400 51.07700 20.33500
C  19.85800 51.67500 20.73600
C  20.83200 52.60800 21.52600
N  19.18300 50.32600 25.83200
C  20.01400 49.73800 24.84800
C  21.03600 48.99100 25.52400
C  20.80600 49.10100 26.90800
C  19.73100 49.92700 27.02500
C  22.14400 48.29100 24.81600
C  21.29100 48.70700 28.16800
O  22.23000 48.00300 28.47900
C  20.35500 49.41000 29.22700
C  19.88500 48.38500 30.12200
O  19.18400 47.39000 29.87200
O  20.51400 48.55800 31.36300
C  20.24400 47.57500 32.43100
H  14.42500 52.77900 28.68600
H  15.36800 53.14300 22.26000
H  20.40500 49.51400 22.74000
H  17.61100 49.80200 30.55400
H  16.21600 52.56300 30.66300
H  14.28600 50.94300 29.93100
H  14.76000 50.80500 31.59400
H  15.20600 49.74500 30.15200
H  18.34200 52.58600 31.44100
H  19.70100 51.39600 31.14600
H  19.48700 51.08400 33.19500
H  18.20500 50.00500 32.75300
H  11.74800 53.64500 26.66500
H  13.00700 54.86300 27.14400
H  12.73100 53.19700 27.92500
H  11.36500 55.38700 23.41900
H  12.19800 55.49500 25.04000
H  11.07500 54.19500 24.46400
H  17.58000 52.68200 20.72800
H  18.42700 49.99500 20.98200
H  16.55800 50.46600 19.52900
H  15.61700 51.91500 19.88900
H  15.60900 50.43600 21.02800
H  19.58800 52.20900 19.82500
H  20.46200 50.86900 20.31900
H  21.76700 52.12100 21.80100
H  20.32800 52.91000 22.44400
H  21.05400 53.44400 20.86300
H  22.83400 49.06400 24.47900
H  21.73900 47.95800 23.86100
H  22.66400 47.51200 25.37200
H  20.96400 50.06500 29.84900
H  19.90600 46.62400 32.02100
H  19.54200 47.80600 33.23300
H  21.23700 47.51300 32.87700
Mg -13.03000 39.06300 41.59900
C  -11.43500 36.11500 40.25400
C  -10.53400 40.94900 40.07000
C  -14.94000 41.84700 42.07800
C  -15.71900 37.05300 42.41500
N  -11.16000 38.52900 40.23000
C  -10.73100 37.30700 39.82300
C  -9.38300 37.39200 39.04200
C  -9.22800 38.95500 38.86500
C  -10.45700 39.56500 39.71400
C  -7.84900 39.44300 39.34600
C  -9.28300 36.57600 37.64400
C  -8.09700 35.60000 37.57100
H  -7.01400 36.00100 36.60800
N  -12.69500 41.10100 41.33000
C  -11.62100 41.68800 40.70200
C  -11.75200 43.15200 40.73900
C  -12.94200 43.44300 41.40700
C  -13.57800 42.11500 41.65500
C  -10.73900 44.18800 40.13800
C  -13.38900 44.83700 41.74100
O  -12.65900 45.77100 41.50700
C  -14.80700 45.21500 42.28900
N  -15.06700 39.33600 42.10200
C  -15.62600 40.63000 42.26500
C  -17.11800 40.52900 42.64400
C  -17.22600 39.07100 43.07300
C  -15.95800 38.42400 42.47700
C  -17.67900 41.52100 43.68300
C  -18.56000 38.34700 42.62800
C  -19.25300 37.39600 43.58500
N  -13.52300 36.98200 41.43100
C  -14.61700 36.28500 41.88200
C  -14.42300 34.90300 41.84800
C  -13.21700 34.75500 41.13900
C  -12.72200 36.06300 40.92200
C  -15.24800 33.85500 42.47100
C  -12.20500 33.82500 40.67900
O  -12.03500 32.60300 40.73600
C  -11.05500 34.67700 40.06800
C  -9.84800 34.32700 40.88800
O  -8.86000 33.74600 40.51500
O  -10.01000 34.76700 42.25100
C  -8.90400 34.57900 43.19100
H  -9.86500 41.56500 39.46600
H  -15.63600 42.66600 42.26900
H  -16.60900 36.62900 42.88400
H  -8.68100 36.91400 39.72500
H  -9.33400 39.20300 37.80900
H  -7.40500 40.15300 38.64900
H  -7.12600 38.65800 39.57100
H  -7.98200 40.05400 40.23900
H  -9.15800 37.14500 36.72300
H  -10.23000 36.04900 37.52500
H  -8.40900 34.58000 37.34500
H  -7.48300 35.58100 38.47200
H  -10.02900 43.65500 39.50500
H  -10.22500 44.74900 40.91900
H  -11.30600 44.83700 39.47000
H  -15.42900 44.84100 41.47700
H  -15.02800 46.27900 42.37900
H  -15.13700 44.62700 43.14500
H  -17.66200 40.58500 41.70200
H  -17.09600 38.86200 44.13500
H  -16.96600 42.28200 44.00000
H  -18.02000 41.07200 44.61600
H  -18.54100 41.95200 43.17300
H  -18.40600 37.82000 41.68700
H  -19.26000 39.14200 42.37300
H  -19.33800 36.45400 43.04400
H  -20.20000 37.82100 43.91600
H  -18.57800 37.21800 44.42200
H  -14.62900 33.06700 42.89800
H  -15.90700 33.40000 41.73100
H  -15.81800 34.35500 43.25400
H  -10.95800 34.51100 38.99500
H  -8.57000 35.58300 43.45200
H  -8.14100 33.89800 42.81600
H  -9.25200 34.02400 44.06200

