158

Mg 17.27900 -1.21300 27.75300
C  16.40300 0.92000 30.40700
C  19.09400 -3.07700 29.98500
C  18.67200 -2.78900 25.09800
C  15.87400 1.15600 25.50000
N  17.67500 -1.00800 29.98000
C  17.15800 -0.07900 30.86600
C  17.48300 -0.46300 32.27900
C  18.53400 -1.64300 32.08900
C  18.46900 -1.95100 30.58000
C  19.96900 -1.24200 32.55500
C  16.27200 -0.77900 33.13000
C  16.35000 -0.13000 34.54900
H  17.81500 0.07800 35.12200
N  18.57700 -2.72100 27.61200
C  19.14700 -3.40400 28.61200
C  19.70800 -4.56100 28.10000
C  19.59600 -4.46000 26.69700
C  18.93400 -3.30000 26.39800
C  20.26300 -5.64800 28.94600
C  20.07400 -5.55200 25.69600
O  19.95300 -5.42300 24.51500
C  20.92800 -6.70900 26.08900
N  17.09300 -0.90300 25.51900
C  17.94600 -1.60800 24.76600
C  17.88600 -1.07100 23.33900
C  16.67700 -0.07400 23.40300
C  16.64200 0.18900 24.91000
C  19.19500 -0.34000 23.03600
C  15.27000 -0.68700 22.84100
C  14.88700 -0.43400 21.32700
N  16.14400 0.55700 27.89000
C  15.61300 1.36000 26.88900
C  14.84800 2.38500 27.46100
C  15.16300 2.33600 28.87200
C  15.95000 1.20300 29.04900
C  13.89700 3.36400 26.87100
C  14.99300 2.99100 30.17800
O  14.32300 3.95800 30.53300
C  15.77400 2.04000 31.20900
C  16.87500 2.86900 31.87400
O  18.03800 2.96200 31.50900
O  16.30900 3.58000 32.87300
C  17.01500 4.45600 33.71800
H  19.61600 -3.64500 30.75800
H  19.32700 -3.17200 24.31200
H  15.46900 1.94900 24.86800
H  18.01500 0.44900 32.55100
H  18.34500 -2.53000 32.69400
H  19.90800 -0.23600 32.97000
H  20.64800 -1.17000 31.70500
H  20.36700 -1.91100 33.31700
H  15.92000 -1.81100 33.12700
H  15.45000 -0.23200 32.66900
H  15.86700 -0.75700 35.29900
H  15.80800 0.81600 34.54400
H  19.89300 -5.63900 29.97100
H  21.32300 -5.39400 28.94600
H  20.08400 -6.68300 28.65500
H  20.43500 -7.53000 26.60900
H  21.78200 -6.44300 26.71100
H  21.29900 -7.20400 25.19100
H  17.79300 -1.96400 22.72000
H  16.97300 0.80000 22.82300
H  19.20200 0.73000 23.24300
H  19.38400 -0.34300 21.96200
H  20.01600 -0.70800 23.65100
H  14.48100 -0.25000 23.45300
H  15.05900 -1.73500 23.05400
H  15.37600 0.49000 21.01900
H  13.82900 -0.30700 21.09700
H  15.26800 -1.26300 20.73000
H  13.32600 3.91200 27.61900
H  13.24300 2.86100 26.15800
H  14.58400 4.07000 26.40500
H  15.07200 1.69300 31.96700
H  16.63100 5.47500 33.67300
H  18.08600 4.29600 33.59400
H  16.79200 4.24400 34.76300
Mg 35.00300 2.08300 29.98200
C  32.51900 3.45300 32.11100
C  37.18800 2.25600 32.57900
C  37.51800 1.33800 27.80700
C  32.85500 2.61500 27.41900
N  34.81900 2.88200 32.11000
C  33.69500 3.15900 32.84900
C  33.91000 3.18500 34.37400
C  35.42100 3.06500 34.42100
C  35.89200 2.76700 32.97900
C  36.22600 4.15700 35.18900
C  33.01800 2.07600 35.03600
C  32.72400 2.25400 36.57900
H  33.45500 3.28600 37.45600
N  37.02800 1.73800 30.18700
C  37.71300 1.77700 31.36200
C  39.06000 1.39000 31.11600
C  39.27900 1.24500 29.77700
C  37.89700 1.33400 29.18600
C  40.02100 1.26500 32.25400
C  40.56200 0.85400 29.02800
O  40.56400 0.71200 27.78000
C  41.95500 0.68200 29.78100
N  35.19300 2.03400 27.95900
C  36.28500 1.66200 27.26500
C  36.07900 1.70900 25.71500
C  34.50600 1.77400 25.62100
C  34.17000 2.15700 27.09700
C  36.83200 2.80500 24.92700
C  33.71000 0.49900 25.26000
C  32.53000 0.86300 24.30200
N  33.09500 2.76200 29.75400
C  32.29400 2.88900 28.65500
C  31.03700 3.48500 28.94300
C  31.08300 3.81600 30.31900
C  32.34200 3.28400 30.76100
C  29.84200 3.67800 28.01800
C  30.33600 4.31500 31.48000
O  29.18000 4.78200 31.45800
C  31.22200 4.00800 32.72100
C  31.36900 5.26100 33.44100
O  31.76300 6.34100 32.90000
O  31.09500 5.11000 34.81100
C  31.57600 6.35800 35.49500
H  37.85800 2.19500 33.44000
H  38.27000 1.12600 27.04400
H  32.13700 2.65300 26.59600
H  33.58600 4.11200 34.84600
H  35.65900 2.13600 34.94000
H  36.97200 3.67200 35.81800
H  35.59400 4.83200 35.76600
H  36.85700 4.75800 34.53400
H  33.55300 1.13000 34.94200
H  32.02800 2.01000 34.58700
H  32.85000 1.27600 37.04400
H  31.68000 2.53500 36.72000
H  40.46500 0.27400 32.16500
H  39.55000 1.24800 33.23700
H  40.77700 2.05000 32.28700
H  42.78500 1.08000 29.19700
H  42.13000 -0.34200 30.11100
H  42.11600 1.26300 30.68900
H  36.52900 0.76600 25.40200
H  34.17200 2.60700 25.00100
H  37.25000 2.40800 24.00100
H  37.59600 3.17100 25.61200
H  36.12500 3.60100 24.69400
H  33.24800 0.13900 26.18000
H  34.35400 -0.24100 24.78500
H  32.54600 0.23600 23.41000
H  32.63400 1.86200 23.87700
H  31.55200 0.79500 24.77900
H  29.21000 4.56400 28.07500
H  29.17700 2.82900 28.17400
H  30.24900 3.59300 27.01000
H  30.66700 3.32200 33.36000
H  31.40400 7.36800 35.12500
H  32.66500 6.38300 35.55200
H  31.29500 6.27700 36.54500

