158

Mg 0.86800 7.20600 25.41500
C  1.55400 8.90100 28.38000
C  1.15500 4.27000 27.20800
C  0.40300 5.47100 22.63500
C  1.11100 10.24000 23.68000
N  1.07100 6.67200 27.60500
C  1.29700 7.56700 28.55000
C  1.36100 6.82800 29.87500
C  1.55000 5.28900 29.47000
C  1.26000 5.38400 27.97100
C  2.78900 4.59200 29.97800
C  0.10300 7.07200 30.72100
C  0.44400 7.49800 32.20600
H  1.73700 6.97700 32.85900
N  0.78100 5.12800 24.96700
C  0.95200 4.06900 25.81000
C  0.86400 2.84800 25.07200
C  0.68500 3.25700 23.71600
C  0.67000 4.68600 23.69400
C  1.12800 1.53600 25.73400
C  0.56500 2.33600 22.46200
O  0.49000 2.79800 21.30900
C  0.47800 0.89900 22.63100
N  0.86400 7.75600 23.44000
C  0.39900 6.89000 22.51400
C  0.10700 7.60600 21.21100
C  0.34900 9.09700 21.49700
C  0.78000 9.08500 22.98600
C  0.97400 6.95300 20.09900
C  -0.87700 10.04000 21.38700
C  -0.79200 11.24700 20.37600
N  1.39200 9.19100 25.90400
C  1.40000 10.31600 25.12800
C  1.57900 11.49900 25.93900
C  1.66300 10.98900 27.24500
C  1.63100 9.52600 27.15900
C  1.53000 12.91600 25.27200
C  1.84100 11.35200 28.67600
O  2.01900 12.43600 29.21700
C  1.83700 9.95500 29.42900
C  3.15300 9.82100 30.12900
O  4.20200 9.43100 29.60400
O  3.12800 10.49000 31.40200
C  4.43500 10.67800 32.14000
H  1.37400 3.39300 27.82100
H  0.07000 4.96100 21.72900
H  1.11400 11.20100 23.16100
H  2.23600 7.29500 30.32900
H  0.74100 4.69000 29.88900
H  3.43600 5.30100 30.49400
H  3.38600 4.19200 29.15800
H  2.51000 3.80100 30.67400
H  -0.49000 6.15900 30.78200
H  -0.60000 7.75300 30.24100
H  -0.44600 7.24300 32.78200
H  0.48900 8.58200 32.31100
H  2.05500 1.15800 25.30300
H  0.34200 0.84900 25.42100
H  1.02600 1.54900 26.81900
H  1.48800 0.52500 22.79600
H  0.05000 0.33500 21.80200
H  -0.25200 0.81600 23.43600
H  -0.97200 7.54100 21.07500
H  1.18600 9.39100 20.86300
H  1.14100 7.64800 19.27600
H  0.45500 6.06400 19.74000
H  1.97000 6.70100 20.46200
H  -1.07200 10.50000 22.35700
H  -1.77600 9.48000 21.13000
H  -0.92000 12.16800 20.94400
H  -1.45700 11.14600 19.51900
H  0.21000 11.34200 19.95700
H  1.33400 13.54800 26.13800
H  0.71400 13.07500 24.56600
H  2.41400 13.28700 24.75300
H  1.03000 10.06300 30.15300
H  5.22000 10.77900 31.39100
H  4.82900 9.87900 32.76900
H  4.29700 11.59500 32.71300
Mg 35.25800 1.59100 29.83900
C  32.77500 3.07000 31.96500
C  37.55300 1.99200 32.37600
C  37.61900 0.68400 27.69100
C  32.94300 1.77100 27.23100
N  35.03800 2.26000 31.93200
C  34.04500 2.82100 32.63700
C  34.39500 2.91900 34.13400
C  35.98000 3.03600 34.03800
C  36.20100 2.32300 32.71000
C  36.50400 4.44900 34.10900
C  33.76800 1.73900 34.92300
C  33.42600 2.07400 36.35300
H  34.10300 3.26200 37.11100
N  37.38600 1.31900 30.00700
C  38.10600 1.48200 31.13100
C  39.47500 1.14800 30.84200
C  39.54200 0.76500 29.44900
C  38.14500 0.91800 28.99100
C  40.64700 1.19800 31.84100
C  40.68200 0.29100 28.55900
O  40.46100 -0.13100 27.40700
C  42.13200 0.41500 28.94600
N  35.27100 1.42400 27.75500
C  36.35700 0.90900 27.15700
C  36.11500 0.55300 25.61600
C  34.62500 0.93900 25.47600
C  34.21200 1.32500 26.85800
C  37.10200 1.37300 24.69700
C  33.79600 -0.13200 24.73500
C  33.20600 -1.39800 25.45800
N  33.20900 2.31500 29.60600
C  32.45700 2.30300 28.47500
C  31.13000 2.81000 28.81400
C  31.27900 3.07300 30.18500
C  32.56300 2.85900 30.62100
C  29.88600 2.87700 28.01700
C  30.55300 3.56400 31.34600
O  29.39400 3.96800 31.52000
C  31.50300 3.48700 32.58700
C  31.40300 4.74300 33.29000
O  31.46600 5.86900 32.80000
O  31.38600 4.47000 34.62500
C  31.41400 5.65700 35.49300
H  38.17000 1.92900 33.27400
H  38.25200 0.24600 26.91600
H  32.19200 1.72700 26.44000
H  33.93200 3.80700 34.56400
H  36.48200 2.55000 34.87500
H  35.71400 5.15900 34.35400
H  36.89800 4.83900 33.17100
H  37.25100 4.52800 34.89900
H  34.46800 0.90900 34.82200
H  32.89000 1.42400 34.36000
H  33.61100 1.21700 37.00100
H  32.35300 2.23000 36.46000
H  41.34800 0.41900 31.54200
H  40.21400 1.07900 32.83400
H  41.16000 2.16000 31.80700
H  42.33000 1.40400 29.35900
H  42.77600 0.16600 28.10200
H  42.20100 -0.35300 29.71700
H  36.24100 -0.52200 25.48400
H  34.57300 1.86900 24.91100
H  36.60800 2.11300 24.06700
H  37.76200 0.69500 24.15700
H  37.74000 2.03900 25.27700
H  34.32200 -0.57000 23.88700
H  32.98400 0.50100 24.37700
H  33.69900 -2.28800 25.06700
H  32.12100 -1.46700 25.38100
H  33.51600 -1.33900 26.50100
H  29.04300 2.82700 28.70600
H  29.92200 1.92300 27.49100
H  29.80000 3.71300 27.32300
H  31.32100 2.64000 33.24800
H  30.92300 6.52700 35.05600
H  32.46900 5.72500 35.75600
H  30.70100 5.47900 36.29800

