158

Mg 1.40100 8.58700 27.02200
C  2.06100 10.66000 29.82600
C  1.66500 5.92000 29.29700
C  1.49100 6.50800 24.49500
C  1.50600 11.34200 24.99800
N  1.76600 8.34900 29.27300
C  1.86800 9.35800 30.21700
C  1.95100 8.80800 31.65900
C  2.19700 7.22800 31.38300
C  1.79600 7.12200 29.90000
C  3.56300 6.61200 31.73300
C  0.69600 8.99200 32.52400
C  0.66000 8.94300 34.04700
H  1.85300 8.33400 34.67700
N  1.36900 6.49900 26.87000
C  1.51500 5.59900 27.90900
C  1.29600 4.25700 27.40300
C  1.24200 4.43100 25.92600
C  1.40000 5.85000 25.74500
C  1.34100 2.98500 28.24000
C  1.03200 3.33500 24.83200
O  0.79200 3.67400 23.69300
C  1.27600 1.87700 25.15200
N  1.40100 8.89200 25.07700
C  1.44400 7.84500 24.19300
C  1.49200 8.41200 22.75900
C  1.03100 9.88700 22.92300
C  1.33600 10.05900 24.42400
C  2.92900 8.23000 22.13200
C  -0.53900 10.15300 22.57500
C  -0.77500 11.15100 21.53300
N  1.65100 10.66900 27.27800
C  1.63300 11.70600 26.35400
C  2.00200 12.93200 27.00300
C  2.11300 12.59100 28.35800
C  1.90500 11.20300 28.46800
C  2.19300 14.17900 26.17700
C  2.38600 13.12500 29.70800
O  2.61700 14.25100 30.04800
C  2.14200 11.84900 30.68000
C  3.20800 11.84300 31.77200
O  4.37600 11.66600 31.55200
O  2.60500 12.21300 32.95600
C  3.52900 12.22800 34.10200
H  1.67300 5.10700 30.02600
H  1.69400 5.92500 23.59500
H  1.55500 12.22200 24.35400
H  2.81400 9.17300 32.21500
H  1.46200 6.59500 31.88100
H  3.46300 5.73900 32.37900
H  4.23400 7.36700 32.14300
H  4.05500 6.21300 30.84700
H  0.01900 8.24400 32.11200
H  0.18700 9.92600 32.28800
H  -0.23000 8.34900 34.25500
H  0.37300 9.91700 34.44200
H  0.74900 2.16700 27.82800
H  0.90200 3.30000 29.18700
H  2.36900 2.67500 28.42400
H  1.54900 1.37000 24.22700
H  0.31100 1.52200 25.51500
H  1.97500 1.75200 25.97800
H  0.76900 7.80600 22.21300
H  1.57100 10.60000 22.29900
H  3.51300 7.66600 22.86000
H  3.38300 9.21100 21.99500
H  2.81700 7.74100 21.16400
H  -1.20700 10.48100 23.37100
H  -0.91700 9.22200 22.15300
H  -0.51100 10.74000 20.55800
H  -0.32900 12.10400 21.81500
H  -1.85200 11.31700 21.48900
H  1.30200 14.80400 26.10100
H  2.27400 13.93100 25.11900
H  3.12500 14.60900 26.54500
H  1.24600 12.05800 31.26400
H  3.71500 13.26400 34.38500
H  4.52300 11.78600 34.03100
H  3.09300 11.64800 34.91400
Mg -10.02100 17.06000 40.95000
C  -6.48100 17.05000 41.12000
C  -10.00700 20.45600 40.30700
C  -13.35500 16.93500 40.25400
C  -9.93700 13.54100 40.84000
N  -8.42000 18.60000 40.70100
C  -7.03300 18.39600 40.78000
C  -6.31100 19.71600 40.30700
C  -7.45100 20.81800 40.69500
C  -8.68900 19.93600 40.53300
C  -7.24300 21.51500 42.16600
C  -5.74200 19.71100 38.81100
C  -4.25100 19.17200 38.65300
H  -3.92600 17.86400 37.87700
N  -11.51400 18.50700 40.43800
C  -11.26900 19.83200 40.23800
C  -12.50000 20.50800 40.08400
C  -13.54100 19.50200 39.92000
C  -12.82600 18.25800 40.24000
C  -12.53700 22.02200 39.94400
C  -14.93300 19.74500 39.56600
O  -15.32800 20.83800 39.34100
C  -15.94400 18.71000 39.50400
N  -11.40600 15.50100 40.37400
C  -12.79800 15.66000 40.23700
C  -13.64100 14.34000 40.37100
C  -12.50700 13.31700 40.56400
C  -11.15500 14.09200 40.46200
C  -14.86000 14.37800 41.35700
C  -12.54100 12.00300 39.59700
C  -12.62500 10.63100 40.24100
N  -8.56700 15.58800 41.00100
C  -8.69500 14.21300 41.04700
C  -7.43700 13.62700 41.39200
C  -6.60500 14.71700 41.38800
C  -7.27500 15.84600 41.12900
C  -7.01500 12.20700 41.63100
C  -5.19500 15.05000 41.54200
O  -4.19900 14.34000 41.66300
C  -5.07000 16.58700 41.41300
C  -4.52500 17.11900 42.74900
O  -3.72800 18.00000 42.86500
O  -5.12800 16.43500 43.75900
C  -5.05800 17.08800 45.08200
H  -9.90800 21.54300 40.28200
H  -14.42200 16.71600 40.17700
H  -9.74700 12.46700 40.88600
H  -5.42500 19.94200 40.90000
H  -7.34800 21.65500 40.00400
H  -7.54800 22.56100 42.13000
H  -6.25800 21.32500 42.59200
H  -7.95300 21.05100 42.85000
H  -5.70700 20.69900 38.35300
H  -6.49100 19.17500 38.22800
H  -3.76600 19.15200 39.62900
H  -3.65100 19.93800 38.16200
H  -13.33600 22.28600 39.25100
H  -11.65100 22.44700 39.47200
H  -12.69600 22.39300 40.95700
H  -15.67300 18.10800 38.63700
H  -16.83800 19.22800 39.15800
H  -16.08900 18.12600 40.41400
H  -14.01800 14.11900 39.37300
H  -12.58600 13.10500 41.63000
H  -15.72100 13.93900 40.85300
H  -15.07400 15.35500 41.79000
H  -14.63600 13.66300 42.14800
H  -11.68200 12.25400 38.97500
H  -13.48000 12.05400 39.04500
H  -13.52000 10.06100 39.98900
H  -12.49600 10.79000 41.31200
H  -11.77700 10.11000 39.79700
H  -7.85300 11.52200 41.49800
H  -6.83500 12.06100 42.69600
H  -6.11200 11.93300 41.08600
H  -4.46500 16.88700 40.55800
H  -4.71300 18.12100 45.05600
H  -4.41700 16.37800 45.60500
H  -6.00100 16.84900 45.57300

