158

Mg 25.56400 0.18100 29.58100
C  27.48000 0.29900 32.54000
C  22.75900 0.89200 31.37000
C  23.85400 0.27100 26.63800
C  28.47800 -0.83100 27.92800
N  25.24900 0.67800 31.71600
C  26.15200 0.70200 32.74600
C  25.46400 0.90700 34.09600
C  23.93800 0.88700 33.65200
C  23.98000 0.79400 32.16800
C  22.95400 -0.00600 34.49000
C  25.88700 2.18100 34.91500
C  26.53800 1.94700 36.34500
H  26.39000 2.94100 37.51200
N  23.54900 0.38400 29.05600
C  22.56200 0.79600 29.93700
C  21.28600 1.03800 29.16200
C  21.67700 0.95400 27.77100
C  23.08700 0.56400 27.76000
C  20.01000 1.20600 29.81100
C  20.84600 1.22800 26.59600
O  21.26500 1.28100 25.43400
C  19.41000 1.66400 26.71000
N  25.95000 -0.27400 27.58500
C  25.16100 -0.13300 26.49900
C  25.87900 -0.42400 25.12800
C  27.38100 -0.42700 25.56800
C  27.25100 -0.55500 27.15200
C  25.45100 -1.69600 24.41300
C  28.08800 0.90000 25.23500
C  28.90500 0.95800 23.93100
N  27.55100 -0.30200 30.09300
C  28.66600 -0.64600 29.33400
C  29.87100 -0.76900 30.15100
C  29.46500 -0.34200 31.37800
C  28.04400 -0.11200 31.35200
C  31.18800 -1.23600 29.72400
C  29.84600 -0.04700 32.80400
O  30.93600 -0.23200 33.29800
C  28.60800 0.40700 33.63200
C  28.48800 -0.47900 34.79000
O  27.83800 -1.51700 34.85000
O  29.32300 -0.00700 35.73300
C  29.10600 -0.69500 37.04000
H  21.85700 1.27300 31.85400
H  23.35400 0.41400 25.67700
H  29.42600 -1.05400 27.43500
H  25.74800 0.07200 34.73700
H  23.51900 1.87500 33.84400
H  23.51500 -0.63000 35.18500
H  22.40000 -0.70900 33.86800
H  22.34800 0.60900 35.15500
H  25.07900 2.90200 35.03500
H  26.61100 2.76900 34.35000
H  27.62000 1.97900 36.22200
H  26.27000 0.94400 36.67700
H  19.78500 2.27300 29.79400
H  19.96000 0.88700 30.85200
H  19.26100 0.64900 29.24800
H  18.84900 0.89100 27.23500
H  18.99900 1.77300 25.70600
H  19.28300 2.61200 27.23200
H  25.65500 0.38800 24.43700
H  27.95600 -1.27300 25.19000
H  26.32200 -2.03000 23.85000
H  24.76700 -1.44500 23.60200
H  24.95900 -2.48200 24.98500
H  28.78700 1.06800 26.05400
H  27.28600 1.63700 25.26600
H  29.99000 1.04200 23.98300
H  28.56200 1.73000 23.24200
H  28.71500 0.02800 23.39400
H  31.12300 -1.88400 28.85000
H  31.62800 -1.78600 30.55600
H  31.68400 -0.28800 29.52100
H  28.60700 1.46800 33.88500
H  28.05300 -0.65200 37.31900
H  29.66400 -0.06800 37.73600
H  29.49200 -1.71400 37.07900
Mg -11.50300 16.56900 40.24900
C  -8.28900 15.00900 39.54300
C  -10.23000 19.43100 38.84600
C  -14.65300 17.60600 39.77000
C  -12.67100 13.42400 41.00200
N  -9.52300 17.05900 39.39300
C  -8.31500 16.33400 39.22100
C  -7.12600 17.20900 38.77400
C  -7.79600 18.59900 38.75800
C  -9.32400 18.38300 38.96500
C  -7.22500 19.60100 39.82000
C  -6.67900 16.85400 37.42000
C  -5.43600 17.62400 36.88300
H  -4.55600 16.89800 35.79400
N  -12.30000 18.43500 39.69100
C  -11.67400 19.48100 39.13800
C  -12.62700 20.61900 38.87800
C  -13.92400 20.07900 39.22400
C  -13.64000 18.64500 39.58100
C  -12.27700 22.00900 38.38800
C  -15.20600 20.85200 39.08700
O  -15.12400 21.95500 38.59500
C  -16.48300 20.13800 39.36200
N  -13.42900 15.62800 40.37900
C  -14.61000 16.26800 40.11500
C  -15.76000 15.34500 40.37800
C  -15.10300 13.99300 40.56300
C  -13.61900 14.36900 40.72600
C  -16.69600 15.83400 41.58600
C  -15.27000 13.06300 39.36900
C  -15.69000 11.65500 39.69300
N  -10.67800 14.64100 40.43300
C  -11.25900 13.49300 40.74700
C  -10.33200 12.43100 40.81400
C  -9.16600 12.97500 40.37400
C  -9.42800 14.27600 40.04600
C  -10.51500 10.95500 40.98200
C  -7.75800 12.66800 40.09200
O  -7.08000 11.65700 40.08700
C  -7.19000 13.96200 39.56600
C  -5.96800 14.18900 40.29700
O  -5.86800 14.76100 41.37300
O  -4.84800 13.77000 39.55000
C  -3.44000 14.31900 39.74600
H  -9.76700 20.31000 38.39200
H  -15.68200 17.81600 39.46800
H  -13.06200 12.44300 41.28100
H  -6.39400 17.05200 39.56600
H  -7.69400 19.13500 37.81500
H  -6.36100 20.11800 39.40200
H  -6.98500 18.91400 40.63100
H  -7.88700 20.31700 40.30800
H  -7.49000 16.90700 36.69400
H  -6.31700 15.82800 37.35000
H  -4.80600 17.92000 37.72200
H  -5.68300 18.54500 36.35500
H  -12.28300 22.31800 37.34300
H  -11.21000 22.02000 38.61200
H  -12.80400 22.69600 39.05000
H  -17.19100 20.96100 39.26300
H  -16.53600 19.73500 40.37300
H  -16.67100 19.36500 38.61700
H  -16.31400 15.33900 39.43900
H  -15.39800 13.60100 41.53600
H  -16.13400 16.71600 41.89200
H  -16.59000 15.16800 42.44200
H  -17.69600 16.10300 41.24600
H  -14.32300 13.05900 38.82900
H  -15.98600 13.47300 38.65700
H  -16.75200 11.41300 39.69800
H  -15.22600 11.24600 40.59000
H  -15.23600 11.00900 38.94100
H  -11.13100 10.74400 41.85600
H  -9.60000 10.36400 41.02900
H  -11.12900 10.56800 40.16900
H  -6.91100 13.67800 38.55100
H  -3.06900 14.88200 38.89000
H  -2.67200 13.54500 39.73600
H  -3.25000 14.86900 40.66800

