158

Mg 6.31100 54.43200 39.58600
C  6.00000 50.91100 39.51500
C  9.66700 53.99800 38.55900
C  6.46800 57.77400 39.17700
C  2.99400 54.77700 40.49600
N  7.64700 52.68200 38.87400
C  7.28600 51.33300 38.98400
C  8.44700 50.39800 38.80400
C  9.68500 51.40600 38.77900
C  8.96600 52.85100 38.76900
C  10.64700 51.29200 39.94600
C  8.34700 49.58200 37.53700
C  7.75000 50.31700 36.28500
H  6.26100 50.02000 35.85400
N  7.83600 55.69500 38.86200
C  9.18600 55.34100 38.48700
C  9.93400 56.55100 38.25100
C  9.02100 57.62900 38.43200
C  7.68800 57.08400 38.82700
C  11.47500 56.55900 37.90300
C  9.41600 59.15300 38.24700
O  10.56800 59.45400 38.02000
C  8.38700 60.23500 38.26500
N  4.76300 55.98100 39.43700
C  5.21200 57.31100 39.45400
C  4.07600 58.31700 39.79800
C  2.89900 57.32800 40.06100
C  3.57900 55.98300 40.01400
C  4.35800 59.34600 40.89100
C  1.64800 57.38000 39.03800
C  0.30000 57.83600 39.66600
N  4.78100 53.18800 39.86200
C  3.54000 53.45100 40.44600
C  2.87600 52.19800 40.80000
C  3.86800 51.22000 40.50600
C  4.91500 51.87600 39.88200
C  1.55400 51.85700 41.48800
C  4.11400 49.74400 40.62500
O  3.41200 48.76700 40.91400
C  5.50700 49.54500 40.05400
C  5.30400 48.44800 39.07400
O  4.70600 48.60600 38.02900
O  5.66100 47.25600 39.65600
C  5.05200 46.11200 38.92800
H  10.75600 54.03600 38.62400
H  6.62500 58.84200 39.33800
H  1.97300 54.92600 40.85500
H  8.35000 49.81400 39.71800
H  10.34200 51.23100 37.92700
H  10.73800 50.24500 40.23500
H  10.40000 51.94900 40.78000
H  11.61600 51.67400 39.62600
H  7.65100 48.80500 37.85500
H  9.31800 49.11600 37.36800
H  8.45900 49.98900 35.52500
H  7.92200 51.39000 36.36900
H  11.87500 55.54800 37.97900
H  12.02700 57.09600 38.67500
H  11.57000 56.87300 36.86400
H  7.59500 59.83100 37.63500
H  8.78700 61.16600 37.86300
H  8.08100 60.52200 39.27100
H  3.81600 58.90500 38.91800
H  2.52000 57.50400 41.06800
H  5.40300 59.19400 41.16100
H  3.60300 59.29500 41.67600
H  4.40500 60.34700 40.46300
H  1.45900 56.49300 38.43400
H  1.83900 58.20800 38.35500
H  -0.42700 57.02800 39.58400
H  -0.07800 58.76600 39.24200
H  0.39000 58.10400 40.71800
H  1.64500 51.62700 42.55000
H  1.02200 51.04600 40.99000
H  0.88400 52.71000 41.38500
H  6.16500 49.07200 40.78400
H  5.28900 46.31800 37.88400
H  3.97000 46.05100 39.04500
H  5.48300 45.16800 39.25900
Mg 1.09500 43.95600 25.15500
C  3.03500 43.81000 28.06800
C  -1.72000 43.10100 27.19600
C  -0.79000 43.20100 22.35000
C  3.79600 44.16000 23.30200
N  0.77100 43.57200 27.48600
C  1.74200 43.61600 28.42300
C  1.09700 43.31700 29.77500
C  -0.44700 42.94100 29.42000
C  -0.51700 43.20900 27.94700
C  -0.94000 41.52400 29.78000
C  1.15800 44.60500 30.69600
C  0.47000 44.48400 32.12800
H  0.34500 43.10700 32.84400
N  -1.01500 43.59400 24.77600
C  -1.93200 43.37000 25.80000
C  -3.21500 43.34900 25.18200
C  -3.03100 43.10800 23.72800
C  -1.54200 43.25700 23.52100
C  -4.54200 43.53400 26.00400
C  -4.10400 43.01600 22.71400
O  -3.94700 43.06900 21.50600
C  -5.51600 43.05700 23.20000
N  1.43800 43.68000 23.03400
C  0.51800 43.49500 22.00300
C  1.16700 43.45700 20.61800
C  2.63200 43.87400 20.95800
C  2.64700 43.94900 22.54800
C  1.17000 42.04800 19.89300
C  3.00500 45.25500 20.23600
C  2.53100 46.71500 20.82900
N  3.02000 44.02700 25.53900
C  3.98800 44.29300 24.67800
C  5.26300 44.44100 25.43900
C  4.88200 44.17600 26.75100
C  3.47700 43.96300 26.77700
C  6.58600 44.66500 24.86700
C  5.42000 43.95200 28.09200
O  6.58700 43.77800 28.43500
C  4.27900 43.84600 29.05300
C  4.29600 42.55400 29.81700
O  4.04700 41.46900 29.34300
O  4.58600 42.73600 31.17400
C  4.69500 41.55100 32.03400
H  -2.55200 42.82900 27.84900
H  -1.35300 42.83000 21.49100
H  4.69100 44.32100 22.69800
H  1.49400 42.50100 30.37800
H  -1.19900 43.53600 29.93800
H  -1.87700 41.65400 30.32200
H  -0.23700 41.07800 30.48300
H  -1.20700 41.00500 28.86000
H  0.72800 45.43400 30.13400
H  2.18700 44.83900 30.97000
H  -0.56000 44.81100 31.98100
H  1.10500 45.12700 32.73700
H  -5.13900 44.33700 25.57100
H  -4.46800 43.71900 27.07500
H  -5.10600 42.60500 25.92400
H  -5.67100 42.21300 23.87100
H  -6.13700 42.82300 22.33500
H  -5.77200 44.01200 23.66000
H  0.59400 44.20400 20.06900
H  3.31300 43.04600 20.76100
H  0.60600 41.38700 20.55000
H  2.09800 41.57800 19.56500
H  0.49900 42.21400 19.05100
H  2.60900 45.26000 19.22100
H  4.06700 45.34400 20.00700
H  2.25000 47.38100 20.01300
H  3.37300 47.18700 21.33500
H  1.66500 46.77000 21.49000
H  6.83700 45.72500 24.90200
H  6.68100 44.28000 23.85100
H  7.27300 44.01200 25.40500
H  4.31300 44.64100 29.79800
H  5.64700 41.04600 31.87000
H  3.84000 40.90900 31.82200
H  4.63300 41.90000 33.06500

