158

Mg 16.52400 -1.67100 28.04800
C  15.51100 0.22100 30.72700
C  18.60300 -3.36900 30.03400
C  17.59900 -3.34500 25.26500
C  14.44500 0.19800 25.93300
N  16.97800 -1.52500 30.14500
C  16.44300 -0.73800 31.02500
C  16.95700 -0.99700 32.44400
C  18.17300 -2.00100 32.15800
C  17.93800 -2.34300 30.68300
C  19.64200 -1.46000 32.41600
C  15.85900 -1.66600 33.35700
C  15.78500 -1.26100 34.90900
H  17.04700 -0.63000 35.46700
N  17.73600 -3.33100 27.69600
C  18.51600 -3.82700 28.70600
C  19.39100 -4.77200 28.04600
C  19.03800 -4.83200 26.57600
C  18.04800 -3.84800 26.46400
C  20.35700 -5.59800 28.74100
C  19.65100 -5.70300 25.50500
O  19.24800 -5.73700 24.35100
C  20.90500 -6.39800 25.71500
N  16.25400 -1.46700 25.93100
C  16.85700 -2.26300 25.02800
C  16.46000 -1.91000 23.53700
C  15.27200 -0.92200 23.73300
C  15.29700 -0.73900 25.29400
C  17.63600 -1.43000 22.59400
C  13.85900 -1.28000 23.23700
C  13.18900 -0.29100 22.34300
N  15.22300 -0.09300 28.23000
C  14.44500 0.52600 27.28300
C  13.61100 1.49200 28.06900
C  13.95300 1.36100 29.36200
C  15.00800 0.44300 29.42500
C  12.64500 2.44800 27.59000
C  13.79200 1.92500 30.66200
O  12.95800 2.74900 31.01900
C  14.72700 1.17300 31.64900
C  15.63200 2.16600 32.25400
O  16.45900 2.86900 31.65000
O  15.31800 2.19900 33.58900
C  16.12300 3.16000 34.30700
H  19.29800 -3.87600 30.70700
H  18.15800 -3.81400 24.45300
H  13.73100 0.78700 25.35400
H  17.33700 -0.02700 32.76500
H  18.11400 -2.94100 32.70600
H  20.16600 -1.30600 31.47300
H  20.22800 -2.11600 33.06000
H  19.47300 -0.46100 32.81800
H  16.05300 -2.73600 33.28500
H  14.89600 -1.52100 32.86700
H  15.57200 -2.14700 35.50700
H  14.98900 -0.62400 35.29300
H  21.35800 -5.17200 28.68100
H  20.47700 -6.67900 28.66800
H  19.98700 -5.55100 29.76600
H  21.32000 -6.57700 24.72300
H  20.75800 -7.36800 26.18900
H  21.55400 -5.75800 26.31300
H  16.10300 -2.86000 23.13800
H  15.51800 0.03200 23.26600
H  17.35500 -0.48900 22.12200
H  17.74400 -2.25100 21.88500
H  18.49900 -1.48600 23.25800
H  13.21600 -1.49100 24.09200
H  14.04500 -2.19800 22.68000
H  12.45800 -0.82200 21.73200
H  13.96400 -0.07200 21.60900
H  12.69600 0.56900 22.79700
H  12.08000 1.83100 26.89100
H  13.01200 3.23900 26.93600
H  12.03300 2.88400 28.38000
H  14.13500 0.47500 32.24200
H  15.55700 4.08600 34.19800
H  17.07000 3.38200 33.81600
H  16.23400 2.95000 35.37100
Mg 39.75600 9.98400 29.32500
C  41.86000 10.75600 32.09000
C  37.76000 8.20000 31.53700
C  37.84500 9.15000 26.85500
C  42.04300 11.41000 27.26100
N  39.83600 9.68500 31.55100
C  40.66000 10.22000 32.46200
C  40.10900 10.00500 33.86800
C  38.99600 8.99300 33.74000
C  38.82000 8.91500 32.19100
C  39.21500 7.58800 34.44200
C  39.65300 11.39000 34.55700
C  39.44300 11.40500 36.11400
H  40.55900 12.04300 36.92500
N  37.92700 8.91700 29.23300
C  37.26100 8.26100 30.20500
C  36.06200 7.65500 29.69700
C  36.03700 7.91600 28.29400
C  37.34300 8.65500 28.07300
C  35.06000 6.83100 30.51400
C  35.01800 7.51500 27.18600
O  35.29500 7.82600 26.01700
C  33.59200 7.06700 27.63700
N  39.91900 10.23300 27.34500
C  38.96600 9.85700 26.52000
C  39.23700 10.33300 25.06400
C  40.50200 11.22100 25.24500
C  40.88600 10.88800 26.71200
C  39.35800 9.17600 24.03800
C  40.28200 12.70800 24.99300
C  39.35600 13.40300 26.00700
N  41.62000 10.92000 29.52200
C  42.43800 11.37200 28.58100
C  43.73500 11.80200 29.21100
C  43.45400 11.65700 30.63800
C  42.24500 11.04700 30.73100
C  44.95200 12.30700 28.53400
C  43.95100 11.87000 31.99400
O  44.91200 12.48800 32.48300
C  43.01300 11.22300 32.95900
C  43.53200 10.16400 33.85000
O  43.61300 8.99900 33.53100
O  43.96600 10.61700 35.05200
C  44.61000 9.73400 36.03000
H  37.12700 7.62000 32.21200
H  37.29600 8.79600 25.98000
H  42.80600 11.86800 26.62700
H  40.85900 9.57600 34.53300
H  38.15500 9.57000 34.12400
H  40.16800 7.47600 34.95900
H  39.12200 6.75700 33.74300
H  38.49200 7.57600 35.25700
H  38.70200 11.78500 34.20100
H  40.40200 12.14300 34.30900
H  39.38900 10.35700 36.40700
H  38.52000 11.89600 36.42100
H  34.83200 5.91400 29.97000
H  34.12500 7.39000 30.49400
H  35.47500 6.59000 31.49300
H  33.24900 7.92100 28.22100
H  33.59800 6.27200 28.38200
H  32.95200 6.87900 26.77500
H  38.38800 10.96200 24.79700
H  41.37300 11.04900 24.61200
H  38.61300 9.29700 23.25100
H  39.28700 8.21100 24.54000
H  40.36300 9.11200 23.62100
H  39.73900 12.86000 24.06100
H  41.28500 13.13400 24.98400
H  38.87300 12.64600 26.62500
H  38.63400 14.03500 25.49000
H  39.99700 14.01100 26.64500
H  44.63300 12.77100 27.60100
H  45.67400 11.49900 28.41400
H  45.41800 13.07100 29.15600
H  42.61000 11.89600 33.71600
H  43.80400 9.88900 36.74700
H  45.58400 10.04100 36.41000
H  44.61200 8.71700 35.63700

