158

Mg -2.61900 17.27200 27.03300
C  -3.13900 15.26000 29.91700
C  -3.02200 20.13000 29.05000
C  -2.60400 19.22300 24.40600
C  -2.45500 14.39100 25.17700
N  -3.03300 17.62600 29.24200
C  -3.13600 16.65700 30.20300
C  -3.46600 17.32100 31.59300
C  -3.30900 18.87000 31.30000
C  -3.10900 18.87500 29.76900
C  -4.47300 19.71300 31.79500
C  -2.64100 16.74300 32.76900
C  -2.31300 17.66300 33.94300
H  -2.06700 17.03600 35.30800
N  -2.72000 19.42900 26.75300
C  -2.86400 20.38300 27.71300
C  -2.99200 21.64300 27.05300
C  -2.88700 21.45700 25.62500
C  -2.72900 19.97100 25.56700
C  -3.16400 22.97100 27.78600
C  -2.82800 22.46800 24.48600
O  -2.79300 22.14500 23.33700
C  -2.92600 23.89500 24.86100
N  -2.45400 16.82900 25.14600
C  -2.48300 17.82500 24.16300
C  -2.51200 17.25400 22.74800
C  -2.13900 15.70000 23.02900
C  -2.29300 15.63000 24.55500
C  -3.70700 17.45900 21.80400
C  -0.75700 15.21600 22.50700
C  0.48200 15.86800 23.17300
N  -2.71000 15.22100 27.42100
C  -2.64000 14.18600 26.57100
C  -2.76700 12.91100 27.23500
C  -3.01800 13.26800 28.58800
C  -2.92700 14.75300 28.65300
C  -2.65200 11.47600 26.70000
C  -3.25700 12.74600 29.91800
O  -3.33300 11.56600 30.31600
C  -3.39400 14.02900 30.82800
C  -2.14500 13.85900 31.66700
O  -0.97900 14.17300 31.38400
O  -2.42800 13.26200 32.94800
C  -1.37400 13.22900 33.88500
H  -3.08700 20.97400 29.74000
H  -2.67900 19.77900 23.46900
H  -2.49500 13.52000 24.52000
H  -4.49800 17.02300 31.78100
H  -2.40500 19.32700 31.70200
H  -5.06000 19.04100 32.42000
H  -4.99300 20.07300 30.90700
H  -4.29800 20.60400 32.39800
H  -1.69500 16.38600 32.36300
H  -3.13900 15.87700 33.20500
H  -3.19300 18.30200 34.01300
H  -1.33700 18.07800 33.69100
H  -2.28600 23.60000 27.64000
H  -3.42400 23.01500 28.84400
H  -4.01100 23.49500 27.34500
H  -3.88400 24.14200 25.31900
H  -2.96000 24.29300 23.84700
H  -2.17100 24.45100 25.41600
H  -1.57500 17.53200 22.26500
H  -2.97700 15.21800 22.52500
H  -4.40700 16.62400 21.82800
H  -3.30900 17.83100 20.86000
H  -4.31400 18.24500 22.25300
H  -0.73800 15.46300 21.44600
H  -0.80900 14.12900 22.57500
H  0.75900 16.78200 22.64700
H  1.33300 15.22400 22.94900
H  0.49900 15.95100 24.26000
H  -2.08600 11.46000 25.76900
H  -3.65800 11.15500 26.43200
H  -2.14100 10.87200 27.45000
H  -4.28900 14.08400 31.44700
H  -1.62600 13.56500 34.89100
H  -0.46400 13.72500 33.54500
H  -1.00800 12.20300 33.86600
Mg -12.39500 37.92900 42.79700
C  -10.03400 35.46600 41.67400
C  -10.35100 40.26400 41.21100
C  -14.88600 40.00400 43.00900
C  -14.32300 35.22600 43.99100
N  -10.47700 37.80100 41.51000
C  -9.62000 36.71000 41.30200
C  -8.37200 37.04400 40.52200
C  -8.50700 38.60800 40.53200
C  -9.83000 38.94300 41.19400
C  -7.31500 39.26500 41.25700
C  -8.39000 36.32600 39.12500
C  -7.27400 35.30300 38.78100
H  -6.30600 35.56000 37.59000
N  -12.55400 39.91700 42.29400
C  -11.65000 40.75700 41.62800
C  -12.28400 42.13300 41.53800
C  -13.59200 42.02600 42.14000
C  -13.72700 40.60800 42.46200
C  -11.60500 43.34600 40.96400
C  -14.62300 43.13400 42.37300
O  -14.23000 44.27100 42.09400
C  -16.01200 43.03300 42.83500
N  -14.37800 37.60900 43.27300
C  -15.16700 38.66700 43.38000
C  -16.54900 38.16900 43.74100
C  -16.29400 36.78400 44.46300
C  -14.92500 36.45600 43.89300
C  -17.39200 39.14700 44.57600
C  -17.44700 35.73900 44.46200
C  -17.84500 35.40200 45.93100
N  -12.24000 35.75200 42.95000
C  -13.11200 34.81300 43.47600
C  -12.49800 33.47600 43.39500
C  -11.30800 33.69100 42.68400
C  -11.19900 35.09300 42.42000
C  -13.13000 32.20900 43.94300
C  -10.13800 33.01700 42.13200
O  -9.79800 31.88100 42.18900
C  -9.24600 34.15800 41.55200
C  -7.95300 34.17300 42.26200
O  -6.99300 33.52500 41.97200
O  -7.92300 35.14600 43.28700
C  -6.65500 35.59600 43.87300
H  -9.71000 40.97800 40.68800
H  -15.76200 40.65500 42.98200
H  -14.85900 34.38900 44.44200
H  -7.58600 36.63500 41.15700
H  -8.58600 38.92900 39.49400
H  -6.39300 38.69800 41.12600
H  -7.58900 39.35100 42.30800
H  -7.16500 40.19000 40.70000
H  -8.36400 37.08200 38.34000
H  -9.39600 35.90400 39.11900
H  -7.79300 34.36100 38.60500
H  -6.67900 35.17900 39.68600
H  -11.94600 43.71800 39.99800
H  -10.55000 43.10000 40.84200
H  -11.66000 44.10100 41.74800
H  -16.68500 42.64300 42.07200
H  -16.42100 44.02800 43.00800
H  -16.01900 42.52400 43.79900
H  -17.15500 37.86800 42.88700
H  -15.97000 36.95600 45.49000
H  -16.80700 40.05800 44.70400
H  -17.67900 38.69700 45.52600
H  -18.33700 39.46500 44.13500
H  -17.18900 34.79900 43.97300
H  -18.39100 36.18300 44.14800
H  -17.69100 34.35000 46.16900
H  -18.89800 35.43300 46.21300
H  -17.32900 36.04900 46.64000
H  -14.17200 32.41400 44.18700
H  -12.44900 31.86900 44.72300
H  -13.06000 31.40300 43.21200
H  -9.00800 33.91300 40.51700
H  -5.84300 34.87500 43.78600
H  -6.78000 35.85800 44.92400
H  -6.48700 36.56900 43.41100

