158

Mg 24.39700 -5.08700 45.73500
C  26.92100 -2.92600 44.70200
C  22.24700 -3.57500 43.53700
C  22.18100 -7.65400 46.23800
C  26.85100 -6.97900 47.34100
N  24.63200 -3.65100 44.04900
C  25.76300 -2.86400 43.91700
C  25.50000 -1.85000 42.79300
C  23.99900 -1.72600 42.76200
C  23.54500 -3.03000 43.42900
C  23.55900 -0.47200 43.52300
C  26.04700 -2.32200 41.44200
C  26.21800 -1.30200 40.45600
H  25.50400 -1.50100 39.07200
N  22.41200 -5.50300 45.10800
C  21.73100 -4.72700 44.22200
C  20.39100 -5.21900 44.01800
C  20.38300 -6.49000 44.72100
C  21.65600 -6.60900 45.48800
C  19.34100 -4.45000 43.30200
C  19.24200 -7.39400 44.56200
O  18.21000 -7.13100 44.04100
C  19.30500 -8.76900 45.19700
N  24.54800 -7.09400 46.62400
C  23.48900 -7.90500 46.78800
C  23.85200 -9.25800 47.40700
C  25.32500 -9.07900 47.82800
C  25.60300 -7.61100 47.20700
C  22.87700 -9.72000 48.60300
C  26.27900 -10.14300 47.14800
C  27.51900 -10.49300 47.95700
N  26.39300 -4.87100 46.20200
C  27.26800 -5.67500 46.96700
C  28.48200 -4.95500 47.15000
C  28.41000 -3.91300 46.21600
C  27.12300 -3.88700 45.68200
C  29.51700 -5.53600 48.05300
C  29.11900 -2.74200 45.59500
O  30.24800 -2.32500 45.82400
C  28.17800 -2.12700 44.52600
C  27.90300 -0.68300 44.84700
O  27.46400 -0.22400 45.88500
O  28.34700 0.11700 43.84200
C  28.06800 1.53700 43.93600
H  21.67100 -2.83600 42.97600
H  21.47200 -8.45700 46.45000
H  27.62200 -7.57400 47.83500
H  26.03400 -0.93300 43.03900
H  23.68400 -1.60300 41.72600
H  22.81100 0.15700 43.04000
H  24.39300 0.20200 43.71900
H  23.04800 -0.75400 44.44300
H  25.36700 -3.06400 41.02400
H  26.96000 -2.85800 41.70200
H  27.26400 -1.32100 40.15300
H  26.08900 -0.28100 40.81800
H  18.84700 -5.06000 42.54600
H  19.89000 -3.76100 42.66000
H  18.64300 -3.85000 43.88700
H  19.27100 -8.66900 46.28200
H  20.25700 -9.22600 44.92700
H  18.59200 -9.51400 44.84500
H  23.70700 -10.03900 46.66100
H  25.53600 -8.94700 48.89000
H  21.98700 -9.09300 48.54200
H  23.41900 -9.66500 49.54700
H  22.75400 -10.80200 48.65600
H  26.59800 -9.76600 46.17600
H  25.80300 -11.10100 46.94000
H  28.17200 -11.10700 47.33700
H  27.17900 -11.17000 48.74100
H  27.95600 -9.70700 48.57300
H  30.32900 -4.85400 48.30700
H  29.98400 -6.41200 47.60200
H  29.10000 -5.76700 49.03300
H  28.70400 -2.18900 43.57400
H  28.94900 2.01000 44.37100
H  27.29500 1.79900 44.65700
H  27.70800 1.78800 42.93800
Mg 36.37500 48.86100 25.05000
C  36.43600 46.86800 27.88900
C  35.50400 51.61400 27.12200
C  36.20200 50.68700 22.32100
C  36.80900 45.99900 23.12500
N  35.90000 49.17700 27.26200
C  36.14800 48.23500 28.17500
C  36.03000 48.72300 29.60600
C  35.59100 50.27000 29.29500
C  35.66100 50.41900 27.81600
C  34.15300 50.62800 29.82600
C  37.32500 48.56400 30.41400
C  37.29300 47.92900 31.84200
H  36.04500 48.30100 32.74200
N  35.99500 50.88000 24.81600
C  35.69900 51.85100 25.75000
C  35.78100 53.14400 25.15400
C  35.87900 52.91600 23.73400
C  35.98800 51.43300 23.52900
C  35.60100 54.47100 25.88300
C  35.86300 53.95000 22.68600
O  35.62300 53.56200 21.54100
C  36.28800 55.36200 23.03200
N  36.46000 48.45000 22.97400
C  36.25100 49.32000 22.00800
C  36.54200 48.78500 20.61300
C  37.09100 47.39600 21.02100
C  36.74500 47.26100 22.47800
C  35.26500 48.75700 19.74200
C  38.67600 47.45100 20.79200
C  39.28200 46.34500 20.01500
N  36.51300 46.77500 25.39000
C  36.75800 45.72500 24.47000
C  36.88100 44.46800 25.25200
C  36.74000 44.93500 26.57600
C  36.51800 46.31200 26.59600
C  37.11500 43.03200 24.68900
C  36.78500 44.52900 27.97100
O  36.96000 43.48500 28.51800
C  36.42200 45.71300 28.84800
C  35.02600 45.44300 29.27900
O  34.03800 45.49100 28.60000
O  35.06000 45.07700 30.61300
C  33.70500 44.68800 31.27600
H  35.07200 52.41200 27.73000
H  36.09900 51.27700 21.40800
H  36.97500 45.21900 22.37900
H  35.20500 48.23000 30.12100
H  36.12900 51.12200 29.71000
H  33.92200 49.91600 30.61900
H  33.51300 50.46900 28.95800
H  34.01600 51.63800 30.21400
H  37.86700 49.51000 30.42600
H  37.86700 47.89900 29.74200
H  38.15600 48.34800 32.35900
H  37.43900 46.85100 31.76800
H  34.65800 54.92400 25.57900
H  36.47200 55.08000 25.64100
H  35.63600 54.38600 26.96900
H  36.52400 55.91000 22.12000
H  37.18100 55.35100 23.65700
H  35.46900 55.84700 23.56400
H  37.20800 49.46700 20.08400
H  36.62400 46.63600 20.39600
H  34.92300 49.77900 19.57800
H  34.42100 48.21200 20.16300
H  35.40700 48.30400 18.76000
H  39.09400 47.34100 21.79300
H  39.01700 48.44000 20.48600
H  38.55100 45.89200 19.34500
H  39.67100 45.63000 20.74000
H  40.10400 46.74900 19.42200
H  36.31000 42.37400 25.01800
H  37.96800 42.61000 25.22200
H  37.19200 42.90700 23.60900
H  37.12100 45.69100 29.68400
H  33.28200 43.94300 30.60100
H  33.16800 45.63400 31.34800
H  33.72800 44.28900 32.29000

