158

Mg 7.03700 2.83300 27.37500
C  8.44000 1.65500 30.43400
C  4.91000 4.82000 29.06700
C  5.78500 3.83700 24.47500
C  8.94800 0.38000 25.66000
N  6.82200 3.24500 29.43100
C  7.43600 2.67000 30.53700
C  6.92600 3.21300 31.81500
C  5.67400 4.01400 31.44700
C  5.74700 3.99900 29.86000
C  4.29700 3.48100 32.02300
C  8.02500 3.99200 32.68100
C  8.11500 3.78700 34.14500
H  9.41900 3.63400 34.89700
N  5.54500 4.09500 26.83600
C  4.79400 4.79400 27.70300
C  3.90800 5.65600 26.94400
C  4.26100 5.52000 25.53600
C  5.19700 4.41700 25.57000
C  2.90000 6.55900 27.62800
C  3.66300 6.22700 24.28100
O  3.95600 5.94500 23.11700
C  2.67500 7.29200 24.54800
N  7.29400 2.13100 25.28800
C  6.67600 2.79700 24.29600
C  6.89400 2.15800 22.91800
C  7.99400 1.04700 23.27700
C  8.09900 1.12700 24.80900
C  5.59900 1.56600 22.23900
C  9.44700 1.25900 22.70700
C  10.53000 2.21900 23.38000
N  8.42500 1.25900 27.89500
C  9.14700 0.43400 27.06900
C  10.08400 -0.28000 27.86800
C  9.83300 0.12600 29.22700
C  8.80600 1.03900 29.17600
C  10.97000 -1.36500 27.44300
C  10.16300 -0.07900 30.62000
O  10.78100 -1.02900 31.07100
C  9.27800 0.96100 31.49700
C  8.49500 0.31000 32.57600
O  7.48300 -0.27800 32.46300
O  9.11900 0.40900 33.75700
C  8.50400 -0.19500 34.98600
H  4.34900 5.57200 29.62700
H  5.50300 4.18300 23.47800
H  9.62900 -0.34300 25.20600
H  6.59500 2.29700 32.30400
H  5.69100 5.07600 31.69000
H  4.35500 2.46700 32.41800
H  3.61900 3.35500 31.18000
H  3.88000 4.20100 32.72700
H  7.86600 5.05800 32.51900
H  9.01700 3.66600 32.36900
H  7.51300 2.92900 34.44200
H  7.63000 4.62400 34.64800
H  2.51200 6.10100 28.53800
H  2.00800 6.76200 27.03600
H  3.39500 7.47200 27.95800
H  1.67900 7.02900 24.90400
H  2.40200 7.70400 23.57600
H  3.16000 8.09700 25.09900
H  7.43300 2.84600 22.26700
H  7.72800 0.02300 23.01500
H  4.73900 1.47600 22.90300
H  5.60200 0.53400 21.88900
H  5.37400 2.17000 21.36000
H  9.25100 1.58400 21.68500
H  9.93000 0.29100 22.57200
H  10.07500 2.57600 24.30400
H  10.75100 2.95200 22.60500
H  11.44600 1.65100 23.54300
H  11.86300 -1.39000 28.06700
H  11.15800 -1.27600 26.37300
H  10.38300 -2.28000 27.52400
H  9.97900 1.65800 31.95500
H  9.03400 0.27000 35.81700
H  8.64100 -1.27600 35.02700
H  7.44100 0.03800 35.05800
Mg 30.76400 58.07900 39.75600
C  28.42800 55.93200 38.71100
C  33.21000 55.78600 38.80600
C  33.02300 60.46800 40.13300
C  28.18700 60.42200 40.36400
N  30.80500 55.91600 38.98400
C  29.68600 55.31500 38.48300
C  30.08000 53.96600 37.77600
C  31.55800 53.81800 38.37900
C  31.90100 55.23200 38.71200
C  31.67900 52.78800 39.51300
C  29.99500 54.04300 36.17500
C  28.97800 53.08200 35.45900
H  28.06900 53.83200 34.45400
N  32.83300 58.15700 39.50000
C  33.71200 57.10600 39.10800
C  35.05600 57.58400 39.11900
C  35.05500 58.94000 39.67000
C  33.61400 59.25100 39.75600
C  36.24700 56.73300 38.68600
C  36.26600 59.83400 39.92100
O  37.39800 59.42600 39.68400
C  36.05700 61.22700 40.50100
N  30.68300 60.19000 40.20100
C  31.74400 60.98000 40.28300
C  31.38700 62.37400 40.81900
C  29.85500 62.35500 40.84400
C  29.48700 60.81400 40.44200
C  32.21700 62.67200 42.22500
C  29.20000 63.38200 39.89800
C  27.80000 63.95200 40.32600
N  28.75500 58.20600 39.65400
C  27.81800 59.20700 39.91600
C  26.52300 58.72100 39.60500
C  26.65700 57.46900 39.11500
C  28.07300 57.20000 39.12300
C  25.28400 59.53800 39.65300
C  25.96200 56.35900 38.38600
O  24.75800 56.20700 38.10400
C  27.09300 55.29800 38.20900
C  26.72900 54.06700 39.01100
O  27.15000 53.73600 40.14700
O  25.76100 53.31800 38.32000
C  25.17900 52.23400 39.05700
H  34.02500 55.06700 38.69100
H  33.59400 61.35800 40.40400
H  27.42700 61.15500 40.64300
H  29.35000 53.23900 38.13200
H  32.30600 53.54600 37.63400
H  32.44000 52.05700 39.24100
H  30.69800 52.33200 39.64100
H  32.04300 53.23900 40.43600
H  30.94000 53.72900 35.73200
H  29.91700 55.09500 35.90000
H  28.31600 52.53800 36.13300
H  29.62300 52.39300 34.91400
H  36.36400 57.01200 37.63800
H  35.95300 55.69100 38.80800
H  37.09500 56.89400 39.35100
H  36.98800 61.77100 40.66100
H  35.64600 61.19900 41.51000
H  35.43700 61.90500 39.91400
H  31.79700 63.12700 40.14600
H  29.69200 62.55100 41.90400
H  32.96400 63.44700 42.05200
H  32.73400 61.77600 42.56600
H  31.56100 63.03900 43.01500
H  29.13600 62.89900 38.92200
H  29.92100 64.13600 39.58500
H  27.37100 63.70800 41.29800
H  27.04700 63.74000 39.56800
H  27.91200 65.02400 40.16600
H  24.46600 58.86400 39.39800
H  25.36200 60.34500 38.92500
H  25.09400 60.02900 40.60700
H  27.11700 54.96500 37.17200
H  24.27400 52.65600 39.49600
H  25.77400 51.88000 39.89800
H  24.73000 51.46700 38.42600

