158

Mg -1.10200 17.76700 26.85000
C  -1.66100 15.23600 29.40300
C  -1.74600 20.10800 29.30000
C  -0.50300 19.88000 24.47100
C  -1.27600 15.15500 24.52700
N  -1.75300 17.65000 29.11400
C  -1.69300 16.52400 29.94000
C  -2.18900 16.97300 31.38300
C  -2.23800 18.52700 31.27700
C  -1.91800 18.81500 29.80600
C  -3.57400 19.25600 31.63300
C  -1.18900 16.44400 32.53800
C  -1.20400 17.24800 33.89900
H  -0.72600 16.50200 35.11900
N  -1.02400 19.64400 26.87200
C  -1.31200 20.50900 27.96500
C  -1.16600 21.84200 27.58300
C  -0.81600 21.79600 26.18700
C  -0.72800 20.39500 25.79600
C  -1.32100 23.00600 28.59100
C  -0.56600 22.93300 25.29600
O  -0.07800 22.83700 24.21200
C  -0.91100 24.28800 25.68600
N  -1.09300 17.58400 24.74900
C  -0.63200 18.60000 24.02800
C  -0.50200 18.14000 22.53200
C  -0.53000 16.60500 22.65000
C  -1.00900 16.40700 24.04300
C  -1.60700 18.75300 21.62500
C  0.85400 15.96000 22.29700
C  1.99900 16.12000 23.30600
N  -1.39600 15.68800 26.89900
C  -1.46200 14.77300 25.87300
C  -1.70500 13.47100 26.35500
C  -1.64000 13.56900 27.74900
C  -1.57100 14.94400 28.05800
C  -1.89300 12.22400 25.52200
C  -1.82700 12.78500 28.96300
O  -2.07600 11.62100 29.19100
C  -1.79600 13.90800 30.13500
C  -0.62500 13.56400 30.91100
O  0.52000 13.69100 30.43500
O  -0.93600 13.03000 32.13300
C  0.21100 12.82200 33.07300
H  -1.78100 20.78900 30.15300
H  -0.24400 20.60400 23.69500
H  -1.37900 14.31200 23.84000
H  -3.15200 16.47100 31.47900
H  -1.47400 19.00900 31.88700
H  -4.15600 18.56100 32.23700
H  -4.08100 19.50500 30.70100
H  -3.22400 20.16500 32.12100
H  -0.18100 16.22500 32.18700
H  -1.60000 15.47800 32.83000
H  -2.11800 17.79400 34.13300
H  -0.46600 18.02700 33.70700
H  -0.52300 23.74100 28.48800
H  -1.28300 22.77100 29.65500
H  -2.27100 23.53500 28.50200
H  -1.92400 24.35000 26.08500
H  -0.84600 25.05800 24.91700
H  -0.15400 24.60900 26.40000
H  0.36400 18.38700 21.91800
H  -1.18500 16.05400 21.97500
H  -2.08500 17.92000 21.10900
H  -1.28400 19.53900 20.94200
H  -2.36800 19.19400 22.26900
H  1.15900 16.51700 21.41100
H  0.79600 14.88800 22.10700
H  1.74400 15.67100 24.26600
H  2.19100 17.16800 23.53600
H  2.95800 15.69000 23.01800
H  -0.95900 11.82700 25.12500
H  -2.56800 12.50000 24.71200
H  -2.38000 11.43300 26.09200
H  -2.72500 13.90800 30.70600
H  1.09500 13.41100 32.82800
H  0.44400 11.76600 33.20800
H  -0.13500 13.26800 34.00600
Mg 0.29700 7.16300 26.13200
C  1.41300 9.30700 28.90100
C  0.03600 4.66300 28.37000
C  -0.57000 5.22100 23.57300
C  1.00000 9.81600 23.98800
N  0.63500 7.00400 28.42500
C  1.00700 7.97800 29.38600
C  0.92300 7.38900 30.78200
C  0.54200 5.84400 30.54700
C  0.34600 5.87100 29.00200
C  1.64300 4.82900 30.95300
C  -0.16300 8.12900 31.61900
C  0.16700 8.47900 33.10300
H  1.36600 7.79500 33.66500
N  -0.11100 5.18500 25.93500
C  -0.19200 4.32800 27.03400
C  -0.66800 3.04400 26.58900
C  -0.99000 3.22000 25.19500
C  -0.57200 4.60300 24.80600
C  -0.86400 1.85800 27.60700
C  -1.58700 2.22900 24.24900
O  -1.99400 2.57100 23.14900
C  -1.77400 0.81400 24.64700
N  0.31500 7.46600 24.08500
C  -0.10500 6.48000 23.20300
C  -0.24800 7.01200 21.72500
C  0.16100 8.54000 22.00100
C  0.50600 8.62600 23.50200
C  0.78100 6.39100 20.67800
C  -0.96800 9.53900 21.66500
C  -0.62300 10.74600 20.65400
N  1.05400 9.14100 26.39100
C  1.31900 10.09700 25.32500
C  1.86100 11.26900 25.89900
C  1.99000 11.04600 27.25400
C  1.45300 9.71100 27.52000
C  2.07800 12.58300 25.19700
C  2.30900 11.73200 28.49700
O  2.64700 12.88500 28.71300
C  1.81100 10.61000 29.63600
C  3.00600 10.31400 30.49900
O  3.86600 9.42600 30.40900
O  2.91800 11.16900 31.53700
C  4.06500 11.31000 32.51600
H  0.05200 3.85400 29.10400
H  -0.84500 4.58600 22.72800
H  1.12900 10.58400 23.22200
H  1.97000 7.38600 31.08400
H  -0.30300 5.43900 31.10400
H  1.36000 3.99400 31.59400
H  2.45700 5.33500 31.47200
H  2.04400 4.33700 30.06700
H  -1.08200 7.54400 31.61200
H  -0.49400 9.00500 31.06100
H  -0.75300 8.14400 33.58300
H  0.31900 9.53700 33.31600
H  -1.72600 1.23800 27.35900
H  -1.09900 2.20500 28.61300
H  0.09400 1.33700 27.58300
H  -2.20200 0.24700 23.82000
H  -2.52300 0.86000 25.43700
H  -0.80800 0.39600 24.93300
H  -1.28200 6.80200 21.45200
H  1.05100 8.81400 21.43500
H  1.59000 5.85600 21.17500
H  1.24700 7.14000 20.03800
H  0.26600 5.68700 20.02500
H  -1.34400 9.84800 22.64000
H  -1.79300 8.99300 21.20900
H  0.35400 10.50000 20.23900
H  -0.51000 11.62700 21.28600
H  -1.45800 10.88700 19.96700
H  1.28700 12.82300 24.48600
H  3.07000 12.64100 24.75000
H  2.10500 13.34200 25.97800
H  0.96500 10.95800 30.22900
H  4.30700 12.35300 32.72100
H  5.01700 11.00900 32.07900
H  3.78500 10.89500 33.48400

