158

Mg 1.52500 8.62000 27.63000
C  1.89800 11.09200 30.21200
C  1.66000 6.21400 30.26600
C  1.88100 6.34500 25.39400
C  2.02500 11.23000 25.38800
N  1.67800 8.69700 29.99500
C  1.77300 9.81500 30.81800
C  1.52700 9.46800 32.34300
C  1.79400 7.84700 32.22600
C  1.70900 7.53000 30.69400
C  3.19100 7.31300 32.72900
C  0.11900 9.81900 32.79400
C  -0.19100 9.58800 34.31000
H  0.86100 9.15100 35.31200
N  1.50100 6.59300 27.76600
C  1.57600 5.78700 28.90700
C  1.44200 4.44600 28.51300
C  1.58800 4.39700 27.08600
C  1.70300 5.80900 26.69200
C  1.43800 3.34500 29.50300
C  1.67500 3.15600 26.06600
O  1.78200 3.35800 24.87400
C  1.53200 1.74100 26.67600
N  1.85400 8.72900 25.65200
C  2.01800 7.65300 24.91700
C  2.21800 8.06000 23.43500
C  2.16900 9.57700 23.47500
C  1.93800 9.88400 24.92900
C  3.42300 7.45800 22.64100
C  1.23300 10.27000 22.42200
C  -0.18000 10.41300 22.96900
N  1.83500 10.75700 27.71600
C  1.99200 11.62000 26.69700
C  1.99200 12.95200 27.20100
C  1.97100 12.80500 28.63200
C  1.88500 11.44300 28.85100
C  2.14100 14.25400 26.43200
C  2.04500 13.48700 29.96400
O  2.02900 14.64700 30.26900
C  2.03900 12.30700 31.02400
C  3.18600 12.38200 31.93200
O  4.36600 12.09300 31.76000
O  2.71600 12.85500 33.16900
C  3.57700 12.73200 34.38200
H  1.44500 5.52200 31.08300
H  2.22900 5.62600 24.64900
H  2.10800 11.97600 24.59400
H  2.22700 10.06600 32.92600
H  0.96100 7.32500 32.69600
H  3.42400 8.01600 33.52800
H  3.94300 7.36800 31.94200
H  3.17100 6.31200 33.16000
H  -0.53500 9.15900 32.22500
H  0.03400 10.88900 32.60400
H  -0.98700 8.84600 34.24800
H  -0.55900 10.49800 34.78200
H  2.26200 2.63100 29.46400
H  0.52300 2.75600 29.43800
H  1.40600 3.65400 30.54700
H  0.49100 1.53700 26.92700
H  2.14200 1.53100 27.55500
H  1.86900 1.10700 25.85700
H  1.26500 7.72900 23.02300
H  3.16900 9.97200 23.30000
H  3.97000 8.37400 22.41800
H  3.08400 6.91900 21.75600
H  4.12600 6.76500 23.10200
H  1.08200 9.74900 21.47700
H  1.53400 11.29300 22.20000
H  -0.17100 11.21800 23.70300
H  -0.59600 9.48200 23.35400
H  -0.84200 10.73500 22.16500
H  1.83200 14.06200 25.40500
H  3.20400 14.48600 26.49200
H  1.63300 15.04300 26.98800
H  1.10300 12.51100 31.54300
H  3.35900 13.63600 34.95000
H  4.63000 12.81300 34.11200
H  3.39100 11.79000 34.89900
Mg -5.34400 25.56100 25.95700
C  -4.12500 27.22300 28.77000
C  -7.43300 23.69100 28.04800
C  -6.24300 23.67400 23.35300
C  -3.36400 27.54700 23.95800
N  -5.74700 25.43300 28.12100
C  -5.04800 26.16300 29.09400
C  -5.63800 25.80800 30.45300
C  -6.43800 24.47100 30.21000
C  -6.50800 24.45200 28.70700
C  -5.72900 23.22200 30.74800
C  -6.54600 26.97200 30.98800
C  -6.57500 27.12600 32.50700
H  -5.91500 26.10500 33.46400
N  -6.71200 23.97900 25.70700
C  -7.52900 23.47300 26.64700
C  -8.43000 22.46000 26.05600
C  -8.03300 22.41200 24.62700
C  -6.96400 23.37700 24.48500
C  -9.54000 21.75100 26.77100
C  -8.59400 21.56300 23.45600
O  -8.14400 21.53200 22.30800
C  -9.82000 20.77200 23.74200
N  -4.97100 25.74100 23.95800
C  -5.23400 24.69700 23.12700
C  -4.60000 24.90700 21.75400
C  -3.97100 26.35900 21.87000
C  -4.14600 26.62200 23.35800
C  -3.67100 23.78700 21.27900
C  -4.63800 27.39300 21.08900
C  -3.94600 28.72200 20.82100
N  -3.94400 27.04000 26.21300
C  -3.26400 27.84300 25.32000
C  -2.48900 28.84800 26.02900
C  -2.80400 28.66200 27.40800
C  -3.67600 27.52000 27.45200
C  -1.52200 29.89200 25.43800
C  -2.53900 29.18200 28.76100
O  -1.94900 30.16200 29.17500
C  -3.47700 28.28200 29.67700
C  -2.72700 27.59100 30.72800
O  -2.14000 26.55700 30.63500
O  -2.76600 28.28200 31.89100
C  -2.03200 27.77600 33.01900
H  -8.10800 23.05900 28.62900
H  -6.33600 23.12000 22.41700
H  -2.69600 28.19600 23.38800
H  -4.80000 25.67200 31.13700
H  -7.44100 24.44100 30.63400
H  -5.60500 22.51000 29.93200
H  -6.41700 22.88800 31.52400
H  -4.87300 23.52400 31.35100
H  -7.55800 26.83600 30.60500
H  -6.28000 27.93900 30.56100
H  -7.63600 27.16900 32.75200
H  -6.33100 28.16800 32.70900
H  -9.78400 20.73200 26.47200
H  -10.43700 22.34700 26.94000
H  -9.23500 21.53900 27.79600
H  -10.25100 20.55100 22.76600
H  -10.57900 21.43300 24.15800
H  -9.69600 19.88000 24.35600
H  -5.44400 25.00300 21.07200
H  -2.91900 26.32900 21.58700
H  -2.84200 24.23100 20.72700
H  -4.24400 23.17300 20.58400
H  -3.22300 23.30000 22.14500
H  -5.54800 27.80100 21.53000
H  -4.91000 26.95100 20.13000
H  -2.90800 28.72800 21.15300
H  -4.48700 29.60200 21.16900
H  -3.95100 28.92800 19.75000
H  -1.64500 29.96600 24.35700
H  -0.46500 29.66900 25.58400
H  -1.69700 30.85800 25.91000
H  -4.22900 28.95700 30.08500
H  -1.07600 28.27600 33.17700
H  -1.78200 26.71900 32.94100
H  -2.59700 28.01900 33.91900

