158

Mg 0.19500 43.84700 26.93600
C  2.62700 43.83500 29.55900
C  -2.12100 43.11800 29.33800
C  -1.89800 43.25400 24.42200
C  2.88100 44.47200 24.66100
N  0.34800 43.63900 29.24300
C  1.34600 43.63000 30.10300
C  0.79300 43.62600 31.56100
C  -0.63700 43.06600 31.36800
C  -0.83400 43.16600 29.89500
C  -1.00800 41.70300 31.94000
C  0.88600 45.02300 32.27700
C  1.41300 44.99800 33.66400
H  0.93000 43.78700 34.53300
N  -1.79000 43.42200 26.87700
C  -2.54200 43.19800 27.97600
C  -3.93400 43.10500 27.50100
C  -3.89700 42.88400 26.04800
C  -2.49100 43.20700 25.73600
C  -5.12900 42.92600 28.44700
C  -5.03400 42.44000 25.21700
O  -4.85100 42.09200 24.06000
C  -6.47500 42.17800 25.72300
N  0.50100 43.90400 24.89300
C  -0.55300 43.60400 24.03300
C  -0.18100 43.62100 22.58200
C  1.25400 44.38400 22.67400
C  1.62800 44.22500 24.14900
C  -0.29800 42.27000 21.88400
C  1.17600 45.95300 22.27800
C  2.03200 46.34600 21.06000
N  2.29900 44.07000 27.05200
C  3.24300 44.28000 26.03600
C  4.56600 44.31100 26.59700
C  4.30300 44.15700 27.98000
C  2.98900 44.09400 28.17900
C  5.82300 44.44900 25.86500
C  4.99500 44.00600 29.26100
O  6.18100 43.90100 29.49000
C  3.94100 43.94900 30.35100
C  4.16000 42.79500 31.27800
O  4.07900 41.64900 30.86600
O  4.65000 43.09600 32.52600
C  4.95900 41.89400 33.36200
H  -2.91000 42.81500 30.02900
H  -2.55500 42.93600 23.60900
H  3.65900 44.74300 23.94400
H  1.43800 42.91000 32.07100
H  -1.32600 43.80400 31.78000
H  -0.50600 40.93800 31.34800
H  -2.09800 41.70600 31.91500
H  -0.61300 41.70600 32.95600
H  -0.06100 45.56000 32.31200
H  1.46800 45.63900 31.59100
H  1.27500 45.91800 34.23300
H  2.47800 44.78000 33.59100
H  -5.85900 43.73500 28.41700
H  -4.82200 42.65200 29.45700
H  -5.60000 42.02000 28.06600
H  -6.42300 41.24200 26.27900
H  -7.07500 42.14900 24.81400
H  -6.90800 42.99100 26.30600
H  -0.90200 44.25300 22.06400
H  1.94700 43.86900 22.00800
H  -0.63200 42.47800 20.86800
H  -0.91900 41.54100 22.40500
H  0.71300 41.93100 21.65800
H  1.49700 46.54100 23.13800
H  0.14800 46.19100 22.00400
H  1.32500 46.78700 20.35600
H  2.50000 45.46800 20.61600
H  2.76000 47.12100 21.29800
H  5.77100 43.95500 24.89500
H  6.68900 44.22300 26.48800
H  5.79200 45.51000 25.61900
H  4.01400 44.83900 30.97600
H  5.84700 41.32800 33.08000
H  4.08700 41.24100 33.35700
H  5.00200 42.25400 34.39000
Mg -1.08300 34.99400 27.34800
C  -3.08800 33.22900 29.55300
C  -0.41200 37.20800 29.88900
C  0.46200 36.83000 25.01600
C  -2.45500 33.00900 24.69700
N  -1.79900 35.22900 29.46300
C  -2.40000 34.23500 30.19400
C  -2.29800 34.53000 31.73700
C  -1.70200 35.97700 31.75700
C  -1.24400 36.18900 30.31100
C  -2.65600 37.13500 32.18600
C  -1.43600 33.51300 32.53600
C  -2.07200 32.71300 33.64600
H  -2.61600 33.58200 34.83100
N  0.08800 36.65400 27.53600
C  0.20900 37.42200 28.62400
C  1.14700 38.45200 28.31600
C  1.49100 38.42700 26.91000
C  0.65000 37.31600 26.41200
C  1.64100 39.42900 29.38000
C  2.54500 39.14400 26.08300
O  2.93700 38.78500 24.97800
C  3.06400 40.46300 26.58600
N  -1.08500 34.91600 25.19000
C  -0.34000 35.83700 24.48700
C  -0.25600 35.50700 22.94200
C  -1.25100 34.28300 22.90400
C  -1.62500 34.05400 24.37600
C  -0.63100 36.78400 22.09900
C  -0.50900 32.98200 22.36600
C  0.74000 32.52200 23.20400
N  -2.52400 33.49500 27.11300
C  -2.95100 32.82700 25.95700
C  -3.96100 31.87200 26.37600
C  -3.93800 31.85400 27.74100
C  -3.10100 32.95300 28.16900
C  -4.73200 30.96600 25.45700
C  -4.43000 31.18400 28.94000
O  -5.17200 30.23300 29.10400
C  -3.80600 31.92700 30.18700
C  -4.92800 32.20400 31.11900
O  -5.71700 33.14400 31.03300
O  -4.91200 31.29700 32.11700
C  -5.78200 31.59200 33.25400
H  -0.02300 37.76600 30.74300
H  1.19000 37.24500 24.31500
H  -2.78300 32.39400 23.85600
H  -3.32000 34.48000 32.11400
H  -0.81400 36.13500 32.36900
H  -3.06300 37.51900 31.25100
H  -2.11600 37.90800 32.73200
H  -3.48900 36.87200 32.83800
H  -0.57200 33.98100 33.00700
H  -1.09100 32.73700 31.85200
H  -1.21200 32.18600 34.06000
H  -2.86800 32.07200 33.26800
H  2.58900 39.02100 29.73200
H  0.91100 39.60000 30.17100
H  1.76100 40.45800 29.04300
H  2.32000 41.18900 26.91500
H  3.75300 40.95600 25.90000
H  3.67900 40.25500 27.46100
H  0.78900 35.21400 22.84100
H  -2.15700 34.58700 22.37900
H  -1.45900 36.61900 21.40900
H  0.28900 37.11700 21.61800
H  -0.99600 37.60000 22.72200
H  -0.07700 33.27300 21.40900
H  -1.10000 32.12500 22.04300
H  0.83200 32.99500 24.18100
H  1.64300 32.54600 22.59400
H  0.55800 31.46400 23.39700
H  -4.13100 30.39600 24.74900
H  -5.37500 31.67900 24.94100
H  -5.22000 30.26100 26.13000
H  -3.06300 31.39600 30.78200
H  -5.55700 32.46000 33.87400
H  -5.87600 30.64500 33.78500
H  -6.80500 31.77900 32.92900

