158

Mg 30.12700 58.90300 38.56300
C  27.24100 57.05100 37.76800
C  32.05000 56.28700 37.64800
C  32.88700 60.95100 38.52100
C  28.01900 61.76600 38.85100
N  29.63100 57.04400 37.64500
C  28.41000 56.37000 37.47400
C  28.52400 54.96000 37.04300
C  30.09000 54.68300 37.36700
C  30.65700 56.11000 37.60100
C  30.39900 53.77000 38.56500
C  28.24200 54.78700 35.49800
C  26.87500 54.17900 35.05400
H  26.18100 55.06100 33.94200
N  32.21000 58.59900 38.30700
C  32.78000 57.46800 37.93400
C  34.24500 57.63300 37.88000
C  34.46000 58.97100 38.24700
C  33.16000 59.54700 38.39400
C  35.19900 56.55400 37.50000
C  35.81300 59.62100 38.50100
O  36.91900 59.08200 38.24400
C  35.92400 60.86800 39.22900
N  30.40600 61.01400 38.63800
C  31.63700 61.60900 38.56500
C  31.45700 63.11800 38.67300
C  29.93500 63.37900 38.87100
C  29.40600 61.95200 38.68800
C  32.44300 63.95500 39.59000
C  29.40200 64.42900 37.81600
C  28.45000 65.49400 38.32900
N  28.09000 59.39200 38.36900
C  27.38700 60.55600 38.66400
C  25.93700 60.35800 38.53700
C  25.83100 59.00600 38.18400
C  27.14200 58.46300 38.14300
C  24.86300 61.42700 38.75200
C  24.94200 57.90400 37.97500
O  23.69800 57.86300 38.06800
C  25.75000 56.64300 37.57700
C  25.30100 55.61000 38.44400
O  25.76100 55.44000 39.56900
O  24.33500 54.80300 37.87600
C  23.66300 53.85900 38.73500
H  32.66400 55.38500 37.60200
H  33.68800 61.65900 38.30000
H  27.35300 62.58100 39.14100
H  27.92700 54.35300 37.72400
H  30.55500 54.19600 36.51000
H  31.09400 52.94400 38.40900
H  29.52900 53.13800 38.74600
H  30.62800 54.17000 39.55200
H  29.02200 54.24700 34.96100
H  28.47000 55.79400 35.14700
H  26.34200 53.90600 35.96500
H  27.15200 53.20800 34.64200
H  35.97000 56.59400 38.27000
H  35.69000 56.90100 36.59000
H  34.75000 55.56600 37.40000
H  36.92700 61.13400 39.56400
H  35.17100 60.99300 40.00700
H  35.63400 61.60000 38.47500
H  31.78300 63.42700 37.67900
H  29.68000 63.69200 39.88400
H  31.83300 64.24500 40.44600
H  32.92400 64.82000 39.13300
H  33.19200 63.21800 39.87900
H  28.88300 64.05100 36.93600
H  30.30400 64.96800 37.52600
H  28.90600 66.42600 38.66300
H  27.85900 65.18400 39.19100
H  27.65700 65.83300 37.66300
H  23.95900 61.04900 38.27500
H  25.06800 62.44700 38.42700
H  24.80100 61.41400 39.84000
H  25.62400 56.37700 36.52800
H  23.27000 54.40000 39.59600
H  24.30700 53.08700 39.15600
H  22.96800 53.26500 38.14200
Mg -5.46100 24.81600 26.06400
C  -3.79900 26.20500 28.81000
C  -6.64300 22.38200 28.22100
C  -7.24300 23.62500 23.46800
C  -3.75400 26.93800 23.94000
N  -5.22100 24.44900 28.27700
C  -4.70300 25.23700 29.20700
C  -5.08800 24.83900 30.60700
C  -5.54500 23.39100 30.42000
C  -5.82400 23.33700 28.85200
C  -4.56400 22.30900 30.91400
C  -6.13700 25.67100 31.23700
C  -6.22100 25.94200 32.73100
H  -5.53500 25.00600 33.70600
N  -6.75500 23.29300 25.88200
C  -7.04500 22.34100 26.82300
C  -7.81900 21.24000 26.22600
C  -8.14200 21.71900 24.92000
C  -7.41700 22.98400 24.68300
C  -8.34600 20.08000 27.08300
C  -9.17600 21.12000 23.94800
O  -9.35900 21.55900 22.83800
C  -10.00000 19.91800 24.32300
N  -5.49300 25.32800 23.95200
C  -6.44800 24.74800 23.13900
C  -6.42900 25.31800 21.73200
C  -5.21000 26.31300 21.82300
C  -4.76800 26.24100 23.32500
C  -6.33400 24.31000 20.49300
C  -5.50400 27.76800 21.34900
C  -4.25800 28.48400 20.85100
N  -4.03500 26.21100 26.22800
C  -3.33200 26.96700 25.30000
C  -2.46000 27.89700 26.00400
C  -2.50700 27.53000 27.35000
C  -3.50200 26.59800 27.48200
C  -1.58500 28.94200 25.43200
C  -1.94200 27.76700 28.64200
O  -0.97200 28.43700 29.05100
C  -2.85100 27.08500 29.66800
C  -2.00900 26.26500 30.53600
O  -1.40900 25.24500 30.17300
O  -1.99500 26.79700 31.81900
C  -1.19800 26.17300 32.86300
H  -6.90700 21.52200 28.84000
H  -7.91900 23.32700 22.66400
H  -3.24700 27.64500 23.28100
H  -4.10500 24.88600 31.07600
H  -6.53200 23.31500 30.87600
H  -4.50500 22.44000 31.99400
H  -3.63500 22.46900 30.36500
H  -4.94200 21.31200 30.68700
H  -7.13700 25.48800 30.84400
H  -5.80600 26.61000 30.79300
H  -7.25600 26.04600 33.05800
H  -5.72700 26.90800 32.83400
H  -9.42700 19.98400 27.18400
H  -7.94700 19.95700 28.09000
H  -8.11400 19.16000 26.54700
H  -9.16800 19.21900 24.40700
H  -10.61500 19.47900 23.53700
H  -10.60500 19.96900 25.22900
H  -7.33300 25.92400 21.67800
H  -4.40800 25.84800 21.25000
H  -6.01200 23.35100 20.89800
H  -5.58900 24.63800 19.76700
H  -7.31600 24.24500 20.02500
H  -5.77600 28.25700 22.28400
H  -6.40400 27.81500 20.73500
H  -3.38500 27.84400 20.72500
H  -3.92100 29.12800 21.66400
H  -4.46000 28.96000 19.89100
H  -1.54400 28.93500 24.34300
H  -0.57900 28.85000 25.84000
H  -2.00900 29.93400 25.58700
H  -3.41500 27.76000 30.31200
H  -1.27900 25.08700 32.83800
H  -1.52600 26.67400 33.77400
H  -0.14400 26.43500 32.76500

