158

Mg 41.21800 8.46500 30.04700
C  43.07300 9.86700 32.68900
C  38.89500 7.44900 32.23500
C  39.48200 7.54700 27.49400
C  44.02700 9.26200 27.88500
N  41.05700 8.62900 32.27200
C  41.85400 9.24700 33.13500
C  41.27900 9.24200 34.60000
C  40.03600 8.32800 34.40700
C  39.93900 8.16900 32.85600
C  40.09100 7.04400 35.29000
C  41.02300 10.72000 35.06700
C  40.29500 10.67400 36.44300
H  40.86600 11.60100 37.58200
N  39.46100 7.48500 29.90500
C  38.64100 7.12900 30.94100
C  37.51600 6.37300 30.36100
C  37.53200 6.66000 28.97000
C  38.85200 7.22800 28.71400
C  36.56300 5.76100 31.23500
C  36.37400 6.57700 27.93000
O  36.46000 7.09400 26.82700
C  35.13500 5.88700 28.34400
N  41.79700 8.24500 27.99300
C  40.80400 7.92800 27.13700
C  41.33600 7.93000 25.70300
C  42.81600 8.33500 25.89500
C  42.91800 8.59200 27.35200
C  41.04800 6.62000 24.93500
C  43.12100 9.62700 25.01800
C  42.53500 10.95000 25.41700
N  43.19200 9.39200 30.12700
C  44.19800 9.63700 29.23800
C  45.16200 10.45500 29.84600
C  44.77200 10.55000 31.16300
C  43.57500 9.89200 31.31100
C  46.35400 11.08200 29.19300
C  45.12900 11.19000 32.37300
O  46.04800 11.97600 32.59300
C  44.18300 10.65300 33.43500
C  44.91300 9.89600 34.55000
O  45.67600 8.98100 34.31700
O  44.34500 10.24600 35.78300
C  44.82800 9.51300 36.90900
H  38.14800 7.12800 32.96300
H  38.91800 7.16200 26.64200
H  44.81900 9.60500 27.21600
H  41.98300 8.81000 35.31000
H  39.21300 8.89200 34.84400
H  40.70100 7.22100 36.17600
H  40.48900 6.09700 34.92700
H  39.02900 6.90100 35.49200
H  40.40400 11.29400 34.37700
H  41.98000 11.23200 35.16100
H  40.42100 9.68700 36.88800
H  39.23200 10.87000 36.30000
H  36.99600 5.69600 32.23300
H  36.27600 4.75900 30.91300
H  35.66700 6.36300 31.38500
H  35.35300 4.87500 28.68600
H  34.44700 5.79100 27.50400
H  34.69200 6.36700 29.21700
H  40.74900 8.71400 25.22400
H  43.54700 7.53200 25.80500
H  40.61700 5.86600 25.59400
H  41.88700 6.15100 24.42100
H  40.26200 6.82100 24.20600
H  42.76600 9.48800 23.99700
H  44.19500 9.81000 24.98600
H  42.09500 11.02600 26.41100
H  41.89700 11.39600 24.65500
H  43.39200 11.62400 25.40300
H  45.96200 11.65500 28.35200
H  46.94600 10.29300 28.72900
H  46.91300 11.76300 29.83500
H  43.63900 11.46500 33.91700
H  44.63900 10.27200 37.66700
H  45.91500 9.43500 36.93200
H  44.33600 8.55800 37.09200
Mg -9.56300 17.67400 41.62300
C  -5.98700 17.53800 41.52200
C  -9.18400 21.05400 40.59900
C  -12.73000 17.71800 40.99900
C  -9.61300 14.26100 42.45700
N  -7.78000 19.08000 40.96100
C  -6.43600 18.77100 40.98800
C  -5.60000 19.90800 40.50000
C  -6.65500 21.12300 40.66500
C  -7.96700 20.40000 40.68300
C  -6.35800 21.97400 41.94700
C  -5.18800 19.64100 39.05600
C  -3.77400 19.12600 38.93200
H  -3.50300 17.62500 38.51900
N  -10.80000 19.17100 41.00400
C  -10.47700 20.52700 40.60900
C  -11.68000 21.21500 40.29900
C  -12.72900 20.32800 40.47100
C  -12.11900 18.99200 40.74300
C  -11.58300 22.74700 39.85700
C  -14.15900 20.64700 40.08400
O  -14.55200 21.73800 39.87400
C  -15.15800 19.59100 39.85900
N  -10.90300 16.15400 41.51700
C  -12.18500 16.45600 41.35900
C  -13.01000 15.20200 41.46100
C  -12.08400 14.15000 42.06200
C  -10.78300 14.83600 41.86500
C  -14.32200 15.40600 42.31900
C  -12.18800 12.72500 41.38100
C  -12.40900 11.50500 42.25800
N  -8.15200 16.20200 42.01300
C  -8.31800 14.87900 42.46300
C  -7.03600 14.32200 42.77500
C  -6.10200 15.40100 42.43100
C  -6.83800 16.45300 41.98900
C  -6.81200 13.01500 43.25300
C  -4.71900 15.73100 42.36600
O  -3.73400 15.04800 42.60600
C  -4.56400 17.21300 41.91300
C  -4.07400 18.07100 43.05100
O  -4.87600 18.74100 43.70000
O  -2.73100 18.00600 43.22700
C  -2.08700 18.82500 44.21800
H  -9.02100 22.13200 40.66000
H  -13.80100 17.67500 40.78800
H  -9.81700 13.22500 42.73500
H  -4.71300 20.08500 41.10800
H  -6.74600 21.81800 39.83000
H  -6.73400 21.63600 42.91300
H  -6.76100 22.95900 41.71000
H  -5.27100 22.00800 42.01800
H  -5.25800 20.57700 38.50100
H  -5.89200 18.90800 38.66300
H  -3.19400 19.26600 39.84500
H  -3.28900 19.86300 38.29200
H  -12.32100 22.81200 39.05700
H  -10.61000 22.96500 39.41700
H  -11.94600 23.38800 40.66100
H  -16.04300 19.97000 39.34800
H  -15.51600 19.28500 40.84200
H  -14.83700 18.74700 39.24800
H  -13.34100 14.90600 40.46600
H  -12.27800 14.21900 43.13200
H  -14.04300 16.12100 43.09200
H  -14.43200 14.43600 42.80500
H  -15.07800 15.67800 41.58200
H  -11.18700 12.62600 40.96300
H  -12.83100 12.75700 40.50100
H  -11.49400 10.92800 42.39000
H  -13.15100 10.90500 41.73200
H  -12.65900 11.70600 43.30000
H  -6.51500 12.43700 42.37800
H  -7.70200 12.65100 43.76600
H  -5.95800 13.04300 43.93000
H  -3.91200 17.26300 41.04100
H  -1.53600 18.23800 44.95300
H  -2.76300 19.50600 44.73600
H  -1.49800 19.57900 43.69500

