158

Mg 36.37900 49.34900 26.23500
C  36.64800 47.48500 29.34200
C  35.43500 52.06300 28.04500
C  36.06600 50.81900 23.28700
C  37.66000 46.44600 24.59400
N  36.06000 49.68900 28.49600
C  36.31700 48.86200 29.54600
C  36.25900 49.61600 30.87900
C  35.86200 51.08200 30.41100
C  35.84900 50.98200 28.88000
C  34.64800 51.77200 31.09700
C  37.61400 49.59000 31.75200
C  37.70000 49.29700 33.31000
H  36.53200 49.60500 34.21300
N  35.68700 51.22600 25.75400
C  35.41500 52.21600 26.61500
C  35.11200 53.42300 25.89100
C  35.25900 53.09100 24.48100
C  35.68000 51.67900 24.42900
C  34.79400 54.77500 26.55200
C  35.21600 53.99500 23.27200
O  35.17000 53.50200 22.17500
C  35.16300 55.42400 23.51100
N  36.77600 48.63700 24.22200
C  36.64200 49.52600 23.17800
C  37.05600 48.87800 21.91700
C  37.80400 47.52800 22.30400
C  37.43600 47.54100 23.82000
C  36.01200 48.80900 20.77200
C  39.39100 47.47900 22.06500
C  39.94400 46.05800 21.85100
N  36.81800 47.37000 26.75000
C  37.35900 46.35600 25.95900
C  37.44300 45.16600 26.79600
C  37.20900 45.57900 28.07700
C  36.78500 46.92400 28.01500
C  37.94800 43.83000 26.38100
C  37.20600 45.11900 29.45400
O  37.59400 44.05800 29.93700
C  36.89600 46.35500 30.34700
C  35.83300 45.94500 31.27800
O  34.67600 45.43700 31.01500
O  36.16200 46.32400 32.54100
C  35.08100 46.20100 33.55600
H  35.20200 52.97100 28.60400
H  35.94500 51.38800 22.36300
H  38.03400 45.51900 24.15500
H  35.50100 49.11500 31.48200
H  36.75700 51.65700 30.64900
H  34.87700 52.62000 31.74300
H  34.06000 51.05300 31.66800
H  33.90900 52.16800 30.40100
H  38.15800 50.52800 31.64100
H  38.18900 48.77400 31.31300
H  38.57400 49.82400 33.69300
H  37.94300 48.24100 33.43000
H  35.65600 55.41400 26.74000
H  34.35100 54.58300 27.52900
H  34.05500 55.32800 25.97200
H  34.13700 55.72200 23.72400
H  35.54900 55.91300 22.61700
H  35.89600 55.66400 24.28100
H  37.87300 49.49400 21.54200
H  37.26300 46.69600 21.85400
H  35.62600 47.80300 20.61000
H  36.45900 49.03200 19.80300
H  35.15200 49.45800 20.93600
H  39.92200 47.82500 22.95200
H  39.68200 47.99700 21.15200
H  39.11600 45.35000 21.82000
H  40.63300 45.77100 22.64600
H  40.58100 45.83600 20.99500
H  37.71600 43.75800 25.31800
H  37.40700 43.11600 27.00200
H  39.03600 43.80100 26.43800
H  37.81000 46.56700 30.90100
H  34.71100 45.23100 33.88600
H  34.24900 46.79100 33.17200
H  35.35800 46.69500 34.48700
Mg -11.13400 38.49500 41.30200
C  -9.06200 35.93600 40.40900
C  -8.79100 40.77800 40.11100
C  -13.47300 40.89500 41.36300
C  -13.61400 36.12900 42.24300
N  -9.12800 38.41900 40.48800
C  -8.49900 37.23800 40.15000
C  -7.17500 37.47600 39.39400
C  -7.00700 39.05500 39.51600
C  -8.34900 39.46000 40.17900
C  -5.70800 39.56500 40.22300
C  -7.19600 36.88300 37.95400
C  -6.01100 35.98900 37.53400
H  -5.28500 36.46600 36.24900
N  -11.15400 40.58000 40.82600
C  -10.06200 41.27700 40.38700
C  -10.44900 42.68300 40.20500
C  -11.89500 42.79300 40.52300
C  -12.24400 41.39100 40.90000
C  -9.43200 43.76100 39.64900
C  -12.80400 44.02200 40.40800
O  -12.30300 45.09400 40.01700
C  -14.28900 44.06900 40.64000
N  -13.23100 38.43500 41.82800
C  -13.93600 39.57600 41.72800
C  -15.38300 39.36300 42.02500
C  -15.48600 37.80600 42.27000
C  -14.04100 37.41000 42.15500
C  -15.96000 40.18900 43.19500
C  -16.32500 37.08800 41.16700
C  -17.88500 37.15300 41.37000
N  -11.30800 36.42100 41.33900
C  -12.31100 35.65400 41.84000
C  -11.86800 34.27700 41.94400
C  -10.62700 34.29000 41.30800
C  -10.32600 35.61700 41.01500
C  -12.72800 33.18000 42.48200
C  -9.48800 33.53200 40.83100
O  -9.24500 32.33900 40.97500
C  -8.38900 34.60300 40.31700
C  -7.17400 34.41000 41.10100
O  -6.53500 33.40800 40.95000
O  -6.91100 35.41900 42.02900
C  -5.84700 35.17500 43.03000
H  -7.98400 41.44900 39.80900
H  -14.18700 41.72000 41.38900
H  -14.33700 35.39000 42.59500
H  -6.38400 37.06800 40.02200
H  -7.00200 39.57600 38.55900
H  -5.94100 40.19900 41.07900
H  -5.25100 40.28100 39.54000
H  -5.03900 38.73600 40.45100
H  -7.20800 37.69800 37.23000
H  -8.11400 36.33200 37.75300
H  -6.32100 34.94400 37.53500
H  -5.17200 36.06000 38.22600
H  -9.85700 44.18600 38.73900
H  -8.38600 43.48300 39.51700
H  -9.48400 44.69300 40.21000
H  -14.53300 44.24700 41.68700
H  -14.77500 43.20300 40.19200
H  -14.75300 44.90000 40.10800
H  -15.91400 39.61700 41.10700
H  -15.83000 37.68100 43.29700
H  -16.51900 39.64400 43.95600
H  -16.71100 40.85600 42.77300
H  -15.17500 40.76800 43.68200
H  -16.03700 36.03800 41.21700
H  -16.09900 37.55000 40.20600
H  -18.43400 37.29200 40.43900
H  -18.17500 37.98200 42.01500
H  -18.19400 36.22300 41.84900
H  -12.12900 32.27900 42.61200
H  -13.58300 32.90900 41.86300
H  -13.05600 33.32600 43.51100
H  -8.19300 34.33900 39.27800
H  -4.98900 35.54000 42.46500
H  -5.71500 34.21200 43.52400
H  -5.89100 35.99400 43.74800

