158

Mg 9.33500 3.15400 27.63500
C  10.90600 1.40600 30.34300
C  7.38600 4.81600 30.09700
C  7.52300 4.40100 25.23100
C  10.79000 0.71100 25.42500
N  9.19500 3.15500 29.95400
C  10.05700 2.42900 30.83700
C  9.78800 2.80100 32.35800
C  8.68300 3.94900 32.17400
C  8.34700 3.95400 30.65100
C  7.38200 3.75300 33.07600
C  11.10100 3.24200 33.19400
C  10.97400 4.37900 34.23600
H  11.60100 4.14600 35.65400
N  7.78500 4.58100 27.65300
C  7.10500 5.11800 28.71700
C  6.17000 6.07100 28.25400
C  6.13600 6.00600 26.80600
C  7.20800 4.98400 26.52800
C  5.43800 6.99800 29.25400
C  5.29300 6.77100 25.65400
O  5.41100 6.48000 24.50300
C  4.25000 7.77800 26.08900
N  9.24800 2.76400 25.67500
C  8.47600 3.47700 24.87800
C  8.74800 3.08600 23.45200
C  9.61500 1.82300 23.47400
C  9.92300 1.73400 24.98500
C  7.50600 2.88800 22.53200
C  10.94400 1.78800 22.61000
C  10.94600 0.62100 21.56800
N  10.62600 1.44800 27.75500
C  11.11400 0.55700 26.79700
C  11.92400 -0.41900 27.52400
C  11.91600 -0.07000 28.85100
C  11.10200 1.01600 28.99500
C  12.67700 -1.57100 26.90400
C  12.39800 -0.48200 30.15000
O  13.18000 -1.40000 30.50500
C  11.78400 0.48000 31.10500
C  10.99600 -0.27900 32.20400
O  9.81800 -0.64300 32.22200
O  11.80900 -0.21600 33.29200
C  11.10500 -0.48600 34.54700
H  6.94200 5.44500 30.87100
H  6.97900 4.76200 24.35600
H  11.16900 0.00500 24.68400
H  9.39700 1.88200 32.79500
H  9.14000 4.87900 32.51300
H  7.35800 4.60500 33.75500
H  7.45200 2.89400 33.74300
H  6.39600 3.58500 32.64200
H  11.91100 3.54300 32.53000
H  11.49300 2.33700 33.65800
H  9.93000 4.57000 34.48300
H  11.52700 5.16600 33.72300
H  6.11900 7.83400 29.41100
H  5.24000 6.51900 30.21300
H  4.51700 7.36300 28.79900
H  3.46300 7.40300 26.74200
H  3.71800 8.38300 25.35400
H  4.81600 8.50200 26.67500
H  9.40400 3.84900 23.03200
H  9.03300 0.94300 23.19900
H  6.75600 2.52400 23.23400
H  7.54800 2.15400 21.72700
H  7.21600 3.78400 21.98300
H  11.87900 1.60900 23.14000
H  11.19000 2.69200 22.05400
H  11.32900 1.06500 20.64900
H  9.92500 0.25700 21.45700
H  11.62900 -0.07600 22.05400
H  12.47600 -1.73600 25.84500
H  12.42400 -2.51200 27.39200
H  13.75700 -1.52900 27.04500
H  12.52600 1.03200 31.68200
H  11.69000 -1.20100 35.12600
H  10.05200 -0.76700 34.53700
H  11.34700 0.44600 35.05800
Mg -11.01600 15.73400 43.56300
C  -7.58700 16.78400 43.51500
C  -11.77100 19.04500 42.85100
C  -14.07400 14.74800 43.14000
C  -9.85800 12.49300 43.41500
N  -9.84200 17.72700 43.20100
C  -8.44800 17.87000 43.20700
C  -8.08500 19.32200 42.78900
C  -9.42900 20.12200 42.89900
C  -10.40000 18.92700 43.03300
C  -9.59300 21.02400 44.16800
C  -7.48500 19.41500 41.41500
C  -6.18000 20.21200 41.27100
H  -4.97900 19.53500 40.54900
N  -12.74700 16.68200 43.04700
C  -12.85100 18.06200 42.89000
C  -14.24700 18.34100 42.60200
C  -14.95100 17.13000 42.62600
C  -13.93900 16.13400 42.90500
C  -14.75600 19.76700 42.21300
C  -16.49200 16.97000 42.32600
O  -17.09200 17.94300 41.92600
C  -17.21700 15.69300 42.49700
N  -11.82400 13.79900 43.27400
C  -13.17400 13.71100 43.27000
C  -13.63400 12.24100 43.40300
C  -12.25400 11.45300 43.42300
C  -11.22500 12.64000 43.41200
C  -14.49000 11.99300 44.62600
C  -12.03900 10.29600 42.28200
C  -11.93000 8.82800 42.64500
N  -9.15700 14.80600 43.54600
C  -8.90000 13.47200 43.55000
C  -7.49600 13.26400 43.69600
C  -6.94900 14.53700 43.78000
C  -7.98300 15.42100 43.61100
C  -6.81300 11.98200 43.65300
C  -5.73600 15.33400 44.03300
O  -4.59500 15.04400 44.26700
C  -6.21700 16.80700 44.02700
C  -6.15100 17.27700 45.46400
O  -6.32900 16.55500 46.44000
O  -5.69900 18.56500 45.44000
C  -5.20800 18.99400 46.72000
H  -12.09900 20.07900 42.73000
H  -15.06500 14.29200 43.18300
H  -9.42200 11.49200 43.39600
H  -7.34400 19.63000 43.52600
H  -9.70500 20.69600 42.01400
H  -8.61500 21.21300 44.60800
H  -10.35700 20.81400 44.91700
H  -9.99100 21.96400 43.78400
H  -8.19600 19.87000 40.72400
H  -7.35400 18.34600 41.24900
H  -5.88600 20.57400 42.25600
H  -6.50600 21.04100 40.64300
H  -15.37000 19.66500 41.31900
H  -14.00200 20.50300 41.93300
H  -15.25700 20.20300 43.07800
H  -18.29300 15.75500 42.33100
H  -17.07800 15.23300 43.47500
H  -16.94800 14.93900 41.75800
H  -14.25400 12.04100 42.52900
H  -12.04100 10.93500 44.35900
H  -15.48200 11.90200 44.18300
H  -14.44600 12.76400 45.39600
H  -14.26900 11.02800 45.08200
H  -11.32500 10.68000 41.55300
H  -12.98200 10.32200 41.73600
H  -11.30400 8.35200 41.89000
H  -12.89500 8.32500 42.58200
H  -11.60600 8.67000 43.67300
H  -5.73000 12.08400 43.58200
H  -7.16200 11.55800 42.71100
H  -7.03800 11.26900 44.44500
H  -5.55200 17.37700 43.38000
H  -4.64900 18.17900 47.17900
H  -6.00700 19.38200 47.35300
H  -4.41500 19.73100 46.59600

