158

Mg 8.96700 5.01600 27.40900
C  10.22300 3.34400 30.22100
C  7.21100 7.13900 29.51800
C  7.75000 6.55800 24.70800
C  10.12600 2.43900 25.41800
N  8.60800 5.05800 29.64100
C  9.38500 4.44600 30.60300
C  9.13300 5.04900 32.04700
C  8.08900 6.12600 31.80400
C  7.94000 6.11600 30.23500
C  6.79400 6.01500 32.63000
C  10.38700 5.53600 32.74200
C  10.38100 5.81900 34.26800
H  11.58500 5.51600 35.20300
N  7.76600 6.71400 27.15300
C  7.06900 7.31700 28.13100
C  6.31600 8.40300 27.49500
C  6.47300 8.36000 26.08800
C  7.31800 7.18800 25.93900
C  5.29200 9.22500 28.29100
C  5.79600 9.01600 24.92300
O  5.92200 8.67700 23.76200
C  4.92700 10.27600 25.19300
N  8.98700 4.59800 25.40400
C  8.45200 5.43100 24.39600
C  8.76300 4.92000 23.00200
C  9.54800 3.57400 23.25200
C  9.60200 3.54600 24.79200
C  7.45500 4.64900 22.17000
C  10.90000 3.37200 22.62200
C  11.06000 1.97800 22.05100
N  9.86200 3.20200 27.70600
C  10.41300 2.33700 26.77800
C  11.29800 1.34600 27.45100
C  11.21400 1.72200 28.83700
C  10.33200 2.81200 28.97200
C  12.12600 0.29000 26.75400
C  11.78900 1.32200 30.12500
O  12.52600 0.42000 30.48800
C  11.04900 2.43100 31.20300
C  10.27700 1.67100 32.27500
O  9.43800 0.89200 31.98200
O  10.79900 1.80900 33.53300
C  10.19900 1.13100 34.69100
H  6.84100 7.84300 30.26700
H  7.43700 6.90200 23.72000
H  10.64900 1.74100 24.76000
H  8.70400 4.34900 32.76300
H  8.44400 7.12600 32.05200
H  6.02400 5.42600 32.13300
H  6.49900 7.03300 32.88500
H  7.02000 5.46700 33.54500
H  10.70700 6.49000 32.32400
H  11.19400 4.83200 32.53900
H  9.57100 5.21000 34.67100
H  10.12600 6.87500 34.35400
H  5.16900 9.07800 29.36400
H  4.30900 9.09400 27.83700
H  5.50500 10.29100 28.20500
H  5.59500 11.13800 25.21200
H  4.39700 10.30400 26.14500
H  4.19400 10.44900 24.40500
H  9.37800 5.68200 22.52400
H  8.92200 2.72300 22.98200
H  7.44000 3.66100 21.70900
H  7.50100 5.43800 21.42000
H  6.62900 4.77300 22.87000
H  11.54300 3.47900 23.49600
H  11.14600 4.14300 21.89200
H  11.61800 2.17000 21.13400
H  10.16200 1.41700 21.79400
H  11.63300 1.36700 22.74900
H  12.22100 -0.45800 27.54100
H  13.09800 0.72200 26.51300
H  11.63600 0.07400 25.80500
H  11.73600 3.10300 31.71700
H  9.26600 0.60600 34.48700
H  9.95100 1.86000 35.46200
H  10.94100 0.44600 35.10200
Mg 41.51900 8.65000 30.54200
C  43.55200 9.67800 33.06800
C  39.19900 7.65400 32.84100
C  39.78300 7.34900 28.03000
C  44.13800 9.35700 28.24100
N  41.35000 8.78900 32.67600
C  42.28200 9.18700 33.55900
C  41.83200 9.21300 35.01700
C  40.50600 8.45200 34.91700
C  40.35800 8.20900 33.43600
C  40.37700 7.15400 35.75100
C  41.96300 10.67600 35.71800
C  40.67700 11.29500 36.48600
H  41.03900 12.10500 37.74500
N  39.69200 7.71600 30.43700
C  38.86600 7.39900 31.49200
C  37.69800 6.73000 31.01800
C  37.77100 6.83500 29.61800
C  39.13600 7.29500 29.24000
C  36.64500 6.06300 31.90300
C  36.80600 6.34800 28.55500
O  37.06400 6.46600 27.36800
C  35.45700 5.89000 29.02500
N  42.00900 8.32300 28.47300
C  41.06000 7.80200 27.68400
C  41.60700 7.52400 26.23500
C  42.76600 8.57600 26.25100
C  43.00000 8.75300 27.71400
C  42.06900 6.05000 25.87700
C  42.35800 9.82600 25.45200
C  41.51100 10.92400 26.04900
N  43.45300 9.43500 30.58600
C  44.37200 9.64300 29.57500
C  45.57500 10.17300 30.19600
C  45.31400 10.10000 31.57800
C  43.92800 9.73800 31.73500
C  46.85700 10.72800 29.49200
C  45.85400 10.45100 32.87700
O  46.95900 10.91400 33.18500
C  44.71200 10.18600 33.83500
C  45.29300 9.19000 34.85300
O  45.80600 8.12500 34.66000
O  45.09200 9.65100 36.09700
C  45.59900 8.78900 37.20400
H  38.30100 7.45900 33.43000
H  39.26900 7.06500 27.10900
H  44.97200 9.59800 27.57900
H  42.58600 8.57400 35.47700
H  39.57300 8.99200 35.08100
H  39.52500 7.24700 36.42400
H  41.35900 6.95300 36.18000
H  40.26100 6.31100 35.06900
H  42.21000 11.41500 34.95500
H  42.74100 10.61400 36.47800
H  40.04500 10.45500 36.77300
H  40.21900 12.00200 35.79400
H  35.75100 6.68600 31.91800
H  36.96400 5.93700 32.93800
H  36.43500 5.07900 31.48400
H  35.56200 4.95600 29.57700
H  34.80400 5.74500 28.16600
H  34.88800 6.62400 29.59600
H  40.84200 7.79800 25.50900
H  43.62500 8.17400 25.71400
H  43.14300 5.95200 25.71900
H  41.46900 5.71900 25.02900
H  41.89300 5.42800 26.75500
H  41.89200 9.55900 24.50400
H  43.31000 10.26100 25.14700
H  41.02600 10.52200 26.93800
H  40.64800 11.17300 25.43200
H  41.96000 11.87100 26.34800
H  47.66200 11.15300 30.09200
H  46.77100 11.39700 28.63600
H  47.39000 9.83700 29.16000
H  44.47400 11.10400 34.37200
H  45.02400 7.86700 37.28400
H  45.77900 9.32100 38.13800
H  46.58800 8.48200 36.86500

