158

Mg -1.96800 16.99100 27.07800
C  -2.18500 14.77300 29.87900
C  -3.22300 19.43300 29.10400
C  -2.21300 18.84100 24.51400
C  -1.82200 14.16700 25.04100
N  -2.58500 16.98200 29.20400
C  -2.56200 16.08300 30.18300
C  -2.90400 16.68200 31.58000
C  -3.74100 17.95500 31.11000
C  -3.12300 18.15900 29.73800
C  -5.23100 17.67600 30.94100
C  -1.62300 17.10100 32.37700
C  -1.84400 17.38800 33.86500
H  -0.80000 17.02400 34.81100
N  -2.15300 18.95200 26.92600
C  -2.67100 19.79100 27.85500
C  -2.58800 21.14700 27.27100
C  -2.15500 21.00600 25.85300
C  -2.18200 19.57400 25.69800
C  -2.85500 22.39700 28.05200
C  -1.78700 22.00400 24.80100
O  -1.66500 21.68100 23.57000
C  -1.65800 23.40500 25.24100
N  -2.23300 16.57800 25.04900
C  -2.24700 17.56000 24.14100
C  -2.16400 17.01500 22.74600
C  -1.84400 15.45800 22.89800
C  -1.88200 15.35900 24.44300
C  -3.41900 17.19600 21.88100
C  -0.59500 14.92100 22.15500
C  0.65800 15.50100 22.77200
N  -1.81800 14.84700 27.38100
C  -1.79500 13.85500 26.39000
C  -1.79500 12.55300 27.08200
C  -1.83500 12.88000 28.43600
C  -1.88500 14.29600 28.58000
C  -1.81900 11.27600 26.45500
C  -1.87200 12.36200 29.79400
O  -1.76000 11.24400 30.29900
C  -2.22300 13.56300 30.77900
C  -1.25100 13.50900 31.92600
O  -0.03700 13.73600 31.74700
O  -1.93000 13.43500 33.08100
C  -1.02500 13.40800 34.26100
H  -3.82700 20.21100 29.57500
H  -2.18600 19.44400 23.60400
H  -1.69200 13.24400 24.47300
H  -3.52200 16.04200 32.21000
H  -3.55300 18.82200 31.74300
H  -5.45200 16.61400 31.04700
H  -5.47900 18.01800 29.93600
H  -5.82000 18.29200 31.62100
H  -1.29900 18.08700 32.04400
H  -0.83800 16.35200 32.26700
H  -2.81200 17.01700 34.20300
H  -1.90600 18.46800 33.99900
H  -3.31200 22.17700 29.01600
H  -3.61900 22.95400 27.51000
H  -1.96100 23.01100 28.16200
H  -2.60300 23.73500 25.67300
H  -1.30300 23.96100 24.37400
H  -0.92000 23.45700 26.04200
H  -1.36000 17.49200 22.18700
H  -2.66000 14.83500 22.53100
H  -3.23500 17.73100 20.94900
H  -4.17200 17.70500 22.48200
H  -3.93500 16.27100 21.62500
H  -0.61200 15.23200 21.11100
H  -0.51600 13.83400 22.17600
H  0.74600 16.46900 22.28000
H  1.51900 14.87000 22.54900
H  0.52700 15.68800 23.83800
H  -1.10100 10.65800 26.99400
H  -1.56400 11.34900 25.39800
H  -2.85900 10.99200 26.61500
H  -3.25100 13.41000 31.10600
H  -1.27000 12.51300 34.83300
H  -1.13500 14.37200 34.75800
H  0.03200 13.23700 34.05400
Mg 26.06500 50.95300 26.70600
C  23.95100 52.21500 29.08800
C  28.12100 49.83900 29.10000
C  28.15700 49.98600 24.24600
C  24.06600 52.63600 24.17800
N  26.14100 51.27800 28.89700
C  25.13500 51.71000 29.66700
C  25.49500 51.52800 31.23000
C  26.85400 50.74300 31.10400
C  27.11600 50.62500 29.58900
C  28.00100 51.35300 31.93300
C  24.40800 50.76600 32.04000
C  24.78700 50.21400 33.45300
H  24.26800 51.00700 34.71200
N  27.93000 50.07200 26.68200
C  28.56100 49.60000 27.73700
C  29.78100 48.94300 27.29300
C  29.90300 49.05100 25.87500
C  28.62800 49.72200 25.53900
C  30.86100 48.38000 28.20200
C  31.03700 48.64600 24.93900
O  31.09500 49.07700 23.79100
C  32.08400 47.71600 25.44400
N  26.12000 51.31300 24.51700
C  27.05500 50.76500 23.75000
C  26.75200 50.94300 22.25300
C  25.36900 51.58600 22.31600
C  25.20000 51.88900 23.75800
C  27.77300 51.70600 21.39600
C  24.29900 50.82000 21.58000
C  23.63800 51.55200 20.35800
N  24.37700 52.10200 26.60600
C  23.61600 52.65500 25.52200
C  22.39000 53.25700 25.99800
C  22.52400 53.06300 27.40100
C  23.71600 52.38900 27.69500
C  21.20200 53.78500 25.27400
C  21.72000 53.18300 28.59100
O  20.53300 53.46900 28.80800
C  22.59000 52.78500 29.75700
C  22.95900 54.06000 30.54700
O  23.29600 55.16300 30.09000
O  22.85900 53.76400 31.87400
C  23.13500 54.86100 32.85500
H  28.80700 49.32300 29.77500
H  28.85800 49.89200 23.41400
H  23.44600 52.99600 23.35500
H  25.65400 52.54800 31.57800
H  26.67500 49.72400 31.44700
H  28.52200 50.52300 32.40900
H  27.63000 51.99000 32.73600
H  28.68100 51.92100 31.29800
H  24.23600 49.84500 31.48300
H  23.53400 51.40200 32.18000
H  25.86900 50.31100 33.54800
H  24.40200 49.19900 33.54500
H  30.59600 48.49500 29.25300
H  31.79900 48.90500 28.02300
H  31.04200 47.32300 28.01100
H  31.53500 46.89000 25.89700
H  32.83600 48.00900 26.17600
H  32.72300 47.32900 24.65100
H  26.66800 49.94900 21.81500
H  25.43600 52.54200 21.79700
H  27.79000 51.15500 20.45600
H  28.73100 51.77600 21.91100
H  27.54500 52.76300 21.25900
H  23.50000 50.72800 22.31500
H  24.63300 49.85300 21.20500
H  24.06100 52.55100 20.24900
H  22.57600 51.65700 20.58200
H  23.65600 51.00200 19.41700
H  21.27300 53.54700 24.21300
H  21.29800 54.86900 25.32400
H  20.34800 53.31100 25.76000
H  21.96100 52.11200 30.34000
H  24.03500 55.44400 32.65800
H  23.15200 54.54000 33.89600
H  22.32000 55.57300 32.72600

