158

Mg 25.26500 1.31100 29.68400
C  27.26100 1.00700 32.54500
C  22.58000 1.62400 31.66200
C  23.47500 1.23200 26.80700
C  28.10600 0.11800 27.84100
N  24.96300 1.40400 31.88500
C  25.91500 1.27400 32.84600
C  25.25800 1.33000 34.30700
C  23.71900 1.28100 33.98600
C  23.72700 1.46600 32.43800
C  23.02500 -0.08100 34.38000
C  25.81600 2.51000 35.17000
C  26.62600 2.18300 36.42900
H  26.45800 3.18400 37.54800
N  23.28200 1.55300 29.30100
C  22.29900 1.71700 30.28200
C  21.01500 1.90600 29.59300
C  21.28500 1.68600 28.15600
C  22.74200 1.54000 28.06500
C  19.69000 1.99100 30.36300
C  20.32300 1.65500 26.93900
O  20.62700 1.40900 25.77500
C  18.89100 1.88400 27.29100
N  25.70900 0.61200 27.69000
C  24.80100 0.86400 26.69900
C  25.45700 0.91800 25.29400
C  26.90100 0.69200 25.60200
C  26.98900 0.49900 27.16300
C  24.97400 -0.19200 24.35600
C  27.85800 1.77300 25.09300
C  27.92100 3.01000 25.93900
N  27.28400 0.68000 30.10100
C  28.27000 0.13900 29.27000
C  29.48300 -0.03600 30.07600
C  29.13900 0.37100 31.36900
C  27.82300 0.71300 31.29300
C  30.75700 -0.61400 29.53700
C  29.66600 0.57900 32.70700
O  30.78200 0.37400 33.19100
C  28.41400 0.94600 33.54100
C  28.26000 -0.11100 34.60300
O  27.64400 -1.14100 34.46300
O  29.00500 0.14600 35.73100
C  28.72100 -0.70600 36.88000
H  21.65500 1.61300 32.24300
H  22.93000 1.29200 25.86300
H  29.01600 -0.14700 27.29800
H  25.38800 0.35800 34.78200
H  23.16000 2.13800 34.36200
H  23.67900 -0.47100 35.16000
H  22.94100 -0.77600 33.54400
H  22.07700 0.17400 34.85400
H  24.90800 2.97500 35.55500
H  26.38000 3.31200 34.69500
H  27.67900 2.19000 36.14800
H  26.34300 1.19300 36.78500
H  19.27200 2.96000 30.08900
H  19.69900 1.73600 31.42300
H  18.98400 1.24400 30.00100
H  18.53900 0.98500 27.79900
H  18.25600 2.02700 26.41700
H  18.87500 2.79900 27.88200
H  25.31900 1.93200 24.91800
H  27.29800 -0.24800 25.21800
H  24.09800 0.26800 23.89900
H  24.73900 -1.17900 24.75300
H  25.67100 -0.41200 23.54800
H  27.52400 2.14100 24.12300
H  28.85000 1.32200 25.07500
H  27.27100 3.00400 26.81400
H  27.51700 3.84000 25.36100
H  28.92900 3.30000 26.23700
H  31.37800 0.24500 29.28200
H  30.63100 -1.26900 28.67500
H  31.14400 -1.29800 30.29200
H  28.81700 1.84800 34.00200
H  28.91100 -1.76600 36.71100
H  27.72100 -0.68600 37.31400
H  29.31700 -0.36100 37.72500
Mg 16.89800 52.97800 26.85200
C  18.72000 51.21800 29.32700
C  14.65500 53.70400 29.26400
C  14.92700 54.20700 24.50500
C  18.99400 51.51000 24.35100
N  16.80400 52.66300 28.99900
C  17.67100 51.95500 29.81600
C  17.25500 51.92800 31.28100
C  15.75800 52.28600 31.09300
C  15.77700 52.98000 29.72300
C  14.95600 50.97700 31.30000
C  18.08900 53.01700 31.98800
C  18.47600 52.81400 33.43700
H  17.40700 52.08900 34.26700
N  15.08900 53.97700 26.87300
C  14.36200 54.25200 27.99200
C  13.22700 55.01800 27.63100
C  13.16900 54.99100 26.22900
C  14.45300 54.40100 25.77700
C  12.28700 55.55700 28.68500
C  11.98900 55.45700 25.28200
O  12.22500 55.53800 24.08900
C  10.60200 55.92200 25.81700
N  17.09700 53.02900 24.73400
C  16.05700 53.60800 24.01000
C  16.26100 53.34700 22.49600
C  17.62100 52.57500 22.49800
C  17.93700 52.44400 23.97000
C  15.11400 52.58500 21.90900
C  18.69700 53.14800 21.54800
C  19.71300 54.19700 22.04300
N  18.53300 51.59200 26.77500
C  19.30100 51.16000 25.73900
C  20.41700 50.43800 26.30800
C  20.26900 50.43900 27.69500
C  19.05500 51.05600 27.92400
C  21.56400 49.90900 25.49000
C  20.83700 50.13200 28.97000
O  21.95000 49.74100 29.26900
C  19.84500 50.61700 30.04700
C  19.46400 49.44900 30.95400
O  18.83400 48.49400 30.51400
O  19.78500 49.63200 32.29600
C  19.24200 48.68500 33.27700
H  13.97900 53.94600 30.08700
H  14.48200 54.75300 23.67100
H  19.50200 50.93500 23.57400
H  17.60900 51.06100 31.83900
H  15.38200 52.90800 31.90600
H  15.09700 50.27000 30.48200
H  13.87600 51.02700 31.43400
H  15.36600 50.50900 32.19500
H  17.55200 53.96500 32.00900
H  19.01800 53.19100 31.44600
H  18.71800 53.79300 33.85100
H  19.41300 52.25900 33.40000
H  11.96400 56.56000 28.40700
H  12.72600 55.48000 29.68000
H  11.35200 54.99800 28.70900
H  10.00100 55.16000 26.31300
H  9.92800 56.34200 25.07100
H  10.82200 56.80500 26.41700
H  16.37500 54.30000 21.98100
H  17.42800 51.55400 22.17000
H  14.57700 53.17400 21.16500
H  14.49500 52.11600 22.67400
H  15.57700 51.73400 21.41100
H  18.21100 53.88100 20.90300
H  19.17800 52.35800 20.97200
H  19.41500 54.50900 23.04400
H  19.67200 55.09000 21.42000
H  20.73300 53.81800 22.10000
H  21.97500 50.62900 24.78200
H  21.08400 49.17400 24.84200
H  22.36700 49.37700 25.99900
H  20.35200 51.28700 30.74200
H  19.61500 47.69100 33.03000
H  18.15800 48.58500 33.20900
H  19.63100 49.07400 34.21800

