158

Mg 46.90900 16.46200 28.69600
C  44.89100 16.02000 31.51700
C  48.99700 18.36700 30.55100
C  48.42800 17.32900 25.88600
C  44.21900 15.02100 26.82300
N  46.87500 17.11800 30.74800
C  46.01900 16.79700 31.77700
C  46.49200 17.48600 33.09500
C  47.69300 18.43000 32.69300
C  47.87400 17.96900 31.15800
C  47.42800 20.00000 32.84400
C  46.86600 16.43200 34.22000
C  46.24900 16.74000 35.60300
H  45.94100 18.17900 36.05900
N  48.55800 17.60200 28.25700
C  49.33700 18.21100 29.20100
C  50.52400 18.79600 28.57500
C  50.43800 18.45800 27.17200
C  49.11600 17.75400 27.05900
C  51.53200 19.63000 29.43900
C  51.32500 18.69300 26.01600
O  51.07000 18.30200 24.91300
C  52.63100 19.42900 26.30000
N  46.28800 16.42400 26.67900
C  47.11000 16.82300 25.69300
C  46.48900 16.69900 24.28600
C  45.44800 15.63300 24.58100
C  45.25100 15.73900 26.11400
C  46.09300 17.99400 23.52300
C  45.78700 14.20400 24.06800
C  46.87700 13.56200 24.88900
N  45.11800 15.46100 29.01300
C  44.14300 14.96200 28.19400
C  43.13200 14.29800 28.92600
C  43.43000 14.62400 30.27400
C  44.59100 15.42100 30.26000
C  41.97100 13.43800 28.40100
C  42.92900 14.49700 31.67300
O  41.97600 13.93600 32.15500
C  43.86400 15.46500 32.52700
C  43.05100 16.53300 33.10700
O  42.79600 17.62000 32.61400
O  42.53500 16.04200 34.28700
C  41.58400 17.05900 34.86800
H  49.59000 19.02100 31.19300
H  48.99800 17.53200 24.97700
H  43.42700 14.60400 26.19800
H  45.67700 18.03600 33.56600
H  48.58400 18.17000 33.26400
H  48.25600 20.29900 33.48700
H  46.47100 20.13800 33.34700
H  47.42100 20.61500 31.94400
H  47.95300 16.40200 34.29100
H  46.52600 15.48200 33.80900
H  46.91600 16.33300 36.36300
H  45.29400 16.21500 35.58300
H  51.20100 19.89400 30.44300
H  51.42200 20.58300 28.92200
H  52.53800 19.21600 29.38000
H  53.41200 18.68600 26.46200
H  52.61000 20.11900 27.14300
H  52.87700 20.03200 25.42500
H  47.23200 16.29100 23.60200
H  44.48800 15.96000 24.18200
H  46.87500 18.17200 22.78500
H  46.03400 18.82300 24.22800
H  45.14600 17.87700 22.99600
H  46.19500 14.40600 23.07800
H  44.82400 13.69600 24.11600
H  46.41400 12.89000 25.61100
H  47.57900 14.25700 25.35100
H  47.43400 13.02200 24.12200
H  41.09000 14.00600 28.10300
H  41.71800 12.75100 29.20900
H  42.26600 12.87000 27.51900
H  44.41800 14.82200 33.21200
H  41.10900 17.75400 34.17600
H  42.07400 17.48600 35.74300
H  40.73400 16.42500 35.12100
Mg 43.11000 41.95900 25.74100
C  41.98200 44.17200 27.96400
C  44.03600 39.71400 28.27900
C  43.83600 39.44600 23.44800
C  42.16500 44.07700 23.16300
N  43.04700 41.98500 27.84300
C  42.45800 42.99800 28.57400
C  42.46500 42.64000 30.03000
C  43.40800 41.32600 30.09300
C  43.60500 40.97900 28.62300
C  44.77900 41.40400 30.74900
C  40.96800 42.49400 30.53400
C  40.56000 43.02600 31.97300
H  41.53300 42.80500 33.22700
N  43.95700 39.88400 25.85100
C  44.14400 39.18800 26.94100
C  44.61300 37.86800 26.60300
C  44.60600 37.78700 25.20300
C  44.17400 39.08100 24.74300
C  44.95500 36.90000 27.67300
C  44.88900 36.59900 24.32500
O  44.86300 36.66400 23.12100
C  45.44000 35.27700 24.83900
N  42.96400 41.78800 23.58300
C  43.39600 40.68300 22.86200
C  43.32600 40.94100 21.36900
C  42.64900 42.42300 21.28600
C  42.60200 42.79000 22.77400
C  44.73000 40.75400 20.72100
C  41.21300 42.45000 20.62600
C  40.04000 41.78000 21.42500
N  42.38500 43.86300 25.48900
C  41.99200 44.62900 24.43000
C  41.55200 45.91800 24.85400
C  41.42000 45.82400 26.31200
C  41.96900 44.53100 26.59200
C  41.19000 47.05500 23.95700
C  40.93400 46.32700 27.51900
O  40.32300 47.41200 27.63400
C  41.31000 45.35300 28.60900
C  42.09700 46.10300 29.66800
O  43.30600 46.02800 29.75900
O  41.25500 46.65400 30.62400
C  41.89800 47.07300 31.88700
H  44.08400 39.04900 29.14400
H  44.02300 38.71400 22.66000
H  41.74600 44.78100 22.44100
H  42.93200 43.35600 30.70700
H  42.75700 40.55500 30.50400
H  44.72400 40.70700 31.58600
H  44.97300 42.40200 31.14100
H  45.57300 41.26600 30.01500
H  40.81900 41.42100 30.65800
H  40.26300 42.87800 29.79600
H  39.56900 42.65100 32.23100
H  40.42800 44.10200 31.86000
H  45.45700 37.49200 28.43900
H  45.54400 35.99700 27.51500
H  43.92500 36.69200 27.96100
H  45.10100 34.93000 25.81500
H  46.49900 35.53700 24.84100
H  45.23700 34.44300 24.16700
H  42.67100 40.30700 20.77200
H  43.28100 43.14600 20.77100
H  45.45800 40.37500 21.43800
H  45.07700 41.72400 20.36500
H  44.59800 40.05900 19.89200
H  41.09200 41.88400 19.70200
H  40.95400 43.46200 20.31700
H  39.38300 41.16700 20.80800
H  39.51100 42.59400 21.92200
H  40.49900 41.06000 22.10200
H  40.23900 46.96900 23.43100
H  41.94800 47.14800 23.17900
H  41.27100 48.03200 24.43400
H  40.33600 45.08400 29.01900
H  42.07800 46.24000 32.56600
H  41.43200 47.90100 32.42100
H  42.84800 47.51500 31.58800

