158

Mg 35.28100 48.59800 26.24000
C  35.49900 46.73000 29.25900
C  34.24600 51.20100 28.14900
C  34.84600 50.36500 23.35600
C  36.33500 45.82300 24.44300
N  35.05600 48.88400 28.51500
C  35.17300 48.05400 29.53000
C  35.24700 48.79500 30.88500
C  34.53000 50.16300 30.50900
C  34.65800 50.10900 28.96400
C  32.98100 50.28300 30.84200
C  36.73300 49.01200 31.37900
C  37.19100 48.36300 32.73600
H  37.33800 49.40300 33.84200
N  34.53900 50.40500 25.77200
C  34.10000 51.27900 26.72600
C  33.58600 52.43700 26.02800
C  33.59000 52.23700 24.59800
C  34.37400 50.99700 24.53300
C  32.84500 53.57500 26.70900
C  33.12700 53.07600 23.36000
O  33.28000 52.78800 22.16700
C  32.45500 54.43200 23.57300
N  35.60100 48.24900 24.21300
C  35.44100 49.10800 23.11500
C  35.58600 48.44900 21.76200
C  36.18600 47.06300 22.27200
C  36.14200 47.07200 23.74900
C  34.33500 48.38700 20.84800
C  37.68600 46.70000 21.85600
C  37.79700 45.39900 21.10100
N  35.78100 46.70300 26.70600
C  36.19100 45.70500 25.86100
C  36.35700 44.47200 26.64300
C  36.17000 44.81900 27.95500
C  35.72100 46.19600 27.97800
C  36.81000 43.12500 26.17400
C  36.22300 44.34000 29.31500
O  36.50600 43.26800 29.76800
C  35.66900 45.56100 30.20500
C  34.39300 45.18800 30.88900
O  33.37600 44.79000 30.37000
O  34.57600 45.30300 32.20700
C  33.41200 44.96300 33.00000
H  33.88900 52.00600 28.79400
H  34.72900 50.97100 22.45500
H  36.59600 44.90800 23.90600
H  34.61400 48.37200 31.66500
H  35.11400 50.99600 30.90000
H  32.69100 50.84900 31.72800
H  32.72600 49.24600 31.05900
H  32.30800 50.64800 30.06600
H  36.94300 50.08100 31.40200
H  37.36400 48.48400 30.66500
H  38.16200 47.88000 32.62800
H  36.45100 47.64900 33.10000
H  31.79900 53.68100 26.42100
H  33.31600 54.51200 26.41000
H  32.77800 53.50700 27.79500
H  32.15000 54.81900 22.60100
H  33.12600 55.17700 24.00000
H  31.55600 54.34100 24.18300
H  36.36100 49.01200 21.24100
H  35.52200 46.24100 22.00400
H  34.03900 47.35300 20.66900
H  34.55700 48.83900 19.88100
H  33.54900 49.03100 21.24300
H  38.28700 46.56400 22.75400
H  38.03300 47.44400 21.13900
H  38.58700 44.75200 21.48400
H  38.11600 45.68800 20.10000
H  36.81400 44.93800 21.00500
H  36.11100 42.40800 26.60400
H  37.79400 42.97400 26.61800
H  36.84300 43.06200 25.08600
H  36.43500 45.91100 30.89700
H  32.42700 45.08600 32.55000
H  33.49600 45.38400 34.00200
H  33.43900 43.88300 33.14700
Mg -2.18700 35.03200 27.48600
C  -3.71500 33.17300 29.98600
C  -1.21100 37.33000 29.78600
C  -0.81500 36.80900 25.03800
C  -3.43600 32.75300 25.18200
N  -2.48000 35.27200 29.70500
C  -3.06800 34.33300 30.49200
C  -2.92500 34.75400 31.97300
C  -2.16400 36.08500 31.84100
C  -1.90500 36.26300 30.38300
C  -2.88100 37.32100 32.54200
C  -2.21200 33.64500 32.86500
C  -2.97200 33.23100 34.11400
H  -2.05700 33.07400 35.28700
N  -1.12200 36.77000 27.45200
C  -0.82000 37.60000 28.47200
C  -0.22600 38.82900 27.98300
C  0.12100 38.61800 26.64700
C  -0.61100 37.38200 26.31200
C  0.22700 39.99000 28.90100
C  0.89000 39.55900 25.65600
O  1.00200 39.32700 24.46400
C  1.51300 40.93700 26.13200
N  -2.29600 34.91900 25.36200
C  -1.42700 35.60000 24.67900
C  -1.17300 34.89200 23.25000
C  -1.78200 33.43400 23.48300
C  -2.63300 33.72000 24.70800
C  -1.99600 35.62300 22.07200
C  -0.66700 32.38100 23.63700
C  -0.26500 31.60900 22.30000
N  -3.33400 33.38600 27.47400
C  -3.74500 32.56600 26.52400
C  -4.49500 31.44500 27.06400
C  -4.65100 31.70900 28.41200
C  -3.84700 32.83800 28.63600
C  -5.10000 30.36300 26.27700
C  -5.24900 31.20700 29.68700
O  -6.08200 30.36500 29.87000
C  -4.59000 32.22600 30.74700
C  -5.74600 32.71200 31.58000
O  -6.48100 33.59000 31.18500
O  -5.82500 32.01100 32.82900
C  -6.75500 32.55800 33.82200
H  -0.80700 38.00800 30.54000
H  -0.28400 37.23500 24.18400
H  -3.60800 31.87700 24.55300
H  -3.94300 34.80800 32.35800
H  -1.19200 35.93600 32.31100
H  -2.91700 38.24000 31.95700
H  -2.42100 37.57800 33.49600
H  -3.92200 37.05400 32.72400
H  -1.20400 33.99700 33.08200
H  -2.20500 32.71900 32.29000
H  -3.28200 32.19000 34.02700
H  -3.77100 33.90800 34.41600
H  1.27100 40.26800 28.75700
H  -0.06300 39.76800 29.92800
H  -0.30800 40.89000 28.59800
H  2.14600 40.73000 26.99500
H  0.69600 41.61900 26.36800
H  2.16200 41.45400 25.42600
H  -0.10100 34.94700 23.05800
H  -2.46500 33.12500 22.69100
H  -1.58900 35.42200 21.08100
H  -2.14000 36.69600 22.19800
H  -3.01800 35.24500 22.08400
H  -1.12200 31.62600 24.27800
H  0.22600 32.73600 24.15100
H  -0.59900 31.98100 21.33200
H  -0.76900 30.64300 22.30300
H  0.82200 31.58900 22.22400
H  -6.08100 30.73700 25.98300
H  -5.35500 29.44900 26.81400
H  -4.55600 30.05700 25.38400
H  -4.01800 31.67100 31.49100
H  -7.42600 31.82900 34.27500
H  -7.48600 33.22800 33.37000
H  -6.32100 33.08800 34.67000

