158

Mg -2.27400 17.10700 26.17800
C  -2.79700 15.21600 29.07300
C  -3.51700 19.78900 27.98200
C  -2.52500 19.15600 23.36800
C  -1.76800 14.40600 24.39200
N  -3.00400 17.50200 28.34400
C  -3.04600 16.51700 29.32200
C  -3.45200 17.23500 30.63600
C  -4.09500 18.51100 30.14400
C  -3.51700 18.64800 28.72500
C  -5.67000 18.49500 30.20600
C  -2.23100 17.34500 31.69000
C  -2.59500 16.83300 33.06400
H  -1.51000 16.39800 34.03000
N  -2.77500 19.16700 25.77700
C  -3.13100 20.08500 26.71000
C  -3.18500 21.44600 26.12400
C  -2.85300 21.26600 24.72600
C  -2.77700 19.81300 24.57100
C  -3.44400 22.76900 26.84900
C  -2.52900 22.28800 23.66300
O  -2.21500 22.00300 22.47300
C  -2.55600 23.68400 24.04800
N  -2.14800 16.84500 24.11400
C  -2.34600 17.72800 23.09600
C  -2.01700 17.05500 21.76700
C  -1.69100 15.56100 22.18000
C  -1.81400 15.60800 23.67600
C  -2.98500 17.30500 20.63900
C  -0.31900 15.08100 21.60600
C  0.96600 15.52600 22.33500
N  -2.16200 15.19100 26.60200
C  -2.03400 14.16400 25.73700
C  -2.23100 12.95700 26.42200
C  -2.42100 13.35300 27.74900
C  -2.40000 14.74100 27.79900
C  -2.27300 11.56200 25.83100
C  -2.66900 12.80400 29.07300
O  -2.70700 11.66300 29.56500
C  -2.90600 14.01000 30.00400
C  -1.91700 13.88000 31.11700
O  -0.69700 14.03800 31.11200
O  -2.59100 13.48300 32.25000
C  -1.87100 13.02500 33.39900
H  -3.91900 20.60800 28.58300
H  -2.62500 19.73200 22.44600
H  -1.40700 13.52700 23.85400
H  -4.20600 16.56600 31.05100
H  -3.89500 19.28500 30.88400
H  -6.06000 18.83000 31.16700
H  -6.00400 17.48500 29.96900
H  -6.03300 19.14300 29.40700
H  -2.02600 18.41200 31.77400
H  -1.30600 16.85100 31.39500
H  -3.29100 15.99600 33.00300
H  -2.90900 17.76300 33.53800
H  -4.22700 23.23800 26.25300
H  -2.57000 23.41100 26.96000
H  -3.85400 22.61500 27.84700
H  -3.57500 23.90000 24.36800
H  -2.16200 24.25500 23.20700
H  -1.90400 23.88200 24.89900
H  -1.20300 17.54600 21.23400
H  -2.45800 14.82900 21.93000
H  -3.20400 18.37200 20.61000
H  -3.88500 16.69100 20.68200
H  -2.63500 17.02200 19.64700
H  -0.33600 15.43700 20.57600
H  -0.28500 13.99200 21.58200
H  0.83900 16.27000 23.12100
H  1.61100 15.87500 21.52900
H  1.40300 14.65700 22.82700
H  -3.15300 11.02700 26.18700
H  -1.36300 10.98000 25.97800
H  -2.45800 11.75600 24.77500
H  -3.90100 13.84900 30.42000
H  -2.41600 13.38800 34.27100
H  -0.87000 13.42700 33.55100
H  -1.72200 11.94800 33.32500
Mg 17.21700 -2.86700 28.01600
C  16.58700 -0.73900 30.82200
C  18.69100 -4.99300 30.26900
C  18.21500 -4.65500 25.27600
C  16.21100 -0.30300 25.87700
N  17.47300 -2.81200 30.44300
C  17.27800 -1.82000 31.31600
C  17.83500 -2.11500 32.70100
C  18.70100 -3.34000 32.28600
C  18.27200 -3.80300 30.93100
C  20.28000 -3.21800 32.37100
C  16.67700 -2.34400 33.73000
C  16.76000 -1.51100 34.98400
H  18.16600 -1.19600 35.58900
N  18.24500 -4.63000 27.80200
C  18.75100 -5.35000 28.86900
C  19.34300 -6.52300 28.32200
C  19.21900 -6.44600 26.91400
C  18.50800 -5.16700 26.58400
C  19.71600 -7.67400 29.22800
C  19.57200 -7.46000 25.89400
O  19.39400 -7.23600 24.67300
C  20.18100 -8.80800 26.13900
N  16.90000 -2.60000 25.72000
C  17.60100 -3.40000 24.86400
C  17.68500 -2.69600 23.50400
C  16.87500 -1.36900 23.69800
C  16.67500 -1.39700 25.19200
C  19.15300 -2.33400 22.99700
C  15.54200 -1.35800 22.86300
C  14.14700 -1.52900 23.59300
N  16.47500 -0.94500 28.20400
C  15.95800 -0.13500 27.25600
C  15.22300 0.96200 27.95000
C  15.50300 0.74300 29.31000
C  16.27400 -0.38700 29.43200
C  14.36900 1.95800 27.29400
C  15.23900 1.25400 30.60100
O  14.72000 2.31600 30.97500
C  15.97900 0.38700 31.63000
C  16.99100 1.31100 32.24400
O  18.06500 1.57800 31.74200
O  16.46600 1.96100 33.27900
C  17.24200 3.09200 33.86400
H  19.15200 -5.69700 30.96500
H  18.63500 -5.15800 24.40300
H  15.96300 0.53800 25.22700
H  18.52000 -1.32400 33.00500
H  18.36100 -4.22900 32.81700
H  20.75600 -3.62300 31.47800
H  20.62100 -3.75700 33.25500
H  20.61100 -2.19500 32.55100
H  16.67200 -3.40600 33.97400
H  15.80600 -2.06800 33.13700
H  16.10700 -2.04700 35.67300
H  16.25200 -0.58100 34.72800
H  20.80200 -7.75800 29.18000
H  19.28400 -8.62200 28.90600
H  19.50400 -7.47600 30.27800
H  20.48300 -9.31500 25.22200
H  19.34400 -9.24600 26.68300
H  21.12200 -8.82600 26.68900
H  17.17400 -3.35000 22.79700
H  17.37800 -0.45400 23.38600
H  19.10700 -1.73500 22.08800
H  19.72200 -3.25200 22.85000
H  19.65000 -1.72600 23.75300
H  15.59100 -1.93000 21.93600
H  15.49100 -0.29600 22.62600
H  13.44000 -1.70800 22.78300
H  13.91900 -0.57400 24.06600
H  14.06600 -2.33500 24.32200
H  14.33400 1.64900 26.25000
H  14.69500 2.99700 27.35000
H  13.39600 1.84000 27.77100
H  15.31200 0.04400 32.42100
H  17.84800 2.67800 34.67000
H  16.52700 3.70300 34.41500
H  17.74400 3.62200 33.05400

