158

Mg 47.22100 15.10300 27.54300
C  45.60000 15.07400 30.66700
C  49.57100 17.13500 28.76100
C  48.63400 15.12500 24.42900
C  44.56600 13.22900 26.30200
N  47.46900 16.03500 29.49000
C  46.75200 15.84600 30.63600
C  47.45400 16.43100 31.80000
C  48.57600 17.33000 31.13900
C  48.60500 16.76800 29.70600
C  48.25600 18.76500 31.16900
C  48.02700 15.42600 32.78500
C  47.63700 15.61500 34.28400
H  48.71500 15.53800 35.26600
N  48.94200 15.97800 26.71000
C  49.74800 16.80200 27.36500
C  50.90400 17.01800 26.55300
C  50.70600 16.30500 25.33800
C  49.30000 15.82100 25.39900
C  52.12500 17.82600 27.18800
C  51.63600 16.27000 24.15000
O  51.27200 16.01700 23.01900
C  53.03700 16.47200 24.39900
N  46.71900 14.31700 25.69000
C  47.45000 14.44800 24.50600
C  46.84700 13.70200 23.29100
C  45.49500 13.10300 23.91900
C  45.64100 13.52000 25.41300
C  46.57600 14.53800 22.03200
C  45.37100 11.61100 23.68600
C  46.51600 10.81500 24.35900
N  45.40100 14.38400 28.27100
C  44.43500 13.67100 27.65200
C  43.38100 13.38700 28.55300
C  43.80000 13.87200 29.84300
C  45.01200 14.46100 29.55200
C  42.05000 12.62500 28.20100
C  43.41000 13.98400 31.22500
O  42.52800 13.50700 31.89900
C  44.59900 14.84600 31.82500
C  44.00100 16.04800 32.47900
O  43.43300 16.94300 31.93100
O  44.14700 15.88700 33.87000
C  43.21200 16.70000 34.62100
H  50.25900 17.90300 29.12200
H  49.09500 15.19200 23.44100
H  43.83100 12.50200 25.95000
H  46.71400 17.03100 32.32900
H  49.51900 17.16500 31.66000
H  47.84200 19.04600 32.13800
H  47.46200 19.02800 30.47000
H  49.16500 19.36000 31.08800
H  49.11000 15.37100 32.67100
H  47.71800 14.44700 32.41800
H  46.93900 14.80600 34.50000
H  46.97000 16.46600 34.42200
H  53.03800 17.23300 27.13600
H  52.19600 17.98900 28.26300
H  52.34500 18.67200 26.53600
H  53.24400 15.79100 25.22500
H  53.13500 17.51200 24.70900
H  53.71700 16.18400 23.59700
H  47.36900 12.78900 23.00600
H  44.65500 13.66400 23.51200
H  47.35200 14.14300 21.37700
H  46.74600 15.59900 22.21200
H  45.58500 14.28600 21.65300
H  45.32000 11.44200 22.61000
H  44.47700 11.14200 24.09700
H  46.17400 10.16700 25.16600
H  47.32200 11.43000 24.76100
H  46.87500 10.22600 23.51500
H  42.25600 11.64700 27.76400
H  41.43700 13.07700 27.42100
H  41.45400 12.39500 29.08400
H  45.08100 14.34000 32.66200
H  42.88000 15.99200 35.38000
H  42.32800 17.00300 34.06100
H  43.70000 17.54100 35.11400
Mg 41.19400 41.36200 27.76600
C  40.44200 43.92500 30.01200
C  41.99000 39.28700 30.41000
C  42.02300 38.90900 25.60400
C  40.91700 43.60700 25.11500
N  41.04400 41.63800 29.88600
C  40.63700 42.73400 30.63200
C  40.63700 42.51100 32.11800
C  41.21500 41.00800 32.24800
C  41.41700 40.62800 30.76800
C  42.36800 40.76200 33.21200
C  39.23000 42.76400 32.78200
C  38.75600 41.99000 34.07600
H  38.27800 42.80500 35.27200
N  41.75200 39.31000 27.97500
C  42.19000 38.69200 29.13400
C  42.77000 37.41800 28.87600
C  42.58800 37.27100 27.49200
C  42.14000 38.54100 26.93800
C  43.36200 36.54600 29.86200
C  42.77600 35.97000 26.71700
O  42.70200 35.85500 25.50700
C  43.00700 34.60700 27.51800
N  41.68500 41.38500 25.69700
C  41.82600 40.18200 25.04000
C  41.78400 40.33300 23.51300
C  41.25900 41.78800 23.40000
C  41.32800 42.33400 24.79800
C  43.08600 40.00800 22.81200
C  39.85800 41.92300 22.81500
C  38.63700 41.61800 23.79400
N  40.93600 43.49600 27.51400
C  40.71800 44.21300 26.37800
C  40.34700 45.57800 26.84800
C  40.31900 45.52100 28.26400
C  40.58500 44.19400 28.60600
C  40.20500 46.70800 25.95000
C  40.01100 46.26100 29.44300
O  39.60900 47.42800 29.61400
C  40.10900 45.21300 30.64800
C  41.22100 45.73500 31.38100
O  42.34200 45.88600 30.97600
O  40.78500 46.16400 32.63000
C  41.95300 46.40500 33.47100
H  42.18600 38.64900 31.27400
H  42.40700 38.13900 24.93200
H  40.89700 44.27000 24.24800
H  41.42700 43.16700 32.48500
H  40.49600 40.31500 32.68500
H  42.30800 41.17700 34.21800
H  43.20100 41.14000 32.62000
H  42.43300 39.67700 33.29100
H  38.41000 42.76000 32.06400
H  39.30800 43.81600 33.05800
H  39.55200 41.37000 34.48800
H  37.94000 41.40500 33.65100
H  44.19600 36.13200 29.29500
H  42.68200 35.72500 30.08700
H  43.72600 37.02800 30.76900
H  42.96300 33.71900 26.88800
H  42.26400 34.55300 28.31400
H  44.02500 34.65300 27.90700
H  41.00600 39.72500 23.05000
H  41.84700 42.42500 22.73800
H  43.72900 39.59200 23.58700
H  43.50800 40.91400 22.37800
H  42.95300 39.39000 21.92300
H  39.76400 41.12900 22.07400
H  39.69500 42.83400 22.23900
H  38.91000 41.80000 24.83300
H  38.37600 40.56000 23.81100
H  37.80400 42.27100 23.53000
H  40.53700 47.59600 26.48800
H  39.22600 47.00100 25.57100
H  40.82100 46.40800 25.10200
H  39.24000 45.26000 31.30400
H  42.45500 47.32100 33.15900
H  42.66200 45.58300 33.36600
H  41.61500 46.51200 34.50100

