158

Mg 49.14000 35.98500 27.83700
C  47.10100 34.25700 30.12000
C  49.58100 38.46200 30.39800
C  50.72300 37.96600 25.58800
C  48.49800 33.58600 25.48300
N  48.41900 36.31100 29.94200
C  47.79600 35.35200 30.70100
C  47.82700 35.68300 32.18800
C  48.23400 37.20100 32.22900
C  48.66400 37.44300 30.72100
C  47.06200 38.05600 32.74900
C  48.71800 34.71100 32.93100
C  48.57400 34.49600 34.45400
H  47.79300 35.57900 35.30100
N  50.06000 37.88300 28.00100
C  50.18100 38.72600 29.12000
C  50.96900 39.80100 28.77000
C  51.42700 39.64500 27.45200
C  50.67900 38.42200 26.96100
C  51.19000 40.99400 29.71100
C  52.21000 40.62500 26.56700
O  52.42300 40.24800 25.42200
C  52.66500 42.02500 26.96900
N  49.43300 35.88100 25.73100
C  50.15400 36.76900 25.03600
C  50.31400 36.30100 23.54400
C  49.80800 34.79300 23.56900
C  49.19900 34.70300 24.99100
C  49.58000 37.12900 22.51900
C  50.83500 33.73500 23.24400
C  50.53100 32.81900 22.03400
N  47.99700 34.26300 27.70100
C  47.76500 33.33300 26.62600
C  46.91200 32.19100 27.09300
C  46.58200 32.62600 28.41400
C  47.28400 33.84800 28.73600
C  46.61100 30.91100 26.36700
C  45.76300 32.34300 29.58100
O  45.03700 31.37500 29.76000
C  45.98900 33.36400 30.65300
C  46.15500 32.70300 32.00000
O  46.96000 31.82600 32.30600
O  45.28300 33.21600 32.86400
C  44.98800 32.43900 34.09100
H  49.87200 39.06500 31.26000
H  51.25400 38.42500 24.75100
H  48.53700 32.81900 24.70700
H  46.86200 35.52900 32.66900
H  49.07900 37.36800 32.89800
H  47.36900 38.50900 33.69100
H  46.22700 37.41100 33.02500
H  46.82900 38.81400 32.00100
H  49.76200 35.02300 32.90200
H  48.66200 33.74400 32.43000
H  49.57700 34.43800 34.87700
H  47.98400 33.64100 34.78500
H  52.19600 41.38700 29.56200
H  51.07000 40.84300 30.78400
H  50.47900 41.75500 29.38700
H  51.79400 42.56800 27.33800
H  52.77600 42.46200 25.97700
H  53.60100 42.15400 27.51200
H  51.36400 36.32000 23.25200
H  48.97000 34.70300 22.87800
H  49.40000 38.14500 22.87000
H  48.65500 36.64300 22.20700
H  50.16100 37.24500 21.60400
H  51.02800 33.06000 24.07900
H  51.85000 34.08300 23.05100
H  49.73100 33.20400 21.40200
H  50.33100 31.77300 22.27000
H  51.47600 32.85000 21.49300
H  47.30900 30.13100 26.67300
H  46.67800 31.00800 25.28300
H  45.62400 30.52200 26.61700
H  45.10400 33.99900 30.69400
H  44.22000 31.68500 33.91400
H  44.62400 33.01600 34.94000
H  45.88600 31.92600 34.43400
Mg -2.02200 33.81600 27.24000
C  -3.56200 32.00500 29.75800
C  -0.51900 35.74200 29.66900
C  -0.76400 35.92300 24.86300
C  -3.56500 32.01700 24.76400
N  -2.11400 33.82300 29.46500
C  -2.74200 32.96200 30.32700
C  -2.61200 33.31400 31.74800
C  -1.77900 34.67600 31.63600
C  -1.34700 34.73600 30.15200
C  -2.53400 35.90600 32.16100
C  -1.98800 32.18400 32.61400
C  -2.71000 31.84900 33.93200
H  -1.92500 32.14200 35.18700
N  -0.68200 35.49700 27.30100
C  -0.11400 36.10400 28.39600
C  0.70200 37.24400 27.95300
C  0.68000 37.26500 26.54400
C  -0.32500 36.22100 26.18800
C  1.47400 38.18600 28.94400
C  1.42200 38.10200 25.52700
O  1.22200 38.13900 24.28200
C  2.47100 39.20300 26.08500
N  -2.21300 33.94500 25.17300
C  -1.57700 34.90700 24.42000
C  -1.79800 34.68300 22.90600
C  -2.52100 33.30600 22.89800
C  -2.78300 33.06500 24.37600
C  -2.73600 35.82100 22.25600
C  -1.71000 32.14900 22.18800
C  -2.51500 30.92400 21.69800
N  -3.43800 32.40100 27.22400
C  -3.91700 31.70800 26.09800
C  -4.85600 30.71600 26.65500
C  -4.72100 30.72600 28.10400
C  -3.76600 31.76700 28.36800
C  -5.72400 29.80800 25.86100
C  -5.04800 30.09400 29.32600
O  -5.80500 29.12500 29.50200
C  -4.28300 30.84300 30.45300
C  -5.31200 31.31500 31.38900
O  -6.04700 32.29300 31.28500
O  -5.44800 30.38300 32.37400
C  -6.25100 30.81100 33.44700
H  -0.19600 36.50000 30.38700
H  -0.34600 36.57400 24.09300
H  -3.96000 31.30600 24.03500
H  -3.54400 33.58300 32.24600
H  -0.94200 34.60700 32.33000
H  -2.52000 36.75600 31.47900
H  -1.95600 36.19300 33.03900
H  -3.56700 35.66800 32.41600
H  -1.04100 32.66100 32.86800
H  -1.75100 31.24400 32.11600
H  -2.93900 30.78500 33.86000
H  -3.60600 32.46900 33.93100
H  2.52200 37.96200 28.74700
H  1.24800 37.87700 29.96500
H  1.22200 39.24000 28.83000
H  3.19400 38.61600 26.65200
H  2.01600 40.03000 26.63000
H  2.95000 39.59200 25.18700
H  -0.80800 34.71500 22.45100
H  -3.44800 33.36500 22.32800
H  -2.89500 36.49100 23.10200
H  -3.69600 35.53900 21.82300
H  -2.23200 36.31500 21.42600
H  -0.97600 31.82300 22.92600
H  -1.13500 32.53100 21.34400
H  -3.56900 31.13600 21.51600
H  -2.50100 30.12700 22.44200
H  -2.16500 30.48300 20.76400
H  -5.10900 28.95900 25.56300
H  -5.88800 30.29600 24.90000
H  -6.61200 29.45900 26.38900
H  -3.62100 30.16200 30.98700
H  -6.19400 30.04700 34.22200
H  -7.31500 30.83100 33.21200
H  -5.89700 31.79300 33.76100

