158

Mg 16.37000 -2.00400 28.44100
C  15.33300 0.25100 30.97700
C  18.09400 -3.71700 30.70600
C  17.81500 -3.73600 25.83600
C  14.74800 0.02800 26.05700
N  16.76300 -1.69500 30.56900
C  16.20700 -0.72800 31.42800
C  16.48200 -1.10600 32.84500
C  17.43300 -2.34900 32.71700
C  17.46900 -2.59900 31.25200
C  18.91800 -2.24200 33.29000
C  15.21600 -1.25900 33.80100
C  15.15700 -0.39500 35.10600
H  16.47500 0.21800 35.65300
N  17.75000 -3.53500 28.30600
C  18.31500 -4.13600 29.36800
C  19.06000 -5.31400 28.97200
C  19.07200 -5.25000 27.57400
C  18.14100 -4.17000 27.14500
C  19.76900 -6.26700 29.90600
C  19.85100 -6.16900 26.48300
O  19.92000 -5.80200 25.33000
C  20.62700 -7.40500 26.88900
N  16.30000 -1.85100 26.27700
C  16.95100 -2.72600 25.44400
C  16.86100 -2.30900 24.00500
C  15.81200 -1.17000 24.02400
C  15.60300 -0.92600 25.52400
C  18.24000 -1.93000 23.37200
C  14.44200 -1.39600 23.33900
C  13.36500 -2.26000 24.12900
N  15.17800 -0.28300 28.40100
C  14.55700 0.37200 27.37900
C  13.65000 1.40800 27.93000
C  13.97800 1.45800 29.35500
C  14.87100 0.41100 29.58700
C  12.77000 2.32300 27.10500
C  13.74800 2.15500 30.65000
O  13.07600 3.11600 31.00500
C  14.56200 1.40700 31.76900
C  15.42300 2.42700 32.32500
O  16.38600 2.84200 31.72300
O  14.86700 2.92200 33.49900
C  15.56700 4.03700 34.13700
H  18.57800 -4.34600 31.45600
H  18.23200 -4.26100 24.97500
H  14.19500 0.57400 25.29000
H  17.15600 -0.28400 33.08600
H  16.88500 -3.19800 33.12500
H  19.10800 -1.32800 33.85300
H  19.67000 -2.25200 32.50100
H  19.06400 -3.07400 33.97800
H  15.20900 -2.28300 34.17400
H  14.30100 -0.93600 33.30500
H  14.65100 -0.99200 35.86500
H  14.54200 0.49500 34.96700
H  19.19700 -7.19500 29.91500
H  19.90100 -5.94700 30.94000
H  20.77100 -6.50900 29.55100
H  19.99400 -7.98800 27.55900
H  21.54700 -7.10300 27.39000
H  20.84100 -8.08900 26.06900
H  16.43700 -3.14300 23.44600
H  16.21200 -0.28000 23.53800
H  19.18300 -2.22400 23.83400
H  18.33100 -0.85200 23.23700
H  18.12800 -2.42100 22.40500
H  14.61700 -1.96000 22.42300
H  14.01900 -0.40400 23.18300
H  12.62900 -1.52100 24.44400
H  13.72500 -2.64600 25.08300
H  12.76600 -2.92300 23.50500
H  13.15100 2.66400 26.14200
H  12.53800 3.22800 27.66700
H  11.80700 1.83900 26.94900
H  13.84800 1.09500 32.53100
H  15.71900 4.01800 35.21600
H  15.10200 4.99200 33.89000
H  16.58500 3.95700 33.75500
Mg -5.62100 25.71800 25.99400
C  -3.85100 26.83300 28.88400
C  -7.39600 23.71000 27.82300
C  -6.47400 24.16500 23.11500
C  -3.40100 27.78700 24.08700
N  -5.67000 25.34600 28.12800
C  -4.87900 25.87500 29.10000
C  -5.41000 25.51700 30.43000
C  -6.44700 24.30100 30.10400
C  -6.61200 24.53300 28.64000
C  -5.93500 22.87300 30.42400
C  -6.14400 26.78900 31.01800
C  -5.78200 27.11900 32.38300
H  -5.24400 26.03600 33.33400
N  -6.83000 24.25800 25.52900
C  -7.48300 23.50400 26.45300
C  -8.23600 22.40800 25.86600
C  -7.97600 22.48900 24.49900
C  -7.08000 23.67200 24.31900
C  -9.21200 21.51800 26.59200
C  -8.42800 21.58400 23.37100
O  -8.14500 21.83500 22.23700
C  -9.40000 20.35200 23.59200
N  -5.15500 26.07200 23.85200
C  -5.63900 25.29700 22.84200
C  -5.06100 25.69800 21.44300
C  -4.14000 26.91300 21.78400
C  -4.23100 26.93900 23.33100
C  -4.39900 24.46900 20.80700
C  -4.54400 28.30500 21.17000
C  -3.35800 29.25000 20.74400
N  -3.95000 27.01700 26.28000
C  -3.25000 27.84400 25.43900
C  -2.22400 28.51600 26.23100
C  -2.44100 28.06500 27.53500
C  -3.53800 27.23400 27.52600
C  -1.03100 29.36200 25.82100
C  -1.90800 28.20900 28.90500
O  -0.89400 28.88400 29.27500
C  -2.95600 27.52000 29.87900
C  -2.05600 26.60700 30.58000
O  -1.53000 25.59600 30.08300
O  -1.78200 27.23000 31.79100
C  -0.77500 26.40800 32.42900
H  -8.07800 23.28400 28.56200
H  -6.69000 23.58900 22.21400
H  -2.68000 28.41300 23.55800
H  -4.67300 25.00200 31.04700
H  -7.36300 24.35100 30.69300
H  -5.13600 22.80000 31.16200
H  -5.71700 22.33000 29.50400
H  -6.75900 22.25000 30.77200
H  -7.21000 26.58300 30.92200
H  -6.00200 27.66500 30.38600
H  -6.68000 27.41000 32.92700
H  -4.97500 27.83200 32.21000
H  -10.19000 21.57500 26.11400
H  -9.30300 21.83800 27.63000
H  -8.90900 20.47500 26.68200
H  -9.00000 19.77400 24.42500
H  -9.37900 19.79900 22.65300
H  -10.38300 20.71800 23.88900
H  -6.00100 25.98600 20.97200
H  -3.07700 26.77500 21.58500
H  -5.08700 24.16900 20.01600
H  -4.27600 23.63100 21.49300
H  -3.38500 24.66600 20.45800
H  -5.09100 28.75800 21.99700
H  -5.36900 28.15400 20.47400
H  -2.35900 29.04500 21.12900
H  -3.36800 30.28900 21.07600
H  -3.24500 29.29000 19.66100
H  -0.63100 28.92200 24.90700
H  -0.23100 29.37900 26.56100
H  -1.40100 30.33900 25.51200
H  -3.36400 28.16500 30.65700
H  0.19800 26.59800 31.97700
H  -1.08700 25.36800 32.53200
H  -0.71800 26.63300 33.49400

