158

Mg -1.98300 17.14900 27.32100
C  -2.58700 14.98900 29.94100
C  -2.54200 19.80600 29.37900
C  -1.98700 19.19900 24.56400
C  -1.94600 14.37300 25.07500
N  -2.53300 17.25800 29.42300
C  -2.67700 16.27800 30.32900
C  -2.99100 16.84400 31.73700
C  -3.11800 18.40200 31.41900
C  -2.69700 18.56000 29.94400
C  -4.45200 19.07600 31.79900
C  -2.11100 16.41400 32.96900
C  -2.71800 15.77900 34.27000
H  -1.90100 15.78100 35.51400
N  -2.00600 19.16900 27.00000
C  -2.23500 20.09300 27.99300
C  -2.16900 21.44800 27.45000
C  -1.89800 21.34300 26.04400
C  -1.97700 19.84700 25.81000
C  -2.36900 22.70700 28.26800
C  -1.66100 22.39800 25.02100
O  -1.55800 22.25600 23.82700
C  -1.36800 23.83200 25.57000
N  -2.17800 16.85500 25.11500
C  -2.05000 17.83100 24.20500
C  -1.73800 17.41500 22.80100
C  -1.53700 15.89100 23.01100
C  -1.97300 15.67000 24.48600
C  -2.82500 17.83200 21.73800
C  -0.05800 15.48300 22.68300
C  0.93100 15.11600 23.75100
N  -2.26900 15.16900 27.40100
C  -2.15700 14.15900 26.43900
C  -2.26900 12.87000 27.09100
C  -2.45700 13.16900 28.43700
C  -2.52400 14.60000 28.57600
C  -2.13400 11.53900 26.48200
C  -2.62100 12.51900 29.68800
O  -2.61200 11.32700 29.99300
C  -2.68000 13.66400 30.69600
C  -1.64700 13.35700 31.65900
O  -0.40600 13.53100 31.45400
O  -2.14900 12.73200 32.75100
C  -1.11900 12.16600 33.63500
H  -2.65100 20.66900 30.04000
H  -1.96600 19.89900 23.72700
H  -1.68000 13.55700 24.39900
H  -3.96500 16.38700 31.91200
H  -2.36300 18.94000 31.99200
H  -4.32500 19.79300 32.61000
H  -5.18800 18.29100 31.97100
H  -4.85300 19.55400 30.90500
H  -1.71000 17.31100 33.44100
H  -1.15800 15.98100 32.66700
H  -2.92600 14.75300 33.96800
H  -3.71000 16.17600 34.48600
H  -2.69700 22.48700 29.28400
H  -3.15500 23.22800 27.72100
H  -1.49100 23.34600 28.35600
H  -0.93400 24.43200 24.77000
H  -0.59900 23.63600 26.31700
H  -2.28000 24.27300 25.97200
H  -0.86500 17.98800 22.48700
H  -2.16000 15.26100 22.37600
H  -3.20100 16.95700 21.20900
H  -2.25900 18.46600 21.05600
H  -3.51300 18.52400 22.22600
H  0.41700 16.26000 22.08300
H  -0.18000 14.64700 21.99400
H  0.46700 14.71300 24.65100
H  1.70600 15.84700 23.98300
H  1.39600 14.27700 23.23200
H  -1.11100 11.16700 26.44400
H  -2.58500 11.53800 25.49000
H  -2.76100 10.91300 27.11600
H  -3.63300 13.47500 31.19100
H  -0.79500 12.97700 34.28800
H  -0.29000 11.76300 33.05400
H  -1.63800 11.45300 34.27500
Mg -5.84800 24.63300 25.67300
C  -4.55800 25.78600 28.81300
C  -8.08200 22.70500 27.23700
C  -6.62300 23.26000 22.67900
C  -3.27800 26.60200 24.14600
N  -6.09600 24.21400 27.82000
C  -5.55400 24.81600 28.93400
C  -6.14400 24.18300 30.18900
C  -7.31300 23.31300 29.69100
C  -7.17400 23.38900 28.14000
C  -7.24300 21.86000 30.33200
C  -6.61100 25.26000 31.15500
C  -6.24700 25.23100 32.66000
H  -5.51600 24.01800 33.20700
N  -7.28800 23.24200 25.04400
C  -8.15400 22.62800 25.85800
C  -9.06900 21.81300 25.07100
C  -8.57100 21.86900 23.69200
C  -7.44800 22.79300 23.76700
C  -10.09600 20.92900 25.75200
C  -8.96100 21.14000 22.42300
O  -8.35300 21.16800 21.35000
C  -10.07900 20.18300 22.41600
N  -5.05900 24.84800 23.69700
C  -5.57600 24.19000 22.63300
C  -4.80200 24.55600 21.30400
C  -3.69700 25.51900 21.85900
C  -4.01000 25.66700 23.34200
C  -4.38600 23.25800 20.66600
C  -3.61800 26.88700 21.06500
C  -2.24800 27.11900 20.30100
N  -4.23700 25.96000 26.26000
C  -3.39000 26.75200 25.52000
C  -2.65700 27.56200 26.39400
C  -3.14400 27.26100 27.67700
C  -4.06200 26.24500 27.56400
C  -1.55000 28.44800 25.97900
C  -3.02700 27.66300 29.06200
O  -2.36200 28.55500 29.58800
C  -3.86400 26.67600 29.87000
C  -2.88000 25.90800 30.68400
O  -2.27200 24.90500 30.25500
O  -2.74300 26.33400 31.96400
C  -1.65900 25.83400 32.76100
H  -8.87400 22.13000 27.72200
H  -7.02600 22.92000 21.72200
H  -2.49600 27.22700 23.71000
H  -5.43100 23.57300 30.74300
H  -8.30800 23.72300 29.86200
H  -8.23400 21.53100 30.64400
H  -6.49000 21.79500 31.11700
H  -6.87100 21.19000 29.55700
H  -7.69800 25.28000 31.07000
H  -6.31900 26.20200 30.69100
H  -7.19800 25.42200 33.15600
H  -5.68000 26.12700 32.91500
H  -10.82500 20.62100 25.00200
H  -10.71200 21.34800 26.54800
H  -9.56800 20.06800 26.16000
H  -9.85800 19.44500 23.18700
H  -10.01800 19.63500 21.47500
H  -11.07000 20.62600 22.51600
H  -5.48200 25.15400 20.69600
H  -2.73200 25.01200 21.86600
H  -4.83600 22.32000 20.99100
H  -3.30400 23.22300 20.79300
H  -4.57400 23.33000 19.59500
H  -3.76900 27.73300 21.73400
H  -4.46200 26.90600 20.37500
H  -1.69600 26.19900 20.49200
H  -1.72000 28.02500 20.59900
H  -2.41300 27.19800 19.22600
H  -0.75100 27.85000 25.54200
H  -1.06500 28.86500 26.86200
H  -1.95700 29.20900 25.31400
H  -4.58100 27.31500 30.38400
H  -1.81700 24.81000 33.10100
H  -1.63700 26.52100 33.60700
H  -0.73600 25.77900 32.18500

