158

Mg 23.96400 -5.31200 46.10200
C  25.90000 -2.94200 44.27200
C  21.43500 -4.53600 43.78600
C  22.46000 -8.05400 47.10400
C  26.98200 -6.20400 47.83600
N  23.64100 -3.86600 44.29300
C  24.60200 -3.04800 43.76300
C  24.05300 -2.26100 42.60200
C  22.51300 -2.53000 42.64400
C  22.49300 -3.71400 43.66600
C  21.61100 -1.41900 43.12000
C  24.68300 -2.42800 41.20600
C  24.96000 -1.09900 40.42000
H  24.84300 -1.14800 38.84500
N  22.13100 -6.13800 45.65200
C  21.20300 -5.60600 44.76400
C  20.04000 -6.36600 44.83100
C  20.24100 -7.46400 45.77100
C  21.62300 -7.21900 46.24700
C  18.81100 -5.91500 43.96500
C  19.24400 -8.59900 46.07500
O  18.09500 -8.63900 45.56600
C  19.52500 -9.74800 47.02800
N  24.66800 -7.01500 47.26900
C  23.77800 -7.99300 47.63900
C  24.51300 -9.02300 48.54200
C  25.79400 -8.32300 48.97300
C  25.88900 -7.11600 47.93900
C  23.68600 -9.57300 49.72900
C  26.95900 -9.28000 48.93800
C  27.53500 -9.57400 50.33400
N  25.93400 -4.64600 46.23600
C  27.01600 -5.10800 47.00200
C  28.07100 -4.20700 46.79600
C  27.75700 -3.40600 45.76800
C  26.41200 -3.72700 45.41200
C  29.32700 -4.12700 47.54500
C  28.23000 -2.28500 45.03800
O  29.32900 -1.71100 45.13000
C  27.13700 -2.02500 43.91400
C  26.84000 -0.51700 44.03200
O  25.97100 -0.05200 44.75100
O  27.73000 0.15600 43.19600
C  27.74700 1.60400 43.26800
H  20.56700 -4.31800 43.16100
H  21.91100 -8.94400 47.41800
H  27.85200 -6.35700 48.47700
H  24.25600 -1.24200 42.93000
H  22.19800 -2.94900 41.68800
H  21.30400 -1.63800 44.14300
H  20.72500 -1.40600 42.48500
H  21.98100 -0.39400 43.07600
H  24.20600 -3.19200 40.59300
H  25.68300 -2.78800 41.44800
H  25.97800 -0.76200 40.61400
H  24.28300 -0.31900 40.77000
H  18.90000 -6.32600 42.95900
H  18.71600 -4.83100 43.90400
H  17.94500 -6.35100 44.46100
H  18.71800 -10.47700 46.96900
H  19.57400 -9.42400 48.06700
H  20.43100 -10.33200 46.86900
H  24.64000 -9.92500 47.94300
H  25.75200 -7.81300 49.93600
H  24.15400 -9.22600 50.65000
H  23.75700 -10.66100 49.69900
H  22.68900 -9.15800 49.57700
H  27.71700 -8.91700 48.24400
H  26.75400 -10.25600 48.49800
H  28.44700 -8.98900 50.45100
H  27.72000 -10.64800 50.35000
H  26.90100 -9.40800 51.20500
H  29.96300 -4.89500 47.10500
H  29.10800 -4.28200 48.60100
H  29.87400 -3.18900 47.44100
H  27.47000 -2.27500 42.90700
H  27.60300 2.02800 44.26200
H  26.97500 2.06500 42.65200
H  28.70900 1.95700 42.89600
Mg 36.37600 49.31100 24.73200
C  36.52500 47.56000 27.68100
C  34.79800 51.90600 26.29000
C  36.13000 50.91300 21.71200
C  37.60800 46.61100 23.04900
N  35.72800 49.64100 26.78500
C  35.91900 48.81100 27.84300
C  35.55300 49.55600 29.10500
C  34.86600 50.85800 28.60500
C  35.15900 50.81300 27.13900
C  33.35000 50.93100 28.93400
C  36.84500 49.81700 30.04000
C  36.70400 49.69900 31.59000
H  36.51000 51.00800 32.32400
N  35.69800 51.25300 24.11900
C  35.04500 52.15900 24.93700
C  34.63800 53.33600 24.19600
C  35.05800 53.08800 22.79000
C  35.65800 51.68900 22.77500
C  34.01700 54.56700 24.84000
C  34.94000 54.02400 21.60600
O  35.55600 53.87100 20.59400
C  34.09300 55.25400 21.67700
N  36.71100 48.82900 22.62400
C  36.66100 49.64300 21.60500
C  36.93200 49.00100 20.26300
C  37.64500 47.69800 20.67900
C  37.30200 47.69800 22.17200
C  35.57800 48.64700 19.57800
C  39.15100 47.83600 20.23200
C  39.43800 47.23700 18.90900
N  36.93000 47.43900 25.24900
C  37.44700 46.43000 24.43200
C  37.79200 45.34200 25.31800
C  37.43400 45.71800 26.59800
C  36.87200 46.97200 26.47200
C  38.44200 44.09800 24.76200
C  37.41400 45.27800 27.92300
O  37.79300 44.24300 28.46200
C  36.86400 46.53900 28.73000
C  35.67100 46.15500 29.56000
O  34.63300 45.71000 29.09200
O  36.00400 46.01800 30.86900
C  34.85300 45.62700 31.75500
H  34.22600 52.65600 26.84000
H  35.99700 51.41600 20.75200
H  38.04000 45.73800 22.55500
H  34.82400 48.96600 29.66000
H  35.34300 51.76200 28.98200
H  33.02900 51.86500 29.39400
H  33.00400 50.11800 29.57300
H  32.75100 50.92200 28.02400
H  37.04900 50.87400 29.86800
H  37.64800 49.13100 29.77000
H  37.64000 49.27800 31.95700
H  35.85800 49.03500 31.76700
H  32.95300 54.70100 24.64500
H  34.51100 55.43500 24.40400
H  34.27200 54.57400 25.90000
H  33.65800 55.42900 20.69300
H  34.75800 56.05500 21.99900
H  33.24000 55.15200 22.34700
H  37.50700 49.70900 19.66600
H  37.14100 46.82000 20.27600
H  34.80000 49.12000 20.17800
H  35.50200 47.56600 19.45800
H  35.55900 49.14400 18.60800
H  39.88200 47.54200 20.98600
H  39.40000 48.88900 20.10500
H  39.45700 48.06000 18.19500
H  38.73700 46.46000 18.60300
H  40.46200 46.86500 18.90600
H  39.43600 43.82700 25.11800
H  38.44400 44.06400 23.67200
H  37.87000 43.20700 25.02100
H  37.66700 46.86600 29.39100
H  33.96800 46.26100 31.70100
H  35.19400 45.67200 32.79000
H  34.59700 44.57600 31.62000

