158

Mg 46.19200 24.37600 28.45600
C  46.59800 26.63500 31.17700
C  45.27900 21.84400 30.78100
C  46.33000 22.24900 26.01600
C  47.61600 26.90700 26.32000
N  46.02100 24.27100 30.73400
C  46.09700 25.40100 31.59100
C  45.60100 25.03000 33.06200
C  45.41300 23.46300 32.90100
C  45.55500 23.10800 31.35200
C  46.29000 22.59500 33.89900
C  44.41700 25.81500 33.55900
C  44.74000 26.67800 34.81400
H  43.76700 26.70000 35.96400
N  45.80000 22.38800 28.37100
C  45.33800 21.56300 29.34200
C  45.02800 20.28600 28.75600
C  45.50200 20.28900 27.42900
C  45.90900 21.67200 27.20500
C  44.30400 19.17600 29.52500
C  45.39700 19.17700 26.34600
O  45.86300 19.24300 25.20100
C  44.80500 17.88600 26.76500
N  46.74900 24.59900 26.44200
C  46.72300 23.49500 25.65100
C  47.33400 23.75600 24.29400
C  47.52100 25.31200 24.32700
C  47.27800 25.66600 25.76500
C  48.58400 22.89500 23.97400
C  46.67600 26.18300 23.39100
C  45.16200 26.18500 23.48300
N  46.90500 26.42000 28.62400
C  47.36400 27.28600 27.65700
C  47.72300 28.50800 28.33900
C  47.37700 28.35600 29.69200
C  46.90300 27.03600 29.80400
C  48.33100 29.72200 27.71400
C  47.29600 29.02900 30.94200
O  47.62100 30.12200 31.36200
C  46.85000 27.85100 31.96900
C  47.97500 27.68100 32.93100
O  48.94900 26.98000 32.78100
O  47.69200 28.35500 34.08300
C  48.44800 28.15100 35.36600
H  44.85700 21.15800 31.51800
H  46.17400 21.54200 25.19800
H  48.15000 27.55700 25.62400
H  46.45500 25.13100 33.73100
H  44.38900 23.10900 33.01800
H  46.04500 23.20200 34.77100
H  47.37000 22.64500 33.75900
H  45.88800 21.58200 33.87300
H  43.66800 25.05500 33.78200
H  43.92600 26.42400 32.80100
H  44.72300 27.68200 34.39000
H  45.71500 26.55800 35.28500
H  44.90700 18.27200 29.61000
H  43.37400 18.83100 29.07400
H  44.11100 19.35000 30.58400
H  45.35700 17.52600 27.63400
H  44.87100 17.14500 25.96900
H  43.75400 18.15000 26.88900
H  46.59000 23.47700 23.54800
H  48.55400 25.55100 24.07600
H  48.34300 21.83200 23.94000
H  49.35600 23.03800 24.73000
H  48.77900 23.26200 22.96600
H  46.82100 25.81600 22.37500
H  47.06500 27.19700 23.49200
H  44.77700 25.51400 24.25000
H  44.79800 25.74100 22.55600
H  44.83300 27.21300 23.63300
H  48.86000 29.61800 26.76600
H  48.89100 30.16300 28.53800
H  47.53400 30.46200 27.63600
H  45.94300 28.15000 32.49400
H  49.32200 27.51200 35.23700
H  47.79300 27.74100 36.13500
H  48.74000 29.13400 35.73800
Mg 35.12100 49.20600 24.87900
C  35.24600 47.40100 27.85400
C  33.92800 51.85000 26.44900
C  34.79800 50.62600 21.78600
C  36.35800 46.26000 23.24800
N  34.57100 49.57900 26.91400
C  34.86300 48.71500 27.97100
C  34.52700 49.44500 29.29800
C  34.00400 50.80400 28.84500
C  34.17100 50.75200 27.34400
C  32.54100 51.11700 29.29300
C  35.83400 49.45500 30.24400
C  35.61900 49.09200 31.72600
H  34.20500 49.25100 32.29500
N  34.39900 50.95100 24.23400
C  34.14500 51.97700 25.06600
C  33.99300 53.19500 24.25900
C  34.08400 52.80300 22.92900
C  34.43700 51.35500 22.89800
C  33.66500 54.54400 24.87700
C  33.88000 53.70200 21.76400
O  33.83200 53.24700 20.62100
C  33.64600 55.20400 21.83300
N  35.57000 48.54000 22.78200
C  35.27900 49.29200 21.75600
C  35.50900 48.57700 20.38800
C  36.22900 47.27800 20.87700
C  36.07000 47.34400 22.36000
C  34.22200 48.26200 19.65200
C  37.72200 47.01600 20.44100
C  38.70300 48.07700 20.98700
N  35.66100 47.23800 25.38800
C  36.10000 46.13200 24.64700
C  36.29400 45.03300 25.55200
C  35.95700 45.44500 26.76800
C  35.65800 46.85000 26.63400
C  36.84600 43.70400 25.16700
C  35.89200 45.10800 28.18400
O  36.21200 44.08100 28.75500
C  35.53100 46.37700 28.94100
C  34.40100 45.93100 29.66600
O  33.27500 45.93000 29.15500
O  34.61200 45.56600 30.93900
C  33.39000 45.20700 31.66000
H  33.59200 52.78400 26.90300
H  34.97300 51.25200 20.90700
H  36.48300 45.27600 22.79300
H  33.72900 48.87900 29.77900
H  34.64000 51.63000 29.16400
H  32.15100 50.36600 29.97900
H  31.85900 51.37300 28.48200
H  32.70500 52.01600 29.88900
H  36.34100 50.42000 30.23600
H  36.50800 48.73500 29.77900
H  36.32200 49.61400 32.37500
H  35.90600 48.06800 31.96400
H  34.41300 55.23900 24.49500
H  33.86200 54.54100 25.94900
H  32.64000 54.79600 24.60700
H  34.33700 55.68600 22.52500
H  32.59400 55.36200 22.07000
H  33.81100 55.70700 20.88000
H  36.15200 49.19000 19.75600
H  35.69100 46.40200 20.51300
H  33.35700 48.87500 19.90200
H  33.91000 47.21700 19.66700
H  34.34200 48.54000 18.60500
H  37.71500 47.05600 19.35100
H  37.98900 46.09100 20.95300
H  39.48600 47.61500 21.58900
H  38.27000 48.90400 21.55000
H  39.34200 48.56700 20.25300
H  37.60800 43.42000 25.89200
H  37.31100 43.93500 24.20800
H  35.94500 43.10200 25.04200
H  36.36500 46.67900 29.57400
H  32.91200 44.26600 31.38700
H  32.58600 45.94300 31.67500
H  33.73400 45.23400 32.69400

