158

Mg 26.20500 0.39600 29.62200
C  28.00000 0.20800 32.64100
C  23.31200 0.80100 31.53300
C  24.39500 0.21600 26.76000
C  28.99200 -0.50100 27.82100
N  25.70200 0.32500 31.92800
C  26.64600 0.44800 32.92200
C  26.00100 0.81200 34.25500
C  24.42700 0.87600 33.92000
C  24.44200 0.64900 32.31900
C  23.53300 0.09800 34.87300
C  26.62900 2.14900 34.77600
C  27.35600 1.99200 36.09300
H  26.81500 2.84900 37.28400
N  24.09300 0.45500 29.18400
C  23.05600 0.50800 30.12000
C  21.77500 0.43000 29.39700
C  22.06100 0.22800 28.00500
C  23.55900 0.32400 27.95300
C  20.44300 0.48100 30.15600
C  21.08900 -0.06100 26.81800
O  21.50800 -0.19500 25.66700
C  19.64100 -0.10500 26.99100
N  26.59000 -0.05800 27.56300
C  25.71800 0.00200 26.54900
C  26.38300 -0.08300 25.16300
C  27.82200 -0.45800 25.58700
C  27.86100 -0.31900 27.06600
C  25.67300 -1.06700 24.15600
C  28.94400 0.34500 24.79000
C  29.18900 1.74900 25.14800
N  28.12800 -0.03500 30.03300
C  29.17000 -0.39300 29.20600
C  30.30000 -0.72200 30.01500
C  29.94400 -0.42600 31.34500
C  28.57600 -0.04900 31.30700
C  31.64900 -1.19300 29.44700
C  30.44200 -0.41200 32.74600
O  31.46600 -0.85600 33.22600
C  29.17600 0.11100 33.66800
C  29.14600 -0.79400 34.80000
O  28.41400 -1.81800 34.88200
O  29.91600 -0.37100 35.80400
C  29.80000 -1.08400 37.08600
H  22.45200 1.19600 32.07800
H  23.89500 -0.00600 25.81500
H  29.86300 -0.82100 27.24600
H  26.14400 -0.06900 34.88200
H  24.02900 1.87200 34.11300
H  22.96100 -0.62000 34.28500
H  22.87500 0.81900 35.35800
H  24.05400 -0.45600 35.65400
H  25.86100 2.90900 34.91800
H  27.43200 2.64000 34.22600
H  28.38800 2.28300 35.89800
H  27.26800 0.95000 36.40000
H  20.58200 1.07800 31.05800
H  19.97800 -0.45600 30.46300
H  19.78400 1.00000 29.46000
H  19.20200 -0.16300 25.99500
H  19.32300 0.83300 27.44700
H  19.37100 -0.94300 27.63400
H  26.44500 0.84100 24.58700
H  27.93600 -1.54200 25.55900
H  24.73000 -1.37300 24.60900
H  26.22800 -1.99500 24.01700
H  25.60100 -0.59800 23.17500
H  28.57400 0.40600 23.76700
H  29.85500 -0.24000 24.65900
H  30.25200 1.92500 25.31500
H  28.67000 2.07100 26.05000
H  28.73000 2.46400 24.46500
H  31.69200 -0.89100 28.40100
H  31.74200 -2.27200 29.57200
H  32.50700 -0.68100 29.88100
H  29.38200 1.13400 33.98200
H  29.97500 -2.15600 36.99500
H  28.80700 -0.94300 37.51200
H  30.45700 -0.63600 37.83100
Mg 47.49800 34.47800 27.68400
C  46.03000 32.77900 30.34800
C  47.77100 37.22800 29.60100
C  48.77200 36.00700 24.97400
C  46.50000 31.72500 25.58100
N  47.11700 34.86300 29.76700
C  46.62100 34.02200 30.69600
C  46.62300 34.68400 32.04100
C  46.65100 36.22500 31.69500
C  47.13400 36.15100 30.24500
C  45.39500 37.12300 31.79800
C  47.83300 34.11500 32.80500
C  48.21000 34.51100 34.25200
H  47.10900 35.21300 35.11800
N  48.35000 36.37300 27.35200
C  48.39100 37.34000 28.23600
C  49.03700 38.46900 27.63900
C  49.40000 38.11700 26.26100
C  48.82300 36.77500 26.10600
C  49.18200 39.79200 28.39000
C  50.07700 38.89200 25.25200
O  50.38700 38.42100 24.19500
C  50.62900 40.33000 25.50600
N  47.54300 33.95800 25.50700
C  48.17100 34.76600 24.66000
C  48.24400 34.09800 23.28200
C  47.41200 32.78800 23.42300
C  47.11700 32.80200 24.93200
C  47.84900 35.04000 22.13900
C  48.10200 31.54300 22.96600
C  47.18900 30.51800 22.24800
N  46.45600 32.71500 27.84700
C  46.21600 31.63000 26.93400
C  45.61000 30.49800 27.66400
C  45.52600 30.88500 29.02200
C  46.05300 32.22300 29.05200
C  45.32200 29.14500 27.12000
C  45.15800 30.51700 30.38900
O  44.64700 29.48100 30.81300
C  45.13900 31.84700 31.16200
C  45.23600 31.72000 32.62000
O  46.24400 31.27900 33.17400
O  44.04400 32.13300 33.19300
C  43.96300 32.24800 34.61500
H  47.80000 38.15000 30.18600
H  49.24000 36.48900 24.11300
H  46.14000 30.93200 24.92200
H  45.67900 34.36800 32.48600
H  47.50400 36.63000 32.23900
H  45.13600 37.36300 32.83000
H  44.51700 36.60900 31.40500
H  45.43000 38.09600 31.30900
H  48.73500 34.46100 32.29900
H  47.89400 33.03400 32.68100
H  49.11500 35.10200 34.39500
H  48.38900 33.61700 34.84900
H  50.18900 39.93600 28.78200
H  48.49000 39.83700 29.23100
H  49.01100 40.69000 27.79700
H  51.19700 40.65700 24.63400
H  51.08900 40.35400 26.49400
H  49.75600 40.97700 25.59400
H  49.28500 33.84900 23.07700
H  46.47700 32.89200 22.87200
H  47.09900 35.78700 22.40000
H  47.31100 34.46100 21.38800
H  48.73000 35.58900 21.80900
H  48.52400 30.91200 23.74800
H  48.97800 31.65800 22.32800
H  46.53100 30.92500 21.48000
H  46.53900 30.12400 23.03000
H  47.72700 29.65400 21.85800
H  45.46300 29.15400 26.03900
H  44.27300 28.92100 27.31700
H  46.00000 28.44400 27.60700
H  44.13300 32.22600 30.98000
H  44.51800 31.44800 35.10600
H  42.91700 32.27300 34.92100
H  44.55400 33.11800 34.90000

