158

Mg 26.08000 1.47600 28.99900
C  27.71000 0.85800 31.94300
C  23.08300 1.55400 30.90600
C  24.38900 2.05500 26.18500
C  28.95600 1.07300 27.21100
N  25.48100 1.20500 31.23300
C  26.37900 1.03900 32.27600
C  25.67800 1.16200 33.59800
C  24.13800 0.96100 33.17300
C  24.22200 1.16600 31.67400
C  23.43600 -0.37200 33.57000
C  26.02000 2.46300 34.37200
C  26.45700 2.28000 35.85200
H  26.15000 3.31100 36.97400
N  23.99100 1.83600 28.54700
C  23.00000 1.80500 29.46900
C  21.74100 2.08300 28.81600
C  22.03200 2.34800 27.45700
C  23.53300 2.06200 27.29900
C  20.46200 2.24500 29.59600
C  21.10100 2.75300 26.25300
O  21.53300 2.92900 25.13800
C  19.60100 2.93900 26.56100
N  26.63900 1.51000 26.97100
C  25.76000 1.78400 25.96400
C  26.47100 1.79100 24.65600
C  28.02000 1.57500 25.00400
C  27.91000 1.45800 26.48500
C  25.89100 0.71900 23.60600
C  28.92700 2.76900 24.49000
C  29.92600 2.48300 23.41000
N  27.91500 0.81300 29.37400
C  28.95700 0.73600 28.57400
C  30.14100 0.33700 29.37900
C  29.66900 0.44500 30.65400
C  28.32400 0.77900 30.63700
C  31.47900 -0.01600 28.94000
C  30.13500 0.42500 32.03600
O  31.21400 0.24200 32.58400
C  28.84000 0.65900 32.92400
C  28.68500 -0.46300 33.81400
O  28.23900 -1.54200 33.40200
O  29.08800 -0.20900 35.11200
C  28.86900 -1.25800 36.15500
H  22.13300 1.56800 31.44400
H  23.89700 2.27900 25.23700
H  29.91000 0.91900 26.70300
H  25.89800 0.27000 34.18500
H  23.62600 1.77300 33.69100
H  22.39400 -0.11400 33.75800
H  23.81900 -0.78500 34.50300
H  23.46400 -0.97400 32.66200
H  25.11800 3.07400 34.34300
H  26.81200 3.01400 33.86600
H  27.53500 2.19700 35.71400
H  26.09200 1.32200 36.22200
H  19.85300 1.34900 29.47300
H  19.74100 3.01700 29.32600
H  20.52400 2.58000 30.63100
H  18.99100 3.15200 25.68300
H  19.54100 3.69400 27.34500
H  19.20800 2.05200 27.05700
H  26.40800 2.73800 24.12000
H  28.37400 0.64700 24.55600
H  24.98600 0.23600 23.97400
H  26.59100 -0.07500 23.34600
H  25.75400 1.28900 22.68700
H  29.43300 3.25000 25.32700
H  28.32300 3.57300 24.06900
H  29.79900 1.43300 23.14900
H  30.95400 2.65300 23.72700
H  29.71400 3.09600 22.53300
H  31.88200 0.86100 28.43300
H  31.26900 -0.82800 28.24400
H  32.07200 -0.30900 29.80600
H  29.13900 1.50100 33.54800
H  28.07600 -0.82700 36.76700
H  29.76200 -1.25400 36.78000
H  28.71500 -2.26700 35.77400
Mg 46.78900 25.15300 28.40700
C  47.72500 27.32000 30.92600
C  46.17700 22.74000 30.84600
C  46.16500 22.85400 25.95200
C  48.00700 27.27800 26.03200
N  46.98100 25.07600 30.63400
C  47.26500 26.13300 31.44100
C  47.06600 25.79200 32.98500
C  46.70400 24.21900 32.90900
C  46.61800 23.97400 31.38800
C  47.54400 23.27400 33.80800
C  46.07700 26.71200 33.71500
C  45.38000 26.19500 34.97400
H  45.35900 27.09200 36.23600
N  46.17600 23.08800 28.42700
C  45.94100 22.28100 29.53300
C  45.43500 20.97200 29.07000
C  45.58700 20.96600 27.68300
C  45.95900 22.35000 27.27900
C  44.90300 19.85500 29.99900
C  45.33600 19.78000 26.80600
O  45.39200 19.81600 25.56200
C  44.84400 18.48200 27.40200
N  46.95900 25.15600 26.21600
C  46.56200 24.16100 25.43300
C  46.90600 24.40900 23.94800
C  47.24000 25.88400 23.99100
C  47.42900 26.11900 25.46800
C  48.00900 23.47400 23.40900
C  46.08500 26.78900 23.44400
C  46.44600 27.96000 22.52500
N  47.74900 26.86500 28.44000
C  48.19100 27.64200 27.38800
C  48.67900 28.84500 27.91200
C  48.58000 28.80000 29.29800
C  48.00000 27.54200 29.60100
C  49.34800 29.94600 27.14700
C  48.70800 29.56700 30.52000
O  49.15700 30.67400 30.73800
C  47.99200 28.66100 31.57500
C  48.98600 28.76000 32.78400
O  49.88300 27.98000 33.02900
O  48.53200 29.71000 33.71000
C  48.94000 29.70200 35.12600
H  46.08000 22.03600 31.67500
H  45.80800 22.16600 25.18300
H  48.44900 27.87900 25.23400
H  47.99300 26.14400 33.43700
H  45.65700 24.18000 33.20900
H  48.31900 22.69900 33.30100
H  46.85200 22.72700 34.44800
H  48.02900 24.05800 34.39000
H  45.27200 27.03700 33.05600
H  46.54500 27.69600 33.76400
H  45.84000 25.24400 35.24200
H  44.31600 26.08300 34.76800
H  44.86800 20.25600 31.01200
H  45.52200 18.96000 30.06000
H  43.87500 19.64200 29.70600
H  44.46600 17.79200 26.64700
H  43.82700 18.57600 27.78200
H  45.57800 18.01400 28.05800
H  45.99900 24.22600 23.37200
H  48.13800 25.98400 23.38100
H  48.08200 22.61000 24.06900
H  48.93500 24.04600 23.35000
H  47.67300 23.18700 22.41300
H  45.44600 27.11900 24.26400
H  45.44400 26.24900 22.74700
H  45.98400 27.85300 21.54400
H  47.51900 28.13100 22.43600
H  46.10400 28.93300 22.87600
H  48.79400 30.14300 26.22900
H  50.42500 29.79600 27.07400
H  49.36000 30.86500 27.73300
H  47.02500 29.10100 31.81700
H  48.66100 30.58700 35.69700
H  49.98700 29.55100 35.39100
H  48.39100 28.84600 35.51900

