158

Mg 48.38500 15.57600 27.11800
C  46.80100 15.65400 30.33500
C  50.93800 17.52200 28.59900
C  49.69700 15.77400 24.23300
C  45.57200 13.87000 25.97200
N  48.83100 16.36900 29.22300
C  48.10900 16.24500 30.37100
C  48.85200 16.83000 31.54800
C  49.98900 17.67000 30.91500
C  49.93200 17.16100 29.45800
C  49.81400 19.21600 30.89600
C  49.37200 15.71800 32.47300
C  49.22900 16.10600 34.07100
H  48.99400 17.52800 34.52500
N  50.14800 16.51200 26.47500
C  51.08000 17.20600 27.18400
C  52.16600 17.50500 26.24700
C  51.69500 17.16700 24.95100
C  50.49800 16.39200 25.16800
C  53.33100 18.38300 26.78100
C  52.17300 17.53700 23.62700
O  51.72200 17.13000 22.56700
C  53.31600 18.46700 23.56700
N  47.64400 15.19200 25.34200
C  48.46600 15.15100 24.26400
C  47.79000 14.68000 23.00800
C  46.50000 14.11600 23.60000
C  46.61500 14.34000 25.07600
C  47.52900 15.76100 21.91800
C  46.21900 12.59000 23.26800
C  44.95400 12.39500 22.45600
N  46.50500 14.98200 27.93100
C  45.54600 14.23600 27.34800
C  44.41000 13.99400 28.24900
C  44.93200 14.40000 29.46500
C  46.21000 15.07000 29.21000
C  43.14800 13.24900 27.92000
C  44.59500 14.53100 30.90900
O  43.55400 14.15100 31.49100
C  45.80800 15.36600 31.54000
C  45.26700 16.62300 32.25600
O  44.98800 17.70200 31.77600
O  44.90800 16.33900 33.50300
C  43.75800 17.11900 33.98900
H  51.60100 18.25700 29.06000
H  50.12100 15.64200 23.23500
H  44.80100 13.18200 25.61700
H  48.13100 17.44300 32.08800
H  50.98500 17.50100 31.32400
H  48.85100 19.51700 31.30900
H  49.82200 19.74100 29.94000
H  50.63600 19.63600 31.47400
H  50.43200 15.50400 32.33300
H  48.81600 14.84200 32.13900
H  50.16300 15.80600 34.54600
H  48.46900 15.49300 34.55500
H  53.21200 19.46500 26.72600
H  54.26200 18.14100 26.26800
H  53.43900 18.20600 27.85200
H  53.22600 19.42100 24.08600
H  53.43800 18.68800 22.50700
H  54.17200 17.95500 24.00800
H  48.33800 13.82700 22.60900
H  45.62200 14.74300 23.44400
H  48.00900 16.71200 22.15200
H  46.47000 15.94600 21.74100
H  47.89700 15.33900 20.98300
H  45.99100 12.07600 24.20200
H  47.08400 12.19600 22.73500
H  45.16400 11.85500 21.53300
H  44.68300 13.39200 22.11100
H  44.07800 12.11900 23.04500
H  43.45600 12.45200 27.24400
H  42.44400 13.95800 27.48400
H  42.79000 12.84600 28.86700
H  46.18400 14.64700 32.26700
H  43.29000 16.61500 34.83500
H  43.01200 17.20500 33.19900
H  44.13300 18.10300 34.27200
Mg 26.31500 50.36000 27.19700
C  24.10200 51.65600 29.61800
C  28.29600 49.12400 29.53200
C  28.34300 49.19500 24.62500
C  24.10500 51.35900 24.78100
N  26.15900 50.27700 29.33500
C  25.26700 50.91700 30.11600
C  25.51700 50.71800 31.58200
C  27.02100 50.03200 31.55800
C  27.19600 49.81900 30.04900
C  28.20200 50.87600 32.06700
C  24.44100 49.83500 32.23400
C  23.94300 50.25400 33.64500
H  24.96900 50.63600 34.65800
N  28.15200 49.43300 27.08900
C  28.73700 48.86100 28.19000
C  29.91100 48.00500 27.83900
C  30.04400 48.13600 26.40600
C  28.80500 48.94900 25.98200
C  30.73100 47.26600 28.85000
C  31.03900 47.42000 25.41800
O  31.05100 47.60600 24.21300
C  32.03400 46.49200 25.97000
N  26.27700 50.35600 25.00600
C  27.22000 49.84400 24.18000
C  26.86000 50.02300 22.71200
C  25.40000 50.44200 22.79500
C  25.15500 50.66700 24.26500
C  27.77400 51.08700 22.02600
C  24.41600 49.31800 22.25700
C  23.78600 49.53300 20.91800
N  24.59000 51.42100 27.14700
C  23.81600 51.81800 26.05900
C  22.58900 52.48600 26.48800
C  22.71800 52.47100 27.86400
C  23.86500 51.74400 28.23100
C  21.52300 52.97800 25.60600
C  21.96700 52.78500 29.05500
O  20.85500 53.28200 29.19500
C  22.85000 52.26300 30.25200
C  23.30100 53.35900 31.18500
O  24.40600 53.95700 31.15100
O  22.32700 53.55000 32.15300
C  22.50000 54.49200 33.27200
H  28.89400 48.77300 30.37500
H  29.04900 48.88100 23.85300
H  23.31700 51.52200 24.04200
H  25.56700 51.72700 31.99000
H  26.95100 49.08500 32.09400
H  28.89500 51.13700 31.26700
H  28.71200 50.22300 32.77500
H  27.77400 51.79900 32.45700
H  24.71800 48.79100 32.38200
H  23.54700 49.63200 31.64400
H  23.37600 49.38200 33.97000
H  23.24900 51.07900 33.47900
H  30.61500 46.20100 28.64500
H  30.48500 47.53300 29.87700
H  31.76600 47.60400 28.89300
H  32.51600 47.02400 26.79000
H  32.78800 46.42600 25.18500
H  31.53400 45.53700 26.12700
H  27.05500 49.04000 22.28400
H  25.16300 51.40100 22.33500
H  28.33100 51.63000 22.79000
H  27.14800 51.62000 21.31100
H  28.49900 50.54600 21.41800
H  23.54700 49.15600 22.89500
H  24.89500 48.34600 22.13200
H  22.81800 49.05200 21.05900
H  24.28200 49.10200 20.04700
H  23.75300 50.58300 20.62700
H  21.91900 53.17200 24.60900
H  21.05300 53.84700 26.06500
H  20.69600 52.29600 25.40800
H  22.20700 51.59500 30.82500
H  23.14900 54.04200 34.02300
H  21.53000 54.75900 33.69100
H  23.01500 55.34500 32.83000

