158

Mg 8.14500 3.46300 28.76800
C  9.74000 2.12600 31.60800
C  6.35300 5.57700 30.97200
C  6.40600 4.46600 26.19400
C  9.72900 0.88100 26.96700
N  7.99000 3.66300 31.05600
C  8.80900 3.14100 31.99200
C  8.81200 3.84200 33.37400
C  7.55300 4.75800 33.12700
C  7.31700 4.75000 31.59900
C  6.24900 4.46100 34.00900
C  10.08400 4.74700 33.55800
C  10.89200 4.40800 34.83500
H  10.26900 5.07100 36.04800
N  6.58100 4.85000 28.57100
C  6.07200 5.67200 29.54200
C  5.05400 6.60700 28.93100
C  5.24000 6.43000 27.52700
C  6.11200 5.23400 27.38100
C  4.28700 7.69200 29.62100
C  4.67100 7.20000 26.37600
O  4.91900 6.87600 25.23200
C  3.71800 8.30300 26.52000
N  8.13100 2.74900 26.93200
C  7.28400 3.37400 26.02400
C  7.58800 2.77300 24.61100
C  8.57300 1.57400 24.83700
C  8.83700 1.68700 26.35800
C  6.29100 2.52000 23.90400
C  9.80200 1.45700 23.83200
C  10.00600 0.06600 23.19900
N  9.44500 1.90900 29.17200
C  9.93600 0.90800 28.32100
C  10.83200 -0.01500 29.01700
C  10.83800 0.55400 30.26900
C  9.93600 1.62600 30.36100
C  11.61100 -1.19300 28.43800
C  11.34200 0.35600 31.66000
O  12.26700 -0.32200 32.00000
C  10.68000 1.39200 32.60700
C  9.82200 0.57300 33.56800
O  8.85700 -0.04300 33.19400
O  10.16700 0.76200 34.91100
C  9.20000 0.28300 35.89900
H  5.93600 6.33700 31.63600
H  5.99000 4.88700 25.27600
H  10.23700 0.19900 26.28200
H  8.57000 3.10300 34.13800
H  7.65300 5.82500 33.32300
H  5.81000 5.34500 34.47200
H  6.50800 3.62100 34.65300
H  5.60700 4.13700 33.19000
H  9.87400 5.80600 33.70700
H  10.81900 4.72100 32.75300
H  11.90900 4.79900 34.86500
H  10.86800 3.33600 35.03300
H  4.43600 7.78200 30.69700
H  3.23100 7.46300 29.47800
H  4.60000 8.60800 29.11900
H  4.29100 9.19100 26.78400
H  3.10400 8.15500 27.40800
H  3.06300 8.49200 25.66900
H  8.10800 3.58300 24.09900
H  8.02700 0.63000 24.83900
H  5.51000 2.41300 24.65800
H  6.30800 1.62000 23.29000
H  6.07900 3.22000 23.09700
H  10.66400 1.82100 24.39100
H  9.62600 2.18000 23.03500
H  10.13800 0.11400 22.11800
H  9.40500 -0.80000 23.47800
H  10.95500 -0.43100 23.40000
H  11.67000 -1.03900 27.36000
H  11.06700 -2.10400 28.68800
H  12.59500 -1.21700 28.90700
H  11.49400 1.96400 33.05300
H  9.58400 -0.62600 36.36300
H  8.26700 0.03100 35.39500
H  9.01400 1.09100 36.60500
Mg 49.24300 35.31900 28.48700
C  47.00500 33.80900 30.67900
C  49.30700 38.05900 30.52900
C  51.19700 36.76200 26.17100
C  48.47400 32.86500 26.03300
N  48.35100 35.85500 30.46800
C  47.54800 34.97900 31.18100
C  47.31300 35.58500 32.62000
C  47.86900 37.07400 32.45400
C  48.55300 36.96700 31.06400
C  46.82300 38.20400 32.47900
C  48.06400 34.60800 33.66500
C  49.55900 34.93600 34.05700
H  49.95900 35.64300 35.38600
N  50.18900 37.12900 28.46100
C  50.03800 38.18100 29.33000
C  50.95900 39.25400 28.93300
C  51.64800 38.82700 27.76900
C  50.99300 37.50700 27.40500
C  51.19600 40.49900 29.81600
C  52.75600 39.47500 26.94900
O  53.21400 38.91400 25.96800
C  53.43000 40.78500 27.45200
N  49.76800 34.89000 26.42000
C  50.67100 35.58100 25.65400
C  51.08500 34.84500 24.40100
C  49.96700 33.80900 24.30000
C  49.30400 33.82100 25.67700
C  51.12200 35.86900 23.18900
C  50.57200 32.44700 23.77500
C  49.84800 31.81400 22.62300
N  48.03900 33.58000 28.39100
C  47.85300 32.69700 27.30200
C  46.99800 31.67100 27.79100
C  46.53900 32.10200 29.03400
C  47.23900 33.25300 29.41100
C  46.54800 30.38300 27.12100
C  45.59300 31.79000 30.12300
O  44.83700 30.83100 30.25000
C  45.90400 32.90600 31.26500
C  46.31000 32.16800 32.48800
O  46.87900 31.05000 32.55800
O  45.54600 32.66300 33.53000
C  45.79100 32.10200 34.87300
H  49.36900 38.90700 31.21400
H  51.83200 37.27200 25.44300
H  48.36400 32.04300 25.32200
H  46.23500 35.61500 32.77800
H  48.60300 37.29600 33.22900
H  47.25900 39.09300 32.93400
H  46.03800 37.83400 33.13900
H  46.44000 38.40200 31.47800
H  48.14000 33.55600 33.39100
H  47.47800 34.61600 34.58400
H  50.06600 35.67500 33.43700
H  50.23700 34.09100 33.93100
H  52.27300 40.66400 29.84500
H  50.98600 40.21400 30.84700
H  50.53700 41.32200 29.54100
H  52.74000 41.53500 27.83700
H  53.91100 41.22900 26.58000
H  54.28600 40.59700 28.10000
H  52.07300 34.47200 24.67100
H  49.17500 34.11500 23.61600
H  50.56700 36.80000 23.30300
H  50.65200 35.50900 22.27400
H  52.15100 36.16500 22.98700
H  50.64000 31.72400 24.58800
H  51.54900 32.73800 23.39100
H  48.81100 32.12400 22.50000
H  49.80400 30.74000 22.80300
H  50.42700 31.96000 21.71100
H  46.40900 30.59000 26.06000
H  45.63200 29.98900 27.56100
H  47.31800 29.61200 27.13500
H  45.02300 33.48200 31.54600
H  45.85100 32.93300 35.57500
H  46.73300 31.55300 34.84800
H  44.96600 31.45100 35.16100

