158

Mg 40.88000 9.79100 29.93400
C  42.41200 10.71500 32.88000
C  38.38200 8.31400 31.81900
C  39.75500 8.23000 27.11600
C  43.74100 10.60900 28.21100
N  40.48700 9.53100 32.08000
C  41.21600 10.06100 33.11300
C  40.52000 9.86300 34.50100
C  39.30800 8.90900 34.10500
C  39.30600 9.02100 32.57200
C  39.43500 7.44200 34.61800
C  40.08700 11.16800 35.21000
C  40.58000 11.21200 36.68000
H  41.06000 12.57000 37.08100
N  39.18200 8.67200 29.50000
C  38.28000 8.16300 30.39800
C  37.29400 7.43800 29.67500
C  37.68200 7.42500 28.32000
C  38.96100 8.14600 28.28400
C  36.16700 6.71000 30.37900
C  36.93300 6.80300 27.09900
O  37.37800 6.89600 25.94200
C  35.59100 6.21000 27.26100
N  41.69900 9.21700 27.95900
C  40.99600 8.77000 26.91700
C  41.66800 8.84900 25.53600
C  42.90100 9.74600 25.94800
C  42.80300 9.84600 27.50100
C  41.91000 7.40200 24.98100
C  42.82000 11.14400 25.17600
C  41.69700 12.14800 25.62700
N  42.62600 10.60400 30.41700
C  43.74900 10.93500 29.57600
C  44.70300 11.71300 30.33100
C  44.19500 11.63400 31.63700
C  42.99800 10.94000 31.65500
C  46.04900 12.29900 29.82400
C  44.53100 11.99600 32.98000
O  45.44300 12.66900 33.38100
C  43.39600 11.36000 33.88900
C  44.11600 10.43400 34.82500
O  44.30700 9.26900 34.56100
O  44.51800 11.14000 35.92200
C  44.99300 10.34000 37.04300
H  37.66000 7.74500 32.40800
H  39.40900 7.89600 26.13500
H  44.55500 10.89700 27.54300
H  41.25600 9.29000 35.06600
H  38.34800 9.24500 34.49800
H  39.52300 7.48200 35.70300
H  40.37500 7.05900 34.22000
H  38.68000 6.71100 34.32600
H  39.00400 11.26600 35.13100
H  40.37000 12.06900 34.66500
H  41.45100 10.58400 36.86600
H  39.87500 10.95200 37.47000
H  36.37800 6.45800 31.41800
H  35.97400 5.72300 29.96100
H  35.19000 7.19300 30.36400
H  35.40700 5.18800 26.92900
H  34.99000 6.83500 26.60100
H  35.14800 6.43600 28.23100
H  41.04400 9.45000 24.87400
H  43.86800 9.39500 25.58900
H  41.66300 6.74600 25.81600
H  42.96800 7.34400 24.72400
H  41.37600 7.17100 24.06000
H  42.56900 10.85600 24.15500
H  43.74700 11.71500 25.12900
H  41.16300 11.68700 26.45800
H  40.97400 12.41900 24.85700
H  42.19600 13.05700 25.96300
H  45.88300 13.10100 29.10500
H  46.77600 11.50100 29.67300
H  46.30600 12.80500 30.75500
H  42.91700 12.17700 34.42800
H  45.21400 10.91400 37.94200
H  45.94400 9.93500 36.69800
H  44.35600 9.52200 37.38100
Mg 9.46400 47.97900 26.14200
C  7.51400 47.92500 29.08000
C  12.07400 49.30100 28.02800
C  11.18100 48.36500 23.33400
C  6.60900 47.42300 24.26800
N  9.67900 48.86700 28.27400
C  8.77800 48.52800 29.27700
C  9.45100 48.88700 30.68200
C  10.82600 49.56900 30.28700
C  10.88700 49.26500 28.79000
C  11.07300 51.04600 30.68700
C  9.58900 47.67900 31.57700
C  10.13900 47.87600 32.98100
H  9.78900 46.94100 34.11100
N  11.38300 48.56400 25.71900
C  12.35900 49.01200 26.64900
C  13.62100 49.16700 25.98900
C  13.32300 48.82500 24.61400
C  11.92800 48.65900 24.48200
C  14.91000 49.69800 26.63400
C  14.33400 48.87400 23.46600
O  14.05800 48.49200 22.33000
C  15.71300 49.14900 23.81200
N  8.94800 48.07500 24.16300
C  9.84000 48.14500 23.17900
C  9.20300 48.00500 21.78500
C  7.95100 47.25300 22.14300
C  7.78600 47.62100 23.61200
C  8.81600 49.38800 21.03400
C  8.01100 45.71700 21.80400
C  7.69300 44.61400 22.83100
N  7.48900 47.68200 26.49300
C  6.43200 47.40800 25.67700
C  5.18300 47.19800 26.44100
C  5.58700 47.34900 27.77800
C  6.98500 47.57300 27.77500
C  3.82800 46.89600 25.96800
C  5.12200 47.43400 29.14800
O  3.99800 47.39400 29.66400
C  6.43100 47.60100 30.01900
C  6.69500 46.26200 30.65700
O  6.99800 45.24200 30.11000
O  6.44100 46.42900 31.99300
C  6.74700 45.19200 32.75000
H  12.87500 49.66500 28.67500
H  11.78100 48.29800 22.42400
H  5.76600 47.07700 23.66600
H  8.92500 49.69700 31.18800
H  11.58400 48.94300 30.75700
H  11.78600 51.01100 31.51100
H  10.17800 51.54300 31.06100
H  11.56100 51.60300 29.88700
H  10.25700 46.96700 31.09200
H  8.57400 47.33400 31.77600
H  10.02900 48.92700 33.24700
H  11.20200 47.63700 32.95600
H  15.22700 50.62000 26.14700
H  15.77600 49.04500 26.53000
H  14.73800 49.81800 27.70400
H  16.29100 49.17500 22.88800
H  16.15100 48.48500 24.55800
H  15.69900 50.19000 24.13700
H  9.79700 47.47600 21.04100
H  7.13000 47.65800 21.55100
H  8.61600 50.12600 21.81000
H  7.89300 49.33700 20.45800
H  9.65200 49.74900 20.43400
H  9.05800 45.42400 21.72800
H  7.42600 45.56500 20.89700
H  7.06900 43.85900 22.35200
H  7.20000 45.08700 23.68100
H  8.65800 44.18600 23.10300
H  3.05100 47.23700 26.65200
H  3.80100 45.82700 25.75900
H  3.69500 47.43600 25.03000
H  6.18900 48.35300 30.77100
H  6.95100 45.65900 33.71300
H  7.72600 44.73100 32.61800
H  5.90300 44.50400 32.78300

