158

Mg 35.06500 3.09500 30.20800
C  32.73400 3.94100 32.63800
C  37.40600 2.98200 32.61300
C  37.26100 2.48200 27.74600
C  32.53000 3.52800 27.73200
N  35.06800 3.40400 32.35500
C  33.97800 3.75400 33.14700
C  34.36000 3.75200 34.63100
C  36.00600 3.76200 34.51200
C  36.19500 3.46300 33.04800
C  36.76200 5.02100 35.04200
C  33.80700 2.55700 35.44000
C  33.45600 2.74700 36.92600
H  34.07500 3.90500 37.73000
N  37.13900 2.68200 30.23200
C  37.93000 2.59100 31.32000
C  39.20900 2.12400 30.98700
C  39.14700 1.91900 29.57200
C  37.80300 2.37200 29.10800
C  40.28800 1.72200 31.98100
C  40.23100 1.52400 28.60200
O  40.06500 1.30900 27.38500
C  41.60800 1.14700 29.14900
N  34.94600 3.17900 28.02800
C  35.97600 2.83000 27.26200
C  35.64800 2.76400 25.77700
C  34.12600 2.98900 25.77400
C  33.84700 3.22400 27.23400
C  36.44400 3.72300 24.89600
C  33.29500 1.81900 25.19000
C  32.88100 0.66000 26.18000
N  33.12500 3.76500 30.16000
C  32.20000 3.84900 29.07700
C  30.91300 4.11400 29.60800
C  31.11000 4.16200 30.97900
C  32.41700 3.91800 31.28800
C  29.66000 4.47900 28.77000
C  30.37600 4.48500 32.23200
O  29.24800 4.92000 32.44000
C  31.40500 4.15100 33.37600
C  31.33900 5.35400 34.26100
O  31.88500 6.40900 34.06900
O  30.69700 5.02600 35.50000
C  30.68700 6.22100 36.42000
H  38.19600 2.83400 33.35200
H  37.92600 2.08900 26.97400
H  31.72600 3.46000 26.99600
H  33.97200 4.70300 34.99600
H  36.52000 2.96500 35.04900
H  37.28900 4.77600 35.96400
H  35.97700 5.73800 35.28100
H  37.56600 5.41500 34.42000
H  34.65300 1.87000 35.45600
H  32.98300 2.06000 34.92800
H  33.71500 1.78600 37.37100
H  32.37600 2.81300 37.05500
H  41.21400 2.27300 31.82000
H  40.48200 0.65300 31.88600
H  39.93900 1.90800 32.99700
H  41.90700 2.02200 29.72600
H  42.31000 1.00700 28.32700
H  41.36900 0.22500 29.67900
H  35.86300 1.71100 25.59500
H  33.73800 3.90000 25.31800
H  35.91400 4.41100 24.23700
H  37.13300 3.20700 24.22700
H  37.11600 4.36600 25.46400
H  33.95000 1.52200 24.37000
H  32.34500 2.25100 24.87700
H  31.91900 0.26200 25.85400
H  32.88400 0.82500 27.25700
H  33.59100 -0.14500 25.98800
H  29.72200 5.52100 28.45400
H  28.91900 4.43000 29.56800
H  29.56600 3.69900 28.01400
H  31.11000 3.28100 33.96300
H  30.37800 7.22300 36.12100
H  31.62300 6.19600 36.97700
H  29.82100 6.07900 37.06700
Mg -12.41800 15.83200 41.65500
C  -9.51200 14.26500 40.72200
C  -11.51400 18.66400 39.86300
C  -15.60700 16.91900 41.82700
C  -13.62400 12.61200 42.66800
N  -10.71100 16.38100 40.36000
C  -9.54800 15.59800 40.25000
C  -8.43700 16.40400 39.57500
C  -9.11700 17.87000 39.50700
C  -10.53000 17.70800 39.98100
C  -8.39400 18.93500 40.44700
C  -7.87800 15.79800 38.23500
C  -6.34700 15.94400 38.07100
H  -5.99700 16.42000 36.65200
N  -13.33200 17.63700 41.07700
C  -12.87300 18.63600 40.23200
C  -13.84600 19.70000 40.14500
C  -15.07000 19.20000 40.69700
C  -14.70800 17.88700 41.34000
C  -13.78200 21.02200 39.46600
C  -16.44700 19.92100 40.79200
O  -16.66200 20.97600 40.21900
C  -17.48700 19.42400 41.74200
N  -14.37000 14.88800 42.35100
C  -15.51400 15.56800 42.26200
C  -16.75400 14.76500 42.71800
C  -16.08300 13.30100 42.84200
C  -14.57500 13.60800 42.67400
C  -17.51000 15.34600 43.92500
C  -16.58700 12.35900 41.69000
C  -18.01500 11.99000 41.68300
N  -11.66500 13.86700 41.96200
C  -12.27300 12.70900 42.38400
C  -11.33700 11.64600 42.34800
C  -10.18400 12.21000 41.77000
C  -10.51600 13.56800 41.46000
C  -11.51400 10.25900 42.78000
C  -8.85600 11.84500 41.31200
O  -8.16300 10.79800 41.46600
C  -8.32600 13.27400 40.71100
C  -7.07000 13.72900 41.49200
O  -7.05900 14.21500 42.63200
O  -5.95300 13.79800 40.62900
C  -4.78600 14.31000 41.28300
H  -11.29400 19.57800 39.30700
H  -16.67400 17.14700 41.78000
H  -14.00500 11.59900 42.80700
H  -7.57100 16.37400 40.23700
H  -9.12800 18.25700 38.48800
H  -8.05200 18.42200 41.34500
H  -9.14200 19.66200 40.76500
H  -7.61000 19.41100 39.85800
H  -8.36500 16.39500 37.46400
H  -8.22700 14.77200 38.12400
H  -5.83600 15.01200 38.31100
H  -6.08600 16.78800 38.70900
H  -13.60300 21.74700 40.26000
H  -14.67700 21.13300 38.85500
H  -12.88900 21.04800 38.84200
H  -18.12400 20.28200 41.95600
H  -16.97900 19.09400 42.64800
H  -18.10200 18.63200 41.31500
H  -17.44500 14.93200 41.89200
H  -16.23400 12.93400 43.85800
H  -18.48100 15.64500 43.52900
H  -17.08900 16.25100 44.36100
H  -17.53300 14.67100 44.78000
H  -16.00600 11.43700 41.66000
H  -16.36900 12.86500 40.74900
H  -18.50100 12.32700 40.76800
H  -18.39200 12.53500 42.54900
H  -18.19400 10.91900 41.78500
H  -11.25400 9.54300 42.00000
H  -12.54800 10.15900 43.10800
H  -10.80300 10.14000 43.59800
H  -8.04600 13.01500 39.69000
H  -4.87300 15.38600 41.43300
H  -3.96800 14.35900 40.56500
H  -4.41000 13.66800 42.08000

