158

Mg -2.18500 17.38000 26.84700
C  -2.93400 15.22700 29.46000
C  -2.80300 19.99900 29.03300
C  -1.99300 19.47000 24.16000
C  -1.87500 14.64800 24.75400
N  -2.73400 17.54500 29.04100
C  -2.97500 16.57900 29.96700
C  -3.07900 17.13000 31.45000
C  -2.97200 18.66400 31.15500
C  -2.86600 18.72800 29.64300
C  -3.99800 19.60300 31.81900
C  -2.10800 16.46500 32.39200
C  -1.33500 17.25700 33.40400
H  -1.01700 16.57900 34.82500
N  -2.25100 19.43700 26.61900
C  -2.50800 20.35500 27.66000
C  -2.39200 21.63600 27.16800
C  -2.09400 21.52400 25.76300
C  -2.13800 20.07000 25.40000
C  -2.71800 22.83500 28.05600
C  -1.79200 22.59100 24.66000
O  -1.40600 22.38100 23.51800
C  -1.65500 23.97400 25.09500
N  -2.20600 17.10600 24.76200
C  -2.11400 18.10700 23.82600
C  -1.89200 17.53600 22.39300
C  -1.53600 16.07900 22.70800
C  -1.94200 15.87700 24.20400
C  -3.17600 17.76500 21.55900
C  -0.03300 15.72300 22.57600
C  0.87500 16.48100 23.59600
N  -2.33200 15.34100 26.98200
C  -2.15000 14.31900 26.06600
C  -2.37900 13.04200 26.64000
C  -2.65700 13.30700 27.95600
C  -2.58600 14.75400 28.11400
C  -2.49100 11.67800 25.95100
C  -3.03400 12.73500 29.16700
O  -3.25800 11.52900 29.44600
C  -3.18500 13.91300 30.21800
C  -2.20700 13.56300 31.24700
O  -1.05500 13.74200 31.12300
O  -2.75700 12.90200 32.36300
C  -1.85800 12.55000 33.46900
H  -2.98400 20.81500 29.73500
H  -1.68100 20.01900 23.26900
H  -1.63500 13.85000 24.04800
H  -4.12800 16.89300 31.63300
H  -1.99200 19.07300 31.39800
H  -4.72700 19.99700 31.11100
H  -3.47500 20.36200 32.40000
H  -4.46700 18.94400 32.55000
H  -1.30500 16.05100 31.78300
H  -2.59300 15.66200 32.94800
H  -1.85700 18.14200 33.76700
H  -0.41600 17.68700 33.00600
H  -3.51700 23.42600 27.61000
H  -1.90800 23.56200 28.11800
H  -2.95500 22.67900 29.10900
H  -2.70000 24.23100 25.27400
H  -1.23400 24.55500 24.27400
H  -1.14300 23.98000 26.05700
H  -0.97700 18.05900 22.11400
H  -2.09000 15.34200 22.12600
H  -3.64600 18.71200 21.82500
H  -3.96200 17.02700 21.72000
H  -2.96200 17.81600 20.49200
H  0.34000 15.91200 21.56900
H  0.10200 14.66700 22.81300
H  0.39000 17.20000 24.25600
H  1.72800 16.92300 23.08200
H  1.27600 15.76200 24.31100
H  -3.57200 11.62300 26.07700
H  -1.88300 10.89900 26.41300
H  -2.33600 11.80100 24.87900
H  -4.16800 13.77200 30.66900
H  -1.96200 13.37300 34.17600
H  -0.82600 12.44900 33.13100
H  -2.14000 11.58700 33.89700
Mg 2.39000 -1.28100 44.69300
C  5.45600 0.07800 43.81500
C  0.87300 1.03600 42.53900
C  -0.51600 -2.88900 45.24500
C  4.10700 -3.80000 46.39100
N  3.13200 0.34000 43.24300
C  4.47400 0.77700 43.21400
C  4.62000 1.89000 42.11000
C  3.13800 2.27200 41.85800
C  2.25900 1.14500 42.54400
C  2.69500 3.70100 42.31000
C  5.39000 1.37100 40.85100
C  6.62800 2.13200 40.47800
H  6.79900 2.47700 39.02100
N  0.40700 -0.91300 44.11700
C  0.00900 0.03700 43.19200
C  -1.36500 -0.06000 43.16000
C  -1.84400 -1.16800 43.92700
C  -0.61200 -1.76700 44.50000
C  -2.16800 0.94400 42.31400
C  -3.39100 -1.48700 44.19400
O  -4.23700 -0.85700 43.54700
C  -3.85400 -2.63400 45.05500
N  1.88200 -3.07200 45.66900
C  0.64300 -3.55600 45.75100
C  0.55500 -4.98300 46.26700
C  2.03000 -5.34100 46.42600
C  2.79100 -4.02100 46.04200
C  -0.14800 -5.15000 47.63000
C  2.63500 -6.60400 45.73400
C  3.45600 -7.63600 46.63000
N  4.31800 -1.75900 45.11800
C  4.82300 -2.79000 45.79600
C  6.25800 -2.66300 45.90100
C  6.58600 -1.55300 45.12900
C  5.39400 -1.05000 44.63100
C  7.11100 -3.60900 46.68200
C  7.64300 -0.67100 44.65200
O  8.87000 -0.69500 44.76200
C  6.95400 0.42900 43.76600
C  7.19500 1.77800 44.39200
O  6.76400 2.15800 45.47500
O  7.90000 2.62100 43.61300
C  8.40500 3.88900 44.11600
H  0.34700 1.72600 41.87600
H  -1.49400 -3.36700 45.32700
H  4.65300 -4.70400 46.66800
H  5.20900 2.63500 42.64400
H  3.06000 2.14100 40.77900
H  3.61600 4.28300 42.34200
H  2.34000 3.68500 43.34000
H  1.98000 4.07000 41.57400
H  4.80400 1.40700 39.93300
H  5.62800 0.33800 41.10500
H  7.52000 1.61000 40.82500
H  6.70800 3.01300 41.11400
H  -1.98700 0.62300 41.28900
H  -1.79200 1.96600 42.35900
H  -3.25400 0.86400 42.37100
H  -3.49800 -3.62900 44.79000
H  -4.94300 -2.58500 45.06400
H  -3.57500 -2.53000 46.10400
H  0.03100 -5.51900 45.47600
H  2.23300 -5.42300 47.49300
H  -0.50300 -4.17900 47.97600
H  0.36900 -5.66400 48.44100
H  -1.04800 -5.74000 47.45500
H  3.27200 -6.21200 44.94200
H  1.80500 -7.21500 45.37900
H  3.69200 -7.50600 47.68600
H  4.46500 -7.71300 46.22700
H  2.91800 -8.58300 46.58900
H  7.60500 -4.35400 46.05900
H  6.50500 -4.15900 47.40200
H  7.93900 -3.11100 47.18700
H  7.43300 0.42100 42.78700
H  9.48000 3.80200 43.96300
H  8.25500 4.04700 45.18400
H  8.05700 4.81200 43.65000

