158

Mg 44.85000 4.08400 47.08300
C  43.36600 7.14700 47.22000
C  41.79100 2.57600 46.49900
C  46.39000 0.97900 46.40300
C  47.94600 5.58800 46.96000
N  42.76800 4.83400 46.82900
C  42.45400 6.13400 47.01800
C  40.92200 6.34100 46.97500
C  40.39400 4.81200 46.84700
C  41.69600 3.97400 46.72400
C  39.54000 4.37300 48.12300
C  40.31500 7.35000 45.89800
C  40.95900 7.29900 44.54400
H  40.13000 6.98000 43.36700
N  44.16700 2.03500 46.67500
C  42.88500 1.69400 46.45000
C  42.78800 0.24800 46.24500
C  44.12900 -0.21200 46.19300
C  44.95100 0.92900 46.35100
C  41.45500 -0.53400 45.90700
C  44.43400 -1.67700 45.80800
O  43.48200 -2.43700 45.65300
C  45.84600 -2.15000 45.63400
N  46.82100 3.45500 46.58800
C  47.22000 2.15600 46.53100
C  48.73200 1.93900 46.54500
C  49.26600 3.47900 46.69500
C  47.94600 4.22200 46.74600
C  49.32800 0.99600 47.64000
C  50.30200 3.89800 45.62200
C  51.62500 4.58000 46.14400
N  45.59700 6.00200 47.13100
C  46.85600 6.46700 47.11000
C  46.89200 7.89700 47.29300
C  45.50800 8.21500 47.38200
C  44.77800 7.00800 47.26600
C  48.04000 8.86500 47.43600
C  44.52200 9.27300 47.53400
O  44.69300 10.47700 47.74300
C  43.08200 8.58300 47.47300
C  42.38300 8.74600 48.81400
O  42.59300 8.18600 49.86900
O  41.45600 9.70800 48.64600
C  40.46700 10.01500 49.77400
H  40.84300 2.07000 46.30600
H  46.88500 0.02300 46.22200
H  48.91900 6.08300 46.98000
H  40.76800 6.80400 47.95000
H  39.84000 4.68300 45.91800
H  38.66800 3.87500 47.69900
H  39.21200 5.20600 48.74500
H  40.21000 3.75900 48.72600
H  40.14000 8.33800 46.32300
H  39.27900 7.05600 45.73300
H  41.80100 6.60800 44.50800
H  41.48800 8.24600 44.44000
H  41.51100 -1.59500 46.14700
H  41.17400 -0.36000 44.86800
H  40.63400 -0.17500 46.52800
H  46.32000 -1.78100 46.54400
H  46.28400 -1.66300 44.76300
H  45.89000 -3.22800 45.48200
H  49.03000 1.50000 45.59300
H  49.74200 3.48100 47.67600
H  49.56000 0.00000 47.26200
H  48.58300 0.90900 48.43000
H  50.23100 1.43000 48.06900
H  49.67400 4.60200 45.07700
H  50.54700 3.04000 44.99500
H  52.44200 4.20000 45.53100
H  51.75400 4.38500 47.20900
H  51.50400 5.65700 46.02900
H  47.69500 9.88500 47.27100
H  48.78500 8.63900 46.67300
H  48.42800 8.85900 48.45500
H  42.39800 8.99100 46.72900
H  41.04400 10.21700 50.67700
H  39.79100 9.17500 49.93400
H  39.86100 10.85700 49.44000
Mg 35.83600 48.86700 25.39700
C  35.90300 46.64100 28.25300
C  34.76100 51.28500 27.53700
C  35.25400 50.79400 22.64400
C  36.49800 46.09500 23.34600
N  35.28200 48.88200 27.65900
C  35.48300 47.92900 28.67000
C  35.38100 48.55900 30.03900
C  34.86100 50.06300 29.73100
C  34.98900 50.06500 28.15300
C  33.40400 50.37500 30.21300
C  36.79500 48.53500 30.76200
C  36.80400 48.17000 32.28900
H  35.52100 48.14300 33.15400
N  35.18900 50.80800 25.10300
C  34.83500 51.66800 26.14600
C  34.38600 52.88700 25.61100
C  34.44600 52.76000 24.17100
C  34.94600 51.42200 23.87300
C  33.79300 53.98700 26.46000
C  34.07400 53.75500 23.06600
O  34.17300 53.48000 21.91100
C  33.61500 55.11800 23.38300
N  35.92200 48.51500 23.33300
C  35.70400 49.46600 22.37100
C  36.00600 48.85300 20.96500
C  36.44100 47.41500 21.23400
C  36.26300 47.36100 22.76200
C  34.82400 48.99500 19.89300
C  37.91400 47.02600 20.84900
C  38.11200 45.84200 19.93000
N  36.11700 46.82500 25.69000
C  36.44300 45.80600 24.79800
C  36.72800 44.57200 25.42100
C  36.46300 44.89800 26.80700
C  36.12100 46.21500 26.92300
C  37.31500 43.22600 24.81000
C  36.46200 44.33700 28.14200
O  36.74600 43.19400 28.42700
C  36.12300 45.40100 29.15900
C  34.86500 45.05600 29.81500
O  33.85200 44.93900 29.20300
O  35.04300 44.65700 31.18800
C  33.76300 44.23100 31.84000
H  34.47900 52.06200 28.25000
H  35.24000 51.39500 21.73200
H  36.69300 45.09200 22.96100
H  34.65000 47.89600 30.50000
H  35.51200 50.90300 29.97300
H  32.99600 49.50400 30.72700
H  32.81500 50.72600 29.36600
H  33.52400 51.19100 30.92600
H  37.15600 49.54300 30.55700
H  37.39800 47.75000 30.30400
H  37.47200 48.94100 32.67300
H  37.42700 47.28200 32.39200
H  32.71500 53.98300 26.30100
H  34.28000 54.92200 26.18100
H  33.82400 53.77200 27.52800
H  33.74500 55.79200 22.53600
H  34.15100 55.47700 24.26200
H  32.56700 55.04200 23.67300
H  36.85500 49.38800 20.54000
H  35.80600 46.61900 20.84500
H  35.16500 49.31900 18.91000
H  34.00100 49.61600 20.24900
H  34.33600 48.02600 19.78900
H  38.57600 47.13400 21.70800
H  38.34900 47.78700 20.20100
H  39.18400 45.72400 19.77200
H  37.54000 46.07100 19.03100
H  37.65400 44.99700 20.44300
H  36.66100 42.66400 24.14400
H  37.65000 42.61700 25.65000
H  38.22300 43.42200 24.23900
H  36.88600 45.51100 29.93000
H  33.24700 45.09100 32.26700
H  34.12000 43.58000 32.63700
H  33.13100 43.59200 31.22300

