158

Mg 1.66600 -0.22000 43.49600
C  5.10500 0.33700 43.21600
C  1.07100 2.76000 42.05400
C  -1.50200 -1.01900 43.57500
C  2.47600 -3.57500 44.54300
N  2.95800 1.30600 42.64700
C  4.31200 1.35500 42.68600
C  4.86700 2.65600 41.99900
C  3.51600 3.56700 42.05800
C  2.40800 2.46900 42.20700
C  3.53200 4.60300 43.18000
C  5.43400 2.34400 40.58600
C  6.89800 2.89700 40.14400
H  6.96100 3.80300 38.90400
N  0.03200 0.71400 42.89200
C  -0.03500 1.97500 42.32100
C  -1.44100 2.36600 42.16600
C  -2.25600 1.34900 42.76500
C  -1.23300 0.26800 43.13300
C  -1.93800 3.77500 41.54100
C  -3.78500 1.36600 43.00500
O  -4.45400 2.25400 42.52700
C  -4.52800 0.34800 43.73700
N  0.58500 -2.14600 43.88500
C  -0.76900 -2.08300 44.00600
C  -1.26000 -3.44000 44.42400
C  0.06300 -4.16400 44.92500
C  1.12200 -3.32200 44.29400
C  -2.34200 -3.33800 45.47800
C  0.11100 -5.65700 44.60600
C  0.23300 -6.60000 45.77000
N  3.40900 -1.44500 43.82800
C  3.60200 -2.74800 44.28000
C  5.00000 -2.95900 44.43600
C  5.63900 -1.79600 43.99600
C  4.58200 -0.86400 43.68200
C  5.67000 -4.25200 44.73000
C  7.02100 -1.20100 43.77500
O  8.15000 -1.56000 44.11800
C  6.61300 0.24400 43.28300
C  7.23900 1.21200 44.12600
O  6.70900 1.88000 45.03800
O  8.49000 1.44200 43.65600
C  9.42400 2.24200 44.41000
H  0.96900 3.75600 41.61700
H  -2.53800 -1.36300 43.54600
H  2.84000 -4.51300 44.96900
H  5.63400 3.00200 42.69200
H  3.48300 4.19600 41.16800
H  3.82600 5.56400 42.75700
H  4.27600 4.36400 43.94000
H  2.51800 4.75100 43.55100
H  4.81000 2.85700 39.85400
H  5.32000 1.28600 40.35100
H  7.53400 2.01900 40.03000
H  7.38100 3.40000 40.98200
H  -2.90600 3.72700 41.04100
H  -1.19500 4.19000 40.86000
H  -2.02200 4.39600 42.43200
H  -5.41600 0.73900 44.23400
H  -3.84900 -0.02800 44.50300
H  -4.78400 -0.48500 43.08200
H  -1.66800 -3.96800 43.56200
H  0.19900 -3.93800 45.98300
H  -2.58900 -2.29400 45.67000
H  -2.03100 -3.77600 46.42700
H  -3.18900 -3.89900 45.08300
H  0.98700 -5.78800 43.97100
H  -0.69400 -5.94400 43.92900
H  1.12500 -7.21900 45.66500
H  -0.59800 -7.28800 45.61300
H  0.14600 -6.09200 46.73000
H  5.65500 -4.79400 43.78400
H  5.12700 -4.75600 45.52900
H  6.70800 -4.02000 44.96500
H  7.03200 0.35000 42.28200
H  9.63700 3.25100 44.05900
H  10.41800 1.80200 44.48100
H  9.07400 2.51100 45.40700
Mg 28.86100 58.21600 41.02700
C  26.14900 56.24300 40.19700
C  30.96700 55.85400 39.37200
C  31.44500 60.42400 41.18100
C  26.70600 60.75100 42.24700
N  28.62000 56.29800 40.02800
C  27.39100 55.69700 39.77600
C  27.54600 54.49100 38.80400
C  29.09400 54.18600 38.94400
C  29.61800 55.56700 39.53200
C  29.46400 53.04600 39.87700
C  27.18700 54.98100 37.40400
C  26.10900 54.19800 36.52800
H  26.26100 54.19300 34.97500
N  31.04000 58.09100 40.50100
C  31.66700 57.08200 39.82500
C  33.02600 57.47200 39.63900
C  33.27600 58.75800 40.32400
C  31.89000 59.17100 40.70200
C  34.10300 56.52200 39.08000
C  34.60800 59.49500 40.53100
O  35.63400 59.10100 40.06100
C  34.74500 60.78500 41.36300
N  29.01200 60.31400 41.67100
C  30.20000 60.96300 41.74800
C  29.94200 62.43600 42.09900
C  28.67600 62.30200 42.99100
C  28.03100 61.07800 42.26800
C  31.13900 63.14100 42.82000
C  27.73500 63.62700 43.01000
C  27.31100 64.14900 44.36200
N  26.86500 58.50400 41.17000
C  26.16000 59.54300 41.70700
C  24.79800 59.14700 41.79300
C  24.71100 57.91300 41.08900
C  25.98600 57.59900 40.71700
C  23.68000 59.87100 42.56500
C  23.82400 56.81800 40.71200
O  22.64300 56.68300 40.90900
C  24.74200 55.71200 40.05400
C  24.51200 54.40500 40.72100
O  24.40700 54.25900 41.94000
O  24.43400 53.34600 39.83300
C  24.29400 51.93800 40.29800
H  31.56500 55.13900 38.80300
H  32.15000 61.24400 41.03100
H  25.99300 61.39400 42.76700
H  27.01700 53.56200 39.01800
H  29.59300 54.08700 37.98000
H  30.11300 53.50800 40.62100
H  30.16000 52.34900 39.40900
H  28.61500 52.56000 40.35800
H  28.06600 55.02800 36.76100
H  26.80000 55.99900 37.39900
H  25.05100 54.35000 36.74300
H  26.17600 53.16100 36.85500
H  34.98800 56.94800 38.60700
H  33.60000 55.88100 38.35600
H  34.40500 55.92000 39.93600
H  35.74200 61.02900 41.72900
H  34.04800 60.78600 42.20100
H  34.56300 61.63100 40.70000
H  29.75100 62.99800 41.18500
H  28.94700 62.05600 44.01800
H  31.58200 63.99300 42.30300
H  31.83400 62.33500 43.05500
H  30.71200 63.54600 43.73700
H  26.85400 63.45700 42.39200
H  28.28600 64.39100 42.46100
H  27.83500 63.55200 45.10900
H  26.23300 64.06400 44.50000
H  27.63800 65.15800 44.61100
H  24.09600 60.52800 43.32900
H  22.89200 59.23000 42.96000
H  23.15100 60.48500 41.83600
H  24.52300 55.63300 38.98900
H  23.65000 51.30000 39.69300
H  24.02800 51.81500 41.34800
H  25.33600 51.64700 40.15900

