158

Mg -2.39100 17.26600 26.26700
C  -2.97400 14.74300 28.72300
C  -3.09300 19.57800 28.43200
C  -2.44000 19.44400 23.73800
C  -2.80800 14.63100 23.88900
N  -3.15200 17.14900 28.32200
C  -3.06200 16.05100 29.22300
C  -3.13700 16.55300 30.64900
C  -3.41900 18.06400 30.46700
C  -3.27500 18.31100 28.99800
C  -4.69600 18.53700 31.14200
C  -1.88800 16.18000 31.52700
C  -1.82200 16.98100 32.82900
H  -1.76300 16.22300 34.12200
N  -2.45300 19.30700 26.18500
C  -2.72200 20.12800 27.25900
C  -2.45500 21.53000 26.79800
C  -2.23100 21.45300 25.35100
C  -2.37800 20.04900 25.00300
C  -2.67900 22.68100 27.70200
C  -1.81300 22.51700 24.33400
O  -1.67200 22.32800 23.15000
C  -1.60400 23.89400 24.78200
N  -2.60100 17.04500 24.14900
C  -2.52900 18.12000 23.32400
C  -2.74500 17.76500 21.87400
C  -2.76300 16.21900 21.93800
C  -2.68200 15.92100 23.43300
C  -4.05300 18.43800 21.40100
C  -1.65200 15.56000 21.06400
C  -2.14200 14.81400 19.85900
N  -2.68000 15.13800 26.28200
C  -2.69000 14.24000 25.23600
C  -2.77300 12.86000 25.74700
C  -2.81700 12.99300 27.11700
C  -2.89200 14.41800 27.37400
C  -2.98800 11.55300 24.93600
C  -2.94500 12.30100 28.35600
O  -2.96700 11.06500 28.57200
C  -3.09700 13.36300 29.43100
C  -1.90400 13.09800 30.34800
O  -0.86200 13.68900 30.31500
O  -2.33100 12.17600 31.28400
C  -1.50600 12.10700 32.55700
H  -3.14700 20.21300 29.31900
H  -2.36100 20.08400 22.85700
H  -2.84900 13.85100 23.12600
H  -3.93600 16.06300 31.20600
H  -2.51500 18.56000 30.82000
H  -5.37600 18.86400 30.35600
H  -4.48200 19.41200 31.75600
H  -5.16100 17.73100 31.71000
H  -0.93700 16.26300 31.00100
H  -1.88100 15.13000 31.82100
H  -2.62700 17.70700 32.93900
H  -0.90300 17.55600 32.71400
H  -3.02500 22.46800 28.71400
H  -3.41000 23.38900 27.31000
H  -1.70200 23.14800 27.82200
H  -0.97700 23.96300 25.67100
H  -2.54400 24.33200 25.11900
H  -1.24900 24.48600 23.93900
H  -1.90900 18.19700 21.32400
H  -3.73800 15.85900 21.60800
H  -4.38900 19.15400 22.15000
H  -4.81700 17.70200 21.14700
H  -3.86800 19.09100 20.54800
H  -1.12200 14.81700 21.66100
H  -0.86200 16.23900 20.74500
H  -2.72500 13.93000 20.11600
H  -1.21800 14.50900 19.36900
H  -2.66400 15.47300 19.16500
H  -4.04000 11.27600 24.87300
H  -2.43600 10.71000 25.35000
H  -2.58700 11.67800 23.93000
H  -4.04200 13.12200 29.91900
H  -1.31500 13.11800 32.91900
H  -0.59100 11.57700 32.29500
H  -1.93100 11.46300 33.32700
Mg 53.63300 24.04700 44.62600
C  50.90700 25.95800 43.56900
C  52.06200 21.33400 43.27300
C  56.48300 22.56300 45.02500
C  55.08000 27.17300 45.88400
N  51.76100 23.70700 43.42400
C  50.83700 24.61600 43.07700
C  49.72900 23.97700 42.16800
C  49.80800 22.50200 42.57100
C  51.31000 22.47800 43.07200
C  48.80300 22.10000 43.68800
C  50.03500 24.36500 40.70700
C  48.89300 24.82300 39.76400
H  49.20700 25.23900 38.31900
N  54.20300 22.09500 44.28500
C  53.42200 21.10000 43.69800
C  54.08300 19.86200 43.86600
C  55.41400 20.20100 44.33400
C  55.44800 21.70200 44.58500
C  53.44500 18.56500 43.38700
C  56.52600 19.17900 44.48100
O  56.39300 17.96800 44.24600
C  57.83400 19.57100 45.01500
N  55.57300 24.84700 45.18100
C  56.58700 23.92600 45.26100
C  57.83500 24.52800 45.96200
C  57.36500 26.12100 45.99200
C  55.90700 26.03800 45.69400
C  58.32800 24.00200 47.37600
C  58.07100 27.00200 44.90400
C  58.92600 28.05300 45.55700
N  53.21500 26.18300 44.71700
C  53.79600 27.25900 45.34000
C  52.86400 28.39800 45.36900
C  51.75300 27.91200 44.70100
C  51.99600 26.51100 44.31800
C  53.06300 29.70900 45.95500
C  50.42800 28.23900 44.26600
O  49.80900 29.26600 44.39100
C  49.83600 26.97700 43.52800
C  49.29200 27.39200 42.26600
O  49.96800 27.71300 41.31200
O  47.92100 27.43500 42.27400
C  47.17400 27.84900 41.03200
H  51.43200 20.45900 43.09300
H  57.49000 22.14000 45.03700
H  55.57200 28.03500 46.34000
H  48.71800 24.28800 42.43200
H  49.71200 21.90600 41.66300
H  49.26400 21.21200 44.12100
H  47.88800 21.81000 43.17200
H  48.63700 22.92500 44.38100
H  50.49900 23.48500 40.26200
H  50.75800 25.17500 40.79200
H  48.23500 25.55500 40.23200
H  48.24300 23.95000 39.69800
H  52.44600 18.39000 43.78800
H  54.08300 17.69200 43.52300
H  53.40100 18.78200 42.32000
H  57.54500 20.11500 45.91400
H  58.43200 20.25600 44.41300
H  58.39600 18.68900 45.32200
H  58.70200 24.42500 45.30900
H  57.55100 26.41600 47.02500
H  58.03700 22.96100 47.52000
H  57.88000 24.56000 48.19800
H  59.39500 24.11000 47.57000
H  57.33400 27.38800 44.20100
H  58.87900 26.46200 44.41100
H  59.97900 27.81400 45.41000
H  58.83500 28.14200 46.63900
H  58.81200 29.04400 45.11800
H  52.59900 30.31400 45.17600
H  54.12700 29.92700 46.04600
H  52.58800 29.73200 46.93600
H  49.02100 26.57100 44.12800
H  46.58800 28.72700 41.30100
H  46.54700 27.04300 40.65000
H  47.85600 28.05400 40.20700

