158

Mg 41.36300 41.13400 27.20400
C  40.59200 43.54700 29.45200
C  42.32400 38.97700 29.67200
C  42.02200 38.83900 24.72300
C  40.72900 43.60500 24.69800
N  41.40800 41.28900 29.21000
C  41.00500 42.33200 30.00700
C  41.00700 41.98000 31.47900
C  41.61400 40.58100 31.51100
C  41.89000 40.25000 29.99800
C  42.83700 40.45700 32.47100
C  39.73100 42.21900 32.35500
C  39.78500 43.32200 33.35700
H  39.13600 43.01400 34.73700
N  42.09000 39.14500 27.21000
C  42.43600 38.45200 28.34000
C  42.79600 37.07800 27.90300
C  42.64200 37.02200 26.45700
C  42.26000 38.41300 26.06700
C  43.24200 36.00900 28.93600
C  42.81100 35.84500 25.53500
O  42.44300 35.92800 24.34200
C  43.24500 34.47500 26.09600
N  41.57700 41.26500 25.00100
C  41.66900 40.10700 24.22900
C  41.31300 40.43600 22.70400
C  40.64200 41.79800 22.84200
C  40.95800 42.26200 24.25600
C  42.60100 40.40000 21.80400
C  39.08800 41.92300 22.70200
C  38.31500 40.87700 23.32100
N  40.92300 43.17100 27.00900
C  40.80500 44.05300 25.92800
C  40.67200 45.37900 26.41000
C  40.44200 45.23500 27.82200
C  40.71400 43.90000 28.11700
C  40.46600 46.65400 25.71500
C  40.08000 45.89700 29.09900
O  39.70300 47.04300 29.35700
C  40.26500 44.85700 30.17500
C  41.36000 45.43500 30.97000
O  42.58500 45.27800 30.92400
O  40.83500 46.11200 32.08100
C  41.77000 46.83100 32.97400
H  42.51300 38.40000 30.57900
H  42.29300 38.17900 23.89700
H  40.32000 44.28700 23.94900
H  41.78300 42.58700 31.94500
H  40.96700 39.89000 32.05200
H  43.16300 39.41700 32.48300
H  42.60600 40.83000 33.46900
H  43.62500 41.13700 32.14800
H  39.52300 41.27500 32.85800
H  38.87500 42.47600 31.73000
H  39.09600 44.09100 33.00900
H  40.72600 43.85700 33.48400
H  42.82100 36.20100 29.92200
H  44.32300 36.13800 28.87400
H  42.99200 35.00300 28.59900
H  44.10600 34.63700 26.74400
H  43.53500 33.75300 25.33300
H  42.38700 33.97500 26.54600
H  40.62400 39.73100 22.23700
H  41.14500 42.55400 22.23800
H  42.45400 39.73400 20.95400
H  43.51000 40.15200 22.35200
H  42.81500 41.39400 21.41100
H  39.09200 41.66500 21.64300
H  38.82800 42.97300 22.83800
H  39.00500 40.16100 23.76700
H  37.68300 40.39600 22.57500
H  37.72100 41.41400 24.06100
H  39.52000 46.73100 25.17900
H  41.24900 46.77000 24.96500
H  40.61700 47.50600 26.37800
H  39.34900 44.70600 30.74700
H  42.58800 47.33000 32.45500
H  42.25000 46.11000 33.63500
H  41.17200 47.48600 33.60800
Mg -9.96400 17.18100 42.52200
C  -6.47900 16.79600 42.28400
C  -9.51500 20.43100 41.63300
C  -13.30500 17.50800 42.39300
C  -10.17200 13.69700 42.67800
N  -8.05200 18.44800 41.97000
C  -6.78700 18.12100 41.97000
C  -5.89300 19.39800 41.62700
C  -6.90600 20.60700 41.54600
C  -8.27800 19.82300 41.78900
C  -6.62500 21.89700 42.35400
C  -5.05300 19.21500 40.38500
C  -5.56700 18.20800 39.27600
H  -4.88100 18.50100 37.85900
N  -11.29200 18.76400 42.18100
C  -10.85700 19.98800 41.82300
C  -12.05300 20.80200 41.56400
C  -13.25600 20.05800 41.86900
C  -12.69200 18.74000 42.27000
C  -11.90300 22.19000 41.00100
C  -14.72600 20.48700 41.82700
O  -15.13900 21.58900 41.37000
C  -15.86300 19.59800 42.20900
N  -11.47200 15.72200 42.29000
C  -12.81700 16.18100 42.33800
C  -13.75200 14.93800 42.63800
C  -12.72600 13.81700 42.59000
C  -11.36400 14.43500 42.56600
C  -14.47100 15.12300 44.05800
C  -12.97500 12.73700 41.45500
C  -13.04300 11.23600 41.87900
N  -8.60300 15.52900 42.65400
C  -8.86900 14.15900 42.74400
C  -7.66100 13.41800 42.82900
C  -6.68100 14.41400 42.74100
C  -7.25500 15.69300 42.54500
C  -7.46600 11.94300 42.88100
C  -5.32600 14.63600 42.71500
O  -4.30000 13.91300 42.73000
C  -5.15800 16.16800 42.49300
C  -4.31700 16.65900 43.71000
O  -3.15700 17.02900 43.60800
O  -5.09600 16.72100 44.83400
C  -4.52400 17.60600 45.86700
H  -9.26600 21.47200 41.41600
H  -14.38000 17.33200 42.47600
H  -10.30900 12.61700 42.76500
H  -5.25900 19.58500 42.49300
H  -6.90500 20.93900 40.50800
H  -5.59500 21.90300 42.71200
H  -7.28000 21.92200 43.22500
H  -6.79600 22.69800 41.63500
H  -4.00000 19.14700 40.66000
H  -4.96800 20.10300 39.75800
H  -6.65400 18.15700 39.20500
H  -5.25900 17.19900 39.54900
H  -11.16200 22.09700 40.20700
H  -11.40700 22.93900 41.61800
H  -12.89900 22.44400 40.63800
H  -15.99100 18.87400 41.40400
H  -16.74900 20.19500 42.42300
H  -15.61000 19.14300 43.16700
H  -14.47500 14.88800 41.82400
H  -12.63000 13.29400 43.54100
H  -14.45000 14.16800 44.58300
H  -15.44300 15.48100 43.71700
H  -13.93300 15.85600 44.65900
H  -12.19000 12.89600 40.71600
H  -13.90400 13.02900 40.96500
H  -13.98500 10.71700 41.69800
H  -12.76500 11.07600 42.92100
H  -12.23300 10.70700 41.37700
H  -8.34900 11.34300 42.66000
H  -6.96400 11.56200 43.77000
H  -6.66400 11.66300 42.20000
H  -4.62300 16.48300 41.59700
H  -3.85900 18.34200 45.41500
H  -4.03000 17.12900 46.71300
H  -5.24300 18.25700 46.36400

