158

Mg -0.24800 7.42500 26.74800
C  0.53900 9.57000 29.51300
C  -0.27400 4.88600 28.94300
C  -0.66000 5.49500 24.14600
C  0.58800 10.17700 24.58800
N  0.11800 7.20500 28.99700
C  0.32100 8.21900 29.90000
C  0.40900 7.77500 31.32900
C  0.49900 6.24800 31.10200
C  0.03700 6.05500 29.64600
C  1.87600 5.60500 31.21600
C  -0.87200 8.26300 32.06700
C  -0.75000 8.94500 33.44100
H  -0.23900 8.04700 34.66600
N  -0.56400 5.55700 26.59900
C  -0.56000 4.57500 27.59500
C  -0.93000 3.34300 27.06800
C  -1.12700 3.51200 25.69300
C  -0.83600 4.90000 25.40000
C  -1.14200 2.11500 27.92000
C  -1.49000 2.45000 24.70000
O  -1.90000 2.72300 23.55100
C  -1.26200 0.95400 25.02700
N  0.01900 7.80900 24.63200
C  -0.34500 6.78500 23.82700
C  -0.15000 7.16100 22.40400
C  -0.07200 8.73700 22.43100
C  0.30500 8.99800 23.95100
C  1.13400 6.49500 21.73300
C  -1.43700 9.42300 22.11100
C  -1.47900 10.75600 21.48300
N  0.36000 9.45800 26.91300
C  0.63000 10.37800 25.93000
C  0.99300 11.61700 26.57900
C  1.05200 11.32000 27.97900
C  0.59500 9.98100 28.13500
C  1.38300 12.81200 25.85600
C  1.35300 11.87200 29.32200
O  1.84200 12.87000 29.71900
C  0.95000 10.73300 30.36900
C  1.99000 10.59200 31.42400
O  3.09400 9.99900 31.30500
O  1.58300 11.17600 32.63300
C  2.41100 11.00000 33.83600
H  -0.25500 3.98300 29.55700
H  -0.73200 4.84900 23.26800
H  0.65900 11.06400 23.95500
H  1.31600 8.16800 31.78800
H  -0.23700 5.64600 31.63400
H  2.59000 6.09000 31.88200
H  2.35200 5.37100 30.26400
H  1.72100 4.59300 31.58800
H  -1.49900 7.40000 32.29300
H  -1.41900 8.94600 31.41600
H  -1.71100 9.26000 33.84700
H  -0.05600 9.77800 33.33100
H  -2.07600 1.55800 27.84600
H  -0.95000 2.27200 28.98200
H  -0.38100 1.35000 27.77000
H  -1.93800 0.46200 25.72500
H  -0.21700 0.71200 25.21800
H  -1.49200 0.40300 24.11500
H  -0.99300 6.83400 21.79500
H  0.72800 9.12000 21.79700
H  1.73500 7.22300 21.18800
H  0.72000 5.75200 21.05200
H  1.76100 6.12300 22.54400
H  -1.98400 9.54500 23.04500
H  -2.01200 8.73500 21.49100
H  -0.53600 11.09700 21.05600
H  -1.81900 11.49300 22.21000
H  -2.28800 10.73000 20.75400
H  2.16500 13.38500 26.35400
H  0.45500 13.38400 25.85500
H  1.62000 12.62800 24.80800
H  0.09200 11.25900 30.78800
H  2.67400 11.88700 34.41200
H  3.32900 10.52300 33.49500
H  1.72200 10.42500 34.45500
Mg 31.08400 58.51600 39.60000
C  28.54500 56.24700 38.35100
C  33.35200 56.00400 39.01300
C  33.27100 60.79600 39.78100
C  28.42200 60.89100 39.98200
N  30.88700 56.41000 38.79500
C  29.83400 55.72200 38.26600
C  30.21300 54.43800 37.66700
C  31.56800 54.19800 38.38100
C  31.94500 55.57500 38.80000
C  31.59000 53.23400 39.62300
C  30.12800 54.47300 36.05300
C  29.03900 53.52900 35.41800
H  28.05500 54.02500 34.38800
N  33.02100 58.47900 39.46700
C  33.77800 57.34300 39.24200
C  35.20500 57.78400 39.21100
C  35.18700 59.15500 39.41900
C  33.81600 59.54500 39.56000
C  36.40400 56.76700 38.89800
C  36.47300 60.00700 39.62200
O  37.60800 59.55200 39.46800
C  36.41600 61.46200 39.79500
N  30.83600 60.55400 39.83600
C  32.00500 61.30400 40.02600
C  31.67500 62.76400 40.23700
C  30.10700 62.73700 40.45300
C  29.77500 61.32900 40.02300
C  32.48100 63.32200 41.44300
C  29.44500 64.00900 39.79000
C  29.62800 65.31500 40.53700
N  28.89800 58.63700 39.38200
C  28.00900 59.65300 39.52000
C  26.66000 59.19500 39.18700
C  26.92200 57.87900 38.69500
C  28.26200 57.59700 38.92800
C  25.35200 59.92500 39.30800
C  26.17100 56.74900 38.27500
O  24.95800 56.56100 38.26000
C  27.22100 55.59500 38.12700
C  26.92800 54.65400 39.23700
O  27.28900 54.74400 40.40900
O  26.07900 53.68900 38.79600
C  25.72700 52.76500 39.86100
H  34.13100 55.26900 38.80300
H  34.05200 61.55700 39.72300
H  27.59000 61.57700 40.15500
H  29.48800 53.70700 38.02500
H  32.30100 53.84400 37.65600
H  32.24400 53.60500 40.41200
H  31.96100 52.32000 39.15800
H  30.62600 53.01100 40.08000
H  31.13100 54.19400 35.73300
H  29.83200 55.50400 35.85500
H  28.43700 52.95200 36.12000
H  29.60700 52.77500 34.87400
H  37.04600 57.10800 38.08600
H  36.04000 55.76000 38.69400
H  36.99100 56.66800 39.81100
H  35.86100 61.82300 40.66100
H  36.11500 61.94300 38.86400
H  37.42200 61.80200 40.03900
H  32.05400 63.18100 39.30400
H  29.98100 62.83700 41.53100
H  33.37000 62.74500 41.69400
H  31.97900 63.53400 42.38800
H  32.84100 64.26300 41.02700
H  28.37500 63.87400 39.63600
H  29.91000 64.13200 38.81200
H  30.37600 65.84100 39.94500
H  29.96700 65.06600 41.54300
H  28.73100 65.92600 40.63300
H  25.15200 60.66100 40.08700
H  24.50900 59.23800 39.24100
H  25.46100 60.60000 38.45900
H  27.07300 55.04700 37.19600
H  26.54300 52.04800 39.95600
H  24.86800 52.28200 39.39600
H  25.44500 53.19100 40.82400

