158

Mg 25.12200 -0.04000 29.10300
C  27.02500 -0.37800 32.04500
C  22.33900 0.43300 31.04500
C  23.38500 -0.10000 26.28700
C  27.95200 -1.12400 27.28600
N  24.72800 0.03500 31.32900
C  25.71600 0.02700 32.29800
C  25.14500 0.44700 33.69700
C  23.66700 0.61200 33.34000
C  23.52700 0.29600 31.82200
C  22.71900 -0.15400 34.24200
C  25.94900 1.58400 34.36700
C  25.21900 2.61000 35.27900
H  25.66900 2.69200 36.75900
N  23.17100 0.11900 28.71800
C  22.17500 0.27400 29.62100
C  20.96600 0.52600 28.88900
C  21.18900 0.38100 27.52500
C  22.62500 0.14700 27.45000
C  19.68600 0.94100 29.58900
C  20.28600 0.53600 26.32700
O  20.64900 0.61200 25.12300
C  18.76600 0.69700 26.66200
N  25.61700 -0.79500 27.15400
C  24.68700 -0.55800 26.15800
C  25.29900 -0.78100 24.77500
C  26.88700 -0.94700 25.02900
C  26.84300 -0.94900 26.56400
C  24.77500 -2.00400 23.99700
C  27.76300 0.15600 24.52500
C  27.54400 1.68200 24.87400
N  27.12800 -0.49200 29.49900
C  28.11700 -0.90200 28.66800
C  29.31200 -0.88600 29.40800
C  28.96900 -0.70700 30.68000
C  27.56500 -0.51100 30.75800
C  30.73800 -1.22700 28.85000
C  29.47400 -0.59300 32.02100
O  30.64700 -0.62600 32.42100
C  28.25400 -0.44200 32.97300
C  28.21100 -1.48100 33.99200
O  27.84900 -2.68800 33.90700
O  28.56800 -0.89200 35.11100
C  28.66400 -1.77000 36.27400
H  21.45600 0.66800 31.64300
H  22.90300 0.02900 25.31600
H  28.88800 -1.29600 26.75200
H  25.26500 -0.44600 34.31100
H  23.40500 1.66900 33.31500
H  23.07500 -0.17300 35.27200
H  22.54500 -1.15900 33.85800
H  21.73500 0.30000 34.12800
H  26.33500 2.13000 33.50600
H  26.76300 1.14000 34.94000
H  24.14200 2.44500 35.23900
H  25.37600 3.61900 34.89800
H  19.86900 1.56600 30.46300
H  19.21400 0.02600 29.94500
H  19.04000 1.54500 28.95200
H  18.53400 1.73200 26.90800
H  18.41600 0.00800 27.43100
H  18.18500 0.45800 25.77100
H  25.17400 0.13100 24.19200
H  27.18600 -1.93500 24.68100
H  23.93000 -2.36500 24.58400
H  25.40400 -2.89400 24.00300
H  24.41300 -1.69700 23.01600
H  27.64800 0.25700 23.44500
H  28.79100 -0.15400 24.71300
H  27.04000 1.66200 25.84000
H  26.90200 2.12600 24.11400
H  28.52000 2.16700 24.86600
H  31.02100 -0.49700 28.09200
H  30.73300 -2.07900 28.17000
H  31.51100 -1.17900 29.61700
H  28.40500 0.56700 33.35900
H  27.75300 -1.61400 36.85100
H  29.45000 -1.30500 36.87000
H  28.90000 -2.82600 36.14100
Mg -6.28800 24.81000 26.59600
C  -4.56600 26.40700 29.22600
C  -7.29700 22.51300 28.80000
C  -7.55800 22.96100 24.02500
C  -4.25300 26.69800 24.35300
N  -5.96800 24.53800 28.74200
C  -5.37800 25.35700 29.65500
C  -5.77100 25.03100 31.09700
C  -6.32300 23.60500 30.93600
C  -6.53200 23.50300 29.39000
C  -5.40800 22.43000 31.45900
C  -6.72800 26.11600 31.73300
C  -7.44000 25.87900 33.12500
H  -7.14000 24.57800 33.97100
N  -7.56000 23.12500 26.43000
C  -7.84200 22.29700 27.52000
C  -8.62900 21.21300 27.00300
C  -8.71600 21.35100 25.56900
C  -7.96600 22.57200 25.29600
C  -9.19700 20.21300 27.92300
C  -9.60100 20.58100 24.61500
O  -9.62800 20.81800 23.45400
C  -10.52200 19.40600 25.19600
N  -5.95400 24.89800 24.53200
C  -6.70200 24.06500 23.63300
C  -6.24900 24.29900 22.15700
C  -5.44700 25.63000 22.32600
C  -5.12800 25.71600 23.83600
C  -5.47700 23.13000 21.43800
C  -6.37000 26.91800 22.00200
C  -6.83700 27.09500 20.55000
N  -4.76600 26.28900 26.68900
C  -4.05300 26.97300 25.69500
C  -3.09000 27.91800 26.30000
C  -3.36300 27.79400 27.72400
C  -4.32700 26.77000 27.88500
C  -2.00000 28.82400 25.67800
C  -2.98100 28.29900 29.00700
O  -2.27300 29.22500 29.40500
C  -3.81200 27.41800 30.02600
C  -2.90700 26.78100 31.07200
O  -1.85700 26.17900 30.88300
O  -3.34200 27.10400 32.30800
C  -2.45500 26.81500 33.40900
H  -7.60900 21.79100 29.55700
H  -7.92000 22.40900 23.15500
H  -3.69500 27.39600 23.72500
H  -4.85200 24.93700 31.67600
H  -7.30400 23.45600 31.38800
H  -4.72900 22.73700 32.25400
H  -4.75200 22.26000 30.60500
H  -5.91700 21.50700 31.73900
H  -7.46100 26.26800 30.94100
H  -6.22900 27.08500 31.75900
H  -8.49900 25.87000 32.86500
H  -7.21500 26.72900 33.77000
H  -10.26600 20.39400 28.03400
H  -8.79500 20.24600 28.93600
H  -8.82300 19.27400 27.51600
H  -9.92200 18.62800 25.66900
H  -11.23300 19.22400 24.39100
H  -11.10900 20.02500 25.87300
H  -7.11700 24.46000 21.51800
H  -4.55400 25.58500 21.70400
H  -6.19500 22.84000 20.67100
H  -5.31400 22.38800 22.22000
H  -4.52700 23.49600 21.04900
H  -5.82700 27.82900 22.25500
H  -7.25500 26.98900 22.63500
H  -6.41400 28.02500 20.17000
H  -7.92400 27.11200 20.46600
H  -6.59000 26.20500 19.97100
H  -2.39200 29.39300 24.83500
H  -1.26800 28.06600 25.40000
H  -1.44400 29.48100 26.34700
H  -4.51200 27.98700 30.63700
H  -1.46800 27.26700 33.30500
H  -2.51600 25.74500 33.60700
H  -2.84300 27.34700 34.27700

