158

Mg 41.26500 7.29100 29.36500
C  43.14800 8.46500 32.06800
C  39.04800 5.98400 31.61100
C  39.45100 6.21300 26.77300
C  43.96400 7.97700 27.24800
N  41.11600 7.19700 31.59700
C  41.86400 7.88700 32.46500
C  41.22500 7.97100 33.82700
C  40.22200 6.77200 33.73600
C  40.13900 6.58200 32.24200
C  40.67900 5.42400 34.42400
C  40.68000 9.31200 34.14300
C  40.58700 9.68000 35.59800
H  41.53300 10.72200 36.30200
N  39.52200 6.27100 29.22400
C  38.71500 5.83400 30.21600
C  37.55600 5.18400 29.57700
C  37.54800 5.39100 28.20900
C  38.91600 5.95600 28.02200
C  36.55300 4.42200 30.50200
C  36.49800 5.06700 27.24400
O  36.58800 5.04100 26.04200
C  35.11000 4.85400 27.81400
N  41.71800 6.91600 27.33500
C  40.72100 6.62600 26.48800
C  41.10500 6.79700 24.98400
C  42.49600 7.45800 25.08200
C  42.84400 7.38500 26.66800
C  40.98300 5.55200 24.07400
C  42.58400 8.94600 24.48500
C  42.13600 10.12800 25.42100
N  43.18100 8.12800 29.55800
C  44.15600 8.29900 28.62700
C  45.26000 9.01700 29.21400
C  44.87600 9.14300 30.57900
C  43.63400 8.55300 30.76700
C  46.40100 9.64500 28.51800
C  45.29600 9.74100 31.84200
O  46.27000 10.39400 32.16000
C  44.10300 9.33800 32.80000
C  44.61700 8.66000 34.00300
O  44.44700 7.44400 34.28400
O  45.44200 9.48800 34.78800
C  45.88500 8.82300 36.01600
H  38.28800 5.58000 32.28300
H  38.73100 5.96900 25.98900
H  44.66800 8.19300 26.44200
H  42.05600 7.79700 34.51000
H  39.26400 7.06700 34.16400
H  40.11900 5.16700 35.32300
H  41.75000 5.56000 34.57700
H  40.60400 4.56800 33.75500
H  39.68900 9.45800 33.71400
H  41.30400 9.99300 33.56400
H  40.56500 8.77700 36.20800
H  39.58200 10.09900 35.66200
H  37.09300 4.06200 31.37800
H  36.08400 3.55700 30.03300
H  35.78500 5.13000 30.81500
H  35.16800 3.83200 28.18700
H  34.39300 5.06600 27.02100
H  34.97200 5.53400 28.65600
H  40.42400 7.50600 24.51200
H  43.30000 6.90200 24.59900
H  40.22400 4.83300 24.38100
H  41.96300 5.07500 24.07000
H  40.73200 5.89300 23.06900
H  41.97700 8.85800 23.58400
H  43.49400 9.15500 23.92400
H  41.85000 9.84400 26.43400
H  41.30400 10.56400 24.86700
H  42.91100 10.89500 25.44200
H  46.26600 10.14300 27.55800
H  47.18900 8.89300 28.48200
H  46.90900 10.38500 29.13700
H  43.68600 10.28800 33.13500
H  45.05300 8.63900 36.69600
H  46.56600 9.52600 36.49700
H  46.46900 7.92400 35.82200
Mg 35.56700 48.47600 24.83600
C  35.84400 46.93500 27.94600
C  34.51900 51.27500 26.27000
C  34.88300 49.65200 21.78300
C  36.77800 45.52600 23.36400
N  35.24200 49.02900 26.97400
C  35.48700 48.30900 28.01100
C  35.07800 49.05000 29.30600
C  34.43100 50.38500 28.76200
C  34.75300 50.27500 27.22800
C  33.02500 50.65600 29.31700
C  36.34200 49.34300 30.25200
C  36.14000 49.13300 31.78500
H  34.66900 49.07800 32.28500
N  34.86000 50.25100 24.14800
C  34.49900 51.31800 24.89800
C  34.06300 52.41900 24.10400
C  34.16400 51.94000 22.76700
C  34.60000 50.52400 22.85000
C  33.67000 53.77000 24.66600
C  33.73600 52.77700 21.41600
O  34.13900 52.47400 20.28900
C  33.20600 54.20400 21.50700
N  35.87900 47.70200 22.82700
C  35.47800 48.40000 21.73700
C  35.98500 47.64600 20.46100
C  36.84600 46.54300 21.11800
C  36.45600 46.58600 22.51400
C  34.84200 47.07400 19.63900
C  38.38000 46.74600 21.03100
C  39.27400 45.50100 20.98100
N  36.10700 46.54300 25.43800
C  36.66700 45.48700 24.78900
C  36.93800 44.39400 25.63000
C  36.56100 44.95800 26.87600
C  36.19300 46.27400 26.73300
C  37.37800 42.97100 25.30000
C  36.49700 44.57000 28.30200
O  36.57100 43.49000 28.91000
C  35.98600 45.90200 29.04200
C  34.71300 45.61200 29.74200
O  33.55600 45.55800 29.27400
O  35.01500 45.31500 31.05300
C  33.91800 44.80800 31.83000
H  34.13300 52.15200 26.79400
H  34.61300 50.09100 20.82000
H  37.17900 44.62800 22.89100
H  34.36600 48.36000 29.76000
H  35.00300 51.18300 29.23500
H  32.69100 49.83000 29.94500
H  32.28600 50.67300 28.51600
H  33.15700 51.57900 29.88300
H  36.83200 50.29800 30.06300
H  37.10000 48.59500 30.01900
H  36.43700 50.09900 32.19500
H  36.69400 48.31700 32.24900
H  34.45400 54.51600 24.53800
H  33.44600 53.88300 25.72700
H  32.85300 54.03600 23.99600
H  32.21100 54.15900 21.94900
H  33.06500 54.54300 20.48100
H  33.93800 54.90300 21.91200
H  36.70400 48.26900 19.92800
H  36.57500 45.53500 20.80500
H  33.89200 47.14400 20.16900
H  35.06100 46.07000 19.27500
H  34.69500 47.59600 18.69300
H  38.65400 47.38700 21.86900
H  38.77200 47.37300 20.23000
H  38.59000 44.65200 20.96800
H  40.04000 45.52900 21.75600
H  39.90600 45.40900 20.09800
H  37.90100 43.03600 24.34600
H  36.55700 42.26200 25.18700
H  38.00500 42.61700 26.11800
H  36.69800 46.27400 29.77900
H  34.32500 44.56000 32.81000
H  33.55100 43.94300 31.27800
H  33.08900 45.46300 32.09900

