158

Mg 47.59800 16.49300 28.77900
C  45.45200 16.28300 31.67000
C  49.81500 18.26400 30.86900
C  49.31200 17.49700 26.07200
C  45.11300 15.06800 26.90500
N  47.50900 17.29000 30.99500
C  46.62100 17.02700 31.98900
C  47.15800 17.46300 33.33500
C  48.45200 18.22000 32.93300
C  48.62100 17.83900 31.49500
C  48.37300 19.74400 33.17700
C  47.43300 16.31400 34.30300
C  46.87700 16.45400 35.70700
H  46.78900 17.83100 36.32900
N  49.40600 17.59500 28.50600
C  50.16600 18.21300 29.48800
C  51.45100 18.62600 28.97700
C  51.33900 18.45300 27.53100
C  49.96200 17.82000 27.30600
C  52.63500 19.13500 29.74000
C  52.36500 18.75000 26.43200
O  52.27800 18.53600 25.24400
C  53.63300 19.32800 26.99400
N  47.41200 16.06500 26.83400
C  48.09000 16.80700 25.88700
C  47.50200 16.55000 24.50700
C  46.33400 15.61100 24.73400
C  46.22600 15.60900 26.25700
C  47.41700 17.80500 23.58700
C  46.45100 14.16500 24.06600
C  47.17700 13.12300 25.01200
N  45.77000 15.64500 29.21700
C  44.90100 15.08000 28.32000
C  43.75800 14.69900 29.06600
C  44.03600 15.02000 30.42800
C  45.19000 15.71400 30.44000
C  42.42500 14.22700 28.48600
C  43.31800 15.04300 31.71800
O  42.25000 14.60300 32.15400
C  44.39700 15.79400 32.62400
C  43.69400 16.87200 33.26100
O  43.75500 18.00300 32.83400
O  42.88700 16.39600 34.28300
C  42.02400 17.35000 34.99800
H  50.52400 18.69300 31.57900
H  49.92800 17.87000 25.25100
H  44.27600 14.78900 26.26200
H  46.40600 18.16100 33.70400
H  49.31600 17.88700 33.50800
H  49.27800 20.22600 33.54700
H  47.69400 20.06800 33.96600
H  48.06800 20.24600 32.25900
H  48.47300 15.98900 34.31100
H  46.90200 15.46300 33.87500
H  47.38900 15.72800 36.33900
H  45.84600 16.10800 35.62600
H  53.57800 18.59000 29.70200
H  52.38700 18.96700 30.78800
H  52.71400 20.22000 29.81200
H  53.43400 20.20600 27.60700
H  54.26100 19.58800 26.14100
H  54.18900 18.54300 27.50600
H  48.22300 15.88900 24.02600
H  45.43000 16.08300 24.35000
H  47.99500 17.71000 22.66800
H  47.74900 18.75500 24.00400
H  46.38100 17.91100 23.26400
H  47.14600 14.20300 23.22700
H  45.52100 13.72500 23.70700
H  46.48800 12.62800 25.69600
H  47.90800 13.63100 25.64200
H  47.68800 12.46300 24.31000
H  42.32800 13.16500 28.26500
H  42.24100 14.86800 27.62400
H  41.63700 14.45300 29.20500
H  44.82800 15.15500 33.39500
H  41.91800 16.84400 35.95800
H  41.04900 17.64000 34.60500
H  42.61400 18.25400 35.15100
Mg 9.94200 48.39000 26.33200
C  7.88800 48.20900 29.16100
C  12.47200 49.30400 28.16900
C  11.64900 48.23500 23.49700
C  6.89600 47.70500 24.39000
N  10.10800 48.75500 28.41700
C  9.21100 48.68600 29.44600
C  9.90100 48.96700 30.73400
C  11.11300 49.87100 30.34600
C  11.26700 49.33000 28.84300
C  10.89700 51.36200 30.55400
C  10.14400 47.80000 31.70100
C  9.41100 47.92100 33.07600
H  9.57400 46.75800 34.05700
N  11.83700 48.68200 25.94500
C  12.79200 48.99900 26.83000
C  14.11200 48.88500 26.27700
C  13.91000 48.41900 24.94000
C  12.45000 48.46900 24.69900
C  15.40900 49.10000 27.07000
C  14.89700 47.90300 23.95300
O  14.57600 47.41800 22.86800
C  16.34300 47.84900 24.41800
N  9.31400 48.22200 24.23200
C  10.30300 48.11500 23.33600
C  9.66400 47.84000 21.91800
C  8.14200 47.69600 22.18400
C  8.10600 47.81200 23.69700
C  10.13000 48.76500 20.72900
C  7.39900 46.48900 21.61400
C  7.50200 46.31400 20.08100
N  7.80900 48.10900 26.63700
C  6.74300 47.82100 25.78100
C  5.59600 47.51300 26.58400
C  6.10100 47.50800 27.88000
C  7.36500 47.90900 27.85100
C  4.27900 47.06600 26.12400
C  5.56300 47.38300 29.23700
O  4.47000 47.06800 29.65400
C  6.82300 47.76000 30.12400
C  7.09600 46.55800 30.90700
O  7.83800 45.61200 30.62400
O  6.26200 46.66700 32.01700
C  6.41400 45.48800 32.92800
H  13.31900 49.55200 28.81100
H  12.21900 47.99900 22.59600
H  6.04500 47.29900 23.83900
H  9.15800 49.68100 31.09300
H  11.98500 49.54900 30.91500
H  10.29700 51.72600 29.72000
H  11.84300 51.89400 30.45300
H  10.56400 51.55800 31.57300
H  11.22700 47.72000 31.79400
H  9.77600 46.93600 31.14700
H  8.34300 48.11100 32.96800
H  9.76900 48.78000 33.64300
H  15.16000 49.02900 28.12900
H  15.80200 50.07900 26.79700
H  16.23700 48.43200 26.83400
H  16.48100 47.18600 25.27200
H  16.71700 48.86600 24.53500
H  16.89700 47.40400 23.59200
H  10.05100 46.83500 21.75100
H  7.64000 48.64000 21.97400
H  9.26100 49.31200 20.36300
H  10.65600 48.16000 19.99200
H  10.83800 49.50000 21.11300
H  6.34100 46.67900 21.79300
H  7.74400 45.57700 22.10200
H  6.64200 46.85000 19.68100
H  7.50800 45.23400 19.93000
H  8.46700 46.69600 19.74800
H  3.71600 47.87400 25.65600
H  3.70300 46.57600 26.90900
H  4.47600 46.21900 25.46700
H  6.42600 48.54000 30.77400
H  6.96900 45.63900 33.85300
H  6.89700 44.62900 32.46100
H  5.39200 45.24400 33.21800

