158

Mg -0.16700 7.10600 27.86100
C  0.61400 9.54100 30.20600
C  -0.50500 4.78400 30.32400
C  -0.71700 4.79200 25.53300
C  0.62500 9.45900 25.24800
N  0.01800 7.14400 29.94600
C  0.22400 8.27600 30.75000
C  0.09000 7.89500 32.23000
C  0.03600 6.33600 32.16400
C  -0.17800 6.06200 30.71100
C  1.26100 5.65300 32.82800
C  -1.19900 8.49900 32.82400
C  -1.45200 8.52700 34.28800
H  -0.49900 7.87300 35.29500
N  -0.56300 5.02400 27.94200
C  -0.73800 4.28400 29.03500
C  -0.95100 2.89100 28.65700
C  -0.94100 2.89700 27.21600
C  -0.75400 4.27400 26.82700
C  -0.97300 1.76300 29.57300
C  -0.95300 1.69700 26.19800
O  -0.65500 1.86500 25.05400
C  -1.40000 0.40600 26.60300
N  -0.11500 7.15200 25.75900
C  -0.49700 6.09600 25.02600
C  -0.65500 6.46600 23.52400
C  -0.43300 7.92600 23.47600
C  0.06800 8.20400 24.90400
C  0.25100 5.62500 22.63400
C  -1.66600 8.85600 23.26400
C  -1.55600 9.94800 22.25800
N  0.57400 9.06000 27.76500
C  0.84400 9.88100 26.63100
C  1.30700 11.18900 27.12500
C  1.09500 11.09200 28.52400
C  0.72600 9.81200 28.81900
C  1.72600 12.37600 26.25100
C  1.26600 11.81700 29.72700
O  1.69200 12.93000 29.91000
C  0.77700 10.91900 30.88000
C  1.82600 10.88500 31.93600
O  2.99400 10.49900 31.82000
O  1.37500 11.44100 33.10100
C  2.35200 11.25600 34.19100
H  -0.43500 3.98800 31.06800
H  -0.90900 4.10500 24.70700
H  0.80800 10.12700 24.40400
H  0.93900 8.27000 32.80100
H  -0.82300 5.95200 32.71500
H  1.59200 4.74600 32.32300
H  0.91200 5.29300 33.79600
H  2.05500 6.37100 33.03100
H  -2.04400 7.96900 32.38500
H  -1.16400 9.52200 32.45000
H  -2.46700 8.14100 34.37800
H  -1.48500 9.55000 34.66300
H  -0.41900 0.87900 29.25800
H  -2.00800 1.47700 29.76200
H  -0.54800 2.08800 30.52200
H  -1.62100 -0.06600 25.64600
H  -2.30100 0.56100 27.19600
H  -0.63400 -0.15200 27.14200
H  -1.65900 6.21200 23.18400
H  0.42100 8.03900 22.80700
H  1.20400 5.61900 23.16200
H  0.40700 6.04400 21.64000
H  -0.08700 4.60600 22.44600
H  -1.84000 9.36200 24.21400
H  -2.61900 8.32900 23.22500
H  -2.19500 9.64500 21.42900
H  -0.52000 10.20400 22.03600
H  -1.92200 10.84700 22.75500
H  1.18000 13.28700 26.49500
H  1.44900 12.19200 25.21300
H  2.79900 12.49100 26.40200
H  -0.11600 11.21300 31.43200
H  2.02600 11.81900 35.06500
H  3.32500 11.58200 33.82400
H  2.33400 10.20500 34.48200
Mg 16.53300 -2.77300 28.00600
C  15.35100 -0.75000 30.80100
C  18.74100 -4.26400 30.40000
C  17.76100 -4.52200 25.58700
C  14.41500 -0.92500 25.94100
N  16.95700 -2.54500 30.37800
C  16.29100 -1.66200 31.24600
C  16.72700 -2.02600 32.72200
C  17.85800 -3.04300 32.60200
C  17.87800 -3.32000 31.08400
C  19.24900 -2.75900 33.19400
C  15.56100 -2.52200 33.59100
C  15.31000 -1.77000 34.87100
H  16.47000 -1.17200 35.77600
N  18.04600 -4.19700 28.00700
C  18.78500 -4.64900 29.03200
C  19.65800 -5.72100 28.59400
C  19.30700 -5.95700 27.23300
C  18.37700 -4.81300 26.83700
C  20.83400 -6.38700 29.39400
C  19.88900 -7.03600 26.32500
O  19.70200 -6.99000 25.07700
C  20.50600 -8.27400 26.93200
N  16.13500 -2.70100 26.04300
C  16.71600 -3.63800 25.24800
C  16.33600 -3.38800 23.75200
C  14.98700 -2.48500 23.99200
C  15.23900 -1.91900 25.37000
C  17.39100 -2.69200 23.01300
C  13.59500 -3.20100 23.87700
C  12.36200 -2.54200 23.22200
N  15.16200 -1.18200 28.24500
C  14.32500 -0.49700 27.29900
C  13.53000 0.44300 27.94800
C  13.92200 0.35400 29.33300
C  14.93300 -0.56300 29.44800
C  12.49700 1.38800 27.38200
C  13.64800 0.95700 30.59400
O  13.00200 1.90100 31.00000
C  14.61300 0.25800 31.64100
C  15.50400 1.22800 32.28100
O  16.60800 1.56400 31.90800
O  14.91300 1.86500 33.42400
C  15.55300 3.00000 34.07100
H  19.44900 -4.79500 31.03900
H  18.11400 -5.08200 24.71900
H  13.55000 -0.53800 25.39900
H  17.14400 -1.08000 33.06600
H  17.57200 -4.05500 32.88800
H  19.34400 -1.73600 33.55600
H  19.93600 -2.92100 32.36300
H  19.53900 -3.52400 33.91500
H  15.55200 -3.58700 33.82200
H  14.67000 -2.50600 32.96300
H  14.64300 -2.44400 35.40800
H  14.78100 -0.84800 34.63100
H  21.13700 -5.68000 30.16600
H  21.75400 -6.57900 28.84100
H  20.49300 -7.25100 29.96300
H  20.13400 -8.54900 27.91900
H  21.56600 -8.08600 27.10200
H  20.46700 -9.18000 26.32700
H  16.21200 -4.29700 23.16400
H  14.95300 -1.69200 23.24600
H  18.01500 -3.42500 22.50200
H  18.05300 -2.19100 23.72000
H  17.09200 -1.86900 22.36400
H  13.19300 -3.46200 24.85600
H  13.82500 -4.17000 23.43400
H  11.73300 -3.24700 22.67800
H  12.65500 -1.79100 22.48900
H  11.82800 -2.00800 24.00900
H  12.94300 2.36900 27.21300
H  11.57900 1.55100 27.94600
H  12.07300 1.04800 26.43700
H  14.03600 -0.35200 32.33700
H  16.43600 3.39300 33.56700
H  15.84100 2.75600 35.09300
H  14.82700 3.81300 34.09300

