158

Mg 36.01200 0.76600 29.56200
C  33.76700 1.57900 32.17900
C  38.57300 0.74600 32.02300
C  38.20800 0.65600 27.09200
C  33.44800 1.25500 27.33400
N  36.18100 1.35700 31.90300
C  35.05500 1.46000 32.70200
C  35.53700 1.21400 34.20500
C  37.06100 1.18100 34.10400
C  37.30700 1.02900 32.65900
C  37.82500 2.44900 34.71300
C  34.99400 0.03200 35.07500
C  35.28300 0.02100 36.61600
H  35.80600 1.32800 37.26300
N  38.05000 0.50500 29.56200
C  38.95700 0.55700 30.66000
C  40.27300 0.17700 30.14400
C  40.15700 0.17800 28.74300
C  38.75000 0.52400 28.37200
C  41.48100 0.00800 30.99900
C  41.27000 -0.12600 27.69100
O  41.04700 -0.21000 26.49300
C  42.62900 -0.52900 28.07600
N  35.89500 1.01000 27.62600
C  36.87600 0.88800 26.75800
C  36.52500 0.83900 25.22800
C  34.97200 0.90500 25.30100
C  34.73400 1.06000 26.85700
C  37.17400 1.91000 24.37200
C  34.18700 -0.32200 24.70300
C  34.03500 -1.67300 25.41200
N  33.99700 1.23900 29.68000
C  33.06400 1.49800 28.69800
C  31.78500 1.74500 29.26500
C  32.01300 1.76200 30.60900
C  33.41200 1.52300 30.86900
C  30.52400 1.86900 28.54300
C  31.31200 1.73800 31.89300
O  30.13500 1.75700 32.14100
C  32.46900 1.60300 33.03100
C  32.38000 2.88900 33.78500
O  32.52700 4.05100 33.39500
O  32.17900 2.52100 35.11700
C  32.39600 3.66000 36.03800
H  39.43900 0.50600 32.64400
H  38.80300 0.56500 26.18100
H  32.69100 1.22700 26.54800
H  35.27200 2.14000 34.71500
H  37.43600 0.24400 34.51800
H  37.22200 3.35000 34.59600
H  38.78300 2.50300 34.19600
H  38.18000 2.33800 35.73800
H  35.36700 -0.87000 34.59100
H  33.92500 0.15500 34.89900
H  36.05100 -0.75300 36.61400
H  34.38000 -0.27900 37.14700
H  42.27300 -0.66200 30.66500
H  41.16000 -0.29400 31.99600
H  42.00800 0.93900 31.21000
H  43.03300 0.00600 28.93600
H  43.28500 -0.27300 27.24500
H  42.61700 -1.55700 28.43800
H  36.83300 -0.15900 24.91700
H  34.63900 1.81500 24.80100
H  37.82300 2.48700 25.03100
H  36.47000 2.64000 23.97100
H  37.82200 1.41800 23.64700
H  34.65300 -0.58400 23.75400
H  33.17700 -0.01400 24.43000
H  34.54900 -2.26200 24.65200
H  33.01100 -2.00400 25.58300
H  34.66200 -1.76800 26.29800
H  30.75300 1.54500 27.52800
H  30.00200 2.82500 28.57600
H  29.78600 1.10700 28.79600
H  32.21400 0.72400 33.62300
H  32.32300 3.28700 37.06000
H  31.60200 4.39600 35.91200
H  33.36000 4.16600 35.98000
Mg -0.25500 43.98900 25.36300
C  1.76300 43.81200 27.93900
C  -2.99400 43.05300 27.39600
C  -2.47300 43.75000 22.54400
C  2.18500 44.67300 23.20900
N  -0.59200 43.34900 27.44400
C  0.42300 43.51600 28.33500
C  0.01500 43.28000 29.74700
C  -1.59200 43.07900 29.62300
C  -1.76900 43.21500 28.08100
C  -1.94800 41.70600 30.11300
C  0.24500 44.63300 30.66600
C  0.52900 44.48500 32.21100
H  0.37000 43.15000 32.92200
N  -2.44900 43.44700 25.04800
C  -3.37200 43.05200 26.03100
C  -4.61000 42.72800 25.40000
C  -4.49800 43.08800 24.02200
C  -3.08500 43.47900 23.83600
C  -5.64700 42.06800 26.26200
C  -5.52300 43.05700 22.92400
O  -5.39700 43.57400 21.81700
C  -6.81700 42.34800 23.16200
N  -0.19900 44.28900 23.21800
C  -1.18500 44.16100 22.30200
C  -0.66200 44.38700 20.86900
C  0.74000 45.01800 21.14500
C  0.97400 44.49200 22.62700
C  -0.52100 43.04000 20.11900
C  0.79600 46.56600 21.00600
C  -0.34400 47.41600 21.52700
N  1.69000 44.16800 25.49700
C  2.59500 44.40000 24.51000
C  3.89800 44.55100 25.19400
C  3.63500 44.19600 26.53400
C  2.29600 44.00700 26.67100
C  5.17400 44.89300 24.46400
C  4.15600 44.03500 27.76600
O  5.35800 44.02000 28.08300
C  2.95300 43.82200 28.74200
C  3.18300 42.67500 29.66200
O  3.04700 41.46800 29.37800
O  3.74800 43.18900 30.80300
C  4.24700 42.20400 31.82200
H  -3.89300 42.85900 27.98500
H  -3.07700 43.66900 21.63800
H  2.93000 45.06700 22.51500
H  0.50400 42.42800 30.22000
H  -2.09600 43.86900 30.17900
H  -2.85900 41.86700 30.69000
H  -1.21500 41.34600 30.83500
H  -2.11000 40.86200 29.44200
H  -0.70800 45.15500 30.75500
H  0.88400 45.38000 30.19700
H  -0.04200 45.22500 32.77200
H  1.57900 44.77600 32.21200
H  -5.16600 41.25300 26.80300
H  -6.43700 41.58400 25.68700
H  -5.97800 42.79500 27.00400
H  -7.45300 42.76900 23.94100
H  -6.64000 41.29600 23.38500
H  -7.38600 42.38000 22.23300
H  -1.34000 45.15300 20.49400
H  1.52900 44.53500 20.56700
H  0.51300 42.76000 20.31600
H  -0.84800 43.20300 19.09200
H  -1.15800 42.30700 20.61300
H  1.06100 46.89400 20.00000
H  1.59100 46.83700 21.70100
H  -0.71000 48.21500 20.88200
H  0.03900 47.91800 22.41500
H  -1.17900 46.90800 22.01000
H  5.19500 45.45200 23.52900
H  5.67100 43.95700 24.21100
H  5.87400 45.52900 25.00500
H  3.02800 44.70700 29.37400
H  4.51000 42.78300 32.70700
H  5.15000 41.63200 31.60900
H  3.43700 41.50000 32.01700

