158

Mg 40.53000 9.71500 28.88600
C  42.40300 10.80500 31.78000
C  38.38300 8.22400 30.89400
C  38.91200 8.74300 26.19000
C  43.24200 10.79800 26.86100
N  40.44400 9.38400 30.99600
C  41.23400 10.02300 31.97500
C  40.51300 10.00600 33.33800
C  39.47400 8.83500 33.13800
C  39.45700 8.70700 31.59900
C  39.91200 7.46000 33.85300
C  39.89100 11.29500 33.82000
C  39.83300 11.48200 35.37400
H  40.49800 12.64300 36.06500
N  38.87200 8.59700 28.58500
C  38.01800 8.10800 29.55500
C  36.87500 7.38800 28.96400
C  36.95700 7.58500 27.50300
C  38.29200 8.32900 27.39200
C  35.85400 6.53800 29.75500
C  36.10400 6.99300 26.32700
O  36.33100 7.25300 25.18300
C  34.82300 6.28300 26.63100
N  41.16300 9.60800 26.81400
C  40.23800 9.26700 25.91100
C  40.83600 9.23300 24.51800
C  42.26200 9.91200 24.67800
C  42.25300 10.13300 26.13100
C  40.77400 7.88500 23.78000
C  42.40900 11.17000 23.88100
C  41.40600 12.29800 24.09700
N  42.41700 10.74900 29.21500
C  43.36700 11.09800 28.25100
C  44.48900 11.76500 28.96500
C  44.09800 11.76400 30.33600
C  42.86400 11.06600 30.44600
C  45.85200 12.16300 28.40800
C  44.41200 12.14600 31.68500
O  45.44500 12.67200 32.06000
C  43.28200 11.53200 32.66900
C  43.91300 10.49700 33.56200
O  44.61800 9.57400 33.18300
O  43.41600 10.65400 34.78500
C  43.85800 9.79500 35.92000
H  37.51900 7.87500 31.46200
H  38.35300 8.52900 25.27700
H  44.04900 11.21200 26.25300
H  41.17300 9.62900 34.11900
H  38.45000 8.98700 33.48100
H  40.86600 7.45900 34.38100
H  40.13500 6.73000 33.07500
H  39.04300 7.14000 34.42700
H  38.89000 11.52100 33.45300
H  40.49500 12.10600 33.41400
H  40.17800 10.60800 35.92800
H  38.80700 11.73700 35.63700
H  36.17500 6.44500 30.79300
H  35.94000 5.53100 29.34700
H  34.84000 6.91100 29.60900
H  34.22000 6.14900 25.73200
H  34.27200 6.82500 27.39900
H  35.22300 5.31100 26.92200
H  40.07800 9.80500 23.98200
H  43.06200 9.18400 24.55000
H  41.64200 7.25000 23.95800
H  40.69800 8.13400 22.72200
H  39.86200 7.32200 23.98000
H  42.34500 10.95200 22.81500
H  43.39400 11.57500 24.10900
H  40.66400 12.06300 24.85900
H  40.92700 12.42300 23.12600
H  41.84300 13.25800 24.37200
H  46.14000 11.70600 27.46100
H  46.52800 11.95500 29.23800
H  45.95500 13.24800 28.43800
H  43.04000 12.39300 33.29200
H  44.57900 9.11700 35.46200
H  42.94500 9.55500 36.46500
H  44.35900 10.55800 36.51600
Mg -12.63600 37.75400 41.86200
C  -10.16100 35.47400 40.85700
C  -10.56600 40.24600 40.71100
C  -15.26200 40.04200 42.22800
C  -14.61300 35.21700 42.90700
N  -10.66700 37.79100 40.62800
C  -9.77500 36.75300 40.50100
C  -8.55800 37.28300 39.72500
C  -8.54300 38.77100 40.12600
C  -9.99300 38.97000 40.53300
C  -7.52100 39.17000 41.31500
C  -8.70100 36.79500 38.21800
C  -7.54400 36.00700 37.74300
H  -6.58300 36.68200 36.70700
N  -12.90200 39.90200 41.46400
C  -11.89600 40.68700 41.01700
C  -12.35500 42.03600 40.94400
C  -13.71600 42.04200 41.39300
C  -14.07000 40.63800 41.70000
C  -11.51600 43.18200 40.57900
C  -14.63100 43.32600 41.52000
O  -14.21500 44.43600 41.27500
C  -16.02100 43.13500 41.93300
N  -14.76300 37.56100 42.37000
C  -15.56200 38.65400 42.63700
C  -16.83500 38.23900 43.31100
C  -16.66900 36.62700 43.47300
C  -15.28000 36.41400 42.87900
C  -17.20600 38.84100 44.68300
C  -17.89300 35.84600 42.96100
C  -17.91500 35.79200 41.37100
N  -12.54000 35.73200 41.82700
C  -13.40200 34.81200 42.33000
C  -12.77200 33.50000 42.20700
C  -11.55100 33.65100 41.59600
C  -11.44800 35.05000 41.39600
C  -13.35900 32.33600 42.87700
C  -10.30700 33.01900 40.96800
O  -9.99600 31.83300 40.78500
C  -9.36200 34.22800 40.55800
C  -8.16500 34.16500 41.41700
O  -8.12000 34.67900 42.53100
O  -7.14600 33.43100 40.79700
C  -5.86700 33.41900 41.47300
H  -9.79300 41.00300 40.56000
H  -16.11100 40.70200 42.42200
H  -15.16800 34.40900 43.38900
H  -7.62900 36.90300 40.14900
H  -8.26500 39.41900 39.29500
H  -6.71400 38.44600 41.42700
H  -8.00900 39.40300 42.26100
H  -6.94100 40.05400 41.05000
H  -8.81700 37.67600 37.58800
H  -9.54000 36.11400 38.07500
H  -7.85700 35.10500 37.21700
H  -7.00100 35.64900 38.61700
H  -12.04100 43.93600 39.99300
H  -10.58800 42.87800 40.09300
H  -11.17800 43.63800 41.50900
H  -16.52300 42.41300 41.28800
H  -16.54500 44.08900 41.87100
H  -15.87200 42.77200 42.95000
H  -17.71000 38.50900 42.71900
H  -16.48100 36.30200 44.49700
H  -17.54300 38.06900 45.37500
H  -17.99600 39.56800 44.49400
H  -16.35300 39.25900 45.21800
H  -18.76000 36.37500 43.35600
H  -17.98100 34.83800 43.36700
H  -18.84900 35.94900 40.83100
H  -17.42600 34.88500 41.01600
H  -17.21700 36.52700 40.97000
H  -12.88300 32.08200 43.82400
H  -13.43000 31.48500 42.20000
H  -14.38700 32.47800 43.21000
H  -9.06500 34.00900 39.53200
H  -5.72200 32.42600 41.89800
H  -5.78400 34.04700 42.36000
H  -5.09300 33.48400 40.70900

