158

Mg -2.65000 35.33900 26.87700
C  -3.99200 33.33000 29.37200
C  -1.02200 37.24300 29.19400
C  -1.39900 37.20900 24.36900
C  -4.57800 33.63800 24.57200
N  -2.55200 35.29100 28.99800
C  -3.21100 34.40900 29.86100
C  -2.83500 34.72800 31.34300
C  -1.93500 35.95600 31.22100
C  -1.81300 36.25400 29.70000
C  -2.41300 37.19000 32.07900
C  -2.20300 33.56600 32.20700
C  -2.97600 33.08100 33.42100
H  -2.26800 32.84700 34.79400
N  -1.35800 36.96200 26.79700
C  -0.77600 37.64500 27.86000
C  0.31500 38.41300 27.32100
C  0.27900 38.41100 25.92000
C  -0.85800 37.48100 25.64000
C  1.31100 39.13800 28.22900
C  1.18600 39.06500 24.89600
O  1.06100 38.98800 23.70600
C  2.43200 39.77300 25.37500
N  -3.17400 35.52700 24.73700
C  -2.44400 36.31000 23.90700
C  -3.01400 36.30700 22.48600
C  -3.82100 35.01800 22.49200
C  -3.90200 34.66400 23.98000
C  -3.87000 37.57500 22.14500
C  -3.09300 33.90200 21.76500
C  -3.21700 33.91700 20.26200
N  -4.04900 33.81800 26.91800
C  -4.69300 33.12500 25.89600
C  -5.39300 32.01900 26.41600
C  -5.16300 32.06100 27.75700
C  -4.30800 33.15400 28.03900
C  -6.15800 31.06500 25.66800
C  -5.53700 31.44000 28.91200
O  -6.27000 30.46200 29.07000
C  -4.73900 32.22100 30.11900
C  -5.77400 32.84200 31.02100
O  -6.29300 33.87400 30.84500
O  -5.89800 32.09500 32.22000
C  -6.89700 32.68800 33.19700
H  -0.37700 37.61400 29.99300
H  -0.92000 37.81700 23.59900
H  -5.13000 33.13100 23.77800
H  -3.81200 34.98600 31.75100
H  -0.89600 35.77100 31.49300
H  -3.11500 36.94500 32.87600
H  -2.79800 37.90400 31.35100
H  -1.48600 37.53300 32.53900
H  -1.20000 33.71100 32.60900
H  -2.07200 32.74900 31.49700
H  -3.34200 32.06400 33.27400
H  -3.89200 33.66500 33.51700
H  0.95900 40.13900 27.97800
H  2.35500 39.13000 27.91500
H  1.23000 38.93800 29.29800
H  2.01400 40.64000 25.88700
H  3.06800 40.09700 24.55100
H  3.00800 39.06700 25.97300
H  -2.21200 36.29200 21.74800
H  -4.78400 35.08100 21.98600
H  -4.90700 37.50500 22.47400
H  -3.65100 37.70300 21.08400
H  -3.56200 38.44700 22.72200
H  -3.62300 33.00300 22.07800
H  -2.06700 33.79700 22.12100
H  -3.56800 34.88100 19.89500
H  -3.87900 33.10000 19.97700
H  -2.18600 33.72700 19.96400
H  -6.23600 31.13000 24.58300
H  -7.09700 30.94200 26.20700
H  -5.58000 30.14600 25.76200
H  -3.95800 31.65900 30.63200
H  -7.82200 32.86200 32.64800
H  -6.56300 33.58500 33.71900
H  -7.11800 32.04900 34.05100
Mg -11.83900 16.73100 41.68000
C  -8.15900 16.33000 41.39700
C  -11.23500 20.02700 40.91400
C  -14.99200 16.89000 41.01300
C  -12.01800 13.14900 41.67700
N  -9.88100 17.95800 41.12900
C  -8.55900 17.64900 41.23900
C  -7.70200 18.91100 41.08800
C  -8.69600 20.07100 41.35100
C  -10.04100 19.30500 41.22000
C  -8.38100 20.74200 42.67800
C  -7.07100 19.02900 39.61800
C  -5.52100 18.82000 39.49400
H  -5.13800 17.92600 38.34200
N  -12.93100 18.35800 41.12800
C  -12.51000 19.59900 40.78900
C  -13.70500 20.37500 40.45100
C  -14.87600 19.54800 40.53100
C  -14.34700 18.20700 40.88700
C  -13.68100 21.87900 40.19100
C  -16.29400 19.94500 40.35500
O  -16.58600 21.10700 40.08500
C  -17.40000 18.95700 40.54500
N  -13.31800 15.21500 41.42900
C  -14.52200 15.59300 41.32900
C  -15.52900 14.38600 41.57800
C  -14.54700 13.16800 41.64500
C  -13.21600 13.87500 41.48000
C  -16.43800 14.60600 42.78900
C  -14.86600 12.11300 40.59400
C  -14.53800 10.66200 40.99100
N  -10.44600 15.15700 41.75200
C  -10.73100 13.77400 41.84800
C  -9.42900 13.11900 42.13600
C  -8.45800 14.06100 42.04500
C  -9.08300 15.29600 41.74800
C  -9.31000 11.69100 42.46000
C  -7.01400 14.22800 42.01400
O  -6.12500 13.43700 42.16900
C  -6.73800 15.77400 41.59700
C  -6.17100 16.41300 42.77800
O  -6.78100 16.73200 43.81800
O  -4.78900 16.51100 42.62500
C  -3.97000 17.15800 43.68300
H  -11.09100 21.08200 40.67300
H  -16.07600 17.01800 40.96800
H  -12.01300 12.06400 41.55400
H  -6.88500 18.82900 41.80400
H  -8.61800 20.86600 40.60800
H  -7.62200 21.51700 42.57600
H  -8.12600 19.94200 43.37200
H  -9.25700 21.26100 43.06800
H  -7.28100 20.07200 39.38500
H  -7.51400 18.34800 38.89100
H  -5.12400 18.36400 40.40100
H  -5.04000 19.77700 39.29300
H  -14.46900 22.21500 39.51600
H  -12.67800 22.01100 39.78500
H  -13.77100 22.45500 41.11300
H  -18.38300 19.41500 40.43900
H  -17.35200 18.56100 41.55900
H  -17.33400 18.11100 39.86100
H  -16.17500 14.55600 40.71700
H  -14.49900 12.69200 42.62500
H  -16.20700 15.58000 43.21900
H  -16.30500 13.89100 43.60100
H  -17.46300 14.61600 42.42000
H  -14.32100 12.39000 39.69200
H  -15.91000 12.23000 40.30500
H  -13.77600 10.58800 41.76600
H  -14.20100 10.09400 40.12400
H  -15.44500 10.29800 41.47400
H  -8.69800 11.25500 41.67000
H  -10.31900 11.27900 42.43800
H  -8.83300 11.48600 43.41900
H  -6.05200 15.86300 40.75500
H  -3.82000 16.35700 44.40700
H  -4.51800 17.95900 44.17800
H  -2.96100 17.43500 43.37900

