158

Mg 15.96400 -1.92700 28.29000
C  15.21000 0.33300 30.77000
C  18.21000 -3.36100 30.48300
C  17.09700 -3.75100 25.76600
C  13.97400 -0.09400 26.06900
N  16.55100 -1.54200 30.44000
C  16.09400 -0.59000 31.27000
C  16.61600 -0.76600 32.69000
C  17.74700 -1.82500 32.53900
C  17.55500 -2.20300 31.03200
C  19.14300 -1.29500 33.00600
C  15.43800 -1.24200 33.64000
C  15.57500 -1.08400 35.19700
H  16.82100 -0.43100 35.75100
N  17.48300 -3.40500 28.17400
C  18.16700 -3.88300 29.16800
C  18.90500 -5.04300 28.63500
C  18.66200 -5.21400 27.23600
C  17.71400 -4.09400 26.98800
C  19.76500 -5.85100 29.54400
C  19.21700 -6.16400 26.27800
O  18.93400 -6.12300 25.09500
C  20.09700 -7.33400 26.74500
N  15.67000 -1.87800 26.21200
C  16.11100 -2.86300 25.38000
C  15.61400 -2.57100 23.88500
C  14.45000 -1.54300 24.06800
C  14.71600 -1.14400 25.51800
C  16.78700 -2.09200 22.97300
C  13.05900 -2.14500 23.76500
C  12.17800 -1.60000 22.64100
N  14.82300 -0.28100 28.33700
C  14.06500 0.38300 27.41700
C  13.52600 1.63400 27.93500
C  13.94600 1.56700 29.30200
C  14.68300 0.39900 29.49700
C  12.80100 2.71900 27.13600
C  13.81100 2.34300 30.55000
O  13.26400 3.38700 30.81600
C  14.60300 1.48200 31.60300
C  15.53900 2.34700 32.32100
O  16.67900 2.58800 31.97500
O  14.91000 2.92200 33.36900
C  15.63400 3.88900 34.12000
H  18.88500 -3.85500 31.18500
H  17.46700 -4.29600 24.89500
H  13.18100 0.36600 25.47500
H  16.88300 0.21700 33.07800
H  17.45400 -2.74100 33.05100
H  19.42200 -1.78800 33.93800
H  19.11900 -0.21600 33.15700
H  19.84200 -1.53400 32.20500
H  15.20600 -2.29600 33.49000
H  14.51100 -0.69200 33.47800
H  15.30400 -2.00600 35.71100
H  14.80400 -0.47900 35.67500
H  19.56800 -5.62500 30.59100
H  20.82800 -5.73700 29.32900
H  19.52600 -6.91300 29.48700
H  20.18400 -8.12400 25.99900
H  19.63000 -7.70200 27.65800
H  21.08600 -7.01800 27.07800
H  15.39700 -3.50900 23.37400
H  14.70700 -0.67900 23.45500
H  16.89400 -1.01900 23.13000
H  16.54900 -2.28800 21.92700
H  17.65700 -2.63000 23.35100
H  12.41100 -2.16300 24.64000
H  13.22700 -3.19100 23.50500
H  11.39300 -2.30800 22.37700
H  12.83300 -1.26600 21.83600
H  11.66100 -0.68400 22.92600
H  11.73900 2.47900 27.19700
H  13.09100 2.62400 26.08900
H  13.01600 3.70300 27.55200
H  13.81600 1.10700 32.25700
H  16.57600 3.58900 34.57900
H  15.00000 4.22500 34.94100
H  15.70200 4.84600 33.60300
Mg 47.68300 25.11000 28.47900
C  48.68000 27.30700 31.20800
C  46.49900 22.92700 30.90700
C  47.33600 23.03000 26.10700
C  49.13900 27.52800 26.25600
N  47.60700 25.12300 30.78100
C  48.05500 26.11000 31.60500
C  47.64600 25.80000 33.10300
C  47.16700 24.27500 32.98500
C  47.15900 24.03000 31.45800
C  48.06900 23.32500 33.70800
C  46.64100 26.78800 33.70400
C  47.05200 27.56900 34.98200
H  45.97700 27.84500 35.97800
N  46.88400 23.29300 28.49000
C  46.44900 22.58200 29.55500
C  45.84100 21.41000 28.98600
C  46.03600 21.37000 27.56400
C  46.87400 22.56100 27.36500
C  45.06500 20.35500 29.84700
C  45.49300 20.45400 26.45600
O  45.62000 20.60000 25.27000
C  44.58300 19.28400 26.95500
N  48.05500 25.35000 26.46200
C  47.85100 24.26000 25.68800
C  48.40500 24.40400 24.24200
C  48.82800 25.93900 24.22700
C  48.70000 26.35400 25.72800
C  49.64300 23.45900 23.96400
C  47.95200 26.74800 23.29200
C  46.71100 27.44000 23.85500
N  48.71200 26.98600 28.61200
C  49.16800 27.86100 27.64800
C  49.83700 28.99800 28.22100
C  49.64300 28.81400 29.63100
C  48.92600 27.58700 29.81200
C  50.62000 30.15500 27.66500
C  49.96400 29.39300 30.92900
O  50.60500 30.37800 31.30900
C  49.22900 28.49100 31.94900
C  50.26900 28.09000 32.91500
O  51.20000 27.30500 32.68700
O  50.14100 28.71700 34.15600
C  51.17800 28.47100 35.12100
H  46.09000 22.19200 31.60300
H  47.34400 22.33900 25.26100
H  49.51800 28.22900 25.51000
H  48.53300 25.89100 33.72900
H  46.17400 24.12700 33.40900
H  48.79000 22.94300 32.98600
H  47.50900 22.47200 34.09100
H  48.55600 23.80500 34.55600
H  45.78600 26.19200 34.02100
H  46.37400 27.57800 33.00200
H  47.35900 28.57200 34.68800
H  47.88200 27.08800 35.50000
H  44.00500 20.38200 29.59600
H  45.21100 20.59100 30.90100
H  45.41400 19.32400 29.77500
H  44.84900 18.65900 27.80800
H  44.57200 18.62600 26.08700
H  43.56300 19.64700 27.08400
H  47.58600 24.03900 23.62200
H  49.87500 26.05100 23.94500
H  50.02900 23.07100 24.90600
H  50.49100 23.85600 23.40600
H  49.22100 22.56500 23.50400
H  47.67800 26.24500 22.36400
H  48.58100 27.53500 22.87600
H  46.61300 27.60700 24.92800
H  45.78600 26.96700 23.52500
H  46.64700 28.49800 23.60200
H  50.84300 30.01100 26.60800
H  51.55400 30.12100 28.22600
H  50.20400 31.13200 27.91100
H  48.42500 29.06400 32.41200
H  50.93800 27.49500 35.54500
H  51.12700 29.34500 35.76900
H  52.15800 28.42200 34.64600

