158

Mg -1.98300 17.14900 27.32100
C  -2.58700 14.98900 29.94100
C  -2.54200 19.80600 29.37900
C  -1.98700 19.19900 24.56400
C  -1.94600 14.37300 25.07500
N  -2.53300 17.25800 29.42300
C  -2.67700 16.27800 30.32900
C  -2.99100 16.84400 31.73700
C  -3.11800 18.40200 31.41900
C  -2.69700 18.56000 29.94400
C  -4.45200 19.07600 31.79900
C  -2.11100 16.41400 32.96900
C  -2.71800 15.77900 34.27000
H  -1.90100 15.78100 35.51400
N  -2.00600 19.16900 27.00000
C  -2.23500 20.09300 27.99300
C  -2.16900 21.44800 27.45000
C  -1.89800 21.34300 26.04400
C  -1.97700 19.84700 25.81000
C  -2.36900 22.70700 28.26800
C  -1.66100 22.39800 25.02100
O  -1.55800 22.25600 23.82700
C  -1.36800 23.83200 25.57000
N  -2.17800 16.85500 25.11500
C  -2.05000 17.83100 24.20500
C  -1.73800 17.41500 22.80100
C  -1.53700 15.89100 23.01100
C  -1.97300 15.67000 24.48600
C  -2.82500 17.83200 21.73800
C  -0.05800 15.48300 22.68300
C  0.93100 15.11600 23.75100
N  -2.26900 15.16900 27.40100
C  -2.15700 14.15900 26.43900
C  -2.26900 12.87000 27.09100
C  -2.45700 13.16900 28.43700
C  -2.52400 14.60000 28.57600
C  -2.13400 11.53900 26.48200
C  -2.62100 12.51900 29.68800
O  -2.61200 11.32700 29.99300
C  -2.68000 13.66400 30.69600
C  -1.64700 13.35700 31.65900
O  -0.40600 13.53100 31.45400
O  -2.14900 12.73200 32.75100
C  -1.11900 12.16600 33.63500
H  -2.65100 20.66900 30.04000
H  -1.96600 19.89900 23.72700
H  -1.68000 13.55700 24.39900
H  -3.96500 16.38700 31.91200
H  -2.36300 18.94000 31.99200
H  -4.32500 19.79300 32.61000
H  -5.18800 18.29100 31.97100
H  -4.85300 19.55400 30.90500
H  -1.71000 17.31100 33.44100
H  -1.15800 15.98100 32.66700
H  -2.92600 14.75300 33.96800
H  -3.71000 16.17600 34.48600
H  -2.69700 22.48700 29.28400
H  -3.15500 23.22800 27.72100
H  -1.49100 23.34600 28.35600
H  -0.93400 24.43200 24.77000
H  -0.59900 23.63600 26.31700
H  -2.28000 24.27300 25.97200
H  -0.86500 17.98800 22.48700
H  -2.16000 15.26100 22.37600
H  -3.20100 16.95700 21.20900
H  -2.25900 18.46600 21.05600
H  -3.51300 18.52400 22.22600
H  0.41700 16.26000 22.08300
H  -0.18000 14.64700 21.99400
H  0.46700 14.71300 24.65100
H  1.70600 15.84700 23.98300
H  1.39600 14.27700 23.23200
H  -1.11100 11.16700 26.44400
H  -2.58500 11.53800 25.49000
H  -2.76100 10.91300 27.11600
H  -3.63300 13.47500 31.19100
H  -0.79500 12.97700 34.28800
H  -0.29000 11.76300 33.05400
H  -1.63800 11.45300 34.27500
Mg -11.87500 38.95200 41.82200
C  -9.92100 35.98000 41.28600
C  -9.58900 40.59900 39.68300
C  -13.92900 41.43600 41.63800
C  -14.40200 36.88900 43.22200
N  -10.03800 38.27900 40.59900
C  -9.43900 37.08100 40.55300
C  -8.18300 37.02500 39.66100
C  -8.03600 38.54400 39.18800
C  -9.27700 39.19100 39.86700
C  -6.71900 39.44800 39.34800
C  -8.40300 35.99100 38.49600
C  -7.42900 34.75600 38.42400
H  -6.29200 34.83600 37.32900
N  -11.61800 40.93200 41.05200
C  -10.62900 41.42900 40.23500
C  -10.84000 42.88600 40.21000
C  -12.07900 43.14800 40.85000
C  -12.59400 41.79400 41.17700
C  -9.86800 43.88500 39.55600
C  -12.74200 44.49400 41.05000
O  -12.18000 45.48900 40.55100
C  -14.01100 44.73900 41.67800
N  -13.93100 39.10900 42.18800
C  -14.58000 40.31000 42.07400
C  -15.97800 40.33100 42.68700
C  -16.09500 38.92200 43.26900
C  -14.72000 38.21000 42.84100
C  -16.46600 41.54400 43.59200
C  -17.41300 38.09900 42.88200
C  -18.21400 37.35100 43.98100
N  -12.12900 36.88200 42.27500
C  -13.15500 36.24300 42.91900
C  -12.73300 34.90500 43.21800
C  -11.44700 34.78900 42.61200
C  -11.14300 35.98500 42.02400
C  -13.49500 33.94600 44.13600
C  -10.40200 33.84900 42.35500
O  -10.21700 32.67200 42.65300
C  -9.28600 34.59700 41.43800
C  -7.94900 34.60100 42.09800
O  -7.04500 33.77700 42.04100
O  -7.77400 35.75200 42.85100
C  -6.48600 36.05500 43.47200
H  -8.85600 41.07500 39.02900
H  -14.59400 42.30200 41.65400
H  -15.09300 36.32100 43.84900
H  -7.36000 36.81100 40.34200
H  -8.33400 38.70100 38.15200
H  -5.83300 38.82300 39.23900
H  -6.70100 39.90200 40.33800
H  -6.64000 40.24400 38.60800
H  -8.32500 36.45000 37.51000
H  -9.37100 35.51200 38.64500
H  -8.01400 33.86400 38.19900
H  -7.06000 34.51800 39.42100
H  -9.36300 44.52700 40.27700
H  -10.51800 44.48800 38.92300
H  -9.18400 43.37000 38.88100
H  -14.71400 44.44500 40.89900
H  -14.27700 45.78900 41.79900
H  -13.97400 44.18600 42.61700
H  -16.63600 40.39600 41.82000
H  -16.13400 39.04400 44.35100
H  -17.20700 41.10400 44.26000
H  -16.88800 42.36600 43.01400
H  -15.60700 41.84400 44.19200
H  -17.33000 37.34300 42.10200
H  -18.07400 38.85700 42.46000
H  -19.10000 37.98100 44.07000
H  -17.72800 37.42900 44.95400
H  -18.31500 36.30200 43.70300
H  -13.31300 32.93300 43.77700
H  -14.56900 34.08700 44.01300
H  -13.25700 34.06900 45.19300
H  -9.25900 34.16400 40.43800
H  -6.42900 36.95600 44.08300
H  -5.85400 36.01100 42.58500
H  -6.35300 35.12500 44.02500

