158

Mg 44.95900 3.65500 46.62700
C  42.86500 6.31700 46.55100
C  42.30300 1.53300 46.39900
C  47.10700 1.06400 46.08100
C  47.73300 5.80200 46.26500
N  42.78400 3.94500 46.55900
C  42.13800 5.11600 46.61800
C  40.57900 4.89800 46.49000
C  40.46400 3.33000 46.51400
C  41.93500 2.84400 46.58800
C  39.63400 2.78300 47.75200
C  39.84100 5.57000 45.32300
C  40.52700 5.53600 43.90100
H  39.62700 5.70500 42.65900
N  44.66000 1.54000 46.29600
C  43.46100 0.84200 46.28600
C  43.76800 -0.57100 46.22900
C  45.15900 -0.70800 46.02400
C  45.71800 0.64400 46.10900
C  42.73900 -1.71400 46.34000
C  45.80500 -1.96700 45.86500
O  45.21600 -3.06400 45.82300
C  47.30200 -2.11100 45.78000
N  47.11700 3.51000 46.09100
C  47.71100 2.31400 46.14300
C  49.20300 2.49500 46.29100
C  49.43100 3.97000 46.03900
C  48.03800 4.46100 46.13300
C  49.74200 1.92100 47.63200
C  50.23700 4.41200 44.72800
C  49.43300 4.43500 43.45100
N  45.30000 5.65300 46.28500
C  46.44600 6.39800 46.24600
C  46.08600 7.78500 46.13000
C  44.69100 7.79800 46.21900
C  44.23700 6.47500 46.37100
C  47.06200 8.89500 46.13900
C  43.53600 8.63800 46.34200
O  43.39200 9.84200 46.23300
C  42.27400 7.67400 46.38200
C  41.33300 7.99500 47.39700
O  41.45900 7.61400 48.53200
O  40.29800 8.86600 46.94400
C  39.33900 9.25000 47.92300
H  41.41100 0.90800 46.32400
H  47.78300 0.21200 46.18300
H  48.50800 6.57100 46.24600
H  40.10900 5.18200 47.43100
H  39.96300 3.09800 45.57500
H  39.05800 3.48400 48.35600
H  40.35500 2.25500 48.37600
H  38.95100 1.97400 47.49400
H  39.71000 6.62900 45.54400
H  38.82100 5.18800 45.28700
H  41.12400 4.65000 43.68600
H  41.17700 6.40200 43.77500
H  41.98900 -1.43900 47.08200
H  43.10400 -2.70900 46.59500
H  42.20800 -1.63400 45.39200
H  47.77600 -1.89400 46.73700
H  47.58700 -1.45600 44.95700
H  47.64400 -3.10700 45.50100
H  49.72200 1.92000 45.52400
H  49.94200 4.38600 46.90700
H  50.19900 0.96600 47.37400
H  48.95700 1.64100 48.33500
H  50.54000 2.57900 47.97700
H  51.00000 3.64000 44.62000
H  50.77500 5.34100 44.91600
H  48.37400 4.39200 43.70600
H  49.67100 3.49500 42.95300
H  49.52300 5.34200 42.85400
H  47.78000 8.74000 45.33400
H  47.73200 8.90700 46.99900
H  46.49400 9.79300 45.89600
H  41.77800 7.70200 45.41200
H  38.37800 8.80100 47.67500
H  39.25300 10.33600 47.93900
H  39.64400 8.98800 48.93600
Mg 9.31100 48.20800 26.08200
C  6.87000 48.71600 28.57300
C  11.52400 49.83500 28.11300
C  11.50400 48.03800 23.58700
C  6.65500 47.76000 23.77100
N  9.13400 49.26300 28.03900
C  8.17900 49.16400 28.92000
C  8.61700 49.44600 30.33000
C  9.93000 50.31300 30.04100
C  10.22800 49.73000 28.61300
C  9.88800 51.85000 30.10800
C  8.86000 48.18700 31.24300
C  8.05100 48.16900 32.54600
H  8.00700 46.77100 33.36000
N  11.32600 48.72100 25.92300
C  12.03700 49.40700 26.84700
C  13.39700 49.41400 26.37400
C  13.42400 48.80300 25.08100
C  12.06000 48.52700 24.77400
C  14.51600 49.82400 27.29000
C  14.58000 48.54200 24.15700
O  14.45300 48.25000 22.93700
C  16.02600 48.67700 24.64900
N  9.06700 48.15300 23.86200
C  10.14500 47.79400 23.13500
C  9.72800 47.20500 21.71100
C  8.12400 47.31600 21.79900
C  7.91700 47.75200 23.27100
C  10.39500 47.96400 20.50500
C  7.35500 46.05600 21.37700
C  6.71800 46.06600 19.95500
N  7.20000 48.09700 26.13300
C  6.28800 47.95600 25.14600
C  4.95300 47.92400 25.67400
C  5.16100 48.10100 27.10300
C  6.54900 48.19500 27.30000
C  3.74000 47.75000 24.90100
C  4.52200 48.28000 28.29600
O  3.32700 48.35100 28.63400
C  5.62400 48.60700 29.34800
C  5.56700 47.40100 30.22400
O  6.31100 46.43300 30.25400
O  4.48900 47.56700 31.08400
C  4.35900 46.47800 32.01500
H  12.17800 50.54000 28.63100
H  12.30000 47.71500 22.91300
H  5.81400 47.41300 23.16800
H  7.88300 50.15000 30.72100
H  10.85000 50.00900 30.54000
H  8.84800 52.13800 30.26400
H  10.26500 52.31700 29.19800
H  10.50700 52.11800 30.96300
H  9.91800 48.14200 31.50300
H  8.66800 47.27800 30.67300
H  7.02600 48.30900 32.20200
H  8.44200 49.03600 33.07900
H  14.12500 50.23500 28.22100
H  15.21700 50.56200 26.90100
H  15.01100 48.91800 27.64100
H  16.12500 48.14900 25.59800
H  16.24000 49.69100 24.98800
H  16.73900 48.36600 23.88600
H  10.01100 46.15200 21.71200
H  7.74500 48.09300 21.13500
H  10.87600 47.15900 19.94900
H  11.06800 48.75400 20.83900
H  9.53000 48.41200 20.01600
H  6.62000 45.90700 22.16800
H  8.02500 45.19700 21.35700
H  6.34300 47.07200 19.76700
H  5.87200 45.38600 19.85600
H  7.47300 45.82900 19.20500
H  3.79900 46.72200 24.54100
H  3.79800 48.48300 24.09600
H  2.83900 47.83600 25.50800
H  5.25900 49.48200 29.88600
H  3.50600 46.56200 32.68900
H  5.20200 46.42100 32.70400
H  4.34400 45.50600 31.52200

