158

Mg 31.76100 57.88100 40.22900
C  28.98600 55.82100 39.28900
C  33.76600 55.32800 39.59300
C  34.22900 60.15600 40.39600
C  29.41700 60.54900 40.36800
N  31.40300 55.87600 39.49200
C  30.23200 55.17600 39.39700
C  30.54500 53.70900 38.96300
C  31.97600 53.53700 39.40800
C  32.40700 54.98900 39.46100
C  32.06700 52.84400 40.82100
C  30.21700 53.49200 37.43600
C  29.26100 52.39000 37.18600
H  28.65600 52.19900 35.73700
N  33.80500 57.73600 40.00900
C  34.43500 56.55300 39.73900
C  35.79600 56.83000 39.79200
C  35.95500 58.23500 39.98800
C  34.61200 58.79500 40.08600
C  36.77300 55.71900 39.69900
C  37.36400 58.90700 39.94400
O  38.37800 58.23300 39.97100
C  37.56900 60.33700 39.99900
N  31.86900 60.10800 40.36600
C  32.97300 60.71500 40.60000
C  32.72000 62.20000 41.08000
C  31.22000 62.38700 40.76700
C  30.80700 60.91500 40.40900
C  33.17600 62.39400 42.54400
C  30.84600 63.31400 39.58400
C  30.72800 62.69300 38.16200
N  29.62000 58.19300 40.08300
C  28.88600 59.33200 40.11700
C  27.50400 58.99500 39.74300
C  27.48000 57.62100 39.39200
C  28.81200 57.16300 39.63000
C  26.36600 59.92500 39.65700
C  26.66500 56.50600 38.97600
O  25.47800 56.43700 38.62400
C  27.61500 55.21000 38.99700
C  27.15900 54.34500 40.07400
O  27.73300 54.07600 41.05000
O  25.92000 53.88100 39.87300
C  25.17200 53.09300 40.85200
H  34.35700 54.43000 39.78500
H  35.08200 60.83200 40.47600
H  28.65900 61.33300 40.31700
H  29.84600 53.12000 39.55600
H  32.61100 53.00400 38.70000
H  32.67300 51.94100 40.74400
H  31.09700 52.45500 41.13200
H  32.37900 53.46700 41.66000
H  31.16900 53.27200 36.95300
H  29.82300 54.40400 36.98600
H  28.39400 52.50400 37.83700
H  29.78500 51.52100 37.58400
H  37.09600 55.55200 38.67200
H  36.25700 54.76500 39.81100
H  37.65400 55.69900 40.34100
H  37.37000 60.59700 41.03800
H  36.86800 60.82800 39.32300
H  38.60700 60.43100 39.68000
H  33.20000 62.86000 40.35700
H  30.60500 62.70700 41.60800
H  33.44200 63.44400 42.66000
H  34.01900 61.76700 42.83600
H  32.32800 62.21300 43.20600
H  31.53000 64.15900 39.50500
H  29.82700 63.66100 39.75600
H  29.76000 62.19200 38.15800
H  31.55500 62.00200 37.99600
H  30.66900 63.58400 37.53800
H  26.63000 60.62100 38.86100
H  26.17200 60.39100 40.62300
H  25.48900 59.35700 39.34500
H  27.56600 54.66900 38.05100
H  25.76900 52.20800 41.06800
H  24.16100 52.92700 40.47900
H  24.91200 53.62100 41.76900
Mg 9.79400 47.81200 27.87300
C  7.74300 47.10300 30.67800
C  12.36500 48.09900 29.85500
C  11.56400 48.79900 25.15300
C  6.81300 48.23900 26.02000
N  9.97700 47.69800 30.08000
C  9.08100 47.37500 31.06300
C  9.61100 47.53600 32.45800
C  11.06900 47.99400 32.16300
C  11.17600 47.93500 30.57100
C  11.58700 49.44300 32.70500
C  9.40800 46.20100 33.18800
C  10.43000 45.69800 34.28400
H  9.83000 44.98900 35.52700
N  11.69800 48.30400 27.54300
C  12.66900 48.36900 28.48300
C  13.99000 48.51800 27.84300
C  13.79300 48.53700 26.35700
C  12.30900 48.50800 26.28200
C  15.24400 48.40700 28.70000
C  14.75600 48.56200 25.28700
O  14.45000 48.57100 24.10000
C  16.23000 48.39600 25.65300
N  9.18600 48.51600 25.99100
C  10.13500 48.74500 25.03700
C  9.51500 49.13600 23.68300
C  8.06400 48.49100 23.75800
C  7.98400 48.44100 25.34500
C  9.57300 50.68500 23.49000
C  7.95200 47.16400 22.97700
C  6.82700 47.05600 21.88100
N  7.67600 47.65400 28.21100
C  6.64000 47.87700 27.38300
C  5.33300 47.68500 28.09500
C  5.76100 47.27000 29.33400
C  7.19400 47.30400 29.39100
C  4.05300 47.81200 27.51600
C  5.22900 46.89400 30.62200
O  4.10800 46.58000 31.05700
C  6.55100 46.75900 31.58800
C  6.45400 45.35300 32.12400
O  7.13300 44.41000 31.69800
O  5.65500 45.34000 33.20600
C  5.55300 44.18500 34.08200
H  13.20800 48.18800 30.54300
H  12.21200 49.04400 24.30900
H  5.92300 48.34200 25.39600
H  9.09000 48.25400 33.09100
H  11.65600 47.16400 32.55600
H  11.73400 50.03000 31.79900
H  12.51500 49.36000 33.27200
H  10.85100 50.00000 33.28500
H  9.14100 45.40700 32.49100
H  8.46300 46.26100 33.72800
H  10.97600 46.56100 34.66700
H  11.06100 44.92300 33.84800
H  15.88900 47.58600 28.38500
H  15.07400 48.06400 29.72000
H  15.78900 49.35100 28.71000
H  16.39400 49.11300 26.45700
H  16.85600 48.75600 24.83600
H  16.33400 47.34600 25.92500
H  10.08700 48.75300 22.83800
H  7.27800 49.18300 23.45500
H  8.85700 51.10000 22.78100
H  10.55000 50.91300 23.06400
H  9.44500 51.16600 24.45900
H  7.82400 46.40300 23.74700
H  8.88900 46.98300 22.45100
H  5.99900 46.41500 22.18200
H  7.22300 46.69700 20.93100
H  6.37000 48.01800 21.64700
H  3.32800 47.69200 28.32100
H  3.79700 47.00000 26.83700
H  3.98100 48.81700 27.10000
H  6.49100 47.40300 32.46500
H  5.48900 44.62200 35.07900
H  6.29200 43.38400 34.08600
H  4.53900 43.79600 33.99700

