158

Mg 41.66900 8.54100 29.62900
C  43.54500 9.68800 32.43300
C  39.15200 7.69100 31.76100
C  40.02900 7.21000 26.93900
C  44.36600 9.42800 27.66100
N  41.45800 8.38100 31.92000
C  42.31900 9.01900 32.87600
C  41.70700 8.89000 34.31300
C  40.34800 8.10300 34.08100
C  40.25600 8.11000 32.47200
C  40.18900 6.66400 34.68200
C  41.41400 10.27600 34.87200
C  40.44900 10.23600 36.06300
H  40.77600 11.22500 37.14700
N  39.89800 7.48000 29.40100
C  38.96500 7.36600 30.38500
C  37.79300 6.82600 29.75400
C  37.94200 6.78300 28.31800
C  39.29800 7.22100 28.15900
C  36.60100 6.35100 30.51500
C  36.98000 6.31700 27.21100
O  37.35100 6.15700 26.06500
C  35.55700 6.06400 27.51000
N  42.13800 8.27100 27.64000
C  41.30600 7.69100 26.64600
C  41.90500 7.74300 25.16800
C  43.16200 8.71600 25.50700
C  43.20200 8.89700 27.07300
C  42.23700 6.36200 24.48100
C  43.11900 10.03600 24.69900
C  42.51200 11.32700 25.37300
N  43.59700 9.34400 29.91000
C  44.57600 9.68800 29.03300
C  45.64600 10.23200 29.62600
C  45.28500 10.25000 30.96700
C  44.00800 9.73900 31.10600
C  46.94900 10.62000 28.92000
C  45.73000 10.74000 32.25700
O  46.74000 11.36400 32.57900
C  44.62900 10.24200 33.28900
C  45.17800 9.46700 34.45700
O  46.12400 8.65700 34.43700
O  44.43400 9.76000 35.59200
C  44.65700 8.87600 36.71100
H  38.34400 7.44800 32.45400
H  39.58100 6.69900 26.08400
H  45.09600 9.72800 26.90600
H  42.39200 8.35400 34.97000
H  39.52400 8.77200 34.32900
H  39.40100 6.62800 35.43400
H  41.03700 6.36000 35.29500
H  40.18200 5.90400 33.90100
H  40.94100 10.80600 34.04500
H  42.24000 10.92000 35.17200
H  40.33100 9.24300 36.49600
H  39.47400 10.61300 35.75500
H  36.70300 6.47500 31.59300
H  36.50900 5.30500 30.22200
H  35.70000 6.84000 30.14600
H  35.12900 5.83600 26.53400
H  35.18200 6.95600 28.01200
H  35.51200 5.17300 28.13600
H  41.18700 8.20100 24.48800
H  44.05300 8.11500 25.32000
H  43.30500 6.25900 24.28900
H  41.81100 6.28900 23.48000
H  41.99300 5.43000 24.99000
H  42.55000 9.95900 23.77300
H  44.13100 10.35400 24.44900
H  41.97100 10.94800 26.24100
H  41.78900 11.84600 24.74200
H  43.28200 12.07100 25.58000
H  47.85200 10.29800 29.43800
H  47.00600 11.69900 29.06100
H  47.09800 10.15500 27.94600
H  44.24300 11.17800 33.69300
H  44.18200 9.33600 37.57800
H  45.71600 8.70000 36.89400
H  44.23300 7.88400 36.55300
Mg 16.52200 51.97300 25.97800
C  18.59300 50.66600 28.69200
C  14.31900 52.97900 28.27100
C  14.70700 53.04000 23.39500
C  18.88900 50.43700 23.71500
N  16.59800 51.91400 28.26100
C  17.48000 51.43200 29.19400
C  17.00700 51.59700 30.59200
C  15.56800 52.10500 30.43300
C  15.43000 52.34000 28.87400
C  14.47800 51.05700 31.01500
C  17.83100 52.61900 31.42800
C  17.81800 52.54600 32.95700
H  16.70900 51.74200 33.56600
N  14.77300 52.89100 25.84300
C  14.06300 53.35400 26.90700
C  13.01300 54.19000 26.43100
C  13.08800 54.16800 24.99300
C  14.23100 53.31700 24.69100
C  11.96000 54.82600 27.31600
C  12.26200 54.93200 23.93800
O  12.51600 55.07300 22.74600
C  11.12300 55.78500 24.39600
N  16.71200 51.65800 23.79700
C  15.88200 52.31300 23.01600
C  16.47600 52.24100 21.55500
C  17.71000 51.29800 21.59700
C  17.81100 51.13200 23.10000
C  15.50400 52.01700 20.42100
C  19.05700 51.89800 21.00600
C  19.87500 50.86100 20.26500
N  18.35900 50.73100 26.05500
C  19.08900 50.20200 25.06600
C  20.29200 49.55100 25.63100
C  20.10700 49.70800 27.04500
C  18.99100 50.46500 27.26600
C  21.39300 48.89200 24.87000
C  20.66400 49.34000 28.34200
O  21.76700 48.89700 28.64800
C  19.72100 49.91500 29.47100
C  19.26500 48.76000 30.28300
O  18.86000 47.64400 29.96300
O  19.42100 49.16500 31.55200
C  19.47600 48.20200 32.59500
H  13.56900 53.12600 29.05100
H  14.19100 53.43500 22.51800
H  19.75200 50.06100 23.16200
H  17.09400 50.60500 31.03400
H  15.42200 53.06300 30.93300
H  15.04500 50.28400 31.53400
H  13.84000 50.57500 30.27400
H  13.85400 51.46000 31.81300
H  17.55200 53.65200 31.22000
H  18.80900 52.41200 30.99400
H  17.88900 53.57000 33.32200
H  18.74300 52.02100 33.19400
H  11.95000 54.48700 28.35200
H  10.93800 54.72300 26.95000
H  12.14500 55.89700 27.23900
H  10.25800 55.12700 24.48200
H  10.88300 56.46000 23.57400
H  11.23800 56.33000 25.33300
H  16.76400 53.27100 21.34500
H  17.46900 50.34000 21.13600
H  14.86200 52.89600 20.48200
H  14.95100 51.08400 20.53400
H  16.02600 51.90700 19.47100
H  19.58200 52.09900 21.94000
H  18.88200 52.86000 20.52400
H  19.28500 49.94500 20.21900
H  20.85200 50.73200 20.73100
H  20.18400 51.27800 19.30700
H  21.68200 49.61100 24.10300
H  21.10800 47.95100 24.39900
H  22.19000 48.73400 25.59600
H  20.32200 50.60500 30.06300
H  19.61100 47.19400 32.20300
H  18.56300 48.25500 33.18800
H  20.25900 48.43400 33.31600

