158

Mg 24.59800 -5.31600 45.48400
C  26.90600 -3.13200 43.84200
C  22.21700 -4.30900 43.43200
C  22.83900 -7.94100 46.50300
C  27.52300 -6.62200 47.27800
N  24.66000 -3.92400 43.79500
C  25.59000 -3.06300 43.34900
C  25.06300 -2.09600 42.25500
C  23.51200 -2.27000 42.52600
C  23.42300 -3.57800 43.32100
C  22.90400 -1.10000 43.26400
C  25.72600 -2.73000 40.91400
C  26.44200 -1.73000 40.01800
H  26.17000 -1.99400 38.50600
N  22.72900 -6.08200 44.90600
C  21.88200 -5.52200 44.08300
C  20.63000 -6.25300 44.10200
C  20.76700 -7.28600 45.12100
C  22.10200 -7.06700 45.62400
C  19.44900 -5.97400 43.10100
C  19.73700 -8.40300 45.47000
O  18.64400 -8.44300 44.89300
C  19.89200 -9.29400 46.72600
N  25.12200 -7.08500 46.69600
C  24.10400 -7.89800 47.06100
C  24.76200 -9.07300 47.87400
C  26.16300 -8.53700 48.35400
C  26.30400 -7.39500 47.41600
C  23.85800 -9.69200 48.92500
C  27.27300 -9.59500 48.20100
C  28.37600 -9.70000 49.28900
N  26.76100 -4.86100 45.74000
C  27.76900 -5.50400 46.40200
C  29.04700 -4.86100 46.18700
C  28.75500 -3.84000 45.28000
C  27.36300 -3.96900 44.92800
C  30.33800 -5.17100 46.88900
C  29.34200 -2.77600 44.48600
O  30.49700 -2.34400 44.39800
C  28.16500 -2.33000 43.43300
C  27.92900 -0.85800 43.55700
O  27.08400 -0.32500 44.25300
O  28.64000 -0.25600 42.53100
C  28.24800 1.15900 42.34100
H  21.36800 -3.84400 42.92700
H  22.40200 -8.92700 46.67600
H  28.30200 -7.11900 47.86000
H  25.37300 -1.08200 42.51000
H  22.98600 -2.45600 41.59000
H  21.90500 -0.93300 42.86300
H  23.42800 -0.15300 43.13500
H  22.87100 -1.13000 44.35300
H  24.92600 -3.14900 40.30200
H  26.40600 -3.55800 41.11100
H  27.50900 -1.91200 40.14800
H  26.18700 -0.72600 40.35700
H  18.47700 -6.25000 43.51000
H  19.69300 -6.44400 42.14800
H  19.28700 -4.92500 42.85000
H  20.46300 -8.68400 47.42500
H  20.28100 -10.27500 46.45400
H  18.89800 -9.32200 47.17400
H  24.97600 -9.75800 47.05400
H  26.09500 -8.17700 49.38100
H  22.90800 -9.17200 48.80300
H  24.23800 -9.71500 49.94600
H  23.74900 -10.69500 48.51200
H  27.77900 -9.42800 47.25000
H  26.85400 -10.60200 48.19600
H  28.46200 -10.72100 49.66000
H  28.13900 -9.04800 50.13000
H  29.32400 -9.21900 49.04700
H  30.14400 -5.13400 47.96100
H  31.07200 -4.40500 46.64100
H  30.58300 -6.19600 46.60800
H  28.60400 -2.57000 42.46500
H  27.29300 1.45400 42.77500
H  28.09500 1.41600 41.29200
H  28.98800 1.89000 42.66800
Mg -4.34900 25.87200 26.16100
C  -3.36600 27.33900 28.98600
C  -6.23000 23.74200 28.04100
C  -5.33500 24.18300 23.38300
C  -2.38000 27.94800 24.20700
N  -4.86000 25.61400 28.25000
C  -4.38200 26.41400 29.20800
C  -4.91500 26.07100 30.55500
C  -5.72700 24.74300 30.32500
C  -5.62600 24.69200 28.78100
C  -5.29100 23.46500 31.05800
C  -5.76900 27.24200 31.19400
C  -5.83500 27.20300 32.75300
H  -5.40000 25.98100 33.56300
N  -5.74000 24.32900 25.78400
C  -6.41600 23.57800 26.68400
C  -7.47300 22.79800 26.12100
C  -7.17000 22.82700 24.68300
C  -6.02400 23.78500 24.50700
C  -8.50300 22.00800 26.89400
C  -7.84900 22.06900 23.50700
O  -7.59600 22.23700 22.31900
C  -8.96600 21.09800 23.68200
N  -3.74200 25.95900 24.09000
C  -4.34700 25.15500 23.13500
C  -3.68100 25.36800 21.78000
C  -3.00400 26.80600 21.95800
C  -3.09000 26.94600 23.50500
C  -2.79500 24.15600 21.28700
C  -3.67300 28.06500 21.28500
C  -2.89600 28.66700 20.13600
N  -3.06900 27.28400 26.49400
C  -2.25700 28.05900 25.58600
C  -1.34000 28.82800 26.41900
C  -1.77800 28.71700 27.76400
C  -2.83800 27.73900 27.69500
C  -0.18400 29.70600 25.99000
C  -1.56400 29.11600 29.09100
O  -0.76700 29.94900 29.58900
C  -2.50100 28.20700 29.94400
C  -1.60200 27.41500 30.76300
O  -0.65800 26.76800 30.39700
O  -1.81800 27.73500 32.02600
C  -1.23700 27.04700 33.17300
H  -6.90800 23.15200 28.66100
H  -5.74200 23.65700 22.51700
H  -1.73000 28.64900 23.67900
H  -4.03000 25.73700 31.09700
H  -6.78300 24.72100 30.59700
H  -6.11600 23.00900 31.60600
H  -4.55900 23.83400 31.77600
H  -4.87900 22.68200 30.42200
H  -6.73300 27.04300 30.72400
H  -5.31200 28.18100 30.88100
H  -6.84600 27.55200 32.96200
H  -5.34400 28.12600 33.06300
H  -8.16900 21.67800 27.87800
H  -8.66000 21.10400 26.30600
H  -9.44400 22.55700 26.93600
H  -9.61300 20.93700 22.82000
H  -9.66800 21.46000 24.43300
H  -8.48100 20.14900 23.91500
H  -4.51900 25.50600 21.09700
H  -1.93700 26.71500 21.75500
H  -1.90800 24.60000 20.83600
H  -3.41600 23.60200 20.58400
H  -2.51000 23.55000 22.14600
H  -3.91000 28.88000 21.96900
H  -4.62300 27.85200 20.79300
H  -2.05800 28.00800 19.90600
H  -2.53100 29.68100 20.29700
H  -3.59000 28.62800 19.29700
H  -0.44900 30.76200 25.94800
H  0.21600 29.22100 25.10000
H  0.59300 29.60300 26.74700
H  -3.14900 28.85800 30.53100
H  -0.26200 27.47200 33.40900
H  -1.03900 25.98500 33.03200
H  -1.82900 27.25700 34.06400

