158

Mg 0.77400 8.70200 26.38200
C  1.34400 10.49000 29.48900
C  0.39700 5.94800 28.28400
C  0.25700 7.12600 23.52100
C  1.08900 11.72900 24.73900
N  1.03600 8.18200 28.62600
C  1.09900 9.11300 29.72100
C  0.96400 8.33800 31.00300
C  0.98500 6.84200 30.69100
C  0.80100 6.96600 29.12100
C  2.29300 6.12100 31.18900
C  -0.30600 8.73900 31.83400
C  -0.27500 8.56700 33.40700
H  0.98400 8.04000 34.12300
N  0.49300 6.77900 25.89500
C  0.26900 5.80400 26.80100
C  -0.00100 4.57200 26.10700
C  0.00200 4.81900 24.71700
C  0.28700 6.29900 24.64300
C  -0.21900 3.19800 26.84900
C  -0.21200 3.90800 23.56500
O  -0.15700 4.26800 22.39300
C  -0.28900 2.47700 23.75400
N  0.70700 9.31100 24.42300
C  0.52300 8.51700 23.41600
C  0.58600 9.26600 22.10800
C  0.36200 10.80200 22.55900
C  0.75200 10.61200 24.01000
C  1.87500 8.98600 21.47200
C  -1.11200 11.31600 22.48300
C  -1.42200 12.67100 21.81700
N  1.12000 10.70800 26.89400
C  1.30000 11.77000 26.07000
C  1.61000 12.98000 26.86000
C  1.68500 12.53300 28.21000
C  1.28700 11.13000 28.15400
C  1.96200 14.31600 26.29600
C  2.02000 12.93500 29.56200
O  2.39500 14.01200 29.95000
C  1.58100 11.63300 30.54800
C  2.66600 11.49400 31.56700
O  3.66900 10.71700 31.43200
O  2.43700 12.34800 32.60900
C  3.29700 12.20900 33.71900
H  0.17900 5.09800 28.93200
H  -0.00700 6.73500 22.53600
H  1.23600 12.66500 24.19500
H  1.81000 8.62100 31.62900
H  0.19600 6.29200 31.20300
H  2.04400 5.32900 31.89600
H  3.02400 6.71200 31.74100
H  2.86700 5.64500 30.39400
H  -1.08900 8.10700 31.41500
H  -0.52500 9.77200 31.56300
H  -1.09600 7.90000 33.66900
H  -0.56600 9.55900 33.75400
H  -0.14500 2.30100 26.23400
H  -1.26300 3.28800 27.15000
H  0.30000 2.97900 27.78200
H  -1.18100 2.29800 24.35500
H  0.71500 2.22700 24.09600
H  -0.40700 2.08300 22.74500
H  -0.28700 8.88800 21.57500
H  1.08200 11.47500 22.09400
H  2.45700 8.22000 21.98500
H  2.56600 9.81800 21.33900
H  1.72600 8.57300 20.47500
H  -1.53800 11.41900 23.48100
H  -1.73900 10.52700 22.06800
H  -1.81800 12.47600 20.82000
H  -0.65500 13.44000 21.91400
H  -2.23600 13.15800 22.35500
H  2.87300 14.25200 25.70100
H  2.08500 14.97800 27.15300
H  1.08100 14.50700 25.68400
H  0.64800 11.92600 31.03000
H  4.25500 12.71400 33.59600
H  3.55500 11.17100 33.93200
H  2.82700 12.54900 34.64200
Mg -10.55500 39.11700 39.74600
C  -9.78100 35.73100 39.63700
C  -7.11500 39.70000 39.17900
C  -11.29700 42.28500 39.55800
C  -13.86700 38.24400 40.43900
N  -8.60900 37.87800 39.45800
C  -8.59200 36.50600 39.51500
C  -7.14100 35.95400 39.19700
C  -6.30700 37.26700 39.47200
C  -7.39100 38.35600 39.39000
C  -5.59900 37.36000 40.84700
C  -7.05800 35.23600 37.81500
C  -7.41400 35.99900 36.48800
H  -8.76400 35.86300 35.86000
N  -9.42100 40.80100 39.28800
C  -8.03700 40.83300 39.10900
C  -7.67100 42.20200 38.81400
C  -8.78900 43.05700 39.00500
C  -9.91900 42.08300 39.35500
C  -6.25200 42.66300 38.67400
C  -8.86800 44.57800 38.92400
O  -7.91800 45.18500 38.42500
C  -10.07300 45.39300 39.33400
N  -12.39700 40.06000 39.88200
C  -12.42700 41.39800 39.74200
C  -13.78900 41.99700 39.95700
C  -14.65600 40.68900 40.36800
C  -13.57000 39.56600 40.20100
C  -13.94800 43.22400 40.92700
C  -15.89400 40.52800 39.44500
C  -17.12700 40.25700 40.23600
N  -11.63700 37.31000 39.96300
C  -12.99100 37.14300 40.30500
C  -13.23500 35.79300 40.38000
C  -12.03700 35.13900 40.06000
C  -11.09700 36.13900 39.76300
C  -14.51600 35.17400 40.71900
C  -11.48100 33.88600 39.89700
O  -12.06700 32.82800 39.97000
C  -9.89700 34.15900 39.55700
C  -9.06000 33.35800 40.45300
O  -9.21500 33.16200 41.66200
O  -8.00400 32.91700 39.80300
C  -6.83800 32.40900 40.51000
H  -6.06800 39.90500 38.94200
H  -11.62400 43.32700 39.55000
H  -14.94600 38.14100 40.56700
H  -7.11200 35.25100 40.02900
H  -5.47900 37.32700 38.76600
H  -6.04600 38.12900 41.47700
H  -4.53600 37.56600 40.71900
H  -5.66100 36.40300 41.36600
H  -7.59100 34.28600 37.80800
H  -6.05600 34.83000 37.67200
H  -6.72500 35.70900 35.69600
H  -7.14900 37.05500 36.54900
H  -6.12900 43.48400 37.96700
H  -5.63700 41.81500 38.37200
H  -5.97700 43.07900 39.64300
H  -10.25400 45.15100 40.38100
H  -10.98100 45.23200 38.75300
H  -9.83700 46.44400 39.16200
H  -14.08200 42.27400 38.94400
H  -14.98700 40.63700 41.40500
H  -14.93100 43.17000 41.39400
H  -13.89300 44.11100 40.29500
H  -13.11000 43.35700 41.61100
H  -15.74600 39.67100 38.78700
H  -15.97400 41.33900 38.72000
H  -16.93100 40.60700 41.24900
H  -17.37800 39.19600 40.25200
H  -17.98100 40.87400 39.95600
H  -14.97400 34.89700 39.76900
H  -15.15200 35.84000 41.30100
H  -14.38300 34.25300 41.28700
H  -9.79100 33.92000 38.49900
H  -6.37100 31.51700 40.09200
H  -7.16000 32.11800 41.51000
H  -6.09700 33.20300 40.59900

