158

Mg -1.71100 17.26400 25.89400
C  -2.23100 14.96600 28.46300
C  -2.95800 19.69700 28.08800
C  -1.55000 19.50300 23.40700
C  -1.25700 14.65900 23.68900
N  -2.53400 17.23100 28.06200
C  -2.52500 16.24100 28.89500
C  -3.07600 16.64400 30.29100
C  -3.76200 18.01200 29.96600
C  -3.03400 18.40200 28.61000
C  -5.30300 17.79900 29.69700
C  -1.95200 16.74900 31.37200
C  -2.17300 16.24700 32.78500
H  -0.97900 16.50200 33.74000
N  -2.14700 19.33200 25.75400
C  -2.57100 20.14300 26.79900
C  -2.68500 21.49600 26.34200
C  -2.24700 21.46800 24.98500
C  -2.01800 20.05000 24.63800
C  -3.14400 22.71800 27.21000
C  -2.00500 22.64000 24.12500
O  -1.74300 22.59200 22.90400
C  -1.77600 23.97600 24.76200
N  -1.39500 17.10100 23.83700
C  -1.41500 18.15200 23.02500
C  -1.10400 17.62200 21.62300
C  -0.67100 16.20900 21.78500
C  -1.13000 15.98100 23.17800
C  -2.19800 17.93700 20.53300
C  0.76200 15.69100 21.56700
C  1.89400 16.33900 22.32500
N  -1.72800 15.31000 26.02500
C  -1.56100 14.34000 25.01700
C  -1.67200 13.06100 25.59700
C  -2.02600 13.21200 26.94200
C  -1.93400 14.62200 27.18500
C  -1.46400 11.80800 24.81600
C  -2.34100 12.49900 28.14400
O  -2.37500 11.27900 28.41700
C  -2.47300 13.65300 29.20200
C  -1.55100 13.36000 30.31100
O  -0.46800 13.88500 30.40300
O  -2.03700 12.36600 31.05100
C  -1.26800 11.94500 32.24000
H  -3.28500 20.50900 28.74000
H  -1.33200 20.24700 22.63800
H  -0.94700 13.88600 22.98200
H  -3.71200 15.84900 30.67900
H  -3.62900 18.74000 30.76600
H  -5.64000 18.23900 28.75900
H  -5.81300 18.27000 30.53800
H  -5.44300 16.72300 29.79900
H  -1.60900 17.78300 31.40200
H  -1.04800 16.26900 30.99700
H  -2.44000 15.20000 32.93000
H  -2.98000 16.86500 33.17900
H  -3.92900 23.21700 26.64300
H  -2.34100 23.42000 27.43600
H  -3.60400 22.35200 28.12800
H  -2.62200 24.47900 25.22900
H  -1.34200 24.71200 24.08500
H  -1.06000 23.81800 25.56800
H  -0.21900 18.18400 21.32300
H  -1.30100 15.58500 21.15000
H  -3.08600 17.45000 20.93700
H  -1.93800 17.60800 19.52800
H  -2.29500 19.02200 20.49100
H  0.99400 15.67400 20.50200
H  0.87500 14.62500 21.76300
H  2.30100 15.70200 23.11100
H  1.58600 17.27400 22.79200
H  2.75300 16.49600 21.67300
H  -0.85400 11.87200 23.91500
H  -2.45500 11.63300 24.39800
H  -1.17100 10.94800 25.42000
H  -3.46700 13.68300 29.64800
H  -0.74800 12.80300 32.66700
H  -0.46900 11.24400 31.99800
H  -1.84800 11.54100 33.07000
Mg 25.88000 0.02700 29.00300
C  27.91400 -0.23300 31.83900
C  23.23100 0.26300 31.01900
C  23.87600 0.43700 26.16900
C  28.50900 -0.60400 26.88100
N  25.64000 0.05400 31.21400
C  26.58600 0.04200 32.17500
C  26.00100 0.37600 33.55500
C  24.47200 0.51600 33.26300
C  24.40600 0.30400 31.74900
C  23.35000 -0.13700 34.10500
C  26.72800 1.55400 34.26000
C  26.82400 1.39200 35.79400
H  26.37200 2.41400 36.78000
N  23.85200 0.24700 28.68200
C  22.91000 0.28700 29.66700
C  21.62000 0.40600 29.06300
C  21.80000 0.59200 27.65200
C  23.23000 0.44400 27.43900
C  20.33700 0.47400 29.94900
C  20.76700 0.85300 26.61600
O  20.92600 0.84800 25.38700
C  19.37800 1.24500 26.97600
N  26.16500 0.05500 26.88800
C  25.18600 0.22300 25.92800
C  25.84800 0.14300 24.53800
C  27.29000 -0.30500 24.80200
C  27.31700 -0.25400 26.30600
C  25.04800 -0.77800 23.51100
C  28.32300 0.53200 24.07100
C  28.77900 1.83600 24.74000
N  27.72100 -0.51200 29.27500
C  28.76200 -0.72200 28.30000
C  30.03300 -0.91600 28.98300
C  29.74100 -0.79500 30.37800
C  28.35800 -0.47500 30.50400
C  31.33700 -1.21100 28.38900
C  30.32300 -0.75600 31.70200
O  31.49100 -0.83400 32.05200
C  29.18100 -0.27300 32.66300
C  29.02300 -1.24500 33.83600
O  28.28300 -2.17000 33.81200
O  29.71700 -0.85400 34.99100
C  29.37600 -1.48800 36.25500
H  22.31900 0.44200 31.59200
H  23.13000 0.31200 25.38200
H  29.34100 -0.84100 26.21500
H  26.21600 -0.46700 34.21200
H  24.14000 1.54300 33.41700
H  22.77800 -0.89000 33.56300
H  22.69100 0.59400 34.57300
H  23.70000 -0.68600 34.97900
H  26.23800 2.51000 34.07400
H  27.65400 1.85200 33.76700
H  27.88600 1.15800 35.86800
H  26.33200 0.46200 36.07700
H  19.42700 0.05800 29.51800
H  20.12400 1.51200 30.20700
H  20.40700 0.04100 30.94700
H  19.24500 1.88000 27.85200
H  18.85800 0.29700 27.10900
H  18.91700 1.67900 26.08900
H  25.88600 1.14500 24.11100
H  27.50900 -1.33400 24.52000
H  24.04100 -0.96400 23.88400
H  25.54900 -1.73700 23.37900
H  25.05300 -0.28300 22.53900
H  27.81500 0.88000 23.17100
H  29.19600 -0.07200 23.82300
H  28.46800 1.99500 25.77300
H  28.27800 2.64000 24.20000
H  29.85300 2.02200 24.74200
H  32.00200 -0.38400 28.63900
H  31.23200 -1.32000 27.30900
H  31.69600 -2.17900 28.73800
H  29.50400 0.71200 33.00000
H  30.29700 -1.76300 36.76900
H  28.68600 -2.33200 36.27500
H  28.80600 -0.73800 36.80400

