158

Mg 23.97500 -6.62400 46.43900
C  26.06000 -4.16300 44.69500
C  21.48200 -5.65900 44.14100
C  22.41500 -9.46500 46.98700
C  26.82700 -7.58600 48.21700
N  23.77700 -5.08400 44.72700
C  24.79500 -4.25500 44.12500
C  24.18100 -3.41900 42.99700
C  22.67700 -3.45200 43.31900
C  22.55800 -4.80500 44.14300
C  22.06000 -2.27000 44.19100
C  24.64600 -3.88000 41.62900
C  25.34800 -2.83400 40.74400
H  25.11900 -2.86900 39.22900
N  22.08700 -7.46200 45.72000
C  21.19500 -6.87200 44.84200
C  19.98800 -7.65000 44.80500
C  20.21000 -8.81300 45.63600
C  21.59200 -8.63400 46.18100
C  18.88800 -7.29000 43.87800
C  19.24600 -9.95600 45.91700
O  18.10200 -9.86400 45.53700
C  19.63500 -11.21700 46.75200
N  24.63000 -8.34300 47.27800
C  23.73900 -9.40200 47.51300
C  24.32900 -10.49300 48.47400
C  25.67400 -9.76800 48.85000
C  25.73600 -8.41000 48.10200
C  23.39000 -10.86500 49.62100
C  26.96100 -10.69100 48.58000
C  27.88900 -10.88400 49.66000
N  26.00400 -5.90900 46.58300
C  27.04600 -6.38700 47.36400
C  28.21700 -5.57400 47.27500
C  27.84900 -4.65700 46.28600
C  26.50900 -4.89700 45.83000
C  29.57500 -5.62500 48.03700
C  28.25200 -3.46100 45.54900
O  29.34900 -2.88500 45.63500
C  27.16500 -3.14400 44.48700
C  26.80800 -1.72500 44.74500
O  25.90500 -1.23300 45.39400
O  27.71500 -0.98200 44.07400
C  27.33500 0.44300 43.90100
H  20.63400 -5.30000 43.55500
H  21.91700 -10.42500 47.13500
H  27.63200 -7.88500 48.89100
H  24.48600 -2.37700 43.09700
H  22.05500 -3.41000 42.42500
H  21.97100 -2.49600 45.25400
H  21.06700 -1.96700 43.85900
H  22.71000 -1.39700 44.14000
H  23.77500 -4.34300 41.16500
H  25.39100 -4.67100 41.71300
H  26.41600 -2.90100 40.95000
H  25.04500 -1.82700 41.02900
H  18.29200 -8.16300 43.61200
H  19.14800 -6.62700 43.05200
H  18.18600 -6.67700 44.44400
H  18.89300 -12.00800 46.64900
H  19.89100 -10.91500 47.76800
H  20.42400 -11.79100 46.26600
H  24.35200 -11.36700 47.82400
H  25.68900 -9.53800 49.91600
H  22.60300 -10.11100 49.60500
H  23.96500 -10.88400 50.54700
H  22.97900 -11.87000 49.52900
H  27.46500 -10.18500 47.75700
H  26.70300 -11.70700 48.27900
H  28.92500 -10.66900 49.39900
H  27.96000 -11.93100 49.95700
H  27.73000 -10.26400 50.54200
H  29.26400 -5.19300 48.98800
H  30.32200 -5.05900 47.47900
H  29.97400 -6.62300 48.22100
H  27.58800 -3.19100 43.48400
H  27.69100 0.91900 44.81500
H  26.26500 0.63900 43.84000
H  27.79500 0.84200 42.99700
Mg 48.16100 34.54200 26.50300
C  45.94200 33.67900 29.22000
C  48.61400 37.63500 27.97500
C  49.62300 35.46900 23.71400
C  47.02000 31.60700 24.80700
N  47.29900 35.57400 28.42600
C  46.57100 34.94700 29.42000
C  46.36700 35.95500 30.58200
C  46.80100 37.33700 29.97300
C  47.61800 36.86900 28.70100
C  45.55700 38.20200 29.62900
C  47.35000 35.49400 31.81000
C  46.67500 35.61100 33.19400
H  46.09500 36.94300 33.68500
N  49.10700 36.26600 25.98800
C  49.34300 37.36000 26.79300
C  50.23700 38.23400 26.09500
C  50.56200 37.66300 24.81800
C  49.74500 36.36700 24.75600
C  50.66600 39.55800 26.72500
C  51.55400 38.15900 23.71800
O  51.72400 37.54000 22.65400
C  52.37200 39.46200 23.96100
N  48.03500 33.72400 24.47900
C  48.84200 34.31500 23.57300
C  49.10600 33.40300 22.28400
C  48.36900 32.12200 22.68700
C  47.76400 32.46100 24.03700
C  48.66100 34.05000 20.90700
C  49.35900 30.88700 22.93200
C  48.62400 29.49600 22.75100
N  46.78400 33.02700 26.86800
C  46.49200 31.92400 26.10900
C  45.51600 31.14400 26.77600
C  45.37800 31.69700 28.02100
C  46.11700 32.89900 28.04400
C  44.81500 29.89900 26.28500
C  44.67900 31.55200 29.34200
O  43.85400 30.70200 29.70500
C  44.99500 32.89900 30.18500
C  45.62000 32.49600 31.45500
O  46.76000 32.03800 31.51300
O  44.67100 32.60700 32.50000
C  45.07800 31.92400 33.70300
H  48.69500 38.64200 28.38900
H  50.17800 35.72200 22.80800
H  46.92700 30.57700 24.45800
H  45.34300 35.97600 30.95600
H  47.46100 37.89100 30.64100
H  45.38300 38.35200 28.56300
H  45.73400 39.20900 30.00600
H  44.67200 37.77700 30.10400
H  48.27100 36.07100 31.73200
H  47.66900 34.45500 31.72600
H  47.39800 35.21800 33.90800
H  45.86900 34.87700 33.20100
H  50.43500 40.37800 26.04500
H  51.72100 39.53200 26.99700
H  50.32800 39.68300 27.75300
H  51.60800 40.20900 24.17800
H  52.93200 39.65400 23.04600
H  53.09800 39.27600 24.75200
H  50.18000 33.25700 22.16800
H  47.62700 31.87300 21.92900
H  47.78200 33.69000 20.37100
H  49.56700 33.94700 20.30900
H  48.51000 35.12600 20.99800
H  49.73900 30.89400 23.95400
H  50.24300 30.99200 22.30400
H  47.62700 29.45600 22.31300
H  48.68800 28.88100 23.64800
H  49.15200 28.94600 21.97200
H  45.07900 29.66000 25.25500
H  43.76600 30.19500 26.30100
H  45.08700 29.09800 26.97300
H  44.03200 33.36700 30.38500
H  44.85100 32.45400 34.62800
H  46.12000 31.60700 33.65900
H  44.50500 31.01300 33.87500

