158

Mg 25.66100 0.56400 28.77700
C  27.53700 0.16400 31.64300
C  22.78600 0.92800 30.77500
C  23.78300 0.70500 26.06700
C  28.44400 -0.42700 26.92000
N  25.21400 0.30600 30.94000
C  26.18500 0.45300 31.91700
C  25.57100 0.82300 33.30500
C  24.05300 0.90100 32.98600
C  23.93700 0.67300 31.45200
C  23.35500 -0.16800 33.84100
C  26.17000 2.06000 33.95500
C  26.31300 1.88400 35.51400
H  25.75500 2.94900 36.49500
N  23.61900 0.89600 28.45900
C  22.63700 1.02800 29.38200
C  21.37000 1.20100 28.73900
C  21.62800 1.17900 27.29800
C  23.07100 0.85100 27.23900
C  20.04900 1.39300 29.44200
C  20.62800 1.37900 26.20200
O  20.85300 1.20200 25.06100
C  19.20700 1.84100 26.53200
N  26.00500 0.08500 26.81300
C  25.14300 0.46300 25.79800
C  25.76100 0.12900 24.37400
C  27.21800 -0.13100 24.71700
C  27.23500 -0.17100 26.18400
C  24.98100 -1.01100 23.69100
C  28.25200 0.96600 24.27600
C  28.47800 1.17000 22.73400
N  27.66900 0.06700 29.19300
C  28.71600 -0.24000 28.33200
C  29.83700 -0.36600 29.13100
C  29.45600 -0.13900 30.47900
C  28.12100 0.06000 30.44500
C  31.30100 -0.71000 28.75400
C  29.97200 -0.12100 31.78700
O  31.08400 -0.44300 32.15700
C  28.68500 0.07600 32.63900
C  28.53400 -0.99300 33.74100
O  27.88500 -1.95100 33.60500
O  29.04500 -0.47400 34.87800
C  28.79600 -1.18500 36.13000
H  21.91400 0.94600 31.43200
H  23.19100 0.67500 25.15000
H  29.30900 -0.65000 26.29200
H  25.80500 0.03400 34.01900
H  23.68900 1.88400 33.28400
H  22.60100 0.42500 34.35800
H  24.00000 -0.64300 34.58000
H  22.85200 -0.91200 33.22400
H  25.56100 2.92000 33.67300
H  27.17500 2.28200 33.59700
H  27.38800 1.86000 35.68900
H  25.82500 0.94800 35.78500
H  20.13100 1.35400 30.52800
H  19.36100 0.56300 29.28200
H  19.75100 2.42300 29.24500
H  19.16400 2.81100 27.02800
H  18.78900 1.08200 27.19300
H  18.56200 1.80600 25.65400
H  25.77500 0.93700 23.64200
H  27.56800 -1.08900 24.33300
H  24.47200 -1.65800 24.40500
H  25.66500 -1.51900 23.01200
H  24.29400 -0.64700 22.92600
H  29.24100 0.57800 24.52000
H  28.20200 1.90000 24.83600
H  28.51700 2.24600 22.56700
H  27.68100 0.70000 22.15800
H  29.39000 0.82700 22.24600
H  31.40200 -0.84200 27.67600
H  31.50700 -1.67200 29.22300
H  31.93000 0.14500 28.99800
H  28.86800 1.03500 33.12200
H  28.38400 -2.17400 35.92700
H  28.04100 -0.58700 36.64200
H  29.69300 -1.23100 36.74700
Mg 30.30800 58.25200 39.53900
C  27.24200 56.39200 38.55000
C  32.02600 55.51700 38.37600
C  32.94900 60.20800 39.86300
C  28.10200 61.04500 40.08800
N  29.54000 56.19200 38.66100
C  28.37100 55.66500 38.29800
C  28.56500 54.24300 37.68000
C  30.10300 54.06300 37.61000
C  30.63600 55.36200 38.26100
C  30.64200 52.74800 38.24700
C  27.67800 53.88500 36.47100
C  27.42300 55.01300 35.47100
H  28.05000 54.90300 34.08000
N  32.26000 57.94300 39.18300
C  32.77600 56.71500 38.77500
C  34.18000 56.87600 38.74300
C  34.57800 58.19500 39.16800
C  33.24400 58.84900 39.47400
C  35.08900 55.87200 38.32000
C  36.00800 58.69800 39.25700
O  37.02900 58.12500 38.96500
C  36.15700 60.04100 39.72900
N  30.47000 60.28300 40.09700
C  31.75900 60.86100 40.18800
C  31.60200 62.37600 40.30600
C  30.08500 62.59300 40.63400
C  29.47100 61.27200 40.19700
C  32.57000 62.97900 41.34400
C  29.54200 63.91500 40.00900
C  28.24800 64.57900 40.46300
N  28.15600 58.64500 39.58700
C  27.40700 59.82500 39.78300
C  26.01700 59.60500 39.58300
C  25.90800 58.30600 39.14300
C  27.21700 57.74800 39.15400
C  24.97700 60.64400 39.81200
C  24.93800 57.29800 38.71300
O  23.73500 57.31000 38.72600
C  25.76500 56.00800 38.47500
C  25.28500 54.83700 39.37700
O  25.55000 54.68400 40.57300
O  24.59800 53.89900 38.62500
C  23.98500 52.75800 39.27000
H  32.59500 54.64000 38.06000
H  33.75300 60.94400 39.93300
H  27.44400 61.91500 40.13800
H  28.23300 53.51300 38.41700
H  30.43200 53.97900 36.57400
H  31.36100 52.42600 37.49300
H  29.79300 52.09300 38.44300
H  31.14800 53.03600 39.16800
H  26.75600 53.46900 36.87700
H  28.06300 52.98500 35.99000
H  27.89000 55.95800 35.74700
H  26.34700 55.08200 35.30900
H  34.61500 54.96300 37.95200
H  35.65200 55.52400 39.18700
H  35.84300 56.10900 37.56900
H  35.54900 60.15200 40.62600
H  35.71100 60.58100 38.89400
H  37.19800 60.25300 39.97400
H  31.89000 62.81500 39.35000
H  30.00200 62.58100 41.72000
H  33.44500 63.45000 40.89700
H  32.81100 62.31200 42.17200
H  32.02900 63.74400 41.90000
H  29.49600 63.77200 38.92900
H  30.30500 64.64200 40.28500
H  27.45300 64.51200 39.72000
H  28.35200 65.66000 40.55100
H  27.89100 64.08000 41.36500
H  24.06000 60.29800 39.33400
H  25.33800 61.58100 39.38700
H  24.88700 60.73800 40.89400
H  25.57300 55.58000 37.49200
H  24.61000 51.86500 39.25300
H  23.06900 52.48500 38.74600
H  23.70100 53.02700 40.28700

