158

Mg 48.32800 24.38300 29.00600
C  49.33800 26.77100 31.39500
C  47.60900 22.23600 31.58200
C  47.49300 22.09500 26.62900
C  49.32900 26.63200 26.51000
N  48.58700 24.47900 31.19600
C  48.74000 25.62500 31.95600
C  48.40200 25.34700 33.41600
C  47.99500 23.83900 33.41100
C  48.02500 23.49000 31.92000
C  48.91300 22.88300 34.19500
C  47.31800 26.41900 33.85600
C  46.70400 26.20000 35.26400
H  47.03600 27.16600 36.47300
N  47.66000 22.45700 29.06100
C  47.40300 21.78600 30.21700
C  46.85200 20.48300 29.88100
C  46.77600 20.42100 28.40500
C  47.34300 21.67200 27.92200
C  46.44300 19.41600 30.87600
C  46.24000 19.33800 27.42800
O  46.30500 19.40800 26.18200
C  45.56200 18.20500 27.93700
N  48.45400 24.28300 26.86600
C  48.02800 23.27800 26.13300
C  48.23100 23.52200 24.65000
C  48.65100 25.05700 24.63600
C  48.82600 25.37100 26.07100
C  49.28100 22.59200 23.97500
C  47.66500 26.05700 23.85900
C  48.43000 27.17300 23.07400
N  49.16900 26.26800 28.89100
C  49.45300 27.09300 27.81600
C  50.12100 28.35700 28.25100
C  50.09600 28.28000 29.66800
C  49.51100 26.99600 30.00800
C  50.75300 29.47200 27.46900
C  50.31600 28.98000 30.93700
O  50.84400 30.11300 31.06500
C  49.78100 28.08700 32.02500
C  50.80000 27.85300 33.09100
O  51.73500 27.05400 33.06900
O  50.69700 28.73600 34.10200
C  51.50000 28.56300 35.23000
H  47.32500 21.48800 32.32500
H  47.19600 21.38300 25.85600
H  49.60100 27.25500 25.65600
H  49.27100 25.65100 34.00000
H  46.93300 23.70200 33.61400
H  49.75500 23.36000 34.69600
H  49.47700 22.16100 33.60400
H  48.35800 22.29500 34.92500
H  46.57600 26.55900 33.07000
H  47.79300 27.40000 33.87700
H  46.92700 25.18200 35.58500
H  45.63300 26.30000 35.08900
H  45.42800 19.10400 30.63100
H  46.36200 19.82100 31.88500
H  46.89400 18.42400 30.90000
H  46.18600 17.60900 28.60300
H  45.23700 17.61000 27.08300
H  44.66100 18.53800 28.45200
H  47.33500 23.47900 24.03200
H  49.57400 25.11600 24.06000
H  50.23800 22.99000 23.63400
H  48.87200 22.08000 23.10400
H  49.36900 21.77600 24.69200
H  47.11200 26.65800 24.58100
H  46.99800 25.47900 23.22000
H  48.24300 28.16900 23.47400
H  48.15900 27.23700 22.02000
H  49.50400 26.99200 23.02500
H  50.81000 29.24200 26.40500
H  51.76200 29.75300 27.77300
H  50.05900 30.26200 27.75700
H  48.97900 28.70900 32.42200
H  52.19100 29.39800 35.34600
H  52.23100 27.75500 35.25000
H  50.78500 28.53500 36.05200
Mg 48.87900 45.44400 44.34800
C  45.68200 45.98900 42.90300
C  48.99400 42.34000 43.04500
C  52.12000 45.47500 45.26400
C  48.78700 48.98800 45.32000
N  47.51600 44.43600 42.86900
C  46.20000 44.66600 42.69800
C  45.48500 43.48400 42.07000
C  46.46900 42.25100 42.45300
C  47.71800 43.06400 42.81800
C  46.12100 41.37300 43.70700
C  45.14100 43.63700 40.56000
C  43.69400 43.34000 40.23300
H  43.50600 42.14800 39.21700
N  50.29600 44.06800 44.19700
C  50.19400 42.85300 43.69500
C  51.46100 42.13500 43.80700
C  52.42800 43.00600 44.37100
C  51.66100 44.27700 44.61500
C  51.50700 40.65800 43.33600
C  53.84000 42.66300 44.71300
O  54.23800 41.47500 44.51600
C  54.83000 43.63100 45.27400
N  50.25600 47.05600 45.16500
C  51.53300 46.69300 45.57600
C  52.27100 47.90600 46.22400
C  51.09800 48.96200 46.37300
C  50.00200 48.30700 45.52600
C  53.00600 47.45400 47.51300
C  51.45900 50.41700 45.95700
C  51.11400 51.42600 47.06500
N  47.47600 47.16500 44.21900
C  47.53100 48.44300 44.71900
C  46.35700 49.12100 44.33000
C  45.60300 48.11400 43.61600
C  46.34000 47.02200 43.56300
C  45.91100 50.50400 44.70500
C  44.30700 47.86900 43.02000
O  43.40200 48.67500 42.94300
C  44.31900 46.50500 42.48200
C  43.16600 45.78300 43.03400
O  43.00000 45.40800 44.15400
O  42.32300 45.39300 42.00400
C  41.01900 44.78700 42.40800
H  48.87100 41.29900 42.74000
H  53.20100 45.50900 45.41600
H  48.85800 50.03700 45.61600
H  44.56900 43.36700 42.64800
H  46.50700 41.56100 41.61000
H  46.87700 41.36900 44.49300
H  46.11800 40.34000 43.35900
H  45.11800 41.49400 44.11500
H  45.85400 43.05500 39.97500
H  45.26800 44.69500 40.33000
H  43.06200 44.16400 39.90100
H  43.19200 42.99100 41.13500
H  51.20900 40.76100 42.29300
H  50.68000 40.10100 43.77700
H  52.48100 40.17100 43.35800
H  54.37900 44.09200 46.15300
H  54.96300 44.48700 44.61200
H  55.82400 43.21200 45.42900
H  53.02000 48.26000 45.51500
H  50.74400 48.96100 47.40400
H  54.08800 47.33300 47.46000
H  52.62800 46.47100 47.79400
H  52.71600 48.04600 48.38100
H  50.90700 50.74300 45.07600
H  52.54400 50.46500 45.86100
H  50.67800 52.29900 46.57900
H  52.04300 51.57000 47.61700
H  50.35400 50.99400 47.71500
H  44.93500 50.73500 44.27700
H  46.58400 51.27700 44.33500
H  45.89600 50.65600 45.78400
H  44.31500 46.42600 41.39500
H  40.59800 45.11600 43.35800
H  41.09200 43.71400 42.58500
H  40.22300 44.87600 41.66800

