158

Mg -1.25700 16.82700 26.37400
C  -1.92400 14.49400 28.96500
C  -1.79700 19.37500 28.68400
C  -1.25400 19.15600 23.92000
C  -1.58000 14.27600 24.04900
N  -1.81500 16.89400 28.54000
C  -1.86800 15.82900 29.42000
C  -1.83200 16.37900 30.86000
C  -1.97600 17.94200 30.71600
C  -1.78800 18.12200 29.20200
C  -3.50100 18.48600 31.17400
C  -0.47500 15.94900 31.61100
C  -0.28900 16.62600 32.98600
H  -0.37600 15.74200 34.28800
N  -1.34300 18.96000 26.31600
C  -1.63100 19.83200 27.39100
C  -1.65700 21.23500 26.91000
C  -1.53900 21.16900 25.50800
C  -1.32200 19.76500 25.18000
C  -1.87900 22.41800 27.85100
C  -1.67600 22.30000 24.54300
O  -1.74100 22.16300 23.31100
C  -1.87700 23.70500 25.06800
N  -1.45400 16.70500 24.29800
C  -1.30000 17.80800 23.51200
C  -1.24500 17.35400 21.95800
C  -1.02400 15.78200 22.08500
C  -1.42700 15.55800 23.52700
C  -2.48800 17.85500 21.15500
C  0.37100 15.19100 21.57000
C  1.52300 15.69600 22.41200
N  -1.65400 14.79400 26.43300
C  -1.76700 13.86200 25.37000
C  -1.88500 12.54300 25.94700
C  -2.01100 12.73300 27.31000
C  -1.81200 14.12500 27.54200
C  -1.95300 11.23900 25.22700
C  -2.14100 12.07000 28.58900
O  -2.13800 10.86700 28.83000
C  -2.44400 13.14700 29.63900
C  -1.69200 12.71500 30.85900
O  -0.51000 12.51800 30.78900
O  -2.47400 12.53800 31.93800
C  -1.84200 12.30100 33.22700
H  -1.85400 20.16200 29.43900
H  -1.18200 19.76300 23.01500
H  -1.41700 13.37100 23.45900
H  -2.75500 15.96900 31.26800
H  -1.18100 18.42800 31.28200
H  -3.35300 19.35500 31.81400
H  -4.06900 17.70100 31.67300
H  -4.01300 18.88200 30.29700
H  0.33600 16.29000 30.96700
H  -0.47600 14.85900 31.64600
H  -1.09300 17.33300 33.18800
H  0.56600 17.30100 32.93900
H  -2.76800 22.93000 27.48300
H  -0.99500 23.05400 27.89700
H  -1.98100 22.10700 28.89000
H  -2.85900 23.73700 25.53900
H  -1.97400 24.32400 24.17600
H  -1.05800 24.10800 25.66400
H  -0.36200 17.82800 21.53100
H  -1.83700 15.43000 21.44900
H  -3.08800 18.38000 21.89900
H  -3.14000 17.06800 20.77500
H  -2.25400 18.58900 20.38400
H  0.66500 15.62800 20.61600
H  0.41800 14.10300 21.62400
H  1.25700 16.01100 23.42000
H  1.92700 16.63500 22.03500
H  2.33800 14.97200 22.40200
H  -2.20200 11.36400 24.17400
H  -2.80700 10.76100 25.70600
H  -1.08000 10.59900 25.36100
H  -3.49100 13.18000 29.94200
H  -0.76400 12.14600 33.19800
H  -2.29600 11.48900 33.79400
H  -1.99100 13.13500 33.91300
Mg 47.13200 44.19900 43.13800
C  43.73900 43.37900 42.74500
C  47.83100 40.84400 42.42900
C  50.36500 45.08600 42.79800
C  46.23000 47.67200 42.77000
N  45.87300 42.30900 42.70000
C  44.52400 42.19700 42.67900
C  44.09200 40.75900 42.54800
C  45.45600 39.98600 42.55100
C  46.44600 41.07500 42.49500
C  45.64700 38.85800 43.56800
C  43.13700 40.54300 41.32500
C  43.57500 41.20800 39.99400
H  43.23900 40.48200 38.67000
N  48.87700 43.14800 42.71400
C  48.90000 41.78100 42.41300
C  50.25600 41.40200 42.19100
C  51.07500 42.59400 42.32000
C  50.11100 43.69900 42.56600
C  50.71600 39.94700 41.92300
C  52.55100 42.63600 42.04600
O  53.21100 41.65100 41.62800
C  53.22800 43.90800 42.17700
N  48.14500 46.14100 42.63300
C  49.51700 46.17900 42.90900
C  50.00100 47.65500 42.97600
C  48.65300 48.43700 42.87300
C  47.58200 47.34800 42.68000
C  50.98700 47.96500 44.18400
C  48.57000 49.52300 41.74500
C  48.41400 50.96800 42.27100
N  45.44800 45.37200 42.96600
C  45.18700 46.68500 42.85600
C  43.74000 46.96100 42.81500
C  43.17900 45.65700 42.81400
C  44.23100 44.75900 42.86000
C  43.02100 48.30000 42.74700
C  41.93200 45.02300 42.71100
O  40.77800 45.46200 42.53000
C  42.23400 43.49600 42.79800
C  41.74200 43.15300 44.16700
O  40.91600 42.29600 44.30600
O  42.35300 43.79700 45.21200
C  42.02500 43.24800 46.54400
H  48.13100 39.80300 42.29800
H  51.38900 45.39000 43.02500
H  45.90300 48.71200 42.83600
H  43.51900 40.48100 43.43200
H  45.52500 39.52400 41.56700
H  44.85700 38.58300 44.26700
H  46.43400 39.09800 44.28300
H  45.92500 37.95400 43.02600
H  42.15000 40.90800 41.60800
H  43.05800 39.47300 41.13200
H  44.65400 41.34500 40.06100
H  43.02600 42.14000 39.86200
H  51.78600 39.75100 41.85900
H  50.14600 39.51800 41.09900
H  50.46600 39.36600 42.81000
H  52.76400 44.62600 41.50100
H  54.26600 43.82300 41.85600
H  53.19600 44.19200 43.22900
H  50.50400 47.82100 42.02300
H  48.55300 48.91500 43.84800
H  52.00700 47.95200 43.80000
H  50.97800 47.13800 44.89300
H  50.63700 48.85600 44.70500
H  47.85500 49.16400 41.00500
H  49.55500 49.59600 41.28300
H  49.16000 51.66500 41.88800
H  48.56700 51.04500 43.34800
H  47.36100 51.22200 42.15300
H  42.06100 48.27400 43.26300
H  42.77700 48.51200 41.70600
H  43.71000 49.03300 43.16500
H  41.68900 42.95300 42.02600
H  42.68300 42.39900 46.72500
H  41.03500 42.81500 46.68800
H  42.14800 44.02000 47.30400

