158

Mg 0.86800 7.20600 25.41500
C  1.55400 8.90100 28.38000
C  1.15500 4.27000 27.20800
C  0.40300 5.47100 22.63500
C  1.11100 10.24000 23.68000
N  1.07100 6.67200 27.60500
C  1.29700 7.56700 28.55000
C  1.36100 6.82800 29.87500
C  1.55000 5.28900 29.47000
C  1.26000 5.38400 27.97100
C  2.78900 4.59200 29.97800
C  0.10300 7.07200 30.72100
C  0.44400 7.49800 32.20600
H  1.73700 6.97700 32.85900
N  0.78100 5.12800 24.96700
C  0.95200 4.06900 25.81000
C  0.86400 2.84800 25.07200
C  0.68500 3.25700 23.71600
C  0.67000 4.68600 23.69400
C  1.12800 1.53600 25.73400
C  0.56500 2.33600 22.46200
O  0.49000 2.79800 21.30900
C  0.47800 0.89900 22.63100
N  0.86400 7.75600 23.44000
C  0.39900 6.89000 22.51400
C  0.10700 7.60600 21.21100
C  0.34900 9.09700 21.49700
C  0.78000 9.08500 22.98600
C  0.97400 6.95300 20.09900
C  -0.87700 10.04000 21.38700
C  -0.79200 11.24700 20.37600
N  1.39200 9.19100 25.90400
C  1.40000 10.31600 25.12800
C  1.57900 11.49900 25.93900
C  1.66300 10.98900 27.24500
C  1.63100 9.52600 27.15900
C  1.53000 12.91600 25.27200
C  1.84100 11.35200 28.67600
O  2.01900 12.43600 29.21700
C  1.83700 9.95500 29.42900
C  3.15300 9.82100 30.12900
O  4.20200 9.43100 29.60400
O  3.12800 10.49000 31.40200
C  4.43500 10.67800 32.14000
H  1.37400 3.39300 27.82100
H  0.07000 4.96100 21.72900
H  1.11400 11.20100 23.16100
H  2.23600 7.29500 30.32900
H  0.74100 4.69000 29.88900
H  3.43600 5.30100 30.49400
H  3.38600 4.19200 29.15800
H  2.51000 3.80100 30.67400
H  -0.49000 6.15900 30.78200
H  -0.60000 7.75300 30.24100
H  -0.44600 7.24300 32.78200
H  0.48900 8.58200 32.31100
H  2.05500 1.15800 25.30300
H  0.34200 0.84900 25.42100
H  1.02600 1.54900 26.81900
H  1.48800 0.52500 22.79600
H  0.05000 0.33500 21.80200
H  -0.25200 0.81600 23.43600
H  -0.97200 7.54100 21.07500
H  1.18600 9.39100 20.86300
H  1.14100 7.64800 19.27600
H  0.45500 6.06400 19.74000
H  1.97000 6.70100 20.46200
H  -1.07200 10.50000 22.35700
H  -1.77600 9.48000 21.13000
H  -0.92000 12.16800 20.94400
H  -1.45700 11.14600 19.51900
H  0.21000 11.34200 19.95700
H  1.33400 13.54800 26.13800
H  0.71400 13.07500 24.56600
H  2.41400 13.28700 24.75300
H  1.03000 10.06300 30.15300
H  5.22000 10.77900 31.39100
H  4.82900 9.87900 32.76900
H  4.29700 11.59500 32.71300
Mg 17.11700 52.95000 26.17700
C  18.75500 51.11400 28.58600
C  14.70700 53.84400 28.54400
C  15.15200 54.26800 23.74900
C  19.13000 51.45300 23.83800
N  16.79500 52.52300 28.32800
C  17.63400 51.78100 29.10600
C  17.13200 51.82700 30.55600
C  15.75700 52.50100 30.48900
C  15.73200 52.97100 29.01500
C  14.55300 51.63400 30.90800
C  18.18100 52.65800 31.42800
C  18.58200 52.04400 32.70700
H  18.06000 52.71300 33.97700
N  15.32100 54.09100 26.14600
C  14.61600 54.45700 27.25900
C  13.60600 55.41400 26.83500
C  13.55300 55.33800 25.42600
C  14.68100 54.52400 25.01600
C  12.61200 56.02000 27.88500
C  12.57000 56.01000 24.40700
O  12.51000 55.90100 23.19500
C  11.38800 56.71400 25.09200
N  17.15100 52.86400 24.10400
C  16.30200 53.55500 23.36600
C  16.57500 53.34200 21.88600
C  18.07300 52.88200 21.90700
C  18.15600 52.37800 23.36100
C  15.54700 52.60800 20.99200
C  19.08300 53.95000 21.46700
C  20.37200 54.12600 22.27900
N  18.66500 51.55600 26.18200
C  19.31700 50.97200 25.14500
C  20.30200 50.08200 25.61100
C  20.14400 50.01600 27.04300
C  19.11700 51.01900 27.27400
C  21.39100 49.38500 24.87000
C  20.63500 49.54400 28.30700
O  21.52900 48.74000 28.58000
C  19.72000 50.19400 29.29600
C  19.01600 49.10000 30.09100
O  18.00400 48.45600 29.78700
O  19.78100 49.03800 31.27000
C  19.06200 48.35100 32.38000
H  13.93500 54.10600 29.27000
H  14.70000 54.84900 22.94200
H  19.93400 51.17500 23.15400
H  17.15900 50.80200 30.92600
H  15.75200 53.43100 31.05800
H  14.07200 51.89900 31.84900
H  14.90200 50.60200 30.90700
H  13.82400 51.72200 30.10200
H  17.83000 53.67000 31.62800
H  19.06500 52.92600 30.84800
H  19.67000 52.06700 32.75700
H  18.27400 50.99900 32.67000
H  12.30800 57.02200 27.58500
H  13.08300 56.05100 28.86800
H  11.76500 55.34100 27.78400
H  11.69200 57.66100 25.53800
H  10.78900 56.10100 25.76400
H  10.73900 57.04500 24.28100
H  16.51800 54.30700 21.38000
H  18.20200 52.08800 21.17200
H  15.06500 53.40400 20.42400
H  14.73300 52.29700 21.64700
H  16.00900 51.82600 20.39000
H  18.67200 54.95700 21.54100
H  19.46200 53.72700 20.46900
H  20.96700 53.26400 21.97600
H  20.27200 53.99800 23.35700
H  20.95500 55.02600 22.08500
H  21.93200 50.07200 24.21900
H  20.90400 48.62600 24.25800
H  22.04800 48.94200 25.62000
H  20.26800 50.74500 30.06100
H  19.34600 47.30000 32.41500
H  17.98900 48.53300 32.44600
H  19.37000 48.64200 33.38400

