158

Mg 44.64900 4.57900 47.79300
C  42.38700 7.22900 47.22600
C  42.10500 2.32100 47.90700
C  47.00000 2.07100 47.56600
C  47.26700 6.85900 47.05700
N  42.54400 4.80300 47.76200
C  41.83800 5.94200 47.36200
C  40.33800 5.66500 47.32700
C  40.25800 4.10500 47.59600
C  41.71900 3.70200 47.83900
C  39.22800 3.58400 48.67600
C  39.78600 5.98000 45.86800
C  38.78300 7.14700 45.86900
H  38.66400 8.12000 44.70500
N  44.58700 2.44300 47.62600
C  43.38300 1.76100 47.88700
C  43.69800 0.34600 47.98600
C  45.10500 0.23200 47.77100
C  45.64700 1.59100 47.63400
C  42.58600 -0.69400 48.00400
C  45.96100 -1.02700 47.74800
O  45.37000 -2.12400 47.87400
C  47.37400 -1.05600 47.44000
N  46.78800 4.49500 47.14400
C  47.51500 3.30200 47.26900
C  48.99800 3.50700 47.04500
C  49.08100 5.11700 47.08400
C  47.63100 5.52700 47.09200
C  49.93400 2.88000 48.11100
C  49.99300 5.85000 46.01100
C  51.35000 6.39300 46.49300
N  44.81900 6.68500 47.34300
C  45.93500 7.38600 47.09300
C  45.59000 8.78000 46.81200
C  44.17300 8.81400 46.93200
C  43.75800 7.48800 47.21900
C  46.60000 9.87100 46.52100
C  42.89500 9.60500 46.95800
O  42.73000 10.86600 46.88600
C  41.69800 8.55600 47.05400
C  40.78300 8.81100 48.21300
O  40.79000 8.28900 49.34900
O  39.94300 9.86200 47.95800
C  38.84000 10.14100 48.87200
H  41.18000 1.74600 47.98300
H  47.83700 1.37100 47.50600
H  48.01300 7.65500 47.00500
H  39.78100 6.19300 48.10100
H  40.03200 3.54800 46.68700
H  38.41200 4.29500 48.80500
H  39.73300 3.40300 49.62400
H  38.77600 2.64600 48.35500
H  39.30400 5.05500 45.55100
H  40.56300 6.26400 45.15800
H  38.78800 7.76300 46.76800
H  37.84300 6.59600 45.89300
H  41.53900 -0.43200 47.85000
H  42.62200 -1.32800 48.89000
H  42.80100 -1.39600 47.19900
H  47.57000 -0.61700 46.46100
H  47.72800 -2.08600 47.40000
H  47.87700 -0.55400 48.26700
H  49.19700 3.18800 46.02100
H  49.37200 5.42900 48.08700
H  49.38300 2.19400 48.75400
H  50.32000 3.60800 48.82500
H  50.76500 2.28300 47.73400
H  49.40400 6.64200 45.54700
H  50.26700 5.15600 45.21700
H  51.28600 7.47800 46.41100
H  52.14200 5.97500 45.87100
H  51.50400 6.08600 47.52700
H  47.09300 10.22900 47.42500
H  46.23100 10.77400 46.03400
H  47.45800 9.52400 45.94500
H  41.13700 8.56600 46.11900
H  38.73700 11.22400 48.94300
H  38.78900 9.75300 49.89000
H  37.97800 9.79500 48.30300
Mg 45.98600 25.30900 28.26700
C  46.83100 27.36700 30.91100
C  45.04900 22.89700 30.69100
C  45.13400 23.27300 25.76800
C  47.36800 27.56800 26.02800
N  45.94700 25.09800 30.57100
C  46.29000 26.13900 31.44800
C  46.14300 25.74900 32.94300
C  45.78100 24.15000 32.81500
C  45.56600 24.05400 31.27000
C  46.76600 23.27200 33.56000
C  45.15600 26.67500 33.66500
C  45.54300 27.01100 35.09000
H  44.52900 27.27800 36.17400
N  45.11700 23.45400 28.23400
C  44.83100 22.60200 29.29700
C  44.19000 21.42500 28.79400
C  44.26000 21.45000 27.38800
C  44.89800 22.71900 27.04100
C  43.66400 20.31400 29.66600
C  43.91500 20.31600 26.41800
O  44.13700 20.40000 25.19400
C  43.25200 19.03200 26.93600
N  46.14900 25.44700 26.16000
C  45.71200 24.51600 25.33900
C  46.07700 24.85100 23.89300
C  46.54300 26.33600 24.00800
C  46.71700 26.50800 25.51800
C  47.10500 23.93700 23.10500
C  45.48100 27.46100 23.54800
C  46.00100 28.46700 22.49500
N  47.10100 26.94200 28.36300
C  47.59900 27.81200 27.41700
C  48.26200 28.90300 28.10100
C  47.86000 28.77100 29.40900
C  47.21900 27.56900 29.60200
C  49.02200 30.06200 27.58400
C  48.16200 29.40200 30.67400
O  48.75400 30.46200 30.92600
C  47.25000 28.58500 31.69900
C  48.12100 28.43700 32.92200
O  49.06500 27.68500 32.96100
O  47.82400 29.42500 33.89600
C  48.87200 29.67900 34.93600
H  44.75200 22.23200 31.50500
H  44.82600 22.66700 24.91400
H  47.67800 28.37200 25.35800
H  47.08600 25.86700 33.47800
H  44.81800 24.08100 33.32200
H  46.24800 22.67000 34.30600
H  47.59000 23.86800 33.95400
H  47.18000 22.46900 32.95000
H  44.24700 26.08400 33.77800
H  44.88000 27.49800 33.00600
H  46.17600 27.89400 35.00400
H  46.06600 26.14800 35.50200
H  42.57500 20.31400 29.64400
H  43.93400 20.43500 30.71500
H  44.17200 19.39000 29.38900
H  44.01100 18.46500 27.47600
H  42.86800 18.44800 26.10000
H  42.50000 19.43900 27.61100
H  45.12800 24.91100 23.36200
H  47.48100 26.56400 23.50100
H  47.83000 24.50100 22.51700
H  46.59000 23.35000 22.34400
H  47.60100 23.18800 23.72100
H  45.09300 28.07400 24.36000
H  44.59700 26.96600 23.14700
H  47.07300 28.33100 22.35200
H  45.87600 29.52300 22.73600
H  45.61700 28.33400 21.48400
H  49.82600 30.13800 28.31600
H  48.42800 30.94400 27.82300
H  49.32400 30.00000 26.53900
H  46.33600 29.13800 31.91700
H  49.90500 29.47000 34.65900
H  48.60600 28.96500 35.71600
H  48.77700 30.74200 35.15800

