158

Mg 26.36600 1.00100 29.09900
C  28.17800 0.44000 32.02700
C  23.39700 0.89300 30.92100
C  24.53400 1.36000 26.25200
C  29.17700 0.53700 27.22900
N  25.92700 0.59300 31.20500
C  26.78500 0.59700 32.22300
C  26.05700 0.73200 33.57500
C  24.55000 0.52400 33.21100
C  24.63800 0.78100 31.66100
C  24.02400 -0.90800 33.44500
C  26.39500 2.03600 34.29200
C  26.77800 1.98700 35.79000
H  26.17300 3.02600 36.77900
N  24.15600 1.04300 28.64700
C  23.18300 0.99100 29.54900
C  21.95300 0.98600 28.83800
C  22.20600 1.29000 27.47700
C  23.70900 1.29100 27.40500
C  20.70000 0.63800 29.58600
C  21.20700 1.62600 26.35400
O  21.58800 1.85300 25.19700
C  19.67900 1.63100 26.53300
N  26.80600 1.04200 27.05800
C  25.88800 1.28900 26.05900
C  26.57300 1.19600 24.65800
C  28.05400 1.11000 25.00600
C  28.04900 0.89400 26.54300
C  25.94000 -0.00600 23.90300
C  29.01500 2.37200 24.69700
C  30.47000 2.04900 24.29600
N  28.38800 0.63700 29.48300
C  29.44400 0.41500 28.59200
C  30.64100 0.01600 29.45500
C  30.15600 0.13500 30.80800
C  28.78300 0.38400 30.74300
C  32.04800 -0.36800 29.04700
C  30.57800 0.11100 32.17900
O  31.70800 -0.08500 32.58300
C  29.23700 0.29300 33.09200
C  29.09700 -0.99500 33.84300
O  28.84100 -2.07900 33.43200
O  29.26200 -0.75000 35.21200
C  29.13300 -1.88300 36.17000
H  22.47300 0.83700 31.49900
H  24.04900 1.54000 25.29000
H  30.05700 0.35700 26.60800
H  26.41000 -0.08300 34.20700
H  23.93500 1.15600 33.85200
H  23.80900 -1.09700 34.49700
H  24.88400 -1.56800 33.33500
H  23.32300 -1.22800 32.67400
H  25.57500 2.75400 34.32500
H  27.16900 2.60800 33.78000
H  27.84200 2.17700 35.65200
H  26.69300 0.97300 36.18300
H  20.67800 1.33500 30.42400
H  20.54900 -0.38800 29.92000
H  19.82000 0.91200 29.00300
H  19.37500 0.62400 26.81900
H  19.13300 2.05900 25.69200
H  19.38700 2.34100 27.30700
H  26.26100 2.11500 24.16200
H  28.45100 0.16300 24.63800
H  26.62100 -0.77400 23.53800
H  25.46600 0.31900 22.97700
H  25.12200 -0.48500 24.44000
H  28.94600 3.07400 25.52800
H  28.67800 2.86600 23.78600
H  30.61300 2.31500 23.24800
H  30.55700 0.96300 24.33900
H  31.16000 2.56700 24.96200
H  32.68900 0.21500 29.70800
H  32.25200 -0.16900 27.99500
H  32.30600 -1.41600 29.20500
H  29.24100 1.15500 33.75800
H  29.95000 -1.93000 36.89000
H  29.07000 -2.84000 35.65100
H  28.26600 -1.72100 36.81000
Mg 0.91200 43.62200 25.91900
C  3.08600 43.24300 28.70100
C  -1.79300 42.93200 28.15000
C  -1.20200 43.52400 23.32400
C  3.57500 43.74200 23.83300
N  0.65800 43.19700 28.23900
C  1.67600 43.20000 29.14200
C  1.19200 43.10500 30.55200
C  -0.34200 42.75600 30.35400
C  -0.52300 42.94900 28.82200
C  -0.83000 41.34800 30.85100
C  1.48900 44.36500 31.42100
C  1.66800 44.22000 32.90700
H  1.04200 43.01300 33.65000
N  -1.23600 43.36300 25.79200
C  -2.16000 43.19700 26.81500
C  -3.47900 43.18600 26.24000
C  -3.31500 43.25500 24.84200
C  -1.88900 43.36100 24.57700
C  -4.69500 42.96800 27.08800
C  -4.41700 43.22300 23.75900
O  -4.18900 43.11600 22.52500
C  -5.85700 43.35500 24.22500
N  1.10300 43.49200 23.87300
C  0.13200 43.67700 22.98800
C  0.67800 43.85100 21.58200
C  2.17500 44.23300 21.78200
C  2.29500 43.84500 23.24300
C  0.42700 42.62100 20.81100
C  2.49600 45.77000 21.55200
C  3.82500 46.07400 20.81100
N  2.86500 43.40900 26.12900
C  3.84900 43.42900 25.18500
C  5.20200 43.39600 25.83300
C  4.95500 43.30300 27.16000
C  3.50600 43.37700 27.35000
C  6.50100 43.46300 25.12400
C  5.56600 43.21600 28.43600
O  6.74500 43.09800 28.77700
C  4.44800 43.26300 29.40900
C  4.56000 42.04700 30.25200
O  4.19900 40.93400 29.93600
O  5.13800 42.39000 31.44200
C  5.10400 41.35900 32.57900
H  -2.60200 42.59800 28.80400
H  -1.81600 43.49200 22.42100
H  4.44300 44.00500 23.22400
H  1.78100 42.26800 30.92700
H  -0.94900 43.56800 30.75400
H  -0.11400 40.59400 31.17700
H  -1.29400 40.91000 29.96700
H  -1.62700 41.64400 31.53300
H  0.79700 45.17600 31.19400
H  2.46700 44.75400 31.14000
H  1.27100 45.09400 33.42400
H  2.72300 44.29000 33.17200
H  -5.23600 43.86500 27.38800
H  -4.46600 42.46000 28.02400
H  -5.33200 42.27200 26.54200
H  -6.19700 42.41000 24.64900
H  -6.28300 43.55400 23.24200
H  -5.98600 44.29900 24.75600
H  0.16400 44.69600 21.12400
H  2.85200 43.68300 21.12800
H  -0.18800 41.87600 21.31700
H  1.35800 42.05500 20.82300
H  -0.02100 42.75900 19.82700
H  2.67000 46.24000 22.51900
H  1.66600 46.26900 21.05200
H  4.58100 46.53000 21.45000
H  3.65400 46.77100 19.99000
H  4.17700 45.24500 20.19800
H  6.60800 42.77300 24.28700
H  7.26900 43.04100 25.77100
H  6.77900 44.45400 24.76400
H  4.33300 44.14300 30.04200
H  4.86700 41.81800 33.53900
H  6.07000 40.93600 32.85700
H  4.47500 40.48800 32.39500

