158

Mg 7.09400 53.74100 41.29200
C  6.27400 50.31700 40.66900
C  10.24700 53.08500 39.82800
C  7.68600 57.12900 41.05000
C  3.74000 54.25300 41.87800
N  8.16300 51.87400 40.50900
C  7.61600 50.62500 40.27500
C  8.58300 49.78800 39.47400
C  9.95300 50.53400 39.71900
C  9.44100 51.93200 40.10100
C  10.96000 49.97700 40.74600
C  8.13900 49.63500 37.96500
C  8.36100 48.31200 37.31900
H  7.44400 47.95100 36.22900
N  8.68700 54.93000 40.59900
C  9.91000 54.43600 40.09400
C  10.82500 55.56200 40.04100
C  10.16400 56.74700 40.45800
C  8.79500 56.31900 40.78000
C  12.29700 55.39300 39.67800
C  10.84900 58.11200 40.68400
O  12.09400 58.09500 40.62200
C  10.16600 59.42900 41.04000
N  5.85400 55.35800 41.20700
C  6.34800 56.70800 41.15900
C  5.22000 57.75200 41.34900
C  4.03200 56.78500 41.75400
C  4.53300 55.35400 41.56900
C  5.41700 58.86600 42.37700
C  2.74400 57.10100 40.90400
C  2.81800 56.78400 39.38700
N  5.38100 52.48900 41.52500
C  4.11000 52.85700 41.74900
C  3.33000 51.75600 42.14100
C  4.11300 50.66500 41.72100
C  5.32600 51.23900 41.25300
C  1.86300 51.87600 42.54700
C  4.16800 49.26400 41.49800
O  3.44700 48.30100 41.74500
C  5.59400 48.98600 40.84700
C  5.28700 48.20000 39.61300
O  4.96700 48.73200 38.55000
O  5.33700 46.84200 39.74700
C  4.80400 45.95700 38.67600
H  11.26800 52.83800 39.52900
H  7.85100 58.20200 40.92900
H  2.72300 54.42400 42.23800
H  8.65200 48.80100 39.93200
H  10.44800 50.59000 38.74900
H  11.88700 49.99100 40.17300
H  10.67600 48.97800 41.07500
H  11.07300 50.72100 41.53400
H  8.76700 50.34800 37.43000
H  7.10900 49.97600 37.86400
H  8.30100 47.56800 38.11400
H  9.37700 48.38100 36.93000
H  12.52800 54.40000 39.29300
H  13.00500 55.45300 40.50500
H  12.54200 56.16400 38.94800
H  9.37300 59.28200 41.77300
H  9.67300 59.90400 40.19100
H  10.88000 60.11800 41.49200
H  5.02900 58.11800 40.34100
H  3.71400 56.83400 42.79500
H  6.03700 58.54400 43.21400
H  4.46000 59.32300 42.62800
H  6.14100 59.57600 41.97700
H  2.62700 58.18500 40.93200
H  1.82900 56.77800 41.40000
H  2.08300 56.03700 39.08800
H  3.79000 56.46000 39.01400
H  2.57200 57.71500 38.87500
H  1.43900 52.57300 41.82500
H  1.61300 52.25200 43.53900
H  1.40200 50.88900 42.57900
H  6.14300 48.34000 41.53200
H  4.06200 45.19300 38.90800
H  5.50200 45.34100 38.10900
H  4.29300 46.63500 37.99300
Mg -1.80900 33.81000 25.95700
C  -3.77500 32.51600 28.58200
C  -0.55600 36.00700 28.07400
C  -0.40200 35.29600 23.20100
C  -3.62700 31.97900 23.65500
N  -2.14700 34.21100 28.04100
C  -2.86900 33.49900 28.96900
C  -2.63100 33.89700 30.44300
C  -1.73400 35.19500 30.26800
C  -1.44600 35.15300 28.67500
C  -2.46300 36.51000 30.62700
C  -1.92500 32.81900 31.35300
C  -2.79900 32.18900 32.46100
H  -2.06200 31.78100 33.64800
N  -0.56200 35.39100 25.67000
C  -0.08500 36.11700 26.72800
C  0.90400 37.04500 26.18000
C  0.92300 36.93600 24.81400
C  -0.05400 35.84800 24.50700
C  1.67900 37.98400 27.01400
C  1.67300 37.68600 23.77900
O  1.59600 37.37900 22.65700
C  2.55500 38.75500 24.12700
N  -1.98500 33.66800 23.66300
C  -1.27800 34.35800 22.84700
C  -1.54200 34.01500 21.41600
C  -2.43000 32.75200 21.53200
C  -2.77100 32.87500 23.03500
C  -1.98300 35.16600 20.41800
C  -1.64200 31.41800 21.31100
C  -2.46700 30.27200 20.71000
N  -3.31300 32.42400 26.04900
C  -3.92400 31.73800 25.05100
C  -4.90400 30.86100 25.67300
C  -4.84400 31.09100 27.04200
C  -3.88400 32.06400 27.21700
C  -5.82300 29.95200 24.91900
C  -5.47300 30.77400 28.23100
O  -6.33300 29.94500 28.44200
C  -4.72100 31.63000 29.37900
C  -5.82100 32.37700 30.16000
O  -6.65900 33.10200 29.73700
O  -5.70300 31.91200 31.46900
C  -6.66700 32.45000 32.49600
H  -0.17000 36.70800 28.81800
H  0.12500 35.82900 22.40600
H  -4.18500 31.38200 22.93100
H  -3.62900 34.06400 30.84900
H  -0.81000 35.13100 30.84200
H  -2.12600 36.86100 31.60200
H  -3.49500 36.33600 30.93100
H  -2.49200 37.34200 29.92300
H  -1.05300 33.28600 31.81000
H  -1.64600 32.05000 30.63200
H  -3.29000 31.26800 32.14300
H  -3.62700 32.82000 32.78400
H  1.41600 37.92400 28.07000
H  1.57900 38.99600 26.62200
H  2.71500 37.66100 26.91000
H  1.89400 39.46600 24.62300
H  3.01100 39.22400 23.25600
H  3.31000 38.47900 24.86300
H  -0.55400 33.76800 21.02700
H  -3.31800 32.74800 20.90000
H  -1.88400 36.14700 20.88200
H  -3.01900 34.96200 20.14800
H  -1.46000 35.08800 19.46500
H  -1.27800 30.94700 22.22500
H  -0.73800 31.59400 20.72800
H  -1.84800 29.52200 20.21800
H  -3.13700 30.54900 19.89600
H  -3.06700 29.81300 21.49600
H  -5.38200 29.73600 23.94600
H  -6.78600 30.36100 24.61300
H  -5.81500 29.04100 25.51800
H  -4.24500 30.89100 30.02300
H  -7.66300 32.63300 32.09400
H  -6.32000 33.38600 32.93400
H  -6.77500 31.59700 33.16700

