158

Mg 25.83900 1.01200 29.13800
C  27.67600 0.56300 32.14200
C  23.04700 1.22500 30.99700
C  24.06300 1.11600 26.33200
C  28.75400 0.11100 27.42900
N  25.38400 0.65000 31.42900
C  26.29200 0.70400 32.40200
C  25.58000 0.81100 33.78300
C  24.04000 0.95800 33.39000
C  24.13300 0.88900 31.84600
C  23.09500 -0.10800 33.88700
C  26.30800 1.97800 34.56000
C  25.56600 2.69400 35.67300
H  26.10000 2.34300 37.14100
N  23.75900 1.11400 28.72500
C  22.81000 1.36300 29.63200
C  21.55900 1.61000 28.90900
C  21.78900 1.51900 27.50200
C  23.21500 1.19000 27.42800
C  20.19800 1.90900 29.63000
C  20.92800 1.81100 26.33600
O  21.26300 1.67300 25.15500
C  19.51500 2.20800 26.53100
N  26.36800 0.68300 27.12600
C  25.42400 0.86800 26.14600
C  26.04600 0.75900 24.75800
C  27.59900 0.59100 25.11600
C  27.62900 0.45000 26.63500
C  25.45000 -0.41900 23.87000
C  28.52400 1.85100 24.65600
C  29.95800 1.38000 24.14000
N  27.84700 0.51200 29.62100
C  28.87600 0.13300 28.81400
C  30.08300 -0.22800 29.56500
C  29.66200 0.05800 30.87800
C  28.30700 0.40200 30.88300
C  31.43100 -0.68700 29.01300
C  30.03700 -0.01100 32.27400
O  31.14700 -0.22400 32.73800
C  28.81500 0.29900 33.16900
C  28.54300 -0.85200 34.10700
O  27.86300 -1.79100 33.89000
O  29.14200 -0.53100 35.30600
C  28.65500 -1.44900 36.38600
H  22.10600 1.40700 31.51900
H  23.54600 1.07400 25.37100
H  29.64700 -0.23000 26.90100
H  25.72100 -0.18800 34.19400
H  23.60300 1.91700 33.66900
H  23.60700 -0.82600 34.52700
H  22.66800 -0.73500 33.10500
H  22.30700 0.31800 34.50900
H  26.50400 2.80700 33.88000
H  27.26100 1.64100 34.96900
H  24.53000 2.36000 35.73100
H  25.66300 3.75200 35.42900
H  19.60300 1.00000 29.54100
H  19.68400 2.75100 29.16600
H  20.30500 2.15200 30.68700
H  19.11000 2.47300 25.55400
H  19.48000 3.03000 27.24600
H  18.99200 1.31200 26.86400
H  25.85700 1.70000 24.24200
H  28.06000 -0.35900 24.84500
H  24.99400 -1.15400 24.53300
H  26.25000 -0.81100 23.24200
H  24.71000 0.06300 23.23000
H  28.60800 2.46800 25.55000
H  28.06300 2.54800 23.95600
H  30.72300 1.77600 24.80700
H  30.18500 1.81500 23.16600
H  30.00600 0.29100 24.15300
H  31.94700 0.13900 28.52300
H  31.31300 -1.31300 28.12800
H  32.19900 -1.09300 29.67000
H  28.89900 1.21000 33.76200
H  28.81400 -2.49500 36.12300
H  27.57500 -1.39800 36.52400
H  29.06300 -1.22500 37.37100
Mg 30.50300 57.67900 40.96100
C  27.62300 55.96400 39.79600
C  32.56900 55.11200 39.58600
C  33.13300 59.75500 41.07500
C  28.38300 60.32800 41.97500
N  30.11400 55.95400 39.72200
C  28.88100 55.34300 39.43300
C  29.09700 54.04400 38.68200
C  30.47500 53.57900 39.27400
C  31.15200 55.00000 39.46600
C  30.36800 52.97900 40.63600
C  28.90600 53.93200 37.19300
C  29.02400 55.22100 36.28200
H  27.85000 55.50600 35.40000
N  32.65000 57.45200 40.49600
C  33.24000 56.31200 39.94000
C  34.66700 56.53400 39.83200
C  34.84200 57.92100 40.20200
C  33.50700 58.47200 40.67500
C  35.69100 55.45800 39.45200
C  36.20200 58.57800 40.18800
O  37.16700 57.88500 39.93000
C  36.50200 60.02800 40.62300
N  30.77000 59.70200 41.60800
C  31.95800 60.32800 41.56300
C  31.87000 61.84100 41.79700
C  30.39500 62.00700 42.29100
C  29.77500 60.60700 42.01500
C  32.89700 62.49300 42.68400
C  29.61200 63.03600 41.35500
C  28.66800 63.91700 42.14800
N  28.43000 58.04800 40.94600
C  27.70600 59.16000 41.39100
C  26.30700 58.86700 41.13500
C  26.20700 57.63300 40.52700
C  27.51600 57.19400 40.45200
C  25.14000 59.75300 41.42700
C  25.32100 56.72100 39.99300
O  24.05700 56.74300 39.88000
C  26.25000 55.53500 39.36700
C  25.82700 54.24600 40.06700
O  25.98000 54.02500 41.26900
O  24.95200 53.51900 39.23500
C  24.36500 52.28000 39.83900
H  33.22500 54.26100 39.39100
H  33.96200 60.46300 41.14700
H  27.70400 61.11400 42.31200
H  28.39300 53.30900 39.07200
H  31.13700 53.06600 38.57600
H  29.34300 52.83700 40.97800
H  30.85900 53.54000 41.43100
H  30.88100 52.01800 40.57700
H  27.84900 53.70300 37.05500
H  29.68900 53.26700 36.83000
H  29.82600 54.95800 35.59200
H  29.22400 56.09300 36.90500
H  36.11100 55.57900 38.45400
H  35.22200 54.49400 39.64900
H  36.49100 55.52000 40.19000
H  35.73000 60.67200 40.20100
H  37.49500 60.38900 40.35800
H  36.32900 60.10300 41.69700
H  31.98600 62.30500 40.81800
H  30.45800 62.13500 43.37100
H  32.96500 61.88700 43.58800
H  32.50500 63.46600 42.98000
H  33.78000 62.64700 42.06300
H  29.05400 62.48000 40.60100
H  30.27700 63.72100 40.83100
H  29.01600 64.94900 42.10100
H  28.59600 63.55200 43.17300
H  27.66000 63.83100 41.74000
H  24.97200 60.55300 40.70600
H  25.45100 60.32600 42.30000
H  24.15900 59.27800 41.40100
H  26.14200 55.48100 38.28400
H  23.54000 51.92300 39.22200
H  23.85700 52.51100 40.77500
H  25.15300 51.52800 39.80600

