158

Mg 1.76700 -2.04700 44.86000
C  4.87100 -1.10200 43.88300
C  0.39100 0.44900 42.77600
C  -1.42000 -3.31900 45.48300
C  3.02000 -5.07800 46.14600
N  2.54100 -0.60100 43.43100
C  3.88600 -0.35800 43.22600
C  4.15200 0.84200 42.31100
C  2.66900 1.37200 42.13300
C  1.75300 0.30400 42.76100
C  2.40500 2.85200 42.68500
C  4.74300 0.44200 40.90100
C  6.12100 1.03700 40.60600
H  6.28300 1.81700 39.23100
N  -0.19800 -1.53000 44.21900
C  -0.52900 -0.47800 43.39600
C  -1.97500 -0.34400 43.39300
C  -2.54100 -1.34400 44.18600
C  -1.35800 -2.14600 44.65900
C  -2.75000 0.74200 42.61000
C  -3.95500 -1.46100 44.52200
O  -4.74600 -0.68900 44.02500
C  -4.48000 -2.40300 45.51700
N  0.87900 -4.11100 45.45100
C  -0.38800 -4.22400 45.85400
C  -0.70400 -5.55400 46.49900
C  0.74400 -6.12200 46.78500
C  1.64600 -5.07400 46.06000
C  -1.74400 -5.51200 47.71500
C  1.02500 -7.50900 46.21100
C  -0.19000 -8.48700 46.30400
N  3.52500 -2.93700 45.01100
C  3.95600 -4.16300 45.56300
C  5.42400 -4.20600 45.48400
C  5.81300 -3.05500 44.84300
C  4.61900 -2.27500 44.61200
C  6.23600 -5.27800 46.13400
C  6.94200 -2.24600 44.49400
O  8.12400 -2.58300 44.53900
C  6.34700 -0.94600 43.83900
C  6.84100 0.29100 44.46600
O  7.35800 1.18700 43.83500
O  6.60500 0.34400 45.80400
C  6.81300 1.66200 46.50700
H  -0.09800 1.32100 42.33600
H  -2.37200 -3.65900 45.89500
H  3.49300 -5.86200 46.74100
H  4.69800 1.65100 42.79600
H  2.39500 1.53600 41.09100
H  2.08400 3.58000 41.94000
H  3.24200 3.22700 43.27400
H  1.56400 2.72900 43.36800
H  4.12200 0.42100 40.00600
H  4.96000 -0.61800 41.03500
H  6.72900 0.13800 40.50700
H  6.38000 1.72900 41.40800
H  -2.18400 1.67000 42.54000
H  -3.70900 1.01300 43.05200
H  -2.96500 0.33700 41.62100
H  -3.90900 -2.44900 46.44400
H  -4.59800 -3.40300 45.10100
H  -5.43500 -1.97300 45.81800
H  -1.29900 -6.05900 45.73800
H  0.99100 -5.98100 47.83700
H  -2.79200 -5.65000 47.44900
H  -1.74400 -4.53200 48.19200
H  -1.40300 -6.25400 48.43700
H  1.84300 -7.95700 46.77500
H  1.30900 -7.56000 45.16000
H  -0.66200 -8.77900 45.36600
H  -0.88100 -8.04500 47.02200
H  0.14200 -9.43700 46.72200
H  7.24200 -4.88700 46.28600
H  6.22000 -6.12800 45.45200
H  5.86400 -5.63100 47.09600
H  6.65400 -0.94800 42.79300
H  6.06100 1.71200 47.29400
H  6.58500 2.49600 45.84300
H  7.80300 1.71600 46.95900
Mg 17.02800 -1.29100 27.57500
C  16.00500 0.83800 30.12900
C  19.11100 -2.90300 29.68900
C  18.50800 -2.73900 24.84100
C  15.30300 0.87700 25.28700
N  17.64100 -0.90800 29.56500
C  17.00200 -0.08800 30.51800
C  17.29000 -0.51300 31.94000
C  18.46900 -1.52900 31.74100
C  18.54500 -1.73900 30.17900
C  19.85500 -1.05000 32.31800
C  16.06400 -1.21800 32.68200
C  15.81500 -0.69800 34.12600
H  16.90100 0.15100 34.82900
N  18.49900 -2.75600 27.34200
C  19.14400 -3.34000 28.35100
C  19.96300 -4.36800 27.81100
C  19.84900 -4.33300 26.34700
C  18.93900 -3.21700 26.10600
C  20.84100 -5.34400 28.60000
C  20.54200 -5.18500 25.31100
O  20.28200 -5.04800 24.11100
C  21.53300 -6.30300 25.69100
N  16.97000 -0.89200 25.37400
C  17.65000 -1.69700 24.52600
C  17.61000 -1.08800 23.11100
C  16.31700 -0.24400 23.18100
C  16.17100 -0.07600 24.66400
C  18.88400 -0.31400 22.70400
C  15.11900 -0.94400 22.62500
C  14.96600 -0.63000 21.07100
N  15.78600 0.48900 27.63600
C  15.14000 1.24600 26.71200
C  14.32800 2.19400 27.41700
C  14.59600 2.05600 28.76900
C  15.56000 1.10300 28.82400
C  13.42100 3.24300 26.82700
C  14.31100 2.56100 30.07800
O  13.53400 3.45200 30.41400
C  15.30000 1.89400 31.05200
C  16.17600 3.07300 31.50400
O  16.77800 3.85900 30.76600
O  16.16900 3.20800 32.88800
C  16.74700 4.47600 33.34700
H  19.70200 -3.35200 30.48900
H  18.92500 -3.18200 23.93400
H  14.70500 1.48700 24.60600
H  17.77600 0.33400 32.42300
H  18.19200 -2.47900 32.19800
H  20.37200 -0.42100 31.59300
H  20.39900 -1.97400 32.51000
H  19.62600 -0.50600 33.23500
H  16.10400 -2.27500 32.94500
H  15.19000 -1.03500 32.05700
H  15.68600 -1.53700 34.80900
H  14.87500 -0.14700 34.13000
H  21.87700 -5.12200 28.34400
H  20.66200 -6.36800 28.27200
H  20.64800 -5.32700 29.67200
H  21.12100 -7.05200 26.36700
H  22.42800 -5.91000 26.17200
H  21.67300 -6.78500 24.72300
H  17.36600 -1.91400 22.44200
H  16.36800 0.76000 22.76000
H  19.75800 -0.29900 23.35500
H  18.57400 0.69300 22.42500
H  19.29700 -0.72000 21.78100
H  14.20900 -0.81200 23.21000
H  15.29200 -2.01500 22.73500
H  14.02200 -0.10700 20.91600
H  15.04000 -1.57000 20.52500
H  15.89500 -0.16000 20.75000
H  12.86400 2.82300 25.99000
H  13.97800 4.06500 26.37800
H  12.70500 3.49300 27.61000
H  14.71700 1.36400 31.80500
H  17.65400 4.76700 32.81800
H  16.77600 4.55100 34.43400
H  16.06100 5.28400 33.08800

