158

Mg 40.37700 8.57200 28.93800
C  42.48200 9.80400 31.56100
C  38.38400 7.05200 31.40300
C  38.52900 7.44100 26.48800
C  42.83700 9.66000 26.57100
N  40.48500 8.42300 31.16400
C  41.35900 9.13500 32.01700
C  40.87600 9.02200 33.51800
C  39.75200 7.86200 33.40100
C  39.51200 7.71200 31.91600
C  39.96300 6.58000 34.16800
C  40.28200 10.42300 34.02500
C  41.07900 11.12100 35.15700
H  40.42300 11.94900 36.22600
N  38.71200 7.35900 28.91200
C  37.96900 6.85500 30.00000
C  36.82300 6.10000 29.51400
C  36.84100 6.20400 28.03500
C  38.04400 7.06700 27.76200
C  35.72500 5.48100 30.36300
C  35.97100 5.54700 27.01300
O  36.01000 5.76700 25.82300
C  34.95400 4.44700 27.34600
N  40.69100 8.48700 26.80900
C  39.71100 8.09300 26.02600
C  40.08400 8.30200 24.53100
C  41.37600 9.05000 24.60000
C  41.65900 9.08600 26.05300
C  40.09400 7.05900 23.59700
C  41.42500 10.37900 23.91900
C  40.76500 11.58500 24.53900
N  42.26300 9.54900 28.97900
C  43.12700 9.84800 27.96100
C  44.28300 10.49200 28.52000
C  44.00400 10.54500 29.92200
C  42.83100 9.92100 30.18200
C  45.59700 10.76300 27.92300
C  44.61000 10.84100 31.18600
O  45.72700 11.27700 31.39600
C  43.60000 10.49300 32.28800
C  44.30500 9.69000 33.31900
O  44.85300 8.60600 33.14000
O  44.34100 10.32000 34.55200
C  44.79100 9.38700 35.59100
H  37.72700 6.70300 32.20300
H  37.88800 7.09700 25.67400
H  43.63700 9.95200 25.88700
H  41.65800 8.73000 34.22000
H  38.82800 8.30800 33.76800
H  39.14700 6.30600 34.83600
H  40.85600 6.75000 34.76900
H  40.04000 5.66900 33.57400
H  39.25200 10.44500 34.37900
H  40.27900 11.05200 33.13400
H  41.77800 11.86000 34.76600
H  41.63900 10.28000 35.56600
H  34.76000 5.96800 30.21800
H  35.80300 5.64300 31.43800
H  35.76900 4.44600 30.02500
H  35.39400 3.73700 28.04600
H  34.78200 3.96600 26.38300
H  34.06700 4.86900 27.81700
H  39.26700 8.87700 24.09500
H  42.14400 8.41100 24.16400
H  40.72600 7.38800 22.77200
H  39.12600 6.79000 23.17400
H  40.53900 6.16600 24.03700
H  40.99100 10.23800 22.92900
H  42.48600 10.62700 23.89000
H  41.40500 12.45000 24.36600
H  40.42600 11.56200 25.57500
H  39.86200 11.83400 23.98100
H  46.41700 10.27500 28.45000
H  45.75600 11.84100 27.93200
H  45.80200 10.74400 26.85300
H  43.38000 11.48900 32.67100
H  44.11400 8.55000 35.76100
H  44.78400 10.00700 36.48800
H  45.75700 8.91500 35.41200
Mg -1.93500 34.78200 26.87900
C  -3.39500 32.77400 29.43500
C  -0.56400 36.61300 29.24300
C  -0.86000 36.88700 24.50400
C  -3.74000 33.02300 24.58500
N  -1.99700 34.67800 29.16200
C  -2.58500 33.81400 30.02100
C  -2.26300 34.04500 31.47600
C  -1.35900 35.33400 31.37900
C  -1.23800 35.54500 29.83900
C  -1.95300 36.67200 32.07700
C  -1.54000 32.87900 32.23200
C  -2.05700 32.55700 33.61700
H  -0.98900 32.43500 34.72000
N  -0.79400 36.58300 26.83900
C  -0.38100 37.19900 27.96000
C  0.48000 38.31400 27.57500
C  0.45200 38.35400 26.14100
C  -0.45900 37.22200 25.76900
C  1.15100 39.26900 28.61800
C  1.11500 39.20500 25.15100
O  1.05100 39.06400 23.92100
C  2.11100 40.21300 25.74400
N  -2.38100 34.96900 24.90900
C  -1.81200 35.92800 24.10600
C  -2.10800 35.78300 22.62700
C  -2.64200 34.30900 22.66700
C  -2.93200 34.06400 24.12700
C  -3.11700 36.85300 22.06000
C  -1.63400 33.26400 22.18900
C  -1.33400 33.18300 20.69900
N  -3.32700 33.22300 26.97300
C  -3.95400 32.63800 25.89700
C  -4.81200 31.52800 26.39800
C  -4.61700 31.54600 27.75300
C  -3.71700 32.60800 28.06200
C  -5.74600 30.61400 25.55000
C  -4.86000 30.82600 28.96700
O  -5.60500 29.87300 29.23100
C  -4.20300 31.65000 30.10000
C  -5.28800 32.10600 30.98400
O  -6.37500 32.55300 30.58500
O  -5.00300 31.88500 32.33500
C  -6.20300 31.73500 33.10700
H  -0.09400 37.22400 30.01700
H  -0.66400 37.58800 23.69000
H  -4.13000 32.53500 23.68900
H  -3.19100 34.30900 31.98300
H  -0.36000 35.03200 31.69400
H  -1.08800 37.14300 32.54500
H  -2.59400 36.24100 32.84600
H  -2.44300 37.43100 31.46700
H  -0.46000 32.99200 32.13600
H  -1.79700 31.98100 31.67000
H  -2.67600 31.66000 33.58800
H  -2.78800 33.29000 33.95900
H  2.19600 38.96600 28.68600
H  0.69000 38.99300 29.56700
H  0.99400 40.31800 28.36700
H  2.62400 40.60000 24.86400
H  2.86200 39.72700 26.36700
H  1.63800 41.11200 26.14000
H  -1.28500 36.00300 21.94600
H  -3.65200 34.10400 22.31100
H  -2.97300 37.83800 22.50400
H  -4.15600 36.52300 22.04800
H  -2.87200 36.95300 21.00300
H  -2.08600 32.31400 22.47500
H  -0.71200 33.40500 22.75300
H  -1.45500 32.15600 20.35300
H  -0.26200 33.30900 20.55500
H  -1.91400 33.82300 20.03500
H  -6.66100 31.19500 25.43700
H  -5.91800 29.61600 25.95300
H  -5.37500 30.46200 24.53700
H  -3.54000 30.97000 30.63500
H  -5.95200 32.20200 34.05900
H  -6.34100 30.67300 33.31100
H  -7.07500 32.30700 32.78900

