158

Mg 25.69300 52.13400 26.07700
C  23.71200 53.25100 28.87000
C  28.38200 51.84800 28.30500
C  27.86000 52.01000 23.47900
C  23.19500 53.37200 23.97800
N  25.99700 52.46400 28.27500
C  25.01400 52.75700 29.22000
C  25.46300 52.54100 30.72000
C  26.98100 52.14300 30.51000
C  27.14400 52.06800 28.94200
C  27.98500 53.12900 31.33200
C  24.59300 51.37500 31.47800
C  23.87400 51.74800 32.74500
H  24.64800 52.51600 33.78400
N  27.77500 51.71300 25.89300
C  28.67500 51.63000 26.95500
C  30.04500 51.36500 26.42300
C  29.86900 51.47100 24.96900
C  28.49900 51.81900 24.69400
C  31.23000 51.09100 27.28400
C  30.95100 51.45800 23.96100
O  30.69900 51.78000 22.80300
C  32.31100 51.08800 24.45900
N  25.58700 52.55800 24.05100
C  26.55500 52.30500 23.19600
C  26.13600 52.80300 21.79800
C  24.62800 53.02900 21.90500
C  24.38700 52.94200 23.41600
C  27.04900 53.98300 21.20100
C  23.67000 52.11100 21.12900
C  23.40500 52.44500 19.64700
N  23.81400 53.06300 26.28900
C  22.89000 53.45300 25.33900
C  21.69000 53.99900 25.94200
C  22.05800 53.98300 27.35000
C  23.28900 53.38700 27.49800
C  20.46100 54.48400 25.19400
C  21.56600 54.35700 28.69800
O  20.48000 54.83800 29.06600
C  22.52800 53.71300 29.74800
C  23.01200 54.82600 30.63100
O  24.01400 55.45300 30.53200
O  22.07400 55.01700 31.63000
C  22.46800 56.13900 32.52100
H  29.24300 51.64800 28.94800
H  28.42500 51.99600 22.54400
H  22.39800 53.64600 23.28400
H  25.42700 53.49100 31.25400
H  27.15200 51.21500 31.05500
H  28.69800 53.66500 30.70600
H  28.53100 52.57900 32.09900
H  27.41700 53.85600 31.91200
H  25.14100 50.48100 31.77400
H  23.78600 51.10000 30.79900
H  23.56000 50.88300 33.32900
H  23.00000 52.34300 32.47800
H  31.76100 50.19700 26.95600
H  30.93300 50.88700 28.31200
H  31.96900 51.89200 27.28100
H  32.92700 50.95100 23.57100
H  32.34200 50.07600 24.86400
H  32.72800 51.83500 25.13500
H  26.26600 51.91700 21.17800
H  24.50900 54.04600 21.53000
H  26.37100 54.83500 21.14200
H  27.38000 53.76100 20.18600
H  27.91100 54.14900 21.84700
H  22.71200 52.18200 21.64300
H  24.10500 51.11300 21.18200
H  24.18200 53.16000 19.37800
H  22.39800 52.86100 19.67500
H  23.49100 51.53900 19.04600
H  20.17000 53.75000 24.44300
H  20.58800 55.39600 24.61000
H  19.65700 54.69500 25.90000
H  21.94200 53.00500 30.33300
H  22.64700 56.94700 31.81100
H  23.39000 55.91600 33.05800
H  21.62900 56.30500 33.19700
Mg -9.69100 17.56600 42.58300
C  -6.39700 16.71800 42.02300
C  -8.89900 20.71600 41.46400
C  -13.06400 18.14600 42.30700
C  -10.49900 14.21000 43.07500
N  -7.84900 18.61200 41.90500
C  -6.58400 18.09100 41.81500
C  -5.48100 19.04200 41.39200
C  -6.31400 20.31900 41.16100
C  -7.79100 19.86600 41.51600
C  -5.82100 21.64000 42.01300
C  -4.63400 18.72800 40.14400
C  -5.41300 17.90500 38.99900
H  -5.40200 18.60300 37.62400
N  -10.80800 19.21000 42.21500
C  -10.30000 20.41600 41.73400
C  -11.41900 21.38000 41.61100
C  -12.61900 20.62600 41.89500
C  -12.19500 19.26900 42.14600
C  -11.24700 22.80800 41.16500
C  -13.95300 21.29400 41.96300
O  -14.18800 22.34700 41.36700
C  -15.13400 20.59900 42.63400
N  -11.54300 16.33500 42.61700
C  -12.75500 16.87100 42.66000
C  -13.81500 15.90000 43.15400
C  -12.99600 14.60900 43.48300
C  -11.54700 15.11000 43.01400
C  -14.63200 16.44400 44.41000
C  -13.43400 13.39000 42.61900
C  -13.84000 12.20100 43.48200
N  -8.69600 15.80400 42.68800
C  -9.10600 14.50500 42.88300
C  -7.96900 13.61100 42.94300
C  -6.89200 14.47700 42.61200
C  -7.37400 15.73700 42.38400
C  -7.88900 12.13700 43.40100
C  -5.46400 14.52100 42.42100
O  -4.75400 13.60200 42.51200
C  -5.03300 16.01300 41.99500
C  -4.19800 16.42600 43.16100
O  -3.01200 16.84300 43.11600
O  -4.91800 16.31600 44.30900
C  -4.33100 16.51100 45.59700
H  -8.69100 21.70000 41.03900
H  -14.14100 18.32100 42.34800
H  -10.72400 13.15800 43.26300
H  -4.83100 19.11400 42.26400
H  -6.44200 20.60100 40.11600
H  -5.54200 22.40100 41.28500
H  -4.94900 21.39500 42.61800
H  -6.55300 22.09400 42.68200
H  -3.78700 18.21100 40.59300
H  -4.30000 19.69100 39.75700
H  -6.43800 17.71200 39.31600
H  -4.99600 16.91500 38.81600
H  -10.33400 23.34600 41.42300
H  -11.97400 23.50400 41.58400
H  -11.33900 22.83400 40.07900
H  -14.83000 20.03600 43.51600
H  -15.62700 19.87300 41.98800
H  -15.92000 21.33400 42.80800
H  -14.45000 15.81700 42.27200
H  -13.02600 14.42500 44.55700
H  -15.71600 16.36900 44.32200
H  -14.43500 17.48400 44.66800
H  -14.35600 15.77600 45.22600
H  -12.57100 13.14600 42.00000
H  -14.29800 13.61900 41.99600
H  -14.92800 12.22500 43.54500
H  -13.40000 12.32100 44.47200
H  -13.59200 11.23000 43.05300
H  -7.16600 11.66400 42.73700
H  -8.87100 11.66400 43.36400
H  -7.60300 12.11700 44.45300
H  -4.47200 15.94200 41.06300
H  -4.93700 15.95500 46.31200
H  -4.31000 17.57600 45.82600
H  -3.28900 16.19000 45.62100

