158

Mg 9.94800 47.97500 25.63700
C  7.85400 48.43000 28.51300
C  12.46100 49.22600 27.37400
C  11.73300 47.58200 22.86400
C  6.88300 47.93000 23.67700
N  10.03200 48.82900 27.63800
C  9.20700 48.72300 28.71800
C  9.90700 49.05600 30.03200
C  11.27300 49.69800 29.59900
C  11.25900 49.25900 28.08300
C  11.27400 51.22900 29.62100
C  10.09500 47.88000 30.97800
C  10.45700 48.16400 32.46100
H  9.81600 47.33000 33.68900
N  11.94700 48.22100 25.21100
C  12.83200 48.81400 26.04700
C  14.12500 48.65500 25.51000
C  13.97800 48.18400 24.19400
C  12.52100 47.98600 24.01200
C  15.34700 48.83300 26.29900
C  14.96200 47.83400 23.13600
O  14.58000 47.54500 22.01200
C  16.41800 47.92400 23.33500
N  9.35900 47.84300 23.56900
C  10.29500 47.49700 22.61900
C  9.57900 46.97400 21.38100
C  8.15100 47.60400 21.50700
C  8.09900 47.78000 23.00900
C  10.14900 47.33800 19.97200
C  7.06100 46.69400 20.92200
C  6.02100 47.49900 20.08000
N  7.77000 48.13200 25.97800
C  6.71500 48.04100 25.09500
C  5.43300 47.95900 25.85700
C  5.88100 48.09700 27.16500
C  7.26400 48.17100 27.20300
C  4.04300 47.77200 25.30100
C  5.39300 48.16500 28.52000
O  4.22700 48.05500 28.89000
C  6.65100 48.42600 29.42800
C  6.52400 47.36400 30.40600
O  7.06400 46.28100 30.40600
O  5.77400 47.84400 31.46700
C  5.56100 47.00100 32.67800
H  13.31000 49.61800 27.93800
H  12.27000 47.28300 21.96100
H  5.99100 47.91800 23.04800
H  9.28200 49.79700 30.53100
H  12.12400 49.25300 30.11300
H  10.62200 51.47000 30.46000
H  10.81500 51.57300 28.69400
H  12.28300 51.62600 29.72700
H  10.76200 47.18300 30.47000
H  9.23700 47.21700 31.08500
H  10.10100 49.16900 32.69000
H  11.54000 48.04700 32.51700
H  15.15800 49.11400 27.33500
H  15.96500 49.61600 25.86000
H  15.94500 47.93400 26.44300
H  16.67800 48.50300 24.22100
H  16.94800 48.41100 22.51600
H  16.79600 46.90400 23.39100
H  9.47100 45.89200 21.45000
H  8.19600 48.58900 21.04300
H  10.89900 48.11100 20.14300
H  9.52200 47.85100 19.24200
H  10.71900 46.54700 19.48400
H  6.65000 46.08900 21.73000
H  7.45700 45.88100 20.31500
H  6.41500 48.48400 19.82900
H  5.12100 47.50200 20.69600
H  5.84200 47.01600 19.12000
H  3.33400 48.32700 25.91600
H  3.93900 46.68900 25.36800
H  3.76000 48.18100 24.33100
H  6.53800 49.36600 29.96800
H  4.89800 46.13700 32.62800
H  5.22200 47.72500 33.41900
H  6.53100 46.57000 32.92800
Mg -2.65100 34.84800 26.95500
C  -4.37200 33.56900 29.80500
C  -1.37300 37.26900 29.05000
C  -1.47900 36.21900 24.28500
C  -4.40700 32.59700 25.06100
N  -2.81700 35.33900 29.23800
C  -3.60300 34.72400 30.16300
C  -3.41100 35.22700 31.64400
C  -2.50100 36.47200 31.28800
C  -2.15700 36.36200 29.79900
C  -3.14700 37.90400 31.65100
C  -2.78900 34.19500 32.66200
C  -2.77900 34.61200 34.19300
H  -3.37800 33.64000 35.25600
N  -1.54300 36.48900 26.69200
C  -1.03500 37.37800 27.69400
C  -0.11100 38.32300 27.06000
C  -0.20800 38.00800 25.61300
C  -1.11700 36.87500 25.42500
C  0.64800 39.40300 27.81700
C  0.69300 38.61200 24.49800
O  0.72200 38.29700 23.32500
C  1.65300 39.61700 24.89100
N  -2.94900 34.43100 24.87000
C  -2.34600 35.15700 23.96500
C  -2.42200 34.49000 22.56700
C  -3.27700 33.25800 22.89100
C  -3.62400 33.42400 24.38900
C  -2.94900 35.37800 21.41200
C  -2.54400 31.83800 22.68200
C  -3.28300 30.75200 21.96800
N  -4.15900 33.42400 27.27800
C  -4.67600 32.55500 26.42700
C  -5.60400 31.67300 27.10500
C  -5.52600 32.03800 28.41700
C  -4.61400 33.09700 28.50100
C  -6.43200 30.59600 26.49300
C  -6.02300 31.77600 29.72000
O  -6.84200 30.91500 30.01500
C  -5.30700 32.78000 30.71900
C  -6.33200 33.54400 31.45500
O  -6.91000 34.55300 31.09600
O  -6.55600 32.93100 32.68000
C  -7.60600 33.51500 33.49000
H  -0.86300 38.03400 29.63900
H  -1.05700 36.64500 23.37300
H  -4.92600 31.86000 24.44400
H  -4.39900 35.53600 31.98700
H  -1.59300 36.48500 31.89100
H  -3.07800 38.61300 30.82600
H  -2.60200 38.13200 32.56800
H  -4.23400 37.86000 31.72200
H  -1.76600 34.03400 32.32200
H  -3.42000 33.30600 32.65900
H  -3.10900 35.64600 34.29600
H  -1.72600 34.65300 34.47000
H  1.70500 39.21200 28.00100
H  0.34100 39.69600 28.82100
H  0.50600 40.27100 27.17200
H  1.14900 40.49800 25.29000
H  2.42400 39.83900 24.15400
H  2.25300 39.16400 25.68000
H  -1.40200 34.19500 22.32000
H  -4.19800 33.39800 22.32500
H  -2.93100 36.41000 21.76300
H  -3.97100 35.05800 21.21100
H  -2.43500 35.23300 20.46200
H  -2.36700 31.37800 23.65400
H  -1.52300 31.90900 22.30700
H  -4.26500 31.16500 21.73900
H  -3.51200 29.89300 22.59900
H  -2.79800 30.47000 21.03400
H  -6.93700 30.06100 27.29800
H  -5.89200 29.88600 25.86600
H  -7.14000 31.14000 25.86900
H  -4.64200 32.20400 31.36200
H  -7.51500 34.58500 33.68000
H  -7.63100 32.98300 34.44100
H  -8.59800 33.38600 33.05900

