158

Mg 47.03600 24.76700 27.99200
C  47.95300 26.96700 30.65700
C  46.27600 22.46400 30.46600
C  46.18200 22.80500 25.58100
C  48.25500 27.24100 25.70700
N  47.00900 24.78900 30.24200
C  47.35600 25.81200 31.13000
C  47.09800 25.44700 32.58800
C  46.80700 23.91300 32.42500
C  46.72500 23.65200 30.97400
C  47.87200 22.97400 33.15300
C  45.94300 26.18600 33.24900
C  46.36200 27.15600 34.38900
H  45.40500 27.15600 35.60000
N  46.33400 22.87500 27.97900
C  46.07500 22.06700 29.13500
C  45.62600 20.74800 28.64200
C  45.63200 20.82700 27.19700
C  46.03400 22.23300 26.86800
C  45.32700 19.57100 29.55500
C  45.35600 19.75300 26.15000
O  45.48100 19.96400 24.96000
C  44.90500 18.49100 26.64300
N  47.46100 24.79400 26.00200
C  46.78500 23.97200 25.21000
C  46.81200 24.29400 23.71200
C  47.18600 25.83000 23.81500
C  47.70200 25.99300 25.29200
C  47.75300 23.40900 22.82100
C  46.07300 26.87600 23.28400
C  46.38600 28.05300 22.37400
N  48.07800 26.60600 28.11800
C  48.51900 27.48200 27.09500
C  49.21300 28.60400 27.70000
C  48.95100 28.51500 29.10800
C  48.28600 27.23900 29.28300
C  50.00500 29.58100 26.89100
C  49.15800 29.18600 30.33100
O  49.75200 30.21200 30.67100
C  48.49700 28.24400 31.39800
C  49.49500 27.90400 32.41200
O  50.23500 26.93600 32.35300
O  49.41700 28.74800 33.46400
C  50.10400 28.39500 34.74300
H  45.93700 21.71500 31.18400
H  45.74100 22.22000 24.77100
H  48.37500 28.00300 24.93400
H  48.06500 25.64600 33.04900
H  45.88800 23.48100 32.82100
H  48.45600 23.56600 33.85700
H  48.58300 22.53500 32.45300
H  47.33700 22.17500 33.66500
H  45.11100 25.51600 33.46400
H  45.53200 26.86000 32.49700
H  46.30300 28.19900 34.07800
H  47.32300 26.85800 34.80900
H  44.29400 19.25300 29.41100
H  45.53500 19.67600 30.62000
H  45.97100 18.73700 29.27600
H  45.71700 17.99700 27.17800
H  44.72500 17.82300 25.80000
H  44.01900 18.61100 27.26600
H  45.80500 24.04700 23.37700
H  48.02500 25.92900 23.12600
H  47.78300 24.08000 21.96200
H  47.25000 22.45900 22.64400
H  48.77100 23.22200 23.16500
H  45.54800 27.24800 24.16300
H  45.35200 26.26700 22.73800
H  45.75600 27.77400 21.52900
H  47.44400 28.20100 22.16000
H  46.09400 29.04100 22.72900
H  50.09800 30.44500 27.54900
H  49.41900 29.93100 26.04200
H  50.99000 29.16500 26.68100
H  47.69300 28.72600 31.95400
H  49.36000 27.85700 35.33100
H  50.37300 29.32800 35.23900
H  51.01700 27.83300 34.54900
Mg 42.11700 40.50400 27.08200
C  41.21100 42.73000 29.52200
C  42.99600 38.35900 29.44700
C  42.90900 38.34000 24.71000
C  41.19600 42.83300 24.52600
N  41.98100 40.51300 29.21600
C  41.50400 41.49200 29.99800
C  41.55500 41.12400 31.48800
C  42.16400 39.72200 31.37600
C  42.38300 39.53300 29.95800
C  43.48300 39.49900 32.27800
C  40.17700 41.25700 32.23000
C  40.14700 42.10500 33.62000
H  39.54200 41.34400 34.84200
N  42.93700 38.62800 27.09000
C  43.25800 37.94400 28.18300
C  43.81400 36.61800 27.85300
C  43.65200 36.53300 26.42000
C  43.06800 37.79900 26.02500
C  44.26900 35.57500 28.79100
C  44.00000 35.43100 25.47500
O  43.76300 35.43900 24.26100
C  44.66300 34.16900 25.99400
N  42.03800 40.59500 24.93800
C  42.37000 39.51000 24.19600
C  42.18100 39.72900 22.67300
C  41.46700 41.16600 22.63800
C  41.57900 41.57600 24.10400
C  43.44200 39.58500 21.78700
C  40.00900 41.30800 22.06800
C  39.50000 42.72400 21.63500
N  41.35000 42.42100 26.94900
C  41.08800 43.26100 25.88100
C  40.61600 44.49500 26.42600
C  40.65900 44.34600 27.86600
C  41.14800 43.06000 28.08100
C  40.34000 45.66500 25.69500
C  40.50800 45.10400 29.12900
O  40.09600 46.21500 29.36400
C  40.74600 44.03900 30.27400
C  41.66900 44.60900 31.30800
O  42.82200 44.81100 31.07100
O  41.02400 44.97000 32.45700
C  41.74800 45.48700 33.61200
H  43.22800 37.69100 30.27900
H  43.11900 37.65100 23.88900
H  41.09800 43.55900 23.71600
H  42.25400 41.68200 32.11200
H  41.35600 39.11300 31.78200
H  43.62100 38.44500 32.52100
H  43.31100 39.91200 33.27200
H  44.32200 39.92600 31.72800
H  39.82400 40.28300 32.56900
H  39.51200 41.71400 31.49700
H  39.55500 42.98000 33.35000
H  41.14800 42.43400 33.90200
H  43.71900 34.64600 28.64000
H  44.19100 35.91700 29.82300
H  45.28800 35.31700 28.50100
H  43.81500 33.77300 26.55300
H  45.54000 34.51200 26.54300
H  44.92500 33.40000 25.26800
H  41.40600 39.07700 22.27200
H  42.04300 41.92700 22.10900
H  43.46500 40.23200 20.91100
H  43.56100 38.58600 21.36700
H  44.37700 39.86700 22.27000
H  39.27200 40.78300 22.67700
H  40.00600 40.83900 21.08400
H  39.13900 42.65800 20.60800
H  40.36300 43.38700 21.57300
H  38.83900 43.22600 22.34200
H  40.54500 45.57000 24.62900
H  41.05200 46.41900 26.03000
H  39.33000 46.03900 25.86100
H  39.77200 43.91200 30.74700
H  42.75200 45.85200 33.39400
H  41.79500 44.60400 34.24900
H  41.20500 46.30400 34.08700

