158

Mg 30.29300 59.18800 38.58000
C  27.45200 57.31900 38.06200
C  32.21500 56.50500 37.86200
C  32.95000 61.25100 38.39000
C  28.25600 62.03900 39.11400
N  29.85600 57.17000 38.01500
C  28.62900 56.59200 37.93200
C  28.79100 55.12200 37.51300
C  30.28100 54.82100 37.96200
C  30.85000 56.27500 37.97100
C  30.31300 54.17900 39.38900
C  28.56500 54.89700 35.97300
C  29.18300 55.86900 34.94600
H  28.19900 56.77100 34.15400
N  32.20900 58.95500 38.05800
C  32.91300 57.73700 37.95400
C  34.29400 57.89900 37.68600
C  34.47500 59.36700 37.67800
C  33.18600 59.96500 37.99200
C  35.29800 56.75500 37.42100
C  35.86400 60.02000 37.22600
O  36.80900 59.23700 36.99900
C  36.03700 61.53400 36.99400
N  30.53700 61.42400 38.75000
C  31.79300 61.90900 38.73600
C  31.69100 63.43700 38.96200
C  30.19300 63.65700 39.48100
C  29.61500 62.28900 39.22600
C  32.85400 64.02200 39.95000
C  29.45000 64.90800 38.92800
C  28.64900 65.78200 39.82100
N  28.23300 59.62600 38.69700
C  27.53000 60.78600 38.91100
C  26.05700 60.57400 38.79400
C  25.98900 59.19700 38.52300
C  27.32200 58.68800 38.38000
C  24.96100 61.63800 38.99200
C  25.08300 58.08300 38.30500
O  23.88000 58.05600 38.24000
C  26.03300 56.80800 37.97200
C  25.60300 55.58700 38.79600
O  25.48100 55.53800 40.00700
O  25.18200 54.62000 37.97800
C  24.17600 53.64900 38.55300
H  32.87900 55.63900 37.88600
H  33.77100 61.96600 38.46900
H  27.66000 62.93200 39.31200
H  28.09600 54.44300 38.00600
H  30.83900 54.22800 37.23700
H  29.32400 54.10200 39.84100
H  30.74800 54.90900 40.07100
H  30.75600 53.18300 39.38400
H  27.47800 54.94400 35.90300
H  28.96700 53.92000 35.70300
H  29.64600 55.24300 34.18300
H  29.96500 56.52000 35.33700
H  35.53800 56.61800 36.36600
H  34.87500 55.82500 37.80100
H  36.21000 56.76300 38.01800
H  37.06000 61.80400 36.72900
H  35.83600 61.94100 37.98400
H  35.29600 61.69700 36.21200
H  31.75700 63.88500 37.97100
H  30.30500 63.78400 40.55800
H  33.60700 64.36600 39.24100
H  33.31200 63.19300 40.48900
H  32.40900 64.73900 40.64100
H  28.85700 64.64600 38.05200
H  30.16400 65.50400 38.35900
H  29.04600 66.79500 39.75500
H  28.58500 65.36100 40.82400
H  27.58100 65.74200 39.60600
H  25.33800 62.57600 39.40000
H  24.18400 61.30700 39.68000
H  24.43900 62.00800 38.10900
H  25.85700 56.56000 36.92500
H  24.63100 52.97700 39.28100
H  23.89400 53.06600 37.67600
H  23.36300 54.14800 39.08100
Mg -4.29400 25.47700 26.21300
C  -2.99700 26.82800 29.17500
C  -6.20400 23.37100 28.08000
C  -5.06900 23.85400 23.36400
C  -2.29000 27.62100 24.38200
N  -4.39100 25.02100 28.33300
C  -3.90200 25.75900 29.37200
C  -4.34500 25.26300 30.77700
C  -5.30000 24.05600 30.35200
C  -5.30300 24.16300 28.82600
C  -4.99200 22.66000 31.08700
C  -5.21500 26.39700 31.40200
C  -5.27000 26.61700 32.96500
H  -4.89500 25.39300 33.85200
N  -5.57900 23.92900 25.74900
C  -6.32600 23.26500 26.68100
C  -7.29700 22.41100 25.98900
C  -6.98300 22.52100 24.54800
C  -5.81500 23.46100 24.50600
C  -8.44300 21.52100 26.72100
C  -7.67300 21.90700 23.30700
O  -7.34700 22.20300 22.13200
C  -8.80200 20.96400 23.51100
N  -3.67400 25.72000 24.11500
C  -4.13900 24.86600 23.17600
C  -3.49300 25.18200 21.84400
C  -2.74700 26.52000 22.14300
C  -2.88700 26.65500 23.58300
C  -2.71400 23.90200 21.22100
C  -3.36100 27.73800 21.35500
C  -2.37200 28.62800 20.64000
N  -2.87300 26.86000 26.63400
C  -2.21300 27.73600 25.83100
C  -1.41500 28.66800 26.55600
C  -1.69400 28.30700 27.86800
C  -2.59100 27.25300 27.88500
C  -0.47400 29.78200 26.08700
C  -1.36500 28.61700 29.18700
O  -0.55300 29.44000 29.61500
C  -2.26500 27.72600 30.15500
C  -1.42700 26.98500 31.12500
O  -0.68300 25.98500 30.94700
O  -1.79700 27.49100 32.34700
C  -1.06900 26.82400 33.41500
H  -6.84800 22.74600 28.70200
H  -5.29400 23.33800 22.42900
H  -1.64600 28.30100 23.82100
H  -3.60600 24.81400 31.44200
H  -6.34100 24.29900 30.56600
H  -4.81700 21.97400 30.25800
H  -5.93400 22.43900 31.58800
H  -4.11700 22.77900 31.72600
H  -6.25200 26.35400 31.07000
H  -4.91100 27.33500 30.93900
H  -6.26200 27.03900 33.12400
H  -4.54800 27.38000 33.25500
H  -9.37700 21.70100 26.18800
H  -8.51100 21.87500 27.75000
H  -8.10600 20.48400 26.72300
H  -8.37700 20.09600 24.01500
H  -9.15700 20.68300 22.52000
H  -9.68800 21.40900 23.96400
H  -4.39700 25.35600 21.26000
H  -1.72100 26.23400 21.91200
H  -3.19200 23.48000 20.33700
H  -2.54000 23.08500 21.92100
H  -1.72500 24.26600 20.94300
H  -4.10800 28.28000 21.93500
H  -4.00900 27.26400 20.61800
H  -1.32800 28.54700 20.94300
H  -2.67500 29.66700 20.76500
H  -2.39800 28.43000 19.56800
H  -1.13900 30.54300 25.67800
H  0.24000 29.38300 25.36700
H  0.07700 30.16700 26.94400
H  -2.95800 28.31100 30.75900
H  -1.24500 25.75000 33.35000
H  -1.41300 27.18600 34.38400
H  -0.02200 27.03200 33.19700

