158

Mg -0.34800 18.27700 27.19400
C  -1.11700 16.06900 29.88700
C  -1.41800 20.89000 29.19400
C  -0.06700 20.23900 24.75100
C  -0.23800 15.44900 25.08100
N  -1.19400 18.37300 29.32200
C  -1.17300 17.42900 30.26600
C  -1.51200 18.07800 31.67600
C  -1.83300 19.56500 31.26900
C  -1.45200 19.59500 29.82100
C  -3.28700 19.97400 31.66000
C  -0.37600 17.84000 32.67000
C  -0.94600 17.23700 34.01300
H  0.01300 16.89000 35.13000
N  -0.65900 20.30300 26.99100
C  -0.97700 21.21100 27.93700
C  -0.98200 22.53700 27.42800
C  -0.36500 22.35300 26.11600
C  -0.36000 20.91200 25.88200
C  -1.59500 23.63100 28.21700
C  0.11500 23.49500 25.02700
O  0.59700 23.20100 23.89800
C  -0.00900 24.94500 25.36100
N  -0.35600 17.86600 25.08300
C  -0.08000 18.89800 24.36300
C  0.12000 18.51700 22.92800
C  0.31400 16.97800 23.04100
C  -0.10900 16.70700 24.48900
C  -1.06600 18.95500 21.91200
C  1.75400 16.44700 22.65400
C  2.78400 16.31100 23.74700
N  -0.57100 16.18200 27.34500
C  -0.50200 15.20100 26.45300
C  -0.60000 13.96900 27.10800
C  -0.90300 14.24800 28.44900
C  -0.84000 15.63900 28.55000
C  -0.50100 12.53800 26.45900
C  -1.07200 13.61900 29.78300
O  -1.13700 12.46700 30.21300
C  -1.21200 14.84300 30.79400
C  -0.07000 14.68700 31.75100
O  1.02700 15.15900 31.60000
O  -0.44900 13.95600 32.92300
C  0.73300 13.54200 33.77500
H  -1.64000 21.74800 29.83200
H  0.30500 20.79700 23.88900
H  -0.14500 14.57600 24.43200
H  -2.41800 17.50500 31.87400
H  -1.16900 20.20800 31.84800
H  -4.01000 19.90200 30.84800
H  -3.28600 21.02700 31.94300
H  -3.55600 19.48500 32.59600
H  -0.03300 18.79200 33.07700
H  0.54000 17.32500 32.38300
H  -1.62800 16.42000 33.77600
H  -1.60500 18.04700 34.32500
H  -1.17900 23.77300 29.21400
H  -2.59100 23.35100 28.55800
H  -1.45700 24.56800 27.67700
H  0.23900 25.02000 26.42000
H  -1.00400 25.31300 25.11200
H  0.77200 25.48800 24.83000
H  1.09600 18.95400 22.71600
H  -0.46300 16.46300 22.47600
H  -2.04200 19.02000 22.39500
H  -1.30100 18.15700 21.20800
H  -0.80400 19.85000 21.34800
H  2.18100 17.23100 22.02900
H  1.80400 15.62500 21.94000
H  3.73700 16.74200 23.44000
H  3.08500 15.30800 24.05000
H  2.63000 16.85500 24.67900
H  -1.50600 12.12100 26.39500
H  0.10300 11.94900 27.15000
H  0.01800 12.47200 25.50300
H  -2.15800 14.82100 31.33500
H  1.69600 13.83700 33.35700
H  0.66700 12.45600 33.83200
H  0.68700 13.93800 34.78900
Mg 46.55800 25.26900 27.51100
C  47.49600 27.52300 29.90700
C  46.18400 22.87200 29.99000
C  45.94100 22.90200 25.20200
C  47.36000 27.53900 25.10900
N  47.01300 25.14200 29.65600
C  47.09900 26.27100 30.51000
C  47.03900 25.99600 31.99300
C  46.62200 24.42800 31.97500
C  46.70200 24.06900 30.45400
C  47.47100 23.45300 32.80200
C  46.07600 26.96900 32.82400
C  45.59300 26.50800 34.19500
H  45.91800 27.46400 35.44200
N  45.94400 23.19400 27.58800
C  45.84500 22.41700 28.68200
C  45.52900 21.02100 28.32400
C  45.40400 21.03500 26.96700
C  45.74500 22.43000 26.51100
C  45.40300 19.83700 29.34600
C  45.06800 19.91200 26.06400
O  44.81100 19.98100 24.86200
C  44.97000 18.57800 26.61300
N  46.61300 25.22500 25.42700
C  46.36800 24.12600 24.71700
C  46.39900 24.39800 23.15800
C  46.57600 25.94800 23.21800
C  46.89500 26.28200 24.71400
C  47.53700 23.68900 22.42000
C  45.35600 26.81100 22.74900
C  45.75100 28.04000 21.84900
N  47.32400 27.14000 27.42200
C  47.65200 27.95200 26.38400
C  48.19500 29.15100 26.81400
C  48.16000 29.10300 28.22500
C  47.62800 27.88300 28.53800
C  48.69000 30.15600 25.86500
C  48.42500 29.79700 29.47900
O  48.91100 30.95000 29.64900
C  47.88000 28.88500 30.56100
C  48.89700 28.61200 31.67300
O  49.79300 27.71600 31.71700
O  48.55000 29.49800 32.66700
C  49.23700 29.45400 33.96100
H  46.07300 22.11400 30.76800
H  45.73400 22.15700 24.43100
H  47.70000 28.18500 24.29700
H  47.98000 26.02100 32.54300
H  45.58000 24.24800 32.24000
H  48.03800 22.80100 32.13700
H  46.96200 22.69600 33.39800
H  48.08600 23.95500 33.54900
H  45.19300 27.17800 32.21900
H  46.62500 27.88600 33.03700
H  45.95800 25.51200 34.44200
H  44.50800 26.39800 34.19300
H  44.36300 19.52300 29.26900
H  45.61800 20.24900 30.33200
H  46.14900 19.05700 29.19400
H  44.20400 18.57100 27.38900
H  45.96400 18.52700 27.05800
H  44.65500 17.81800 25.89900
H  45.42200 24.18900 22.72100
H  47.52300 26.26200 22.78000
H  48.36300 24.28700 22.80800
H  47.45600 23.68800 21.33300
H  47.58900 22.65500 22.76100
H  44.90300 27.32300 23.59800
H  44.52600 26.23900 22.33500
H  46.77700 28.00000 21.48300
H  45.64400 28.94300 22.45100
H  45.16000 28.17200 20.94300
H  49.61400 29.72600 25.47900
H  48.86500 31.11200 26.35900
H  48.02100 30.32600 25.02200
H  46.93300 29.25600 30.95300
H  48.64400 28.71100 34.49300
H  49.22700 30.44700 34.41100
H  50.26200 29.08800 34.02700

