158

Mg 47.09700 24.77600 28.84100
C  47.86800 27.25800 31.32500
C  45.94100 22.73800 31.37600
C  46.66600 22.48600 26.55900
C  48.53800 26.95200 26.45200
N  46.87600 24.98500 31.13300
C  47.33100 26.03700 31.92900
C  46.89300 25.77800 33.39800
C  46.69100 24.21900 33.43400
C  46.43600 23.96700 31.89100
C  47.88100 23.37400 34.01600
C  45.73900 26.65100 33.92500
C  45.85200 27.48900 35.23700
H  46.54100 26.73500 36.40800
N  46.22800 22.90200 28.88300
C  45.78300 22.26200 30.03800
C  45.22600 21.00100 29.62400
C  45.49500 20.89100 28.21200
C  46.20200 22.08900 27.83600
C  44.62300 19.99300 30.60000
C  45.19800 19.77500 27.20700
O  45.46300 19.80800 26.01700
C  44.41900 18.65900 27.67200
N  47.40400 24.80200 26.69500
C  47.34100 23.63200 26.06000
C  48.17800 23.62100 24.79200
C  48.51600 25.12000 24.58900
C  48.16300 25.68900 25.98100
C  49.44800 22.66200 24.75800
C  47.63800 25.86100 23.46900
C  48.38700 26.41900 22.23800
N  48.08300 26.65500 28.85700
C  48.36100 27.49200 27.76900
C  48.92000 28.74000 28.28800
C  48.60200 28.70700 29.64000
C  48.14100 27.39900 29.93500
C  49.64500 29.80400 27.52400
C  48.69900 29.45300 30.85900
O  49.12000 30.58200 30.99900
C  48.20500 28.55500 31.98500
C  49.27800 28.34900 33.03400
O  50.21600 27.60900 33.05700
O  49.06700 29.33500 33.97700
C  49.83400 29.13500 35.20700
H  45.54800 22.08300 32.15600
H  46.64200 21.65800 25.84700
H  49.11200 27.48000 25.68800
H  47.79100 26.02800 33.96300
H  45.82300 23.98200 34.04900
H  48.65800 23.94500 34.52400
H  48.34500 22.75100 33.25100
H  47.39100 22.67800 34.69700
H  44.88700 26.04000 34.22200
H  45.32900 27.34400 33.19000
H  44.84300 27.80500 35.50200
H  46.38100 28.38800 34.92000
H  43.89600 19.33400 30.12700
H  44.12800 20.55100 31.39400
H  45.52500 19.61100 31.07900
H  44.94300 18.28600 28.55200
H  44.27300 17.97600 26.83500
H  43.45000 19.10700 27.88700
H  47.57300 23.24200 23.96800
H  49.59600 25.20800 24.47200
H  49.25800 21.74800 24.19400
H  49.66500 22.35900 25.78200
H  50.32500 23.18800 24.38000
H  47.08800 26.65300 23.97600
H  46.91900 25.17800 23.01600
H  48.76200 25.62100 21.59700
H  49.25100 26.97800 22.59800
H  47.77700 27.15900 21.72000
H  49.26100 30.80000 27.74500
H  49.26800 29.71900 26.50500
H  50.68100 29.51800 27.70200
H  47.30400 29.04200 32.35800
H  50.91800 29.16200 35.09000
H  49.45600 28.26500 35.74500
H  49.72000 29.91600 35.95800
Mg 7.22400 53.59000 41.47500
C  7.00800 50.02100 40.89600
C  10.50500 53.44700 40.33700
C  7.01500 56.86700 40.86100
C  3.71900 53.52500 41.76400
N  8.51500 51.90100 40.54800
C  8.30000 50.57600 40.60300
C  9.56800 49.76000 40.29800
C  10.64500 50.91000 40.55200
C  9.89000 52.19900 40.45400
C  11.41700 50.73300 41.83700
C  9.55700 49.11300 38.89000
C  9.46400 50.00900 37.64500
H  8.05700 50.05400 37.03800
N  8.61200 54.98700 40.84600
C  9.89000 54.72000 40.49400
C  10.56300 56.05200 40.45300
C  9.54600 57.10200 40.54700
C  8.29200 56.35000 40.73400
C  12.04000 56.17100 40.37500
C  9.84100 58.52300 40.60600
O  10.98300 58.94700 40.41200
C  8.82700 59.60200 40.72200
N  5.48700 55.03900 41.19200
C  5.77200 56.32500 41.08100
C  4.62400 57.13300 41.60600
C  3.48700 56.12000 41.50300
C  4.22900 54.78300 41.51000
C  4.84600 57.75800 43.01800
C  2.56300 56.28400 40.17200
C  1.06400 55.87300 40.34300
N  5.72500 52.07200 41.61100
C  4.32800 52.25300 41.66500
C  3.76700 51.05000 41.69200
C  4.80400 50.10900 41.42100
C  5.96400 50.79000 41.39300
C  2.35800 50.67800 41.90000
C  5.06900 48.70500 41.27700
O  4.28500 47.71000 41.37500
C  6.51400 48.59300 40.91000
C  6.41000 48.06100 39.52500
O  6.13900 48.76100 38.59100
O  6.54300 46.74800 39.50500
C  6.46100 46.06100 38.14200
H  11.58200 53.33100 40.20600
H  7.03500 57.95800 40.89500
H  2.64500 53.36300 41.87400
H  9.53000 49.00700 41.08600
H  11.42300 50.80000 39.79600
H  12.41200 51.17900 41.83800
H  11.48900 49.72000 42.23200
H  10.95800 51.34900 42.61000
H  8.79900 48.33400 38.81800
H  10.53100 48.62400 38.86800
H  10.13400 49.56800 36.90700
H  9.89500 50.97000 37.92600
H  12.30700 55.42600 39.62600
H  12.47500 55.87500 41.33000
H  12.36900 57.15000 40.02600
H  8.11100 59.44400 39.91600
H  9.22300 60.60600 40.56600
H  8.34800 59.61100 41.70100
H  4.49000 57.99700 40.95500
H  2.85300 56.22100 42.38400
H  5.45400 57.05000 43.58100
H  3.89100 57.79100 43.54200
H  5.24500 58.77100 43.06100
H  2.94600 55.52100 39.49500
H  2.76800 57.25800 39.72800
H  0.95200 55.72700 41.41800
H  0.74200 55.01700 39.75100
H  0.42700 56.71800 40.08400
H  2.03400 50.95100 42.90500
H  2.07900 49.72400 41.45500
H  1.75000 51.38500 41.33600
H  7.14100 47.97500 41.55100
H  7.04400 45.15500 38.30600
H  7.05800 46.61400 37.41600
H  5.46200 46.00100 37.71100

