158

Mg 15.78700 51.55900 25.43200
C  17.50500 50.66600 28.34100
C  13.19100 52.74800 27.31600
C  14.32700 52.33500 22.68300
C  18.56000 50.21600 23.61800
N  15.48000 51.68000 27.65700
C  16.35000 51.43100 28.67600
C  15.81600 51.76400 30.09300
C  14.27000 52.25300 29.62600
C  14.30600 52.28800 28.08800
C  13.15000 51.28800 30.21300
C  16.69000 52.91700 30.74200
C  16.30100 53.23100 32.14900
H  15.48600 52.27700 32.92300
N  13.92600 52.33200 25.06100
C  13.00300 52.84600 25.92000
C  11.87300 53.37100 25.24600
C  12.21800 53.32400 23.83200
C  13.51900 52.61600 23.79100
C  10.58100 53.97900 25.88300
C  11.40200 53.70100 22.57600
O  11.81400 53.42100 21.43500
C  10.16700 54.43100 22.84700
N  16.38600 51.36000 23.48700
C  15.53000 51.71700 22.46200
C  16.15300 51.55500 21.04800
C  17.58600 50.90900 21.40000
C  17.54900 50.83800 22.92900
C  15.33600 50.67200 20.01000
C  18.85500 51.72400 20.84000
C  20.14600 50.90500 20.53900
N  17.59500 50.50400 25.79400
C  18.55800 49.97300 24.99300
C  19.62700 49.38600 25.77100
C  19.18800 49.56200 27.06200
C  18.01700 50.31700 27.05400
C  20.81800 48.57300 25.20900
C  19.52000 49.28000 28.39400
O  20.41700 48.52400 28.83500
C  18.50800 50.07000 29.27200
C  17.89700 49.14200 30.25900
O  17.11800 48.20200 30.06600
O  18.20100 49.50900 31.58300
C  17.67600 48.63900 32.64400
H  12.39000 53.15800 27.93600
H  14.05100 52.69900 21.69200
H  19.38000 49.72000 23.09500
H  15.74000 50.90900 30.76500
H  13.87900 53.16300 30.08100
H  13.65400 50.56900 30.86000
H  12.62800 50.87000 29.35200
H  12.48900 51.86700 30.85800
H  16.74100 53.89300 30.25900
H  17.73700 52.61600 30.71600
H  15.68500 54.12300 32.03300
H  17.26300 53.36400 32.64300
H  10.45600 55.03100 25.62600
H  10.68200 53.89500 26.96500
H  9.59800 53.52600 25.75600
H  10.36000 55.32800 23.43500
H  9.37900 53.80000 23.25900
H  9.72800 54.76500 21.90700
H  16.34500 52.52500 20.58800
H  17.56400 49.91500 20.95200
H  14.66300 51.35300 19.49100
H  14.81100 49.93500 20.61800
H  16.03500 50.38000 19.22600
H  19.06800 52.62400 21.41700
H  18.51300 52.21100 19.92700
H  20.56200 51.06900 19.54500
H  19.90300 49.84700 20.63300
H  20.94500 51.08200 21.25900
H  20.58900 48.24300 24.19600
H  21.01700 47.63200 25.72100
H  21.66500 49.25800 25.17700
H  19.10100 50.82500 29.78800
H  16.72100 48.15700 32.43600
H  17.43900 49.16900 33.56600
H  18.35800 47.82900 32.90000
Mg -2.65800 34.59900 27.05200
C  -3.60000 32.66300 30.05600
C  -0.99600 36.68300 29.18800
C  -2.08800 36.56800 24.39000
C  -4.60300 32.37800 25.16900
N  -2.30600 34.50600 29.36100
C  -2.69400 33.64000 30.35100
C  -2.22100 34.10200 31.76500
C  -1.57800 35.57700 31.41000
C  -1.64700 35.59500 29.87300
C  -2.26200 36.75800 32.15900
C  -1.32100 33.02900 32.42700
C  -1.82000 32.57800 33.76000
H  -0.78800 32.66600 34.88000
N  -1.64600 36.37200 26.80000
C  -0.96500 37.05200 27.77900
C  -0.35100 38.25400 27.21200
C  -0.62500 38.22100 25.77000
C  -1.46700 37.01400 25.57500
C  0.42200 39.22900 27.96200
C  -0.11900 39.11100 24.58900
O  -0.59000 39.09300 23.42700
C  0.88900 40.12600 24.93500
N  -3.29200 34.46400 25.09800
C  -2.97000 35.43200 24.16200
C  -3.45100 35.09700 22.82500
C  -4.19100 33.75400 22.98400
C  -4.08500 33.50500 24.52500
C  -4.30700 36.23400 22.14200
C  -3.62900 32.54900 22.21100
C  -2.40900 31.80900 22.89500
N  -3.77900 32.80200 27.48800
C  -4.47400 31.98700 26.57100
C  -5.18600 30.90900 27.28100
C  -4.91100 31.21200 28.64100
C  -4.04500 32.31900 28.70700
C  -6.06000 29.89900 26.64900
C  -5.18800 30.78700 29.96300
O  -5.86300 29.86800 30.39300
C  -4.44000 31.78800 30.95000
C  -5.48300 32.53400 31.68800
O  -6.31400 33.37300 31.21600
O  -5.34100 32.23500 32.97700
C  -6.15000 33.07700 33.84200
H  -0.36800 37.29400 29.84000
H  -2.04200 37.18600 23.49100
H  -5.21500 31.69700 24.57300
H  -3.20000 34.22000 32.23100
H  -0.51700 35.58600 31.65900
H  -2.61400 37.59000 31.54900
H  -1.68100 37.18200 32.97800
H  -3.12300 36.37900 32.71100
H  -0.27300 33.32100 32.49400
H  -1.33100 32.21800 31.69900
H  -2.04700 31.52000 33.62700
H  -2.75000 33.08500 34.01700
H  0.28200 40.23600 27.57100
H  1.48100 38.98100 28.03400
H  0.22400 39.21300 29.03400
H  0.33800 40.87800 25.50100
H  1.24400 40.63500 24.03900
H  1.78900 39.82400 25.47000
H  -2.56200 34.87800 22.23200
H  -5.24800 33.79900 22.72100
H  -3.62900 36.64700 21.39500
H  -4.45200 37.01500 22.88800
H  -5.23500 35.93400 21.65500
H  -3.27500 32.84500 21.22400
H  -4.39300 31.79500 22.02200
H  -1.62300 31.88500 22.14400
H  -2.83500 30.80800 22.96500
H  -2.02200 32.00800 23.89500
H  -5.70500 29.56700 25.67300
H  -7.06900 30.29700 26.53500
H  -6.26800 29.05500 27.30600
H  -3.79800 31.24300 31.64300
H  -7.10500 33.42400 33.44800
H  -5.69600 34.01500 34.16100
H  -6.46200 32.55600 34.74700

