158

Mg 0.54900 8.27300 25.13400
C  1.31200 9.92800 28.29600
C  0.75000 5.31900 26.98400
C  0.20600 6.76500 22.30500
C  1.20900 11.28700 23.54600
N  0.86700 7.69700 27.44400
C  1.10600 8.56100 28.44200
C  1.29100 7.78000 29.80000
C  1.15900 6.29800 29.37200
C  1.00200 6.42000 27.80400
C  2.30700 5.27600 29.79300
C  0.28500 8.12900 30.96700
C  0.88600 8.58200 32.28500
H  1.98400 7.68500 32.83100
N  0.48300 6.26000 24.68700
C  0.54100 5.23500 25.55400
C  0.37100 4.01900 24.80300
C  0.22600 4.37900 23.40700
C  0.33900 5.83200 23.38800
C  0.31600 2.69100 25.48600
C  0.19300 3.49600 22.19800
O  0.00000 3.94800 21.08800
C  0.32800 1.97500 22.35400
N  0.80800 8.96700 23.20900
C  0.42900 8.12500 22.23600
C  0.70200 8.81600 20.85900
C  0.76900 10.30300 21.25300
C  0.94200 10.16400 22.75400
C  1.89800 8.24600 20.09200
C  -0.39400 11.23300 20.82200
C  -1.81600 11.11000 21.38600
N  1.17500 10.26200 25.68800
C  1.40900 11.38800 24.93500
C  1.74500 12.51400 25.78800
C  1.68600 12.02300 27.09400
C  1.38800 10.61300 27.00100
C  2.02900 13.88200 25.46800
C  1.80600 12.36500 28.51800
O  2.23100 13.42700 29.02500
C  1.57400 11.04300 29.34200
C  2.84300 10.78600 30.06500
O  3.83600 10.14300 29.69900
O  2.76600 11.45100 31.22500
C  3.86600 11.58700 32.15500
H  0.84600 4.32900 27.43500
H  -0.03400 6.31800 21.33900
H  1.37200 12.28200 23.12600
H  2.30600 8.10800 30.02400
H  0.19300 5.86800 29.63500
H  3.02800 5.57700 30.55400
H  2.81100 4.82500 28.93800
H  1.79900 4.46100 30.30800
H  -0.30100 7.25500 31.25100
H  -0.41900 8.84000 30.53400
H  0.11600 8.49100 33.05100
H  1.11400 9.64600 32.22100
H  -0.42100 2.08400 24.96200
H  -0.14700 2.71700 26.47200
H  1.28600 2.19800 25.55900
H  -0.44700 1.47300 22.93300
H  1.34200 1.91400 22.74900
H  0.35700 1.42500 21.41300
H  -0.19900 8.56600 20.29800
H  1.70100 10.77100 20.93400
H  2.74500 8.93100 20.05200
H  1.57500 8.10100 19.06100
H  2.20400 7.26700 20.45800
H  -0.43200 11.25700 19.73300
H  -0.07700 12.23100 21.12400
H  -2.05100 12.08400 21.81600
H  -1.79300 10.36900 22.18400
H  -2.58200 10.80900 20.67100
H  0.99900 14.21000 25.32800
H  2.60800 13.86000 24.54400
H  2.32900 14.46200 26.34000
H  0.66000 11.08700 29.93500
H  4.74800 11.70700 31.52600
H  4.11100 10.70700 32.74900
H  3.69100 12.34100 32.92300
Mg -12.44900 37.25900 42.03700
C  -10.08300 34.92500 41.04000
C  -10.52300 39.77100 40.60800
C  -15.08300 39.27400 42.30700
C  -14.54300 34.54900 42.97400
N  -10.72800 37.29900 40.65400
C  -9.81400 36.24800 40.61600
C  -8.56000 36.69400 39.75900
C  -8.60400 38.23400 39.91000
C  -10.06700 38.45200 40.47900
C  -7.50100 38.76300 40.82200
C  -8.63500 36.17300 38.22700
C  -7.34800 35.58900 37.67900
H  -6.58500 36.47300 36.65200
N  -12.78500 39.31400 41.52600
C  -11.84700 40.21200 41.01600
C  -12.43000 41.51100 40.95100
C  -13.73900 41.38200 41.47600
C  -13.95900 39.96100 41.80700
C  -11.67600 42.69400 40.39100
C  -14.82700 42.51900 41.48200
O  -14.55400 43.65100 41.09500
C  -16.16400 42.24500 42.04900
N  -14.57200 36.92500 42.46600
C  -15.42600 37.95900 42.56200
C  -16.79800 37.51500 43.11400
C  -16.65800 36.01200 43.35400
C  -15.13800 35.81600 43.00300
C  -17.25200 38.34100 44.31500
C  -17.63700 35.09000 42.46900
C  -18.44000 34.10000 43.34900
N  -12.32200 35.14900 42.12300
C  -13.19900 34.18800 42.62100
C  -12.52100 32.92100 42.72900
C  -11.30900 33.11600 42.07100
C  -11.24500 34.47000 41.65200
C  -13.03600 31.65900 43.31100
C  -10.10400 32.55600 41.48400
O  -9.71300 31.39700 41.65300
C  -9.29400 33.66400 40.78800
C  -7.99700 33.64000 41.47300
O  -7.67400 34.46000 42.31400
O  -7.27000 32.60300 40.99900
C  -5.96100 32.58300 41.60500
H  -9.82400 40.54200 40.27800
H  -15.99500 39.87000 42.37300
H  -15.28000 33.84900 43.37400
H  -7.66700 36.32200 40.26100
H  -8.53300 38.72400 38.94000
H  -7.12900 37.86200 41.31000
H  -7.84500 39.41800 41.62300
H  -6.71600 39.29100 40.28100
H  -8.99000 36.97100 37.57500
H  -9.39300 35.39000 38.20800
H  -7.54700 34.66300 37.14000
H  -6.72000 35.31700 38.52800
H  -11.88600 42.75100 39.32300
H  -10.60200 42.73000 40.57500
H  -11.98000 43.54700 40.99800
H  -16.62500 41.49100 41.41000
H  -16.72700 43.17800 42.07600
H  -15.92500 41.94100 43.06800
H  -17.45300 37.75300 42.27600
H  -16.73600 35.64400 44.37700
H  -17.69900 37.66000 45.04000
H  -18.01500 39.08700 44.09200
H  -16.34400 38.82000 44.68100
H  -17.03200 34.62500 41.69000
H  -18.41200 35.69100 41.99300
H  -18.28000 34.24100 44.41700
H  -17.96200 33.15500 43.09000
H  -19.42500 34.05600 42.88400
H  -14.07400 31.49300 43.02200
H  -13.02800 31.56700 44.39700
H  -12.44500 30.91100 42.78200
H  -9.17800 33.52000 39.71400
H  -6.01800 32.06300 42.56100
H  -5.41000 33.52000 41.68800
H  -5.40900 31.92600 40.93300

