158

Mg 36.64300 2.04300 29.58700
C  34.32600 2.96900 32.19300
C  38.98700 1.94600 32.00900
C  38.73900 1.23100 27.14800
C  34.04100 2.59900 27.26700
N  36.63200 2.29700 31.82500
C  35.54400 2.53800 32.71700
C  35.88500 2.67100 34.12400
C  37.47300 2.71100 34.00300
C  37.74000 2.32600 32.46600
C  38.28700 4.02800 34.21700
C  35.25600 1.55800 35.02300
C  34.75200 1.99000 36.40300
H  35.16700 3.32000 37.01000
N  38.67300 1.61100 29.54500
C  39.48500 1.61300 30.66000
C  40.87600 1.19100 30.25000
C  40.74700 0.97000 28.83300
C  39.34200 1.20200 28.41700
C  42.07500 1.04300 31.19300
C  41.80200 0.61700 27.76600
O  41.58400 0.54400 26.52600
C  43.18700 0.33200 28.24000
N  36.41200 2.02300 27.48200
C  37.40300 1.56800 26.62000
C  37.05500 1.63900 25.15100
C  35.46900 1.75000 25.35100
C  35.30300 2.14600 26.79100
C  37.76500 2.87900 24.41400
C  34.64200 0.47400 24.89100
C  33.27000 0.66200 24.09700
N  34.60600 2.57100 29.66000
C  33.70700 2.76100 28.61200
C  32.47600 3.25700 29.17400
C  32.67500 3.36100 30.52300
C  34.00400 2.97600 30.84000
C  31.22600 3.49200 28.37300
C  32.07600 3.68700 31.82300
O  30.97000 4.16100 32.02200
C  33.10200 3.46200 32.97300
C  33.27600 4.76000 33.74700
O  34.05300 5.62100 33.37900
O  32.29800 4.85700 34.73600
C  32.36300 6.08600 35.51500
H  39.66000 2.01500 32.86600
H  39.47700 1.05100 26.36300
H  33.29200 2.83700 26.50900
H  35.49500 3.66000 34.36500
H  38.02000 1.97000 34.58500
H  38.83700 3.88100 35.14600
H  37.60800 4.88000 34.25700
H  39.00700 4.08200 33.40000
H  35.96000 0.76800 35.28400
H  34.40200 1.03400 34.59400
H  35.09400 1.17800 37.04500
H  33.66500 1.94700 36.34000
H  42.84000 1.76000 30.89400
H  42.48300 0.03700 31.08900
H  41.80900 1.10400 32.24900
H  43.83900 -0.10600 27.48400
H  43.03700 -0.40900 29.02600
H  43.45100 1.35700 28.50100
H  37.40600 0.68000 24.77000
H  35.10500 2.63300 24.82600
H  38.28700 2.54300 23.51800
H  38.40400 3.38800 25.13500
H  36.99600 3.57600 24.08200
H  34.39400 0.05800 25.86800
H  35.26900 -0.28700 24.42700
H  33.06700 1.71800 23.91600
H  32.44000 0.15700 24.59100
H  33.41700 0.15600 23.14400
H  31.45600 4.04700 27.46300
H  30.38000 3.88100 28.93800
H  30.84900 2.49100 28.16500
H  32.59200 2.67600 33.53000
H  32.59000 5.71500 36.51400
H  31.37400 6.53000 35.40300
H  33.15200 6.78000 35.22700
Mg 41.43300 8.94600 29.77900
C  43.40500 10.03800 32.42900
C  39.17000 7.68500 31.95200
C  39.80300 7.66900 27.12100
C  43.86900 10.09500 27.60500
N  41.36800 8.72300 32.01900
C  42.19300 9.38900 32.87800
C  41.64800 9.40100 34.38700
C  40.27900 8.64700 34.21100
C  40.26000 8.27400 32.65800
C  39.96300 7.38700 35.06700
C  41.45200 10.79300 34.99800
C  42.23600 11.01800 36.36000
H  41.66700 11.82400 37.51000
N  39.82200 7.75100 29.55700
C  38.96600 7.37400 30.56000
C  37.81300 6.60500 30.05500
C  38.00900 6.61200 28.64300
C  39.28600 7.43000 28.36700
C  36.69100 6.11600 30.88800
C  37.05700 6.05600 27.56300
O  37.24500 6.08700 26.34400
C  35.65900 5.42400 27.85900
N  41.69500 8.96300 27.60500
C  40.88800 8.40900 26.71100
C  41.40900 8.41600 25.27400
C  42.64700 9.32900 25.50700
C  42.76400 9.48000 26.97900
C  41.58400 7.11800 24.50400
C  42.49400 10.72100 24.80400
C  41.59000 11.72900 25.50000
N  43.32600 9.84900 29.92700
C  44.17700 10.26000 28.99700
C  45.36600 10.83000 29.59400
C  45.06900 10.89900 31.00300
C  43.86700 10.25900 31.10100
C  46.59100 11.34600 28.90300
C  45.53300 11.31600 32.30100
O  46.45000 12.07000 32.64800
C  44.46100 10.76200 33.30700
C  45.12200 9.89000 34.33000
O  45.32100 8.67400 34.12700
O  45.45200 10.58600 35.44300
C  45.79400 9.68400 36.52600
H  38.37800 7.30200 32.59800
H  39.21700 7.28000 26.28600
H  44.61000 10.54300 26.94100
H  42.26500 8.80400 35.05800
H  39.52200 9.43100 34.24600
H  40.59800 7.43400 35.95200
H  39.99700 6.46500 34.48600
H  38.94700 7.50000 35.44600
H  40.41300 11.08800 35.15100
H  41.93600 11.39400 34.22900
H  43.13500 11.62000 36.23000
H  42.54900 10.05100 36.75300
H  36.37900 5.09300 30.67500
H  35.91600 6.85200 30.67400
H  36.84300 6.08000 31.96600
H  35.86500 4.60900 28.55300
H  35.07700 5.24200 26.95600
H  35.02000 6.14000 28.37500
H  40.65000 8.98900 24.74200
H  43.59800 8.89100 25.20400
H  41.47900 7.19100 23.42100
H  40.85700 6.40200 24.88900
H  42.60800 6.77300 24.64400
H  42.02800 10.58300 23.82800
H  43.45000 11.21800 24.63800
H  41.74700 11.77600 26.57800
H  40.53100 11.60200 25.27500
H  41.89100 12.75400 25.28100
H  46.88000 10.55600 28.20900
H  47.36600 11.38900 29.66900
H  46.52000 12.35700 28.50100
H  44.11200 11.66700 33.80400
H  45.69700 10.18300 37.49000
H  46.73700 9.13900 36.48300
H  44.93500 9.02200 36.63800

