158

Mg 8.63700 2.87400 27.70600
C  9.98900 1.26300 30.52000
C  6.56400 4.73300 29.64800
C  7.35200 4.31700 24.93700
C  10.50900 0.67800 25.76900
N  8.33000 2.97200 29.79300
C  8.99100 2.20400 30.73200
C  8.64600 2.75300 32.16000
C  7.53300 3.77300 31.85800
C  7.36700 3.75300 30.31500
C  6.30200 3.67900 32.70800
C  9.85700 3.40700 32.88600
C  9.48100 4.27500 34.08300
H  10.28800 4.03700 35.39700
N  7.12500 4.40200 27.31900
C  6.47000 5.11400 28.30300
C  5.80100 6.20100 27.62100
C  6.07600 6.13400 26.21500
C  6.96400 4.93100 26.13400
C  5.03500 7.28300 28.43500
C  5.48500 6.90900 25.03400
O  5.64100 6.55300 23.91000
C  4.50100 7.98700 25.33700
N  8.74500 2.49100 25.65400
C  8.18000 3.20600 24.69100
C  8.56900 2.79000 23.25700
C  9.59500 1.68200 23.54300
C  9.69800 1.62600 25.10700
C  7.34000 2.51000 22.38500
C  11.01800 1.80300 22.93600
C  11.61400 0.48700 22.28000
N  9.92700 1.20900 28.00300
C  10.65200 0.43600 27.15700
C  11.49700 -0.50200 27.81900
C  11.16600 -0.26900 29.21400
C  10.31300 0.79400 29.23200
C  12.43700 -1.53100 27.15700
C  11.46700 -0.61500 30.55400
O  12.13400 -1.53000 31.02200
C  10.73200 0.41000 31.46500
C  9.91800 -0.29600 32.56400
O  9.02400 -1.09800 32.27300
O  10.22500 0.17600 33.79900
C  9.44400 -0.45200 34.90400
H  5.88800 5.38200 30.20900
H  7.22500 4.71200 23.92700
H  11.13200 0.18200 25.02200
H  8.40700 1.92300 32.82600
H  7.81800 4.81000 32.03400
H  5.99000 4.67100 33.03700
H  6.52500 3.03300 33.55700
H  5.47500 3.30300 32.10500
H  10.42500 3.99800 32.16800
H  10.56800 2.62100 33.14300
H  8.41000 4.34500 34.27200
H  9.78900 5.27900 33.79100
H  5.41900 8.29600 28.31400
H  5.16200 7.12700 29.50600
H  3.97200 7.28800 28.19500
H  5.00500 8.70300 25.98700
H  3.70900 7.50000 25.90500
H  4.10800 8.56700 24.50200
H  9.00300 3.65400 22.75300
H  9.20800 0.76500 23.09700
H  6.40900 2.72000 22.91200
H  7.44700 1.49500 22.00200
H  7.50800 3.16300 21.52900
H  11.63800 2.10100 23.78200
H  11.01800 2.62000 22.21300
H  12.18900 0.67900 21.37400
H  10.78700 -0.17300 22.01900
H  12.25700 0.04900 23.04300
H  12.00600 -2.52900 27.24200
H  13.48000 -1.59800 27.46500
H  12.46700 -1.31600 26.08900
H  11.51300 0.90900 32.03900
H  10.24800 -0.58000 35.62900
H  9.03500 -1.45500 34.77400
H  8.65400 0.05600 35.45700
Mg 36.11400 48.94500 24.65700
C  36.34700 47.04700 27.78000
C  35.13100 51.51000 26.34700
C  35.26200 50.15500 21.65200
C  37.04200 45.91700 23.01400
N  35.77100 49.18000 26.83800
C  36.03500 48.42500 27.91500
C  35.80200 49.20200 29.24600
C  35.39300 50.64900 28.75600
C  35.42100 50.44900 27.19300
C  34.01500 51.20500 29.31900
C  36.83300 49.11200 30.40500
C  36.30000 48.49500 31.72800
H  34.88500 48.75600 32.20100
N  35.29100 50.58400 24.12000
C  34.97100 51.59600 24.93400
C  34.42900 52.62100 24.18500
C  34.46300 52.27500 22.77500
C  35.00700 50.94900 22.77300
C  33.96300 53.90400 24.78900
C  34.12400 53.11400 21.56200
O  34.07700 52.74300 20.35900
C  33.59100 54.47300 21.73800
N  36.03000 48.06700 22.63100
C  35.66900 48.83600 21.55700
C  36.03200 48.15000 20.17400
C  36.71900 46.87500 20.69300
C  36.65200 46.96100 22.23700
C  34.88700 47.92500 19.17700
C  38.18300 46.68900 20.18200
C  39.32900 47.45600 20.96200
N  36.54800 46.76500 25.21300
C  37.01200 45.79400 24.41900
C  37.26100 44.62000 25.19800
C  36.92800 45.03900 26.52900
C  36.61600 46.39400 26.48600
C  37.68400 43.22400 24.73200
C  36.70600 44.55900 27.89100
O  36.60300 43.44600 28.39300
C  36.53900 45.90600 28.80500
C  35.36600 45.67100 29.59700
O  34.18200 45.95900 29.31100
O  35.73300 45.10400 30.78900
C  34.69300 44.54300 31.61200
H  34.82800 52.40300 26.89700
H  35.21600 50.73000 20.72500
H  37.35700 45.07300 22.39800
H  34.92300 48.66800 29.60700
H  36.22200 51.33700 28.91500
H  34.23700 52.25700 29.49800
H  33.74800 50.69600 30.24500
H  33.21100 51.15400 28.58500
H  37.26400 50.09400 30.60100
H  37.62400 48.52300 29.94200
H  36.98300 48.83600 32.50600
H  36.45500 47.42600 31.57500
H  32.99900 54.28400 24.45100
H  34.64200 54.74600 24.65200
H  33.91000 53.83500 25.87600
H  34.35500 54.90300 22.38500
H  32.61500 54.44100 22.22200
H  33.48400 55.06500 20.82900
H  36.74900 48.83600 19.72400
H  36.12900 45.97700 20.51300
H  34.03700 48.54300 19.46800
H  34.59200 46.88200 19.06200
H  35.27900 48.23900 18.20900
H  38.23400 46.95600 19.12600
H  38.38900 45.62300 20.27800
H  38.89600 48.07200 21.75100
H  39.89300 48.14500 20.33300
H  40.09900 46.79800 21.36400
H  37.05800 42.87800 23.90900
H  37.60200 42.50100 25.54300
H  38.74600 43.27500 24.49100
H  37.47000 45.94600 29.37100
H  33.96400 43.94000 31.07100
H  34.03600 45.28400 32.06700
H  35.10200 43.82000 32.31700

