158

Mg 41.35200 41.09600 27.23600
C  41.22300 43.72900 29.58900
C  41.98100 38.93300 29.83100
C  42.02800 38.61500 25.01500
C  40.75400 43.29000 24.70000
N  41.72200 41.33800 29.48700
C  41.48400 42.43300 30.20600
C  41.43700 42.08700 31.70200
C  41.82700 40.61500 31.70800
C  41.84400 40.24500 30.24300
C  43.15300 40.25000 32.52000
C  40.17600 42.57400 32.39600
C  39.63700 41.89300 33.63800
H  39.24100 42.75200 34.86900
N  41.81400 39.05500 27.41200
C  42.08800 38.38600 28.59300
C  42.49200 37.00700 28.18800
C  42.41700 36.82500 26.80100
C  42.01700 38.19600 26.34300
C  42.84000 36.01000 29.18000
C  42.53300 35.61800 25.94500
O  42.33500 35.72600 24.73500
C  42.68700 34.25600 26.56100
N  41.41400 40.97400 25.18600
C  41.67100 39.86200 24.47800
C  41.44700 40.13300 22.95400
C  40.72300 41.55500 22.90700
C  40.96500 41.97300 24.36400
C  42.73600 40.14400 22.02700
C  39.21400 41.57800 22.51300
C  38.22600 40.58800 23.13400
N  40.99100 43.02100 27.12800
C  40.82100 43.83900 25.98500
C  40.69600 45.23300 26.42100
C  40.82400 45.18400 27.84300
C  41.06000 43.83600 28.20500
C  40.51700 46.36200 25.43900
C  40.92100 45.98700 28.97400
O  40.85500 47.23800 29.06500
C  41.08000 45.04000 30.21600
C  42.24100 45.41200 31.03800
O  43.40000 45.14800 30.79100
O  41.83500 45.97800 32.23100
C  42.74900 45.96100 33.35500
H  42.14800 38.34500 30.73600
H  42.40900 37.99900 24.19800
H  40.46900 43.95200 23.87900
H  42.23500 42.69200 32.13000
H  40.96100 40.04500 32.04500
H  42.90800 39.43600 33.20100
H  43.63400 41.04000 33.09700
H  43.93600 39.82000 31.89500
H  39.49000 42.39200 31.56800
H  40.21500 43.63600 32.63800
H  40.46100 41.27100 33.98800
H  38.88700 41.26200 33.16100
H  42.19900 35.12900 29.19400
H  42.75500 36.45000 30.17400
H  43.83500 35.57900 29.06800
H  42.56300 33.46500 25.82200
H  41.91300 34.17600 27.32400
H  43.69400 34.41300 26.94800
H  40.66900 39.42900 22.65800
H  41.27000 42.22600 22.24400
H  42.34600 39.78800 21.07400
H  43.41000 39.45000 22.52900
H  43.15900 41.13500 21.85800
H  39.16200 41.50800 21.42700
H  38.85100 42.53400 22.89000
H  37.72400 40.20400 22.24500
H  37.62400 41.09900 23.88500
H  38.74200 39.73000 23.56500
H  40.16400 47.18400 26.06200
H  39.91000 46.12100 24.56600
H  41.51700 46.56300 25.05500
H  40.16500 45.05000 30.80900
H  42.50900 45.24400 34.13900
H  42.81200 46.99900 33.68200
H  43.74900 45.57000 33.16300
Mg 30.28100 60.15400 39.65500
C  27.33200 58.56600 38.42900
C  31.97400 57.31400 38.59100
C  33.22000 61.79700 40.01900
C  28.50300 63.06400 40.12600
N  29.69200 58.19700 38.48900
C  28.50300 57.78100 38.12900
C  28.61800 56.39100 37.41700
C  29.99700 55.85900 37.91000
C  30.63300 57.22400 38.30200
C  30.04700 54.79600 39.10000
C  28.45400 56.52400 35.89100
C  27.34400 55.71300 35.12900
H  26.53000 56.51300 34.08400
N  32.26800 59.61400 39.37400
C  32.75400 58.33300 38.98300
C  34.16200 58.31100 39.16400
C  34.62700 59.64500 39.44400
C  33.37600 60.44200 39.61900
C  34.99100 57.05900 38.86900
C  36.12800 60.03400 39.69100
O  36.97300 59.19900 39.56900
C  36.51200 61.38600 40.14900
N  30.83600 62.21700 39.77600
C  32.05900 62.59600 40.10600
C  32.01200 64.08200 40.34600
C  30.56700 64.42200 40.74700
C  29.88400 63.13600 40.19900
C  33.10700 64.54900 41.43800
C  30.10500 65.69900 40.04300
C  29.67700 66.83700 41.02500
N  28.31500 60.71100 39.60700
C  27.75700 61.94500 39.76500
C  26.34400 61.86100 39.55500
C  26.13100 60.49900 39.11800
C  27.37300 59.88200 39.06500
C  25.34800 62.85700 39.56200
C  25.16200 59.55700 38.57700
O  23.97600 59.67800 38.30900
C  25.84800 58.20600 38.29400
C  25.49000 57.19700 39.33600
O  25.84000 57.29600 40.51100
O  24.55000 56.38500 38.83100
C  23.76900 55.69400 39.79500
H  32.52100 56.43500 38.24400
H  34.12700 62.39900 40.09900
H  27.92800 63.97700 40.29800
H  27.86400 55.74200 37.86200
H  30.55600 55.33400 37.13500
H  29.04200 54.80600 39.52300
H  30.84500 55.09300 39.78000
H  30.27400 53.81300 38.68800
H  29.39300 56.17900 35.45800
H  28.32200 57.52000 35.46700
H  26.68400 55.31100 35.89800
H  27.85500 54.93700 34.55900
H  35.85300 56.84700 39.50100
H  35.39800 57.00000 37.85900
H  34.51800 56.10300 39.09700
H  37.59300 61.47900 40.25700
H  36.07200 61.40400 41.14600
H  36.17800 62.18200 39.48400
H  32.40100 64.55300 39.44300
H  30.38400 64.22800 41.80400
H  32.69700 65.25900 42.15700
H  33.90600 65.09400 40.93400
H  33.50800 63.77400 42.09000
H  29.34700 65.50900 39.28200
H  30.86500 66.24000 39.48000
H  30.06200 67.73700 40.54700
H  30.12700 66.65200 42.00100
H  28.61100 66.87200 41.24800
H  24.82200 62.81300 38.60800
H  25.78200 63.84800 39.69500
H  24.64000 62.80600 40.38900
H  25.49600 57.87000 37.31900
H  24.28500 54.85300 40.25600
H  22.96600 55.27500 39.18900
H  23.32700 56.43900 40.45700

