158

Mg 26.91500 50.28100 26.55500
C  24.68300 51.38200 29.13100
C  29.13300 49.72000 28.89500
C  29.10000 49.69900 24.10300
C  24.60700 51.43600 24.15200
N  26.85000 50.49800 28.80300
C  25.83100 50.80200 29.66200
C  26.14300 50.49900 31.09700
C  27.71100 50.28600 31.02000
C  27.94900 50.12400 29.45600
C  28.67700 51.24700 31.74900
C  25.31300 49.29400 31.63000
C  24.31200 49.64800 32.85300
H  24.24000 48.69700 34.01900
N  28.83200 49.63100 26.52400
C  29.59300 49.36300 27.59500
C  30.92900 49.04800 27.16300
C  30.89600 48.93800 25.76200
C  29.57700 49.43500 25.36000
C  32.05300 48.94000 28.18200
C  32.07800 48.53200 24.88500
O  32.05800 48.89000 23.69400
C  33.31800 47.89000 25.48300
N  26.82100 50.62200 24.42400
C  27.91000 50.23900 23.66600
C  27.44500 50.10700 22.14300
C  25.91000 50.58500 22.09200
C  25.67900 50.74400 23.64000
C  28.41200 50.85300 21.18900
C  24.98700 49.55400 21.39800
C  23.95300 50.12300 20.41100
N  25.03800 51.18100 26.56100
C  24.27200 51.69500 25.48900
C  23.06700 52.31200 26.00000
C  23.11700 52.18200 27.45400
C  24.38200 51.52700 27.71000
C  21.97400 52.95700 25.15600
C  22.55300 52.45600 28.74900
O  21.55500 53.06100 29.04600
C  23.50000 51.83200 29.87200
C  23.89000 52.94500 30.77900
O  24.50700 53.96000 30.52100
O  23.32900 52.67700 32.03300
C  23.83100 53.50900 33.16500
H  29.85400 49.45400 29.67000
H  29.67900 49.37600 23.23500
H  23.81300 51.72200 23.46000
H  25.93200 51.40400 31.66700
H  27.79100 49.31200 31.50300
H  29.31900 51.72100 31.00700
H  29.35300 50.63300 32.34400
H  28.11000 51.95700 32.35100
H  25.97000 48.46400 31.88900
H  24.70500 48.94900 30.79400
H  23.29400 49.62400 32.46500
H  24.39100 50.70000 33.12800
H  32.97800 49.45800 27.92800
H  32.30600 47.88800 28.31600
H  31.79200 49.43500 29.11700
H  33.02400 47.10500 26.17800
H  33.84100 48.60900 26.11300
H  34.00400 47.46700 24.74800
H  27.48100 49.04200 21.91300
H  25.80700 51.59900 21.70500
H  28.91300 50.27900 20.41000
H  29.12600 51.39700 21.80700
H  27.86300 51.62400 20.64700
H  24.32600 49.20500 22.19100
H  25.52400 48.71200 20.96100
H  22.92400 49.80000 20.57000
H  24.09100 49.58000 19.47600
H  23.94800 51.21300 20.37700
H  21.38400 52.25300 24.56900
H  22.41100 53.76100 24.56300
H  21.30800 53.49600 25.82900
H  23.02200 51.08900 30.51100
H  24.27900 54.43600 32.80900
H  24.64700 52.94200 33.61200
H  23.01500 53.68400 33.86600
Mg -2.47700 34.68100 25.94600
C  -4.29200 32.94500 28.56900
C  -0.86100 36.44200 28.47200
C  -0.86300 36.28700 23.62800
C  -4.35300 32.84700 23.63500
N  -2.63600 34.73700 28.26600
C  -3.34800 33.89200 29.06300
C  -3.02000 34.11400 30.57500
C  -2.05400 35.37100 30.49400
C  -1.76800 35.53900 28.98200
C  -2.60100 36.75600 31.13600
C  -2.38300 32.89100 31.18300
C  -2.90700 32.59000 32.57000
H  -1.92600 32.41400 33.77700
N  -1.03200 36.19000 26.00300
C  -0.53800 36.81300 27.10600
C  0.44300 37.74900 26.65500
C  0.61900 37.56100 25.27500
C  -0.43700 36.62900 24.89500
C  1.06200 38.74400 27.60000
C  1.55100 38.22700 24.32700
O  1.55500 38.04300 23.14000
C  2.76300 38.99000 24.87100
N  -2.65300 34.58000 23.86200
C  -1.83900 35.39700 23.11400
C  -2.16600 35.22200 21.55500
C  -3.19100 34.05100 21.63200
C  -3.40200 33.75600 23.10600
C  -2.62200 36.57300 20.92700
C  -2.81100 32.87900 20.68100
C  -1.78100 31.92100 21.23600
N  -4.09000 33.28400 26.04500
C  -4.65800 32.54600 24.96600
C  -5.59200 31.59200 25.49700
C  -5.49900 31.75600 26.86800
C  -4.50900 32.68600 27.22100
C  -6.38100 30.70300 24.59100
C  -6.01900 31.35400 28.17800
O  -6.95800 30.68600 28.47700
C  -5.18500 31.97100 29.27900
C  -6.12700 32.64600 30.14200
O  -6.67500 33.74300 29.98900
O  -6.42700 31.91300 31.29400
C  -7.13900 32.49900 32.39100
H  -0.33300 36.93900 29.28900
H  -0.29400 36.66800 22.77800
H  -4.79800 32.23700 22.84600
H  -3.95200 34.48500 31.00300
H  -1.10500 35.12300 30.97000
H  -3.68300 36.88400 31.15900
H  -2.31100 37.65400 30.59100
H  -2.20300 36.98500 32.12500
H  -1.30300 33.03900 31.19000
H  -2.43700 32.00100 30.55600
H  -3.43600 31.64700 32.42900
H  -3.64000 33.28800 32.97400
H  0.65600 38.75500 28.61100
H  1.02900 39.78200 27.26800
H  2.07800 38.34900 27.59700
H  3.61000 38.92700 24.18800
H  3.05500 38.26600 25.63100
H  2.35300 39.83900 25.41700
H  -1.16300 34.98000 21.20200
H  -4.14900 34.29400 21.17100
H  -3.69800 36.65600 20.77100
H  -2.08400 36.61900 19.98000
H  -2.20200 37.42000 21.46800
H  -2.32600 33.28400 19.79300
H  -3.66300 32.31800 20.29700
H  -1.42700 32.40400 22.14600
H  -0.94900 31.82100 20.53900
H  -2.34600 31.01500 21.45700
H  -5.89600 30.39100 23.66600
H  -7.29800 31.24700 24.36400
H  -6.47600 29.75300 25.11700
H  -4.67900 31.19600 29.85400
H  -7.81800 33.22000 31.93600
H  -6.46900 33.15100 32.95200
H  -7.55700 31.80000 33.11600

