158

Mg 25.46100 1.00400 30.04100
C  27.73700 1.11100 32.88400
C  22.90600 1.69000 32.17600
C  23.34200 0.48800 27.54300
C  28.09300 0.15900 27.97100
N  25.39800 1.47300 32.27500
C  26.37800 1.48200 33.20300
C  25.81200 1.84800 34.64600
C  24.25900 1.88000 34.40400
C  24.18300 1.60900 32.86600
C  23.38500 0.97100 35.28800
C  26.33000 3.17200 35.29300
C  27.19600 3.17500 36.51000
H  26.97400 4.17500 37.65300
N  23.45200 1.08400 29.91000
C  22.56800 1.37500 30.90200
C  21.20400 1.25000 30.42400
C  21.31600 0.85900 29.04100
C  22.74700 0.73800 28.81000
C  20.05100 1.72700 31.36600
C  20.18100 0.80400 28.01800
O  20.42200 0.60000 26.81600
C  18.69500 0.95900 28.47400
N  25.64800 0.46400 28.05600
C  24.66400 0.42400 27.20000
C  25.18500 0.31500 25.72500
C  26.72600 0.18100 25.84600
C  26.84900 0.30200 27.39500
C  24.47200 -0.74600 24.83200
C  27.74200 1.22900 25.15800
C  27.74100 2.68500 25.60300
N  27.50200 0.70200 30.30300
C  28.43800 0.38500 29.36700
C  29.79000 0.50100 29.96800
C  29.54800 0.70800 31.33700
C  28.15700 0.80400 31.49500
C  31.04700 0.25600 29.19900
C  30.15900 0.88400 32.62400
O  31.36400 0.92600 32.85600
C  29.00100 1.14000 33.71400
C  28.93200 0.15700 34.81700
O  28.27900 -0.90000 34.80100
O  29.74900 0.65200 35.86600
C  29.64700 0.03100 37.21500
H  22.10800 1.96100 32.87000
H  22.60200 0.40000 26.74500
H  29.02000 -0.20900 27.52600
H  25.92100 1.01400 35.34000
H  23.81300 2.87400 34.44800
H  22.58100 1.53100 35.76500
H  23.95900 0.48600 36.07800
H  22.90200 0.23200 34.65000
H  25.48300 3.83400 35.47600
H  26.87300 3.67700 34.49400
H  28.21200 3.31400 36.14100
H  27.15200 2.15700 36.89700
H  19.22300 1.02600 31.26600
H  19.74200 2.68700 30.95200
H  20.25600 1.73600 32.43700
H  18.07800 1.11200 27.58800
H  18.80400 1.88200 29.04400
H  18.33900 0.07200 28.99800
H  24.92300 1.27100 25.27100
H  27.10600 -0.83400 25.73200
H  25.09800 -1.63700 24.88000
H  24.31400 -0.42800 23.80100
H  23.45100 -0.87300 25.19200
H  27.45900 1.17700 24.10700
H  28.75300 0.84300 25.29000
H  27.16900 2.89700 26.50700
H  27.45400 3.33100 24.77300
H  28.77500 2.91400 25.86000
H  31.19400 -0.82200 29.12100
H  31.90500 0.59700 29.77800
H  31.12400 0.51000 28.14200
H  29.19900 2.11200 34.16600
H  30.60300 -0.12600 37.71500
H  29.29400 -0.99300 37.09500
H  28.89900 0.49600 37.85800
Mg 36.76600 49.63900 23.79100
C  36.62300 48.33900 27.14600
C  35.43500 52.52500 25.16100
C  36.78600 50.86700 20.83600
C  37.52400 46.50500 22.62000
N  35.98800 50.23100 25.96700
C  36.15800 49.61700 27.13800
C  35.67400 50.50100 28.33000
C  35.19400 51.80800 27.68200
C  35.49800 51.51300 26.13800
C  33.69200 52.26900 28.01600
C  36.82100 50.69900 29.45800
C  36.53600 50.19200 30.83400
H  35.09700 50.41700 31.29600
N  36.08500 51.50200 23.04600
C  35.69100 52.57500 23.81800
C  35.58100 53.67500 22.86600
C  35.95600 53.19900 21.54900
C  36.30300 51.83700 21.76300
C  35.10400 55.12600 23.26900
C  35.91600 53.89500 20.19900
O  36.06900 53.29400 19.19200
C  35.56200 55.31400 20.15200
N  37.09600 48.79800 22.01000
C  37.20100 49.56100 20.88600
C  37.51800 48.69300 19.65100
C  37.71200 47.30400 20.26400
C  37.37500 47.49200 21.69000
C  36.51800 48.77400 18.46700
C  39.01300 46.49800 20.07800
C  40.37000 47.18200 20.49800
N  37.06200 47.75700 24.66100
C  37.34700 46.55800 23.99300
C  37.54200 45.49600 25.01700
C  37.26000 46.20500 26.22400
C  36.95200 47.54400 25.99200
C  37.83000 44.04200 24.70000
C  37.14600 46.05100 27.67200
O  37.45600 45.09000 28.34700
C  36.80200 47.39600 28.34300
C  35.46000 47.07000 29.05600
O  34.36300 47.23700 28.62200
O  35.84900 46.48800 30.24600
C  34.78400 46.11400 31.20800
H  35.11400 53.48400 25.57400
H  36.70200 51.29100 19.83300
H  37.73500 45.50100 22.24600
H  34.80700 49.97300 28.72900
H  35.81200 52.62500 28.05500
H  33.61800 53.28400 28.40800
H  33.20900 51.61100 28.73800
H  33.11700 52.29200 27.09100
H  37.13200 51.73000 29.62900
H  37.70700 50.24900 29.00900
H  37.25000 50.61000 31.54400
H  36.68100 49.11500 30.74500
H  34.25000 55.50100 22.70400
H  35.92000 55.84800 23.24700
H  34.74500 55.13200 24.29800
H  36.34800 55.86100 20.67100
H  34.57700 55.49300 20.58300
H  35.58800 55.51000 19.08000
H  38.43800 49.05400 19.19200
H  36.91300 46.72600 19.80100
H  35.53600 48.43600 18.79700
H  36.82400 48.10500 17.66300
H  36.50600 49.79100 18.07500
H  39.15800 46.30900 19.01500
H  38.99200 45.48600 20.48200
H  40.24800 48.12300 21.03500
H  41.01500 47.42700 19.65400
H  40.94500 46.49500 21.11800
H  37.34200 43.45800 25.48000
H  38.91700 43.97500 24.73900
H  37.47000 43.63300 23.75600
H  37.64000 47.72400 28.95700
H  34.33600 45.19400 30.83400
H  34.03000 46.90000 31.25200
H  35.27200 46.00000 32.17700

