158

Mg 1.69000 -1.07100 44.12900
C  5.09800 -0.25300 43.43300
C  0.81400 1.69400 42.26600
C  -1.37600 -2.05200 44.54200
C  2.87700 -4.04800 45.47300
N  2.84700 0.48000 42.88700
C  4.19100 0.64500 42.83200
C  4.58500 1.76200 41.91600
C  3.22800 2.58700 41.75200
C  2.21300 1.54200 42.26400
C  2.99900 3.82400 42.65200
C  5.35700 1.34300 40.58500
C  6.70000 2.01000 40.28300
H  7.00200 2.72900 39.02100
N  -0.01800 -0.19400 43.62600
C  -0.18800 0.87100 42.80400
C  -1.63700 1.14400 42.60900
C  -2.28600 0.14400 43.28500
C  -1.25000 -0.74400 43.91500
C  -2.22200 2.22600 41.79100
C  -3.86600 0.08300 43.36100
O  -4.56600 0.88500 42.75600
C  -4.59200 -1.01400 44.06400
N  0.91000 -2.85200 44.79900
C  -0.44700 -3.03500 44.83100
C  -0.86700 -4.41700 45.36500
C  0.48000 -4.90500 45.99200
C  1.48200 -3.90700 45.33600
C  -2.21400 -4.67500 46.18500
C  0.69300 -6.45200 45.91400
C  0.87700 -7.17900 47.23100
N  3.57100 -2.01700 44.37200
C  3.87900 -3.26200 44.88200
C  5.32600 -3.47700 44.91400
C  5.82200 -2.24100 44.49000
C  4.73800 -1.43200 44.03500
C  6.03500 -4.69100 45.45400
C  7.04600 -1.47400 44.36200
O  8.16300 -1.73000 44.77400
C  6.60800 -0.16700 43.63500
C  6.99900 0.95300 44.50700
O  6.67500 1.06600 45.67900
O  7.77500 1.84600 43.82900
C  8.57900 2.81600 44.61400
H  0.55500 2.55300 41.64300
H  -2.41600 -2.37300 44.63600
H  3.18200 -4.92500 46.04800
H  5.36500 2.35100 42.39900
H  2.90900 2.82200 40.73600
H  3.84200 4.13800 43.26700
H  2.18500 3.69300 43.36500
H  2.69400 4.65700 42.02000
H  4.69100 1.40200 39.72300
H  5.58700 0.28100 40.67100
H  7.47900 1.25300 40.38100
H  6.83900 2.77100 41.05100
H  -2.91300 1.82500 41.05000
H  -1.48300 2.87900 41.32800
H  -2.89700 2.81100 42.41600
H  -5.62500 -0.70500 44.22600
H  -4.18400 -0.95800 45.07400
H  -4.35200 -2.00900 43.68900
H  -1.01100 -4.87500 44.38600
H  0.41300 -4.67600 47.05500
H  -2.91000 -5.35300 45.69000
H  -2.66500 -3.71200 46.42100
H  -1.88600 -5.17400 47.09700
H  1.58600 -6.60600 45.30700
H  -0.09900 -6.89500 45.31100
H  0.34500 -8.12300 47.11200
H  0.41500 -6.65300 48.06700
H  1.95600 -7.16400 47.38500
H  7.07800 -4.58400 45.15600
H  5.64900 -5.58200 44.95900
H  5.98100 -4.72200 46.54200
H  7.23800 -0.13400 42.74700
H  9.51000 2.97000 44.06900
H  8.69000 2.46200 45.64000
H  8.18200 3.83100 44.60800
Mg 49.23300 34.48700 26.10100
C  47.21300 33.24400 28.68300
C  50.15700 36.98200 28.07800
C  50.67700 35.77300 23.31600
C  48.07700 31.81700 24.14400
N  48.64600 35.04200 28.16800
C  47.90000 34.40800 29.04200
C  48.03100 35.08800 30.42700
C  48.69400 36.41100 30.13200
C  49.27200 36.12400 28.71300
C  47.77900 37.61500 30.14300
C  48.80100 34.18600 31.46600
C  48.10600 34.19000 32.86200
H  47.43700 35.41300 33.34600
N  50.36600 36.08800 25.79600
C  50.67400 36.99800 26.74400
C  51.56300 37.92600 26.16500
C  51.74900 37.55400 24.73200
C  50.86500 36.43900 24.53600
C  52.19600 39.09200 26.86600
C  52.62800 38.25800 23.63300
O  52.81500 37.80200 22.49200
C  53.38200 39.55300 24.10900
N  49.22900 33.95300 23.96800
C  49.97100 34.62500 23.00300
C  50.06300 33.81900 21.64800
C  49.42400 32.46900 22.03100
C  48.96300 32.74800 23.50500
C  49.31600 34.50000 20.39800
C  50.37400 31.27200 21.85100
C  49.82100 30.03700 21.13800
N  47.78400 32.89100 26.22100
C  47.50400 31.83500 25.38900
C  46.57000 30.88200 26.05700
C  46.29900 31.50600 27.31000
C  47.20500 32.60900 27.40600
C  45.96900 29.61700 25.57800
C  45.62600 31.30500 28.49400
O  44.78800 30.49000 28.83100
C  46.14800 32.49600 29.43400
C  46.47100 31.83300 30.77700
O  47.53400 31.30200 31.07200
O  45.33900 31.96300 31.54700
C  45.49600 31.27000 32.86100
H  50.39400 37.91000 28.60300
H  51.11500 36.19500 22.40900
H  47.95700 30.88800 23.58300
H  46.99400 35.23800 30.72600
H  49.42800 36.68900 30.88800
H  46.94400 37.62000 30.84300
H  47.39500 37.63600 29.12300
H  48.30000 38.56900 30.21500
H  49.75600 34.69500 31.59700
H  48.88800 33.19500 31.02200
H  48.93300 34.15100 33.57100
H  47.46000 33.33100 33.04200
H  52.11700 38.93700 27.94200
H  51.70300 40.06000 26.78700
H  53.26400 39.10800 26.64700
H  52.60100 40.13900 24.59300
H  53.85200 40.00300 23.23400
H  54.23200 39.30700 24.74500
H  51.11800 33.66700 21.42200
H  48.54800 32.23500 21.42700
H  50.09100 34.64400 19.64500
H  48.83700 35.44500 20.65600
H  48.54300 33.78400 20.11900
H  50.56100 30.84200 22.83500
H  51.35800 31.58100 21.50100
H  48.82400 30.21200 20.73400
H  49.83900 29.20000 21.83700
H  50.52600 29.89300 20.31900
H  46.52200 29.20200 24.73500
H  44.89000 29.68800 25.44300
H  46.23300 28.92500 26.37800
H  45.17700 32.97600 29.55300
H  46.40600 30.69900 33.04400
H  44.70000 30.52600 32.86700
H  45.44000 31.90600 33.74400

