158

Mg 47.53300 45.32900 43.60800
C  44.43600 45.97500 42.19100
C  47.42400 42.23600 41.91400
C  50.85600 44.91200 44.12300
C  47.94300 48.77000 44.06200
N  46.09300 44.16500 42.22500
C  44.78500 44.64000 41.98000
C  43.99600 43.63800 41.24900
C  44.88900 42.35300 41.17000
C  46.22800 42.92800 41.82000
C  44.32700 41.07600 41.91700
C  43.50000 44.02400 39.81900
C  42.16200 43.58600 39.39500
H  42.07500 42.54700 38.19600
N  48.92800 43.74400 43.24800
C  48.66200 42.53500 42.58300
C  49.70500 41.65500 42.82700
C  50.71400 42.36500 43.58000
C  50.22000 43.78200 43.62100
C  49.72200 40.21200 42.41200
C  51.92300 41.79400 44.18600
O  52.13400 40.58200 44.05600
C  52.92200 42.62200 45.10800
N  49.19100 46.70700 43.79800
C  50.39200 46.21700 44.25700
C  51.36100 47.33200 44.70500
C  50.41000 48.64500 44.68600
C  49.14400 48.03000 44.11300
C  52.13200 47.05800 45.97900
C  51.03900 49.76200 43.81900
C  52.34300 50.39900 44.48800
N  46.38100 46.96200 43.54900
C  46.64800 48.34100 43.76700
C  45.34800 49.06800 43.65200
C  44.52500 48.13700 43.05200
C  45.18300 46.93000 42.89900
C  45.07900 50.54000 43.94100
C  43.21300 47.98600 42.51000
O  42.36400 48.80700 42.44700
C  43.07400 46.61600 41.79000
C  41.90800 45.88200 42.46600
O  41.88200 45.25100 43.53700
O  40.81300 45.95500 41.66200
C  39.59900 45.28300 42.30000
H  47.31700 41.23300 41.49500
H  51.89300 44.74400 44.42100
H  48.03500 49.82500 44.33000
H  43.10900 43.40800 41.83900
H  45.12700 42.16200 40.12400
H  44.77200 40.26800 41.33700
H  43.24900 40.96500 41.80200
H  44.78000 41.03800 42.90800
H  44.20000 43.83800 39.00400
H  43.45700 45.11300 39.81100
H  41.46700 44.40600 39.21400
H  41.78000 43.01000 40.23800
H  50.69700 39.86300 42.07200
H  49.16400 40.11800 41.48000
H  49.28900 39.56300 43.17200
H  52.40100 43.29600 45.78800
H  53.60000 43.16300 44.44900
H  53.47000 41.98900 45.80700
H  52.16400 47.44500 43.97800
H  50.24400 48.86100 45.74200
H  53.17000 46.98100 45.65400
H  51.74300 46.15000 46.44000
H  51.96400 47.88900 46.66400
H  50.33500 50.59000 43.73900
H  51.31800 49.34600 42.85100
H  53.20100 49.92300 44.01400
H  52.43500 50.12600 45.53900
H  52.21600 51.47400 44.35700
H  44.06500 50.90800 43.78600
H  45.64200 50.88400 43.07400
H  45.45700 50.92500 44.88800
H  42.83200 46.75600 40.73600
H  39.83200 44.22100 42.38500
H  38.84100 45.21700 41.52000
H  39.15200 45.71900 43.19400
Mg 9.45500 48.11500 24.56400
C  7.33900 49.14700 27.17600
C  12.16100 49.58100 26.31300
C  11.38400 47.79100 21.72500
C  6.67700 47.42300 22.64400
N  9.72700 49.27900 26.46500
C  8.69200 49.42200 27.42600
C  9.29100 49.78300 28.75200
C  10.67200 50.37000 28.28900
C  10.93200 49.65600 26.95000
C  10.57900 51.93100 28.09700
C  9.44200 48.53100 29.73000
C  8.76500 48.81500 31.06100
H  8.25100 47.59600 31.86400
N  11.47700 48.48900 24.23700
C  12.36500 49.02500 25.06000
C  13.66200 48.86200 24.46600
C  13.45200 48.38600 23.11500
C  12.01200 48.24600 22.96700
C  14.87400 49.19100 25.21200
C  14.51900 48.20700 22.03500
O  14.34800 47.91200 20.87100
C  15.94600 48.24100 22.49100
N  9.10500 47.63400 22.50800
C  10.01900 47.64100 21.55400
C  9.43900 46.96700 20.24100
C  7.96300 46.70200 20.62600
C  7.91700 47.25100 22.03500
C  9.64300 47.82400 19.00200
C  7.41900 45.23000 20.52000
C  8.27900 44.08300 21.05500
N  7.39600 48.16700 24.80600
C  6.36700 47.84000 23.95300
C  5.11800 48.11000 24.59400
C  5.51000 48.62000 25.82400
C  6.84500 48.65600 25.95200
C  3.69500 47.93100 24.07900
C  4.93500 49.18300 26.97900
O  3.72500 49.28500 27.23100
C  6.08600 49.25400 28.00100
C  5.82800 48.06500 28.92500
O  6.46000 46.98900 29.00900
O  4.86200 48.45700 29.77000
C  4.20600 47.50100 30.64600
H  13.05100 49.97900 26.80500
H  12.04000 47.52500 20.89300
H  5.82400 47.24400 21.98500
H  8.83900 50.63700 29.25600
H  11.49600 50.19800 28.98200
H  10.99500 52.36800 27.18900
H  11.12500 52.40600 28.91100
H  9.53500 52.21700 28.22600
H  10.48500 48.34000 29.98200
H  9.08300 47.57400 29.35300
H  8.08900 49.66900 31.11200
H  9.60600 49.08300 31.70000
H  15.50500 48.32200 25.02600
H  14.81800 49.30300 26.29400
H  15.30300 50.08500 24.76000
H  16.66800 47.96400 21.72200
H  15.95300 47.36200 23.13600
H  16.18100 49.15400 23.03900
H  9.94700 46.02500 20.03600
H  7.28800 47.29600 20.00900
H  9.30700 47.31500 18.09800
H  10.65400 48.20400 18.85700
H  9.02900 48.71900 19.09600
H  7.41900 45.05700 19.44300
H  6.42800 45.11100 20.95800
H  8.97000 44.42800 21.82400
H  9.01700 43.75500 20.32300
H  7.67900 43.29900 21.51800
H  3.61200 47.58500 23.04800
H  3.20900 48.90400 24.02400
H  3.31800 47.29300 24.87800
H  6.08300 50.20700 28.52900
H  3.45800 46.90700 30.12000
H  3.72000 48.08100 31.43100
H  4.88800 46.90900 31.25600

