158

Mg 0.08500 7.22200 26.96700
C  0.85700 9.43100 29.45400
C  -0.05400 4.61500 29.32500
C  -0.50200 5.03700 24.50200
C  0.20200 9.87400 24.70400
N  0.65400 7.07000 29.07500
C  0.81800 8.12300 29.96600
C  0.86400 7.67500 31.44200
C  0.79800 6.10100 31.29400
C  0.36000 5.92500 29.79100
C  2.15300 5.34800 31.41500
C  -0.31000 8.12200 32.32500
C  -0.02700 8.30700 33.84200
H  -0.71100 7.49300 35.02000
N  -0.21200 5.08100 26.86300
C  -0.24300 4.19300 27.93700
C  -0.52500 2.90300 27.48700
C  -0.60500 2.94700 26.01000
C  -0.42100 4.40200 25.72600
C  -0.73800 1.79300 28.43400
C  -0.84700 1.85000 25.00300
O  -0.76200 2.00500 23.82700
C  -0.89700 0.50500 25.55800
N  0.11100 7.40500 24.88800
C  -0.29100 6.34700 24.07500
C  -0.59400 6.81800 22.61900
C  -0.55900 8.32500 22.75600
C  -0.04200 8.58400 24.16500
C  0.45500 6.30000 21.66600
C  -1.89600 9.11000 22.49000
C  -1.73200 10.11400 21.39200
N  0.57600 9.20300 27.02300
C  0.65500 10.18600 25.98700
C  0.96300 11.40400 26.53100
C  1.10000 11.15300 27.87400
C  0.86300 9.83100 28.10400
C  1.15700 12.67500 25.74000
C  1.38600 11.74900 29.18800
O  1.67700 12.92600 29.48800
C  1.04500 10.73900 30.22400
C  2.22400 10.60100 31.08800
O  3.37500 10.28600 30.72900
O  1.93900 11.01800 32.34100
C  2.95300 11.28200 33.37100
H  -0.05800 3.92400 30.17000
H  -0.76500 4.40200 23.65400
H  -0.06000 10.66100 23.99300
H  1.81700 7.76700 31.96400
H  0.10400 5.57100 31.94700
H  2.09700 4.98300 32.44000
H  2.96000 6.01600 31.11300
H  2.17400 4.54800 30.67500
H  -1.07900 7.34900 32.30100
H  -0.80800 8.99300 31.90000
H  -0.03700 9.38900 33.97600
H  1.01300 8.07900 34.07500
H  -1.78100 1.53800 28.62000
H  -0.12000 1.93700 29.32100
H  -0.19900 0.98000 27.94600
H  -1.87000 0.22200 25.96100
H  0.01500 0.41700 26.14900
H  -0.72700 -0.13200 24.69000
H  -1.56900 6.54300 22.21800
H  0.27300 8.55200 22.09000
H  0.75100 7.05600 20.94000
H  0.03100 5.43200 21.16100
H  1.28000 6.12900 22.35800
H  -2.29600 9.57600 23.39000
H  -2.74100 8.48800 22.19700
H  -2.66000 10.10000 20.82100
H  -0.90400 9.83200 20.74100
H  -1.46200 11.10600 21.75300
H  1.94800 12.49000 25.01300
H  1.52700 13.42600 26.43800
H  0.24700 12.88500 25.17700
H  0.17900 11.04600 30.81200
H  3.76200 12.00100 33.24100
H  3.29200 10.28000 33.63400
H  2.50100 11.74500 34.24800
Mg 35.40800 3.29700 30.06200
C  33.06000 4.18400 32.53000
C  37.75800 3.08500 32.40900
C  37.56100 2.59600 27.59600
C  32.85400 3.62400 27.67200
N  35.36800 3.75500 32.15200
C  34.28500 3.97300 33.02400
C  34.72900 4.15900 34.49300
C  36.30400 4.09700 34.29000
C  36.50400 3.57600 32.88600
C  37.18800 5.32800 34.57000
C  34.06700 3.01000 35.32000
C  33.83400 3.42800 36.83700
H  34.58700 4.60300 37.50800
N  37.42000 2.93900 29.97500
C  38.19600 2.84100 31.06200
C  39.56400 2.35300 30.67100
C  39.49500 2.08500 29.29100
C  38.16300 2.58800 28.85800
C  40.58400 1.97800 31.58000
C  40.65100 1.62500 28.27800
O  40.44700 1.66000 27.07100
C  42.12500 1.47300 28.76000
N  35.34100 3.43200 27.85400
C  36.28700 2.94400 27.12100
C  35.83700 2.92300 25.60300
C  34.33400 2.95100 25.67900
C  34.14200 3.35000 27.18500
C  36.49900 3.99900 24.59700
C  33.56000 1.67100 25.22100
C  33.25300 0.55600 26.23000
N  33.43900 3.90400 29.96400
C  32.51400 3.94100 28.97900
C  31.19600 4.22600 29.47500
C  31.35000 4.38400 30.83500
C  32.73100 4.10600 31.10400
C  29.87400 4.27500 28.66300
C  30.63900 4.68700 32.09400
O  29.51800 4.90900 32.31300
C  31.76500 4.67300 33.19800
C  31.91100 6.00300 33.93200
O  32.23500 7.06500 33.42100
O  31.54300 5.76500 35.26400
C  31.48200 7.09800 36.02200
H  38.50300 2.81500 33.16000
H  38.20100 2.27500 26.77100
H  32.02700 3.58200 26.96000
H  34.30300 5.09900 34.84500
H  36.70800 3.27200 34.87600
H  36.61100 6.24300 34.70200
H  37.77300 5.52900 33.67300
H  37.75700 5.15100 35.48400
H  34.70000 2.13500 35.17200
H  33.01800 2.89800 35.04700
H  33.91700 2.55100 37.47800
H  32.77200 3.65700 36.92500
H  40.24200 1.99000 32.61500
H  41.46400 2.57600 31.34200
H  40.83200 0.93100 31.40900
H  42.33100 2.41200 29.27400
H  42.82200 1.33100 27.93400
H  42.21400 0.58300 29.38400
H  36.01900 1.92900 25.19500
H  34.00600 3.80500 25.08700
H  35.89400 4.90600 24.59400
H  36.60200 3.64200 23.57200
H  37.48100 4.30900 24.95300
H  34.01000 1.13100 24.38900
H  32.62300 2.00300 24.77300
H  33.12300 1.00800 27.21300
H  33.95700 -0.27500 26.24300
H  32.25600 0.22200 25.94400
H  29.10800 3.69300 29.17600
H  29.90000 3.79700 27.68400
H  29.46600 5.27000 28.48600
H  31.48800 3.88800 33.90200
H  31.95800 7.90300 35.46200
H  31.94800 7.02100 37.00400
H  30.46200 7.46100 36.14300

