158

Mg 48.21100 45.53700 43.17100
C  44.78200 45.35800 41.94900
C  48.23900 42.11500 42.67900
C  51.44000 45.80800 43.52600
C  47.85100 49.02500 42.96000
N  46.67600 43.88800 42.22700
C  45.31700 44.07300 42.04500
C  44.53500 42.70800 41.79500
C  45.66000 41.74100 42.28400
C  46.92100 42.62200 42.44200
C  45.19000 41.07400 43.58700
C  44.11900 42.58400 40.29600
C  45.21200 42.64400 39.15900
H  45.01100 43.64900 38.03200
N  49.68900 44.13000 43.04600
C  49.48300 42.80400 42.93200
C  50.78900 42.19400 43.12600
C  51.73300 43.16800 43.41400
C  51.01000 44.43400 43.41700
C  51.04100 40.65200 43.01200
C  53.19900 42.94100 43.52800
O  53.65000 41.84400 43.32900
C  54.08500 44.03400 43.91800
N  49.46100 47.14900 43.23700
C  50.79900 47.01800 43.48600
C  51.48200 48.35700 43.27500
C  50.32200 49.38300 43.24200
C  49.12600 48.45400 43.11400
C  52.69500 48.73000 44.18200
C  50.41700 50.48400 42.11000
C  50.25200 51.92900 42.52400
N  46.60700 46.95800 42.78800
C  46.60400 48.36000 42.81700
C  45.25400 48.87800 42.47100
C  44.54600 47.69300 42.09500
C  45.44600 46.56000 42.24000
C  44.81300 50.28700 42.26600
C  43.27800 47.29900 41.54700
O  42.25700 47.86800 41.18400
C  43.36900 45.74600 41.39900
C  42.22700 45.11500 42.16600
O  41.35000 44.43300 41.66900
O  42.55200 45.15600 43.52500
C  41.56700 44.36200 44.35000
H  48.30900 41.03200 42.80200
H  52.51700 45.94900 43.41600
H  47.67000 50.09400 43.09600
H  43.63200 42.74200 42.40500
H  45.83900 40.89400 41.62100
H  44.17400 41.37900 43.83800
H  45.86000 41.24100 44.43000
H  45.11000 39.98900 43.51600
H  43.31300 43.28100 40.06700
H  43.67000 41.59500 40.20300
H  45.27600 41.62400 38.78100
H  46.20300 42.69700 39.61000
H  51.41900 40.20600 43.93200
H  51.76600 40.45800 42.22200
H  50.09900 40.15900 42.77200
H  55.08000 43.82600 44.31100
H  53.47300 44.52500 44.67500
H  54.19200 44.60700 42.99700
H  51.82200 48.28100 42.24200
H  50.30900 49.96400 44.16400
H  52.57900 49.68400 44.69800
H  53.57100 48.87000 43.54800
H  52.92100 48.01700 44.97500
H  49.62700 50.34200 41.37200
H  51.40600 50.43300 41.65400
H  49.77100 51.91600 43.50300
H  49.59600 52.36800 41.77200
H  51.19000 52.48300 42.55200
H  43.74800 50.32300 42.04000
H  45.51100 50.64900 41.51000
H  44.90700 50.81800 43.21300
H  43.14300 45.60400 40.34200
H  40.51100 44.42500 44.08600
H  41.71500 44.45400 45.42600
H  41.95700 43.35800 44.18800
Mg -6.44700 25.80700 25.57500
C  -4.45400 27.04600 28.11200
C  -7.65000 23.47500 27.77400
C  -8.03400 24.37200 22.95900
C  -4.80500 28.03100 23.31000
N  -6.14100 25.41300 27.68700
C  -5.30300 26.08500 28.54200
C  -5.56100 25.56000 29.98400
C  -6.26100 24.16300 29.80400
C  -6.74700 24.34000 28.33600
C  -5.36000 22.87300 29.98400
C  -6.41000 26.60600 30.79300
C  -6.28300 26.53500 32.37400
H  -5.67900 25.30400 33.09200
N  -7.77100 24.15000 25.39700
C  -8.10900 23.32800 26.43900
C  -9.03800 22.30700 25.94300
C  -9.17200 22.54700 24.51800
C  -8.25600 23.66400 24.20800
C  -9.78600 21.40300 26.91100
C  -9.98900 21.88000 23.41800
O  -10.03100 22.21500 22.24100
C  -10.96800 20.72900 23.78900
N  -6.32400 26.11600 23.47600
C  -7.20100 25.45200 22.59900
C  -6.85900 25.83000 21.15900
C  -6.20000 27.20500 21.32800
C  -5.72400 27.14300 22.79900
C  -6.00900 24.73700 20.31500
C  -7.28200 28.39700 21.27400
C  -7.50500 29.03300 19.88500
N  -4.91100 27.19800 25.66200
C  -4.36000 28.07500 24.67000
C  -3.37900 28.94200 25.30400
C  -3.40100 28.53800 26.62200
C  -4.32100 27.48400 26.79000
C  -2.62300 30.02100 24.64800
C  -2.78500 28.84600 27.92700
O  -1.86900 29.61800 28.13800
C  -3.52100 27.94100 29.00000
C  -2.56900 27.23800 29.84800
O  -1.74400 26.48900 29.34900
O  -2.74500 27.55400 31.11200
C  -1.89700 26.81800 32.01600
H  -7.82000 22.72500 28.54900
H  -8.46400 23.96500 22.04100
H  -4.63000 28.85000 22.60900
H  -4.66200 25.37400 30.57200
H  -7.00000 24.22200 30.60300
H  -5.22300 22.52100 28.96100
H  -6.04500 22.20200 30.50200
H  -4.40400 23.07000 30.47000
H  -7.40800 26.34000 30.44600
H  -6.23700 27.62300 30.44100
H  -7.31100 26.51700 32.73500
H  -5.94700 27.46300 32.83700
H  -9.21400 21.35500 27.83700
H  -10.04300 20.46600 26.41600
H  -10.76000 21.87500 27.03700
H  -11.64900 20.66100 22.94000
H  -11.46300 21.04100 24.70800
H  -10.45100 19.80800 24.05800
H  -7.75200 25.89000 20.53600
H  -5.46300 27.34600 20.53700
H  -5.11500 25.22500 19.92600
H  -6.46600 24.35200 19.40300
H  -5.84900 23.78500 20.82100
H  -6.86000 29.21300 21.86100
H  -8.27100 28.14200 21.65500
H  -6.88200 29.91300 19.72500
H  -8.55500 29.32600 19.85800
H  -7.41300 28.34200 19.04700
H  -3.29000 30.77200 24.22400
H  -2.24800 29.45800 23.79300
H  -1.81500 30.44300 25.24500
H  -4.12400 28.66500 29.54700
H  -2.33000 25.95600 32.52300
H  -1.81400 27.48900 32.87100
H  -0.86300 26.61900 31.73400

