158

Mg 24.55800 -7.20600 47.07900
C  26.61600 -4.69700 45.61700
C  22.17400 -6.36400 44.63500
C  23.14600 -10.14400 47.62500
C  27.54000 -8.29600 48.71800
N  24.49100 -5.63400 45.34300
C  25.41700 -4.83600 44.91900
C  24.94800 -4.04300 43.63600
C  23.40200 -4.34100 43.70100
C  23.32400 -5.53600 44.60300
C  22.56500 -3.11700 44.09500
C  25.64700 -4.17400 42.23400
C  26.19400 -2.85100 41.60200
H  25.65400 -2.58700 40.20600
N  22.80500 -7.98700 46.48300
C  22.00000 -7.53000 45.47100
C  20.83000 -8.49700 45.30900
C  21.06900 -9.52200 46.28800
C  22.39800 -9.24200 46.86400
C  19.70200 -8.42500 44.36200
C  20.20900 -10.70800 46.44900
O  19.21000 -10.78900 45.80900
C  20.43000 -11.73100 47.53400
N  25.24300 -8.93200 47.96500
C  24.44700 -10.03700 48.14100
C  25.22200 -11.13300 48.95000
C  26.61600 -10.59300 49.19600
C  26.43800 -9.16900 48.69700
C  24.51500 -11.71000 50.24200
C  27.76000 -11.45600 48.54800
C  28.87500 -12.01200 49.44200
N  26.60600 -6.56100 47.39000
C  27.58800 -7.10400 48.10600
C  28.76700 -6.21000 48.04500
C  28.41800 -5.28800 47.09700
C  27.11100 -5.55600 46.63900
C  30.10200 -6.36000 48.74800
C  28.90000 -4.17200 46.39500
O  30.04100 -3.67300 46.47100
C  27.76400 -3.68500 45.41800
C  27.23600 -2.30200 45.92400
O  26.86200 -2.06700 47.03000
O  27.47800 -1.39100 44.97400
C  27.34200 0.04400 45.35900
H  21.36300 -6.09700 43.95500
H  22.78800 -11.09200 48.03100
H  28.30900 -8.92000 49.17800
H  25.10200 -2.98400 43.84400
H  23.08700 -4.63400 42.70000
H  21.86900 -3.49500 44.84400
H  22.03900 -2.83400 43.18300
H  23.16200 -2.28800 44.47600
H  24.96500 -4.58600 41.49100
H  26.53700 -4.78100 42.40200
H  27.28000 -2.84800 41.69800
H  25.92400 -2.00300 42.23100
H  19.66700 -7.44100 43.89400
H  18.75900 -8.50100 44.90300
H  19.68200 -9.10300 43.50900
H  21.28300 -12.37800 47.32900
H  19.58600 -12.42000 47.51800
H  20.49600 -11.23400 48.50200
H  25.28500 -11.99900 48.29200
H  26.78100 -10.50500 50.27000
H  23.67600 -11.02900 50.38700
H  25.17700 -11.53300 51.08900
H  24.13800 -12.72700 50.13000
H  28.11700 -10.95200 47.65000
H  27.29500 -12.34000 48.11100
H  28.42800 -12.90600 49.87500
H  29.01200 -11.21700 50.17500
H  29.85200 -12.20300 48.99800
H  29.92700 -6.43000 49.82200
H  30.78400 -5.51800 48.63300
H  30.56900 -7.26900 48.36800
H  28.06400 -3.55900 44.37800
H  27.31100 0.65500 44.45700
H  28.19800 0.29500 45.98700
H  26.50600 0.20400 46.04000
Mg 46.90600 24.80300 28.79700
C  47.62400 26.88800 31.47500
C  45.98200 22.39200 30.97700
C  46.98000 22.67300 26.27900
C  48.07100 27.24700 26.67700
N  46.60600 24.79100 30.85400
C  47.04900 25.67200 31.83900
C  46.67300 25.27100 33.24700
C  46.41100 23.80100 33.00500
C  46.23100 23.69700 31.52600
C  47.54400 22.85000 33.59000
C  45.57100 26.08500 33.94000
C  45.79900 26.60500 35.39100
H  44.62600 26.41300 36.35100
N  46.49400 22.80900 28.68100
C  46.05300 21.96300 29.63000
C  45.78900 20.67600 29.11500
C  46.31900 20.66100 27.76400
C  46.66100 22.09000 27.50500
C  45.01900 19.55300 29.87100
C  46.33100 19.57600 26.67100
O  46.69900 19.86900 25.52400
C  45.95900 18.16000 26.94400
N  47.21900 25.00600 26.73500
C  47.28700 23.94600 25.91600
C  47.41500 24.36600 24.42100
C  47.47800 25.92500 24.52500
C  47.52300 26.09700 26.01600
C  48.45900 23.70900 23.51900
C  46.27600 26.67900 23.86200
C  44.81600 26.38500 24.37300
N  47.60300 26.77300 28.96700
C  48.04700 27.61800 28.04400
C  48.39800 28.91400 28.58400
C  48.28400 28.64700 29.95500
C  47.77600 27.36900 30.13800
C  49.00100 30.05800 27.88200
C  48.58000 29.15900 31.27200
O  49.11300 30.26800 31.56400
C  48.21600 28.01200 32.40300
C  49.44500 27.61500 33.09500
O  50.57100 27.62700 32.55400
O  49.25800 27.51700 34.49100
C  50.45100 27.34600 35.28100
H  45.85900 21.61400 31.73400
H  47.04300 22.06500 25.37400
H  48.37400 28.00500 25.95100
H  47.51200 25.40000 33.93000
H  45.49100 23.47900 33.49200
H  48.21200 23.35000 34.29200
H  48.16700 22.50000 32.76600
H  47.02000 22.04000 34.09900
H  44.74200 25.39400 34.09200
H  45.32000 26.92300 33.28900
H  46.07100 27.65900 35.33000
H  46.58600 26.06700 35.92100
H  45.51100 18.58300 29.94300
H  44.15300 19.28400 29.26600
H  44.65400 19.81200 30.86500
H  44.93500 18.24600 27.30800
H  46.60200 17.84000 27.76500
H  46.14800 17.60300 26.02600
H  46.47100 24.18700 23.90500
H  48.46300 26.27700 24.21900
H  47.96600 23.63900 22.54900
H  48.76200 22.75500 23.95100
H  49.37100 24.30500 23.56700
H  46.26800 26.38300 22.81300
H  46.49300 27.73800 24.00500
H  44.29900 25.97900 23.50400
H  44.32100 27.28900 24.72600
H  44.87700 25.64700 25.17300
H  49.50200 30.67800 28.62500
H  48.14000 30.65000 27.57100
H  49.60200 29.69800 27.04700
H  47.48600 28.33000 33.14800
H  51.41900 27.40900 34.78500
H  50.33400 26.35400 35.71800
H  50.48100 28.16100 36.00300

