158

Mg 1.60300 8.27800 25.17400
C  2.15600 10.04200 28.24500
C  1.84200 5.28100 27.05100
C  1.46000 6.47000 22.47800
C  1.71400 11.19700 23.38100
N  2.02500 7.68900 27.48400
C  2.05700 8.64600 28.49800
C  1.99500 7.90100 29.86000
C  1.94100 6.43500 29.42900
C  1.92600 6.39900 27.87400
C  2.96400 5.58300 30.10600
C  0.95000 8.45600 30.90000
C  1.36500 8.71200 32.38200
H  2.59300 7.97500 33.08100
N  1.58300 6.16800 24.86500
C  1.67900 5.11300 25.71200
C  1.37300 3.89500 25.04500
C  1.23900 4.20100 23.66900
C  1.45400 5.68200 23.63300
C  1.39400 2.53500 25.76900
C  1.13800 3.24900 22.49500
O  1.00000 3.62900 21.33400
C  1.18700 1.71700 22.73700
N  1.83100 8.81400 23.24700
C  1.56900 7.86600 22.30900
C  1.62700 8.49700 20.94300
C  1.24800 9.99500 21.24600
C  1.60600 9.99300 22.71900
C  2.96700 8.34100 20.10600
C  -0.30500 10.30100 21.12600
C  -0.68200 11.40000 20.04400
N  1.91000 10.21300 25.65800
C  1.84700 11.30800 24.82100
C  2.03700 12.48100 25.60500
C  2.17100 12.08300 26.94800
C  2.06200 10.64100 26.93200
C  2.01600 13.81700 24.97600
C  2.26600 12.52400 28.34100
O  2.20200 13.64400 28.84400
C  2.25800 11.24400 29.18600
C  3.44300 11.19100 30.12000
O  4.49900 10.69400 29.88200
O  3.07800 11.81400 31.31400
C  4.05600 11.71900 32.42100
H  1.82500 4.33600 27.59700
H  1.30400 5.98700 21.51100
H  1.53900 12.15200 22.88100
H  2.95800 8.06100 30.34500
H  1.00700 5.94600 29.70700
H  2.59600 5.21300 31.06300
H  3.91100 6.08300 30.30700
H  3.15400 4.68600 29.51800
H  0.10500 7.77300 30.81900
H  0.69800 9.44500 30.51800
H  0.50600 8.36900 32.95900
H  1.54400 9.76900 32.57900
H  0.57900 1.86600 25.49300
H  1.32800 2.60100 26.85500
H  2.34100 2.02700 25.58800
H  0.38400 1.46400 23.42900
H  2.19900 1.49800 23.07900
H  1.02200 1.24900 21.76700
H  0.85300 8.06000 20.31300
H  1.84500 10.72400 20.69800
H  2.94300 7.46100 19.46400
H  3.79000 8.30800 20.82000
H  3.12300 9.28100 19.57700
H  -0.66300 10.64300 22.09700
H  -0.89400 9.40900 20.91300
H  0.22400 11.78900 19.57900
H  -1.33100 12.11200 20.55500
H  -1.34800 10.93400 19.31800
H  2.69700 13.91200 24.13000
H  2.44600 14.53800 25.67100
H  0.97700 13.94200 24.67300
H  1.33200 11.37100 29.74700
H  5.04100 12.05600 32.09900
H  4.17400 10.66700 32.68200
H  3.79600 12.30300 33.30300
Mg -9.68500 40.38800 42.08800
C  -8.72300 37.00300 40.90900
C  -6.76100 41.51800 40.81100
C  -11.04300 43.38800 42.21300
C  -12.95900 38.80800 42.56600
N  -8.03900 39.36700 40.85500
C  -7.72900 38.00200 40.75900
C  -6.31600 37.83500 40.06200
C  -5.65700 39.20800 40.36400
C  -6.83300 40.11100 40.72700
C  -4.61200 39.30400 41.56100
C  -6.44000 37.43200 38.58900
C  -5.80900 36.12000 37.99300
H  -5.58000 36.21300 36.49500
N  -8.98900 42.26600 41.69000
C  -7.75600 42.53300 41.12900
C  -7.56800 43.94300 41.16100
C  -8.81900 44.50500 41.48700
C  -9.68000 43.41600 41.81100
C  -6.32000 44.62900 40.71000
C  -9.21100 46.06000 41.50700
O  -8.48100 46.98200 41.19700
C  -10.52000 46.51500 42.06100
N  -11.65700 40.97300 42.29100
C  -11.96100 42.33500 42.39700
C  -13.44600 42.64500 42.74600
C  -14.07100 41.18500 42.94900
C  -12.87300 40.25700 42.51200
C  -13.61400 43.58600 44.00800
C  -15.48300 40.91800 42.30000
C  -16.46000 40.04500 43.06700
N  -10.61400 38.33700 42.01700
C  -11.95500 37.89300 42.22700
C  -12.02200 36.39900 42.07800
C  -10.75300 36.01000 41.63900
C  -9.94900 37.20100 41.57100
C  -13.23500 35.54700 42.17500
C  -10.04800 34.87400 41.14400
O  -10.33600 33.70200 41.09400
C  -8.56600 35.51000 40.73200
C  -7.57900 34.79500 41.57400
O  -7.10600 35.21400 42.65200
O  -7.33100 33.64400 40.89300
C  -6.53700 32.62200 41.47900
H  -5.79300 41.92800 40.51800
H  -11.54300 44.31700 42.49300
H  -13.88600 38.26200 42.75400
H  -5.77100 37.02000 40.53800
H  -5.12000 39.60400 39.50200
H  -3.58700 39.27200 41.19200
H  -4.83100 38.44200 42.19100
H  -4.77400 40.18200 42.18700
H  -5.92200 38.24700 38.08500
H  -7.50800 37.45000 38.37000
H  -6.46400 35.26200 38.14500
H  -4.92600 35.82700 38.56100
H  -5.97600 44.23500 39.75300
H  -5.56500 44.39700 41.46100
H  -6.29700 45.71600 40.62700
H  -10.71700 46.05600 43.03000
H  -11.29500 46.09700 41.41800
H  -10.49500 47.60200 42.13400
H  -13.77600 43.22100 41.88100
H  -14.19500 41.15600 44.03200
H  -12.71700 43.62900 44.62600
H  -14.49000 43.22600 44.54800
H  -13.82700 44.63000 43.77800
H  -15.40900 40.51800 41.28900
H  -15.84800 41.92700 42.11300
H  -17.39900 40.58500 43.18400
H  -16.13300 40.04200 44.10700
H  -16.63400 38.99500 42.83200
H  -13.96000 35.59800 41.36300
H  -13.73400 35.84600 43.09700
H  -12.81500 34.57100 42.41700
H  -8.30100 35.21900 39.71600
H  -5.85800 33.01500 42.23700
H  -6.00900 32.05600 40.71200
H  -7.21700 31.94700 41.99900

