158

Mg 35.84400 49.60500 24.33100
C  36.01800 47.72300 27.23500
C  34.50300 52.21700 26.04500
C  35.04400 51.02800 21.33600
C  36.69300 46.61300 22.51900
N  35.37500 49.92100 26.42300
C  35.57600 49.03300 27.44300
C  35.46600 49.78200 28.76200
C  34.79600 51.08000 28.36100
C  34.81500 51.08700 26.84200
C  33.37000 51.29900 28.97000
C  36.88100 49.96000 29.44100
C  36.87500 49.74900 30.96500
H  35.57000 49.69200 31.71700
N  34.89200 51.39700 23.74400
C  34.56500 52.36800 24.66800
C  34.21900 53.59400 23.91400
C  34.24700 53.27600 22.58500
C  34.79800 51.87900 22.52000
C  33.89500 54.92800 24.56600
C  33.79100 54.06200 21.34300
O  34.10500 53.73300 20.19300
C  33.03900 55.38200 21.51900
N  35.72000 48.91900 22.26000
C  35.46500 49.66000 21.24400
C  35.56700 48.97700 19.95700
C  36.16600 47.58300 20.27700
C  36.26200 47.70400 21.79800
C  34.30900 48.90600 19.16800
C  37.49900 47.18900 19.57800
C  37.43700 46.36100 18.24200
N  36.42700 47.60700 24.71300
C  36.74400 46.50100 23.88300
C  37.11100 45.41600 24.75400
C  36.87400 45.87300 26.04200
C  36.34300 47.13100 25.95600
C  37.63100 44.08000 24.32300
C  36.88600 45.46200 27.42400
O  37.18100 44.36300 27.88900
C  36.36500 46.67600 28.21200
C  35.20800 46.19200 29.13400
O  34.08500 46.01100 28.67800
O  35.65900 45.99100 30.42400
C  34.63600 45.42400 31.32800
H  34.16400 53.12100 26.55600
H  35.02700 51.53900 20.37100
H  37.07700 45.69700 22.06300
H  34.89700 49.09400 29.38600
H  35.39700 51.88900 28.77700
H  33.29500 52.22100 29.54600
H  33.04300 50.43100 29.54400
H  32.64200 51.28900 28.15900
H  37.19100 50.99100 29.26900
H  37.62300 49.29800 28.99600
H  37.44100 50.56500 31.41500
H  37.42500 48.82500 31.14300
H  34.60500 55.03100 25.38700
H  32.84600 55.12500 24.78900
H  34.09900 55.63300 23.76000
H  33.72600 56.20200 21.72600
H  32.35400 55.38700 22.36700
H  32.47800 55.63900 20.62100
H  36.21700 49.53500 19.28300
H  35.42200 46.83100 20.01500
H  34.09400 47.90500 18.79500
H  34.43900 49.63200 18.36500
H  33.48300 49.33800 19.73300
H  38.14200 46.63600 20.26300
H  37.95500 48.15500 19.35600
H  37.83800 45.38000 18.49700
H  38.13600 46.75900 17.50700
H  36.43800 46.30900 17.81100
H  36.95100 43.24600 24.49600
H  38.54800 43.89600 24.88200
H  37.83700 44.04400 23.25400
H  37.22400 46.97700 28.81200
H  33.60400 45.55000 31.00200
H  34.71700 45.71700 32.37500
H  34.87900 44.36100 31.30600
Mg -11.81700 37.75000 42.11300
C  -9.88600 34.98700 41.00400
C  -9.27200 39.78800 40.98700
C  -13.97200 40.41700 42.46000
C  -14.42600 35.58100 42.93900
N  -9.75700 37.40500 41.01700
C  -9.27800 36.20600 40.62800
C  -7.97600 36.34000 39.78500
C  -7.77400 37.92300 39.84000
C  -8.98600 38.38300 40.64800
C  -6.41300 38.42400 40.18800
C  -8.05200 35.73500 38.37300
C  -6.95000 34.77500 37.84900
H  -5.78100 35.42500 37.07600
N  -11.67200 39.75000 41.73700
C  -10.51300 40.38200 41.29100
C  -10.84700 41.81500 41.12600
C  -12.25400 41.99100 41.38100
C  -12.71500 40.63700 41.88200
C  -9.76100 42.75700 40.60500
C  -13.03800 43.32100 41.15700
O  -12.39600 44.29400 40.76200
C  -14.53200 43.42600 41.30900
N  -13.97300 38.00500 42.40900
C  -14.52000 39.16500 42.73000
C  -15.91000 39.01100 43.27600
C  -16.10200 37.45400 43.37800
C  -14.73000 36.97500 42.90300
C  -16.12200 39.76100 44.55500
C  -17.21500 36.73000 42.50300
C  -18.23000 36.02300 43.35200
N  -12.15800 35.65200 42.00200
C  -13.30000 34.96000 42.39000
C  -12.99600 33.47200 42.20600
C  -11.67600 33.42300 41.62800
C  -11.22500 34.77600 41.53900
C  -13.88600 32.30500 42.66200
C  -10.54800 32.59000 41.10800
O  -10.50300 31.35800 41.06000
C  -9.40600 33.58200 40.66700
C  -8.05600 33.20800 41.23800
O  -7.36100 32.30600 40.86000
O  -7.62800 33.98300 42.29900
C  -6.36000 33.59600 43.07600
H  -8.53100 40.53400 40.69200
H  -14.71300 41.17700 42.71600
H  -15.26100 35.05000 43.40200
H  -7.08400 35.89100 40.22100
H  -7.97200 38.26300 38.82300
H  -5.62800 37.70800 39.94300
H  -6.40800 38.48300 41.27600
H  -6.17400 39.34000 39.64800
H  -7.96100 36.55700 37.66300
H  -9.06700 35.39900 38.16100
H  -7.52600 34.16600 37.15200
H  -6.45800 34.19400 38.62900
H  -9.18400 42.24900 39.83300
H  -9.14600 42.98800 41.47500
H  -10.14300 43.67900 40.16800
H  -15.08600 42.72400 40.68500
H  -14.81300 44.46100 41.11200
H  -14.93200 43.28100 42.31200
H  -16.64800 39.40100 42.57600
H  -16.26200 37.15100 44.41300
H  -15.14600 40.07700 44.92400
H  -16.45800 39.21800 45.43800
H  -16.68000 40.68600 44.40700
H  -16.81900 36.04400 41.75400
H  -17.73200 37.46900 41.89000
H  -19.07800 36.67200 43.56900
H  -17.85600 35.67200 44.31400
H  -18.62900 35.29600 42.64500
H  -14.36800 32.01100 41.72900
H  -14.75600 32.52800 43.28000
H  -13.29400 31.50100 43.09900
H  -9.40900 33.61100 39.57700
H  -6.06700 32.55700 42.92000
H  -6.50000 33.67200 44.15400
H  -5.53000 34.22700 42.75900

