158

Mg 0.08700 43.10000 25.90800
C  2.17100 42.57500 28.59200
C  -2.60200 42.05200 28.01900
C  -1.98900 43.33300 23.22800
C  2.79600 43.91400 23.94400
N  -0.16800 42.37400 28.10400
C  0.85600 42.48100 29.02200
C  0.28200 42.37400 30.50600
C  -1.19100 41.91900 30.17700
C  -1.33100 42.19100 28.68900
C  -1.55500 40.45000 30.56400
C  0.53900 43.75600 31.33800
C  0.65300 43.70200 32.85800
H  0.58300 42.35500 33.55500
N  -2.06900 42.79200 25.71900
C  -2.94400 42.41500 26.68600
C  -4.29500 42.50000 26.10100
C  -4.14600 42.79100 24.69100
C  -2.68600 42.98200 24.49600
C  -5.55800 42.22600 26.99700
C  -5.15900 42.89100 23.61500
O  -4.84700 43.09500 22.47900
C  -6.62800 42.86900 23.82300
N  0.39900 43.39700 23.82300
C  -0.63000 43.57000 22.90800
C  -0.08700 44.11500 21.56100
C  1.38700 44.52800 22.00100
C  1.56600 43.88300 23.33000
C  -0.15200 43.06000 20.44700
C  1.55000 46.05800 22.01400
C  0.60400 46.78100 22.90900
N  2.04100 43.16200 26.15100
C  3.06200 43.46200 25.24000
C  4.37600 43.28800 25.87000
C  4.05300 42.92600 27.18500
C  2.61500 42.92100 27.28700
C  5.70400 43.46300 25.27200
C  4.65800 42.52200 28.52800
O  5.81800 42.19900 28.83300
C  3.43000 42.37900 29.53200
C  3.59100 41.04500 30.19900
O  3.07300 40.00300 29.86800
O  4.43600 41.17800 31.25200
C  4.59700 39.98600 32.13200
H  -3.42100 41.81700 28.70200
H  -2.60600 43.63300 22.37800
H  3.63500 44.25600 23.33500
H  0.76200 41.53600 31.01200
H  -1.95200 42.51500 30.68000
H  -1.29800 40.38000 31.62100
H  -0.94800 39.80300 29.93000
H  -2.60900 40.23600 30.38800
H  -0.33900 44.39600 31.24400
H  1.45700 44.19100 30.94300
H  -0.12200 44.34300 33.27800
H  1.63300 44.15800 32.99900
H  -6.41800 41.97600 26.37600
H  -5.76700 43.12900 27.57000
H  -5.16600 41.39000 27.57700
H  -6.96800 43.78400 24.30800
H  -6.96400 42.06200 24.47400
H  -7.28300 42.73200 22.96300
H  -0.66700 45.01300 21.34800
H  2.15600 44.06800 21.38000
H  -0.52100 43.50200 19.52100
H  -0.73200 42.16000 20.64700
H  0.84700 42.85200 20.06300
H  1.57600 46.48400 21.01000
H  2.50000 46.22200 22.52300
H  1.03000 47.24200 23.80100
H  -0.22000 46.11900 23.17300
H  0.17000 47.58600 22.31800
H  6.44600 42.87900 25.81600
H  6.11300 44.46700 25.15800
H  5.41600 43.03000 24.31400
H  3.40500 43.05100 30.39000
H  3.79200 40.02600 32.86600
H  5.51600 40.10200 32.70800
H  4.54000 39.08000 31.52800
Mg -10.01000 17.73000 42.25000
C  -6.54700 17.26100 42.29400
C  -9.47200 21.01800 41.72400
C  -13.21100 17.94300 41.47500
C  -10.21000 14.18900 42.28500
N  -8.12900 18.99100 42.08600
C  -6.86500 18.61400 42.10900
C  -5.90800 19.77300 41.99200
C  -6.89400 21.04200 41.94100
C  -8.23400 20.33700 41.94800
C  -6.78900 22.10800 43.14800
C  -4.92200 19.62300 40.79900
C  -5.37100 18.85500 39.53200
H  -4.73000 19.26800 38.16500
N  -11.21700 19.34200 41.80400
C  -10.76800 20.57200 41.70600
C  -11.91200 21.45200 41.38400
C  -13.03400 20.58600 41.33300
C  -12.51400 19.21700 41.47400
C  -11.87400 22.88500 40.89600
C  -14.61000 21.05300 41.10700
O  -14.83600 22.19300 40.86400
C  -15.75400 20.15200 41.30400
N  -11.53300 16.25700 41.66600
C  -12.77400 16.63000 41.67100
C  -13.76000 15.46400 41.68900
C  -12.78200 14.28400 41.94300
C  -11.40000 14.90400 42.02000
C  -15.00000 15.58900 42.64500
C  -12.82000 13.12600 40.80700
C  -13.68900 11.96100 41.13900
N  -8.73200 16.02300 42.38900
C  -8.96400 14.73700 42.56900
C  -7.79700 13.97300 42.87600
C  -6.81900 14.95200 42.77300
C  -7.40000 16.17000 42.46300
C  -7.57700 12.51900 43.10800
C  -5.37400 15.12600 42.73900
O  -4.46700 14.34000 42.91700
C  -5.18000 16.63400 42.56900
C  -4.44800 17.03300 43.76200
O  -3.23700 17.05100 43.80300
O  -5.19200 17.40300 44.82300
C  -4.45900 18.04900 45.88500
H  -9.32200 22.07300 41.48600
H  -14.29000 18.11500 41.46800
H  -10.46500 13.15600 42.52800
H  -5.37800 19.89700 42.93700
H  -6.84000 21.60600 41.01000
H  -5.76700 22.44500 43.32100
H  -7.31000 21.72600 44.02600
H  -7.35700 22.95000 42.75100
H  -4.01100 19.13100 41.14100
H  -4.58200 20.61100 40.48800
H  -6.39100 18.47900 39.45600
H  -4.78800 17.94600 39.67600
H  -12.81000 23.36600 41.18000
H  -11.86900 23.03700 39.81600
H  -10.99200 23.33300 41.35200
H  -15.86000 19.54000 40.40800
H  -16.55400 20.88400 41.41000
H  -15.51800 19.62600 42.22900
H  -14.19200 15.24300 40.71300
H  -12.95300 13.67000 42.82700
H  -15.12500 16.58800 43.06400
H  -15.06800 14.73700 43.32100
H  -15.84900 15.60900 41.96200
H  -11.84000 12.66500 40.68800
H  -13.18000 13.41300 39.81900
H  -14.54300 11.92700 40.46300
H  -14.14500 12.12600 42.11600
H  -13.10800 11.04700 41.26000
H  -8.30000 11.98000 42.49600
H  -7.78600 12.22200 44.13600
H  -6.57500 12.25000 42.77200
H  -4.46200 16.73800 41.75500
H  -5.21900 18.32900 46.61300
H  -3.97800 18.93300 45.46600
H  -3.81300 17.28800 46.32300

