158

Mg 26.18100 1.03300 29.73100
C  28.31200 0.61800 32.55500
C  23.66900 1.60400 32.01400
C  24.09700 0.90800 27.20300
C  28.82800 -0.01100 27.76300
N  26.02700 1.08000 32.05400
C  27.02900 0.90200 32.95700
C  26.54900 1.30500 34.41700
C  25.02000 1.22700 34.17600
C  24.87200 1.38300 32.70100
C  24.28400 0.01200 34.71100
C  27.13800 2.69400 34.91100
C  27.99400 2.76400 36.20500
H  27.40200 3.42500 37.45200
N  24.21500 1.43500 29.57600
C  23.34500 1.59900 30.59200
C  21.97800 1.68000 30.06800
C  22.07500 1.50700 28.69800
C  23.53400 1.30800 28.46900
C  20.73800 1.83800 30.85600
C  20.98500 1.40000 27.70900
O  21.20200 1.28200 26.52400
C  19.59800 1.46400 28.05700
N  26.50900 0.64200 27.77600
C  25.46800 0.67600 26.84700
C  26.05400 0.68900 25.39000
C  27.56600 0.61800 25.62900
C  27.64800 0.45700 27.15400
C  25.38800 -0.37900 24.44500
C  28.40500 1.78600 25.08300
C  29.25100 1.41100 23.94300
N  28.14900 0.33000 30.05300
C  29.06700 -0.05900 29.11800
C  30.34300 -0.32600 29.82200
C  30.09200 -0.08800 31.19400
C  28.74100 0.32100 31.26400
C  31.59800 -0.79000 29.15700
C  30.60300 0.01200 32.57200
O  31.71900 -0.22600 33.05100
C  29.44400 0.46900 33.48000
C  29.33100 -0.69600 34.37500
O  28.63700 -1.68600 34.19800
O  29.99500 -0.48200 35.52200
C  29.79800 -1.31800 36.68900
H  22.83200 1.93500 32.63200
H  23.44300 0.92300 26.33000
H  29.65500 -0.36500 27.14400
H  26.99100 0.60500 35.12600
H  24.50700 2.08100 34.61800
H  25.02000 -0.66400 35.14800
H  23.81800 -0.52400 33.88400
H  23.54300 0.32000 35.44900
H  26.37800 3.45000 35.10900
H  27.66200 3.11700 34.05400
H  28.93800 3.19900 35.87900
H  28.20000 1.75400 36.55900
H  20.17600 2.70400 30.50500
H  20.94400 2.14800 31.88100
H  20.14800 0.92200 30.84800
H  19.43100 0.62600 28.73300
H  19.01300 1.41000 27.13900
H  19.30900 2.42100 28.49100
H  25.87300 1.61600 24.84500
H  27.90000 -0.29100 25.13000
H  24.53300 -0.78600 24.98400
H  25.93400 -1.30700 24.27800
H  24.92500 0.07600 23.56900
H  29.03600 2.18400 25.87800
H  27.87800 2.64900 24.67400
H  29.15300 2.15800 23.15500
H  28.93100 0.46500 23.50600
H  30.26100 1.29100 24.33400
H  32.39800 -1.06300 29.84600
H  31.89600 0.09800 28.60100
H  31.46100 -1.60900 28.45100
H  29.68400 1.37300 34.04000
H  29.88500 -2.29500 36.21300
H  28.81900 -1.07700 37.10300
H  30.56900 -1.15000 37.44100
Mg 47.17500 25.33500 27.96000
C  47.94000 27.52300 30.48100
C  46.80600 22.85200 30.14000
C  46.34000 23.19400 25.33400
C  47.90600 27.77900 25.59500
N  47.46700 25.16800 30.12000
C  47.64600 26.23800 30.96300
C  47.55900 25.77900 32.42100
C  47.17900 24.27300 32.28500
C  47.15600 24.02900 30.75700
C  48.04300 23.23600 32.95100
C  46.42800 26.59700 33.19700
C  46.86200 26.86200 34.63100
H  45.78100 27.40600 35.63400
N  46.50300 23.30500 27.82300
C  46.44300 22.47800 28.83400
C  46.01000 21.18800 28.36900
C  45.85600 21.27800 26.97400
C  46.26300 22.64400 26.63400
C  45.66900 20.02300 29.24000
C  45.29100 20.22600 26.03100
O  45.00900 20.53200 24.84700
C  44.94800 18.80000 26.43800
N  47.09000 25.45500 25.73200
C  46.73700 24.44400 24.87800
C  46.68900 25.04100 23.39200
C  46.86000 26.55600 23.57900
C  47.30700 26.66100 25.07900
C  47.58900 24.30200 22.30800
C  45.55600 27.40600 23.15900
C  45.40400 27.79600 21.69200
N  47.95900 27.09100 27.97800
C  48.22800 27.98700 26.93700
C  48.59200 29.33600 27.43600
C  48.55300 29.12300 28.82300
C  48.11600 27.77000 29.10300
C  48.83800 30.54200 26.63500
C  48.69700 29.81000 30.14100
O  49.05300 30.94700 30.23600
C  48.30700 28.83200 31.26200
C  49.32000 28.78600 32.40200
O  50.26100 28.00700 32.49400
O  48.91300 29.70200 33.39200
C  49.85800 29.73200 34.53300
H  46.74000 22.00700 30.82800
H  46.09300 22.46800 24.55700
H  48.02900 28.60000 24.88600
H  48.55000 25.90600 32.85500
H  46.15000 24.08500 32.59400
H  48.59300 23.75600 33.73500
H  48.77000 22.76800 32.28700
H  47.45400 22.43900 33.40500
H  45.46700 26.08300 33.22200
H  46.27400 27.59800 32.79400
H  47.59100 27.67100 34.57800
H  47.16000 25.86500 34.95400
H  44.60500 19.79100 29.19900
H  45.87500 20.28500 30.27800
H  46.17900 19.11100 28.93100
H  44.67300 18.36700 25.47700
H  44.07000 18.76100 27.08300
H  45.83400 18.30500 26.83600
H  45.66100 24.78700 23.13200
H  47.64100 26.83700 22.87200
H  47.06900 24.24600 21.35100
H  47.77500 23.27600 22.62400
H  48.56400 24.76100 22.14000
H  45.43900 28.30300 23.76700
H  44.71400 26.75200 23.38400
H  44.54200 27.32800 21.21600
H  46.32700 27.51300 21.18700
H  45.32600 28.87800 21.58500
H  49.02700 31.33400 27.36000
H  47.99800 30.69200 25.95800
H  49.69800 30.34700 25.99400
H  47.42100 29.31500 31.67300
H  49.65100 28.91600 35.22600
H  49.86600 30.66100 35.10300
H  50.89700 29.53000 34.27500

