158

Mg 45.56000 5.09500 48.24900
C  43.41700 7.75100 47.46600
C  42.96000 2.89900 47.92600
C  47.84500 2.69900 48.49900
C  48.28100 7.44400 47.87000
N  43.41900 5.27400 47.77400
C  42.75700 6.52000 47.52100
C  41.24800 6.22900 47.40600
C  41.07800 4.74200 47.86600
C  42.57300 4.26500 47.85700
C  40.36100 4.50000 49.24900
C  40.51600 6.56900 46.06400
C  39.49300 7.71600 46.13600
H  38.68700 7.86400 44.85400
N  45.43700 3.00900 48.15000
C  44.24800 2.29200 48.05200
C  44.55100 0.91100 48.28300
C  45.95100 0.79200 48.35900
C  46.49100 2.19700 48.35000
C  43.46900 -0.15300 48.33400
C  46.68200 -0.53800 48.49000
O  46.17600 -1.67500 48.56000
C  48.13600 -0.55500 48.58900
N  47.80200 5.12100 48.01300
C  48.43500 3.96000 48.33900
C  49.96200 4.13200 48.40900
C  50.13500 5.64600 48.19700
C  48.67100 6.14100 48.01800
C  50.43700 3.58500 49.80000
C  51.08000 6.04800 46.96500
C  52.41800 6.72500 47.30200
N  45.84400 7.16000 47.89100
C  46.97100 7.93700 47.82700
C  46.57900 9.27800 47.42200
C  45.21000 9.28100 47.40100
C  44.79000 7.93600 47.60700
C  47.53100 10.43400 47.28200
C  44.00800 10.05700 47.13600
O  43.90000 11.26000 46.88900
C  42.78000 9.09100 47.14900
C  41.89700 9.58500 48.25200
O  41.76000 9.10500 49.38600
O  41.05900 10.54800 47.72100
C  39.98100 11.10900 48.66800
H  42.06900 2.27500 47.83100
H  48.60700 1.93400 48.65800
H  49.20600 8.00000 48.04000
H  40.81700 6.78800 48.23700
H  40.49900 4.19900 47.11800
H  39.91100 5.39000 49.68800
H  41.14200 4.20800 49.95000
H  39.64200 3.68900 49.13200
H  40.16500 5.69300 45.51900
H  41.20400 7.06700 45.38000
H  39.90900 8.67800 46.43500
H  38.71700 7.34700 46.80700
H  43.56100 -0.84700 47.49900
H  42.46400 0.26000 48.42100
H  43.63400 -0.70900 49.25700
H  48.45600 -0.13200 47.63700
H  48.34400 -1.62300 48.52200
H  48.58200 -0.06800 49.45600
H  50.37500 3.50300 47.62000
H  50.56700 6.13100 49.07200
H  50.51300 2.49700 49.77900
H  49.74800 3.81900 50.61100
H  51.39900 4.02500 50.06200
H  50.55200 6.78400 46.35800
H  51.22600 5.19500 46.30200
H  52.64000 6.68100 48.36900
H  52.33900 7.76800 46.99600
H  53.23300 6.20500 46.80000
H  48.32400 10.22400 46.56500
H  47.94100 10.55300 48.28500
H  46.79200 11.19600 47.03400
H  42.24000 9.00200 46.20600
H  39.86000 12.17700 48.49000
H  40.28600 11.01500 49.71000
H  39.02800 10.58100 48.63400
Mg 41.99200 41.52800 27.48300
C  41.15000 43.91500 29.89900
C  42.86600 39.32200 29.93900
C  42.87500 39.28500 25.14600
C  41.49600 43.98500 25.11800
N  42.01800 41.67400 29.78600
C  41.57300 42.70200 30.55500
C  41.69100 42.33600 32.07900
C  42.41100 40.91200 32.01900
C  42.49900 40.61200 30.53300
C  43.84600 40.72700 32.74300
C  40.39500 42.39800 32.79300
C  40.19800 43.22000 34.12600
H  39.51100 42.38000 35.21400
N  42.73900 39.59200 27.53900
C  43.00800 38.85300 28.64300
C  43.48500 37.52600 28.27100
C  43.42100 37.47600 26.84900
C  43.02300 38.84200 26.44500
C  44.05700 36.44500 29.27300
C  43.88100 36.37400 25.93700
O  43.91900 36.46900 24.71000
C  44.42900 35.03100 26.60000
N  42.13500 41.57400 25.50000
C  42.46200 40.54700 24.70000
C  42.41000 40.85900 23.20100
C  41.61100 42.22400 23.26100
C  41.78700 42.66400 24.68400
C  43.73400 40.99700 22.57300
C  40.11900 42.07200 22.76400
C  38.98600 41.79400 23.79700
N  41.60800 43.51900 27.46500
C  41.30700 44.35100 26.36800
C  40.72300 45.60800 26.82800
C  40.72000 45.51000 28.19100
C  41.20000 44.20400 28.52800
C  40.54000 46.87800 25.95300
C  40.56900 46.28800 29.45300
O  40.16300 47.45400 29.59800
C  40.86200 45.25500 30.63500
C  41.92900 45.80900 31.51500
O  43.09200 46.01200 31.18000
O  41.35700 46.02600 32.79400
C  42.21600 46.69700 33.84600
H  43.14300 38.53100 30.63800
H  43.11300 38.51100 24.41400
H  41.29000 44.67000 24.29300
H  42.28900 43.11300 32.55500
H  41.73800 40.18100 32.46800
H  44.59200 40.33900 32.05000
H  43.68700 39.90800 33.44400
H  44.24300 41.63600 33.19400
H  40.05400 41.37300 32.93400
H  39.67400 42.77400 32.06600
H  39.47900 44.02800 33.99200
H  41.16000 43.61800 34.44900
H  44.97700 36.02400 28.86700
H  43.37300 35.62300 29.48300
H  44.25200 36.96300 30.21200
H  45.40900 35.12000 27.06800
H  44.53300 34.37800 25.73300
H  43.67500 34.60600 27.26200
H  41.82000 40.11400 22.66800
H  42.08100 42.97500 22.62500
H  44.02600 42.01700 22.32300
H  43.79900 40.61800 21.55300
H  44.53100 40.48300 23.11100
H  40.14700 41.25000 22.05000
H  39.90600 43.07200 22.38600
H  38.06200 42.27900 23.48100
H  39.25100 42.09100 24.81200
H  38.69600 40.74500 23.85300
H  39.49600 47.13600 25.77800
H  41.00100 46.75200 24.97300
H  41.10600 47.69800 26.39500
H  40.03900 45.16100 31.34500
H  43.22200 46.92800 33.49700
H  42.33000 45.97500 34.65500
H  41.75800 47.64100 34.14100

