158

Mg 16.64500 52.14000 25.82100
C  18.28700 50.98800 28.69600
C  14.06200 53.24100 27.75300
C  15.26800 53.46100 23.09300
C  19.18200 50.76000 23.87800
N  16.30100 52.18400 27.98300
C  17.16000 51.71000 29.01100
C  16.63000 52.17000 30.36100
C  15.21200 52.69400 30.04600
C  15.15300 52.69500 28.48400
C  14.08000 51.97600 30.92300
C  17.57500 53.26600 30.93300
C  18.09700 52.89100 32.29100
H  17.32700 53.41000 33.46200
N  14.86700 53.12300 25.44700
C  13.94900 53.51100 26.37600
C  12.83300 54.16600 25.71700
C  13.14400 54.18900 24.30100
C  14.48300 53.51600 24.20500
C  11.73800 54.85900 26.50600
C  12.32500 54.59800 23.12600
O  12.63600 54.44100 21.95100
C  11.04800 55.33500 23.26300
N  17.04100 51.99600 23.78800
C  16.46200 52.77500 22.88400
C  17.16300 52.81200 21.50500
C  18.55600 52.07300 21.76100
C  18.21900 51.54000 23.26100
C  16.34800 52.21100 20.31600
C  19.77800 53.00000 21.66000
C  21.13300 52.29600 21.53300
N  18.27800 51.00200 26.12500
C  19.20400 50.46400 25.27200
C  20.23600 49.66700 25.99700
C  19.88800 49.90500 27.32700
C  18.66200 50.60000 27.38700
C  21.53500 49.11200 25.51000
C  20.35500 49.68300 28.66400
O  21.29600 49.01600 29.10300
C  19.40400 50.45100 29.62600
C  18.90900 49.68800 30.78200
O  17.98200 48.90200 30.67800
O  19.76400 49.73500 31.79300
C  19.89700 48.71200 32.77300
H  13.20900 53.61700 28.32100
H  14.83400 53.93900 22.21200
H  19.99700 50.24900 23.36200
H  16.51300 51.31800 31.03100
H  15.12100 53.72900 30.37500
H  14.52700 51.69700 31.87700
H  13.77900 51.15500 30.27100
H  13.23100 52.64800 31.04700
H  17.07000 54.21700 31.10500
H  18.45400 53.41800 30.30700
H  19.12900 53.22000 32.40900
H  18.26300 51.81400 32.30700
H  12.03200 55.31300 27.45200
H  10.91500 54.14400 26.52100
H  11.33700 55.66900 25.89700
H  11.21300 56.23200 23.86100
H  10.50700 54.61100 23.87200
H  10.49800 55.46100 22.33100
H  17.33800 53.86500 21.28400
H  18.70500 51.17300 21.16500
H  15.45500 51.72800 20.71200
H  16.95100 51.44600 19.82600
H  16.09400 53.03600 19.65000
H  19.84100 53.73600 22.46200
H  19.55900 53.55100 20.74500
H  21.77600 52.61700 22.35200
H  21.66300 52.69000 20.66500
H  21.05100 51.21200 21.45100
H  21.97000 48.42800 26.23800
H  22.25800 49.91300 25.34800
H  21.35700 48.60900 24.56000
H  19.91600 51.28000 30.11500
H  20.72500 48.98500 33.42800
H  19.89300 47.73900 32.28300
H  19.03600 48.73000 33.44200
Mg 9.48800 48.62600 25.47600
C  7.37100 49.29700 28.16000
C  12.12300 49.98000 27.26200
C  11.63100 48.14400 22.77200
C  6.81100 48.03100 23.45500
N  9.73400 49.52200 27.45200
C  8.73400 49.57700 28.42000
C  9.38700 49.94900 29.73400
C  10.66600 50.72500 29.24500
C  10.88200 50.01700 27.90100
C  10.56600 52.30900 29.28800
C  9.61800 48.61600 30.56000
C  9.18700 48.77900 32.02100
H  8.97200 47.44000 32.88300
N  11.57900 48.86900 25.22000
C  12.48900 49.49300 26.01500
C  13.80600 49.35800 25.38900
C  13.65700 48.66500 24.16900
C  12.25600 48.52700 24.03100
C  15.07500 49.77900 26.15400
C  14.74400 48.06000 23.19700
O  14.46300 47.36600 22.24900
C  16.12000 48.32700 23.41100
N  9.20400 48.19500 23.37700
C  10.22800 47.91900 22.48300
C  9.69300 47.41500 21.15300
C  8.15400 47.38200 21.46900
C  8.01900 47.83700 22.83400
C  10.10300 48.25100 19.89500
C  7.48700 45.94300 21.22200
C  6.02300 45.90300 20.65700
N  7.45600 48.76100 25.68600
C  6.45700 48.46100 24.76800
C  5.20100 48.56800 25.37000
C  5.53000 48.80300 26.78200
C  6.92000 48.97800 26.87100
C  3.86800 48.22400 24.72200
C  4.97100 48.90000 28.09900
O  3.91100 48.65300 28.42000
C  6.09200 49.35100 29.06500
C  5.97500 48.23000 30.16100
O  6.46800 47.12300 30.04300
O  5.14400 48.64500 31.12800
C  4.76300 47.70200 32.20500
H  12.87300 50.33500 27.97100
H  12.24000 47.91000 21.89600
H  5.90900 47.90400 22.85300
H  8.76400 50.70400 30.21400
H  11.49000 50.45200 29.90500
H  10.70100 52.69600 30.29700
H  9.58400 52.67700 28.99300
H  11.31900 52.75600 28.63800
H  10.63400 48.22200 30.54800
H  9.03800 47.81900 30.09400
H  8.30400 49.41400 32.10500
H  9.86900 49.47700 32.50600
H  15.49000 48.81600 26.45300
H  14.80400 50.38500 27.01900
H  15.74300 50.36700 25.52600
H  16.27600 49.38200 23.18200
H  16.69800 47.67100 22.76000
H  16.14100 48.16100 24.48800
H  10.18100 46.44100 21.20400
H  7.60400 48.14500 20.91900
H  10.77400 49.09700 20.04700
H  9.20100 48.66300 19.44300
H  10.49900 47.66600 19.06500
H  7.35700 45.43400 22.17800
H  8.12200 45.31700 20.59600
H  5.75900 46.94400 20.47300
H  5.42500 45.50700 21.47800
H  5.88500 45.28800 19.76700
H  3.26500 47.46700 25.22400
H  3.94800 47.95900 23.66700
H  3.22100 49.10100 24.71900
H  5.85200 50.32100 29.50100
H  4.98600 46.65400 32.00700
H  3.68500 47.84800 32.27400
H  5.01000 47.94000 33.24000

