158

Mg 40.42500 41.25200 27.27600
C  39.81900 43.64500 30.00100
C  41.45100 39.05800 29.79200
C  41.16100 39.30200 24.91500
C  39.49400 43.87300 25.01500
N  40.53400 41.34700 29.58100
C  40.22700 42.37100 30.42400
C  40.28800 41.96100 31.92900
C  41.04900 40.64700 31.76700
C  41.06200 40.31100 30.26600
C  42.47200 40.61000 32.45000
C  38.91100 41.88600 32.61300
C  38.80500 41.37900 34.09500
H  38.15900 42.28700 35.09700
N  41.10700 39.37400 27.34000
C  41.52800 38.61800 28.40800
C  42.03600 37.34700 27.91800
C  42.02100 37.39400 26.50600
C  41.42700 38.71100 26.13200
C  42.57600 36.29900 28.91400
C  42.52100 36.31600 25.46100
O  42.55200 36.40700 24.25500
C  43.03000 35.07800 26.07100
N  40.48100 41.61500 25.24400
C  40.81000 40.58500 24.40400
C  40.57300 40.93200 22.91500
C  39.95400 42.32300 22.97500
C  39.83300 42.64000 24.50700
C  41.88700 40.92200 22.01800
C  38.55500 42.36300 22.39700
C  37.44800 41.55500 23.11600
N  39.73800 43.31700 27.42800
C  39.52500 44.23900 26.42400
C  39.24800 45.53400 27.02100
C  39.33500 45.30200 28.39100
C  39.69000 44.00600 28.61500
C  38.93500 46.78300 26.29100
C  39.17200 46.02900 29.60000
O  38.90700 47.17700 29.80300
C  39.44900 44.92300 30.73800
C  40.46100 45.37400 31.71100
O  41.62700 45.72700 31.39000
O  39.89200 45.55300 32.99700
C  40.89400 45.97100 34.00100
H  41.70800 38.38400 30.61100
H  41.38500 38.53100 24.17500
H  39.27000 44.67600 24.30900
H  40.73400 42.75900 32.52300
H  40.53400 39.83900 32.28600
H  42.85100 41.62500 32.56400
H  43.28700 40.16500 31.87800
H  42.43700 40.06300 33.39300
H  38.16900 41.28700 32.08500
H  38.40200 42.84800 32.56900
H  39.77300 41.01000 34.43500
H  38.16400 40.49800 34.11600
H  43.52400 35.86500 28.59600
H  41.81800 35.52500 29.03600
H  42.76800 36.79500 29.86500
H  43.97100 35.38300 26.53000
H  43.31000 34.38400 25.27900
H  42.25700 34.59700 26.67000
H  39.79100 40.25200 22.57500
H  40.63200 43.07500 22.57000
H  41.57500 40.59300 21.02700
H  42.63000 40.26100 22.46600
H  42.36100 41.89800 21.91700
H  38.66500 42.03600 21.36300
H  38.24900 43.40700 22.33200
H  37.80200 41.04100 24.00900
H  37.01100 40.87800 22.38200
H  36.58100 42.14900 23.40500
H  38.71300 46.57300 25.24500
H  39.77700 47.47100 26.37100
H  38.14100 47.27600 26.85300
H  38.54000 44.66300 31.28200
H  41.76600 46.48000 33.59100
H  41.27900 45.10100 34.53200
H  40.36500 46.65300 34.66700
Mg 6.56600 57.61400 41.71500
C  5.37800 54.26300 41.47800
C  9.61000 56.25800 40.55300
C  7.67700 60.58100 41.33400
C  3.47800 58.60700 42.61500
N  7.33900 55.59100 40.87500
C  6.65600 54.35700 40.89800
C  7.48300 53.25100 40.26100
C  8.92400 53.90100 40.47400
C  8.63300 55.29700 40.67200
C  9.63700 53.29700 41.71600
C  7.00700 53.19400 38.78000
C  6.99400 51.91000 38.07800
H  7.80900 51.67200 36.82100
N  8.38000 58.39300 40.98600
C  9.49200 57.64600 40.63600
C  10.51100 58.50900 40.28700
C  10.04400 59.87300 40.44300
C  8.64500 59.65500 40.92900
C  11.89700 58.06900 39.77600
C  10.74200 61.13300 40.22600
O  11.88600 61.22300 39.78200
C  10.10500 62.47600 40.67400
N  5.56200 59.38000 41.49600
C  6.30900 60.46600 41.58900
C  5.57400 61.66600 42.22500
C  4.19000 61.01000 42.55600
C  4.40400 59.56500 42.16100
C  6.23000 62.19900 43.49500
C  3.09800 61.77300 41.89400
C  1.79500 61.78400 42.66100
N  4.71300 56.67500 42.04900
C  3.59900 57.18800 42.51700
C  2.61300 56.17500 42.73100
C  3.29100 54.99300 42.39200
C  4.59000 55.35200 41.97600
C  1.22300 56.47400 43.35700
C  3.12600 53.57600 42.34500
O  2.17500 52.83600 42.61800
C  4.52000 52.97800 41.71200
C  4.15400 52.33400 40.49800
O  3.93800 52.91200 39.42300
O  4.11900 50.98900 40.65600
C  3.80000 50.14000 39.44600
H  10.57700 55.75600 40.48200
H  8.08600 61.58600 41.46200
H  2.50900 58.94900 42.98600
H  7.27000 52.30500 40.75800
H  9.53400 53.84100 39.57300
H  9.71200 53.83600 42.66100
H  10.70500 53.12700 41.57900
H  9.27000 52.28700 41.90400
H  7.76100 53.75900 38.23200
H  6.05000 53.68700 38.60900
H  5.99900 51.86900 37.63600
H  7.23000 51.08600 38.75100
H  12.12800 58.36300 38.75200
H  12.16200 57.01600 39.87500
H  12.62700 58.62200 40.36700
H  9.95800 62.32100 41.74300
H  9.23500 62.60000 40.02900
H  10.83800 63.28000 40.60900
H  5.40500 62.40600 41.44300
H  4.02200 60.94400 43.63100
H  7.09900 61.62400 43.81400
H  5.53600 62.29500 44.33100
H  6.65700 63.12400 43.10800
H  2.91000 61.29600 40.93200
H  3.48700 62.78200 41.75900
H  1.50900 62.83300 42.72900
H  2.04600 61.40300 43.65000
H  0.88700 61.23800 42.40400
H  1.34700 57.20700 44.15400
H  0.77200 55.56800 43.76000
H  0.57600 56.74500 42.52300
H  4.99300 52.30200 42.42400
H  2.95500 49.55400 39.80900
H  4.69500 49.61500 39.11200
H  3.42400 50.70900 38.59600

