158

Mg 0.96600 8.07600 26.32400
C  1.71700 10.28400 29.05000
C  1.24500 5.40000 28.68900
C  0.69400 5.99500 23.80600
C  1.02600 10.76200 24.26100
N  1.45100 7.88200 28.60300
C  1.62600 8.95800 29.48700
C  1.76700 8.47500 30.92100
C  1.87200 6.91100 30.75500
C  1.47900 6.70400 29.27100
C  3.30300 6.35900 30.98400
C  0.53400 8.91700 31.74900
C  0.85000 9.27900 33.24100
H  1.96100 8.60900 34.11900
N  0.90300 5.99600 26.24300
C  0.99400 5.07100 27.28800
C  0.82700 3.78400 26.77600
C  0.70700 3.88400 25.38000
C  0.82100 5.34600 25.06500
C  0.73500 2.53000 27.68500
C  0.67900 2.81700 24.31600
O  0.64500 2.99700 23.07000
C  0.74900 1.43300 24.74100
N  0.95700 8.36300 24.31100
C  0.77900 7.32800 23.47200
C  0.82300 7.81700 22.04400
C  0.53200 9.32000 22.22100
C  0.86200 9.51700 23.70400
C  2.22400 7.51400 21.38400
C  -0.91000 9.75200 22.05700
C  -1.21800 10.38600 20.75000
N  1.34400 10.17800 26.53500
C  1.33300 11.13500 25.64000
C  1.65100 12.51800 26.21800
C  1.80100 12.18200 27.58000
C  1.57200 10.77700 27.73700
C  1.64600 13.77000 25.45300
C  2.07500 12.72600 28.83600
O  2.40400 13.87500 29.10000
C  2.00000 11.53300 29.86400
C  3.30900 11.50500 30.61400
O  4.41100 11.29700 30.14400
O  3.00900 11.72500 31.90200
C  4.10800 11.99900 32.83200
H  1.39100 4.60400 29.42100
H  0.67600 5.38900 22.89800
H  0.91000 11.56700 23.53100
H  2.66100 8.97200 31.29800
H  1.05800 6.52200 31.36700
H  3.99300 7.12200 31.34700
H  3.65000 5.83100 30.09600
H  3.15500 5.61600 31.76800
H  -0.24800 8.16200 31.67400
H  0.07700 9.72400 31.17600
H  -0.03600 9.41200 33.86100
H  1.20800 10.30400 33.13800
H  -0.04100 1.79100 27.49000
H  0.59100 2.75900 28.74100
H  1.68000 1.99500 27.78200
H  1.63200 1.31500 25.36900
H  0.91100 0.81200 23.85900
H  -0.15600 1.04600 25.21000
H  -0.08500 7.38900 21.61800
H  1.16100 9.90100 21.54700
H  2.99100 7.59900 22.15400
H  2.41000 8.12600 20.50200
H  2.03000 6.47700 21.10800
H  -1.24500 10.47700 22.79800
H  -1.62300 8.93200 22.14000
H  -0.36200 10.15600 20.11600
H  -1.44600 11.43900 20.91200
H  -2.02600 9.96400 20.15300
H  0.59800 13.90200 25.18300
H  2.32900 13.75200 24.60400
H  1.97400 14.60400 26.07400
H  1.20000 11.82300 30.54400
H  4.86900 12.50100 32.23400
H  4.70000 11.18900 33.25800
H  3.81600 12.70800 33.60700
Mg 35.76100 0.66300 29.37500
C  33.97700 2.06400 31.93000
C  38.40300 0.24100 31.41000
C  37.74200 0.17000 26.63400
C  33.26700 1.94300 27.14600
N  36.12800 1.06000 31.46100
C  35.24300 1.60800 32.36400
C  35.77000 1.51800 33.81700
C  37.30200 1.21000 33.53200
C  37.26500 0.76100 32.04200
C  38.21700 2.37400 33.82400
C  34.98700 0.55300 34.73800
C  34.52100 1.02600 36.10500
H  35.40500 2.12900 36.83500
N  37.75700 -0.01900 29.06400
C  38.63300 -0.18000 30.07000
C  39.88700 -0.61500 29.54000
C  39.72700 -0.65600 28.14600
C  38.34100 -0.14900 27.88800
C  41.18500 -0.82600 30.37800
C  40.70700 -1.16200 27.04300
O  40.49300 -1.10400 25.80900
C  42.07200 -1.86400 27.36900
N  35.52900 1.03700 27.22900
C  36.49600 0.70700 26.29100
C  36.03400 1.04700 24.86200
C  34.52000 1.22900 25.04900
C  34.36000 1.34300 26.58700
C  36.72100 2.42600 24.39400
C  33.68300 0.06000 24.51300
C  33.67200 -1.21800 25.35800
N  33.88800 1.62400 29.43400
C  32.95200 2.03700 28.54100
C  31.73700 2.57300 29.21400
C  32.09900 2.58400 30.54900
C  33.42900 2.00800 30.61600
C  30.61300 3.40700 28.69200
C  31.78900 3.15700 31.88700
O  30.89700 3.91300 32.24700
C  32.95200 2.65200 32.86800
C  33.32900 3.84100 33.59900
O  34.22800 4.60200 33.38700
O  32.52000 3.91800 34.69300
C  32.69700 5.09000 35.57500
H  39.25800 0.14800 32.08400
H  38.46000 0.03600 25.82300
H  32.45900 2.13800 26.43800
H  35.66900 2.51200 34.25400
H  37.55200 0.28300 34.04700
H  37.71300 3.21600 33.35000
H  39.19100 2.13700 33.39800
H  38.26000 2.53500 34.90100
H  35.49100 -0.37200 35.01700
H  34.04700 0.33700 34.23000
H  34.47800 0.13500 36.73100
H  33.49700 1.38600 36.00000
H  42.00900 -0.40600 29.80100
H  41.40800 -1.89100 30.42800
H  41.22900 -0.27300 31.31600
H  41.92900 -2.50400 28.24000
H  42.82600 -1.11500 27.60900
H  42.49700 -2.35100 26.49100
H  36.34100 0.24600 24.18900
H  34.16600 2.15200 24.58900
H  37.15600 2.45300 23.39500
H  37.53500 2.71300 25.06000
H  36.02500 3.26400 24.36700
H  34.07000 -0.12700 23.51100
H  32.65900 0.42800 24.44800
H  33.46600 -2.10300 24.75600
H  32.88900 -1.15800 26.11400
H  34.64400 -1.36500 25.83000
H  30.28700 4.23900 29.31700
H  29.73200 2.77500 28.57600
H  30.90800 3.73700 27.69500
H  32.54400 1.92000 33.56500
H  31.66200 5.41700 35.67100
H  33.46400 5.78400 35.23200
H  32.98900 4.72100 36.55900

