158

Mg 48.39500 45.50500 43.64200
C  45.02700 45.86300 42.54400
C  48.49900 42.39400 42.53400
C  51.73200 45.83800 43.65100
C  48.18400 49.02900 44.31100
N  46.92900 44.38600 42.57900
C  45.61300 44.59100 42.26900
C  44.87000 43.34200 41.67200
C  45.91800 42.24400 41.94800
C  47.19600 43.01800 42.39200
C  45.52900 41.22300 43.02000
C  44.35600 43.54800 40.16900
C  45.14500 44.44200 39.14400
H  46.20000 43.63200 38.37900
N  49.94700 44.29000 43.23700
C  49.75100 43.03100 42.82200
C  51.05500 42.33600 42.73700
C  52.01800 43.31400 43.13600
C  51.27000 44.57300 43.29000
C  51.16400 40.80300 42.54400
C  53.50500 42.94500 43.24200
O  53.85200 41.80500 42.93600
C  54.44500 43.92800 43.78400
N  49.81400 47.21300 43.93100
C  51.15100 47.00500 43.94200
C  51.92000 48.36200 44.16200
C  50.78900 49.26700 44.81000
C  49.46400 48.49500 44.31000
C  53.15200 48.18400 45.14100
C  50.92300 50.77500 44.63500
C  50.66300 51.62500 45.81800
N  46.85000 47.08500 43.76400
C  46.94100 48.44900 44.01600
C  45.62000 49.07600 43.91400
C  44.88100 48.04800 43.36700
C  45.69100 46.88600 43.23600
C  45.36200 50.59800 44.00400
C  43.63100 47.80400 42.82000
O  42.64700 48.54700 42.79000
C  43.63200 46.33100 42.25000
C  42.44100 45.64500 42.91000
O  41.56700 45.02100 42.30800
O  42.54700 45.76700 44.28600
C  41.36700 45.39000 45.02100
H  48.51500 41.31000 42.39800
H  52.82400 45.82900 43.67100
H  48.11000 50.11500 44.39200
H  43.99400 43.18400 42.30100
H  46.01900 41.75300 40.98000
H  45.94500 41.52600 43.98100
H  45.77500 40.23200 42.63800
H  44.44800 41.29300 43.13600
H  43.36900 44.00700 40.21900
H  44.20600 42.52700 39.81800
H  45.68000 45.26200 39.62300
H  44.38400 44.90800 38.51800
H  52.08100 40.53400 42.01900
H  50.32100 40.34100 42.03200
H  51.19600 40.34600 43.53400
H  54.53800 44.74300 43.06700
H  55.37000 43.39600 44.00600
H  54.02800 44.37900 44.68500
H  52.23100 48.73900 43.18700
H  50.93300 49.10900 45.87800
H  53.00100 47.26800 45.71200
H  53.28300 48.89800 45.95400
H  53.98000 48.05800 44.44400
H  50.27400 51.10800 43.82500
H  51.91300 50.89500 44.19500
H  51.46400 51.71500 46.55100
H  49.76400 51.30700 46.34600
H  50.53800 52.62500 45.40100
H  45.90600 51.06400 43.18200
H  45.60200 51.07200 44.95600
H  44.29300 50.74900 43.85200
H  43.47300 46.31600 41.17200
H  40.89600 44.46100 44.69900
H  40.67300 46.20400 44.81300
H  41.52000 45.26600 46.09300
Mg -11.79000 37.28400 41.79200
C  -9.72100 34.70600 40.76900
C  -9.54400 39.55100 40.60800
C  -14.25200 39.56800 42.03200
C  -14.14200 34.84600 42.95600
N  -9.98200 37.10500 40.58900
C  -9.24100 35.96600 40.38100
C  -7.91800 36.19900 39.57100
C  -7.82400 37.76200 39.84800
C  -9.18200 38.23500 40.38600
C  -6.62000 38.40600 40.68500
C  -7.99700 35.75100 38.04400
C  -6.82500 34.92300 37.41300
H  -6.24600 35.53600 36.17800
N  -11.83400 39.34100 41.34500
C  -10.73900 40.06900 40.95700
C  -11.21800 41.51100 40.93300
C  -12.66100 41.49600 41.25700
C  -12.97000 40.09400 41.60200
C  -10.33400 42.66800 40.60500
C  -13.56300 42.72300 41.35400
O  -13.11800 43.82100 41.06800
C  -15.01900 42.75400 41.85000
N  -13.93800 37.14100 42.29600
C  -14.70200 38.33800 42.31800
C  -16.23300 37.98800 42.65800
C  -16.12800 36.52400 43.13000
C  -14.64700 36.11600 42.80400
C  -16.94400 38.84200 43.69200
C  -17.23800 35.56200 42.43600
C  -18.22400 34.96400 43.48400
N  -11.95800 35.20100 41.84200
C  -12.88500 34.33400 42.48600
C  -12.30900 33.03000 42.52800
C  -11.00100 33.10600 41.94500
C  -10.90400 34.39800 41.42100
C  -12.97700 31.74100 43.07600
C  -9.75000 32.38000 41.70100
O  -9.38800 31.28700 42.06300
C  -8.90400 33.38000 40.74400
C  -7.59900 33.60500 41.25300
O  -7.29300 34.00300 42.32900
O  -6.70900 33.29200 40.29000
C  -5.33100 33.39700 40.80100
H  -8.74700 40.21800 40.27300
H  -15.03800 40.32600 42.04300
H  -14.89800 34.22500 43.44100
H  -7.08800 35.74500 40.11100
H  -7.65300 38.24300 38.88500
H  -6.08100 39.08600 40.02600
H  -5.86100 37.64000 40.84400
H  -6.99100 38.97600 41.53700
H  -8.16900 36.62300 37.41300
H  -8.90000 35.16300 37.87800
H  -7.26800 33.93900 37.26100
H  -6.04700 34.77700 38.16200
H  -10.67300 43.34400 39.82000
H  -9.35800 42.21600 40.42900
H  -10.13900 43.22200 41.52300
H  -15.70700 42.43000 41.06900
H  -15.18200 43.79900 42.11200
H  -15.17500 42.17900 42.76200
H  -16.82900 38.14600 41.75900
H  -16.24700 36.49800 44.21300
H  -17.65200 39.49300 43.17800
H  -16.29200 39.53200 44.22700
H  -17.57500 38.24900 44.35400
H  -16.72700 34.82900 41.81200
H  -17.77000 36.11400 41.66200
H  -17.86500 33.96400 43.72600
H  -19.24200 34.96800 43.09400
H  -18.29000 35.66300 44.31800
H  -12.29200 31.23300 43.75500
H  -13.04900 31.07500 42.21700
H  -13.89700 31.95900 43.61900
H  -8.85400 33.13400 39.68300
H  -4.99800 34.43400 40.78200
H  -4.66900 32.84800 40.13100
H  -5.05300 33.09200 41.81000

