158

Mg 10.11900 48.30300 25.77100
C  7.80200 48.32300 28.52900
C  12.38500 49.75900 27.91200
C  12.21500 48.27300 23.19200
C  7.49200 47.37900 23.76900
N  9.96800 49.15300 27.98000
C  9.07400 48.83200 28.95700
C  9.56100 49.16900 30.35100
C  10.97900 49.85600 30.04900
C  11.12300 49.61000 28.54100
C  11.07100 51.35700 30.49000
C  9.55100 48.03900 31.41400
C  10.62300 48.07900 32.51000
H  10.41800 47.23000 33.75600
N  12.05500 48.83100 25.63900
C  12.83900 49.41100 26.62300
C  14.12900 49.50300 26.05700
C  14.16800 48.94300 24.75700
C  12.75600 48.61200 24.44900
C  15.27600 50.01700 26.83500
C  15.36000 48.67800 23.77900
O  15.27500 48.37300 22.61700
C  16.72800 48.90800 24.36600
N  9.88500 47.88100 23.65400
C  10.93100 47.91200 22.74400
C  10.49100 47.48000 21.32900
C  8.99900 47.14800 21.54300
C  8.76000 47.46200 23.11700
C  10.86000 48.67600 20.34100
C  8.49700 45.74300 21.08500
C  8.75400 44.55400 22.11400
N  7.97700 48.03400 26.00900
C  7.08000 47.60000 25.07800
C  5.83000 47.39000 25.70300
C  6.08200 47.54700 27.08300
C  7.37900 48.03500 27.19000
C  4.51000 46.98300 25.06500
C  5.52100 47.44000 28.37700
O  4.45600 46.99600 28.74800
C  6.60200 47.92000 29.38300
C  6.70300 46.78500 30.32100
O  7.16500 45.68900 30.04200
O  6.14100 47.10000 31.55300
C  6.63700 46.14200 32.53600
H  13.09900 50.15400 28.63800
H  12.95500 48.30000 22.39000
H  6.70300 47.03300 23.09800
H  8.88700 49.97300 30.64600
H  11.86600 49.40700 30.49500
H  11.76700 51.21900 31.31800
H  10.16500 51.81700 30.88300
H  11.44100 52.02600 29.71300
H  9.55200 47.10800 30.84800
H  8.61400 48.22800 31.93800
H  10.66800 49.12100 32.82700
H  11.52900 47.77600 31.98500
H  15.14500 50.51400 27.79600
H  15.73400 50.80100 26.23200
H  16.01900 49.23100 26.96800
H  16.93200 48.23800 25.20100
H  16.96000 49.96100 24.52900
H  17.45100 48.62100 23.60200
H  11.13800 46.61400 21.18800
H  8.40400 47.85000 20.95900
H  10.96100 49.64300 20.83300
H  10.11700 48.70700 19.54400
H  11.77800 48.57700 19.76200
H  9.06900 45.60800 20.16700
H  7.44500 45.88400 20.83700
H  9.33100 44.82100 22.99900
H  9.07900 43.65000 21.60000
H  7.76600 44.28000 22.48500
H  4.38600 45.90000 25.06900
H  4.44500 47.21800 24.00300
H  3.78100 47.49600 25.69300
H  6.17100 48.71100 29.99800
H  6.33800 45.11500 32.33000
H  6.13400 46.37800 33.47400
H  7.72400 46.21500 32.57300
Mg 0.91200 43.62200 25.91900
C  3.08600 43.24300 28.70100
C  -1.79300 42.93200 28.15000
C  -1.20200 43.52400 23.32400
C  3.57500 43.74200 23.83300
N  0.65800 43.19700 28.23900
C  1.67600 43.20000 29.14200
C  1.19200 43.10500 30.55200
C  -0.34200 42.75600 30.35400
C  -0.52300 42.94900 28.82200
C  -0.83000 41.34800 30.85100
C  1.48900 44.36500 31.42100
C  1.66800 44.22000 32.90700
H  1.04200 43.01300 33.65000
N  -1.23600 43.36300 25.79200
C  -2.16000 43.19700 26.81500
C  -3.47900 43.18600 26.24000
C  -3.31500 43.25500 24.84200
C  -1.88900 43.36100 24.57700
C  -4.69500 42.96800 27.08800
C  -4.41700 43.22300 23.75900
O  -4.18900 43.11600 22.52500
C  -5.85700 43.35500 24.22500
N  1.10300 43.49200 23.87300
C  0.13200 43.67700 22.98800
C  0.67800 43.85100 21.58200
C  2.17500 44.23300 21.78200
C  2.29500 43.84500 23.24300
C  0.42700 42.62100 20.81100
C  2.49600 45.77000 21.55200
C  3.82500 46.07400 20.81100
N  2.86500 43.40900 26.12900
C  3.84900 43.42900 25.18500
C  5.20200 43.39600 25.83300
C  4.95500 43.30300 27.16000
C  3.50600 43.37700 27.35000
C  6.50100 43.46300 25.12400
C  5.56600 43.21600 28.43600
O  6.74500 43.09800 28.77700
C  4.44800 43.26300 29.40900
C  4.56000 42.04700 30.25200
O  4.19900 40.93400 29.93600
O  5.13800 42.39000 31.44200
C  5.10400 41.35900 32.57900
H  -2.60200 42.59800 28.80400
H  -1.81600 43.49200 22.42100
H  4.44300 44.00500 23.22400
H  1.78100 42.26800 30.92700
H  -0.94900 43.56800 30.75400
H  -0.11400 40.59400 31.17700
H  -1.29400 40.91000 29.96700
H  -1.62700 41.64400 31.53300
H  0.79700 45.17600 31.19400
H  2.46700 44.75400 31.14000
H  1.27100 45.09400 33.42400
H  2.72300 44.29000 33.17200
H  -5.23600 43.86500 27.38800
H  -4.46600 42.46000 28.02400
H  -5.33200 42.27200 26.54200
H  -6.19700 42.41000 24.64900
H  -6.28300 43.55400 23.24200
H  -5.98600 44.29900 24.75600
H  0.16400 44.69600 21.12400
H  2.85200 43.68300 21.12800
H  -0.18800 41.87600 21.31700
H  1.35800 42.05500 20.82300
H  -0.02100 42.75900 19.82700
H  2.67000 46.24000 22.51900
H  1.66600 46.26900 21.05200
H  4.58100 46.53000 21.45000
H  3.65400 46.77100 19.99000
H  4.17700 45.24500 20.19800
H  6.60800 42.77300 24.28700
H  7.26900 43.04100 25.77100
H  6.77900 44.45400 24.76400
H  4.33300 44.14300 30.04200
H  4.86700 41.81800 33.53900
H  6.07000 40.93600 32.85700
H  4.47500 40.48800 32.39500

