158

Mg 50.24200 45.63200 42.24400
C  47.04500 46.92900 41.28800
C  49.64900 42.95200 40.15800
C  53.47900 44.60400 42.60200
C  51.02600 48.81000 43.36900
N  48.48300 45.05300 40.81500
C  47.23500 45.63100 40.70900
C  46.32500 44.86400 39.74500
C  47.15800 43.52000 39.59500
C  48.50900 43.82800 40.22000
C  46.48800 42.33800 40.32900
C  46.05200 45.61200 38.36900
C  44.69500 45.39700 37.77900
H  44.56400 44.28500 36.67400
N  51.33000 43.94700 41.60100
C  50.86800 43.01300 40.78600
C  51.82300 41.97000 40.74600
C  53.00300 42.44300 41.29100
C  52.67700 43.70900 41.91900
C  51.64000 40.64800 40.02400
C  54.37200 41.83500 41.16000
O  54.51800 40.85700 40.44300
C  55.61900 42.40700 41.73400
N  52.04100 46.55700 42.87100
C  53.20500 45.95800 43.06400
C  54.24700 46.88400 43.66200
C  53.56600 48.26800 43.58500
C  52.07900 47.82500 43.28400
C  54.77900 46.60900 45.01700
C  54.09900 49.19000 42.46900
C  54.79500 50.48800 42.90700
N  49.21900 47.50000 42.44900
C  49.65000 48.67200 42.98300
C  48.60400 49.67400 42.95400
C  47.57900 48.98600 42.34800
C  48.03100 47.67900 41.99300
C  48.69300 51.09500 43.37000
C  46.24500 49.16600 41.85200
O  45.47800 50.10900 42.04700
C  45.84700 47.78300 41.15800
C  44.46800 47.34900 41.57300
O  44.09000 47.03300 42.67500
O  43.67200 47.34900 40.46400
C  42.24400 47.04600 40.64700
H  49.30900 42.15200 39.49800
H  54.54300 44.40500 42.74000
H  51.26600 49.74900 43.87300
H  45.39300 44.72000 40.29200
H  47.18100 43.01700 38.62900
H  45.51100 42.56600 40.75500
H  47.13000 42.10900 41.18000
H  46.43700 41.46600 39.67700
H  46.70700 45.23500 37.58300
H  46.28100 46.67500 38.43900
H  44.39600 46.38600 37.43100
H  43.99800 45.10900 38.56600
H  51.98200 40.67400 38.98900
H  50.58200 40.38800 39.98600
H  51.96100 39.82400 40.66100
H  55.63400 42.40900 42.82400
H  55.75400 43.43000 41.38500
H  56.51800 41.85300 41.46600
H  55.03400 46.87400 42.90800
H  53.51700 48.81000 44.52900
H  54.55100 45.59800 45.35500
H  54.44400 47.35800 45.73500
H  55.85800 46.66100 44.86800
H  53.21900 49.44500 41.87800
H  54.72800 48.58900 41.81300
H  55.29200 50.40300 43.87300
H  54.22400 51.41500 42.86000
H  55.72600 50.44100 42.34200
H  48.96300 51.70500 42.50800
H  49.36300 51.19900 44.22400
H  47.69000 51.40100 43.66500
H  45.69600 48.00600 40.10200
H  41.90600 46.75700 39.65200
H  41.86400 48.06500 40.72500
H  41.98000 46.37400 41.46400
Mg 42.12300 41.31300 26.76600
C  41.48800 43.76400 28.95300
C  43.28800 39.27000 29.41900
C  42.72500 38.86800 24.60100
C  41.24500 43.48300 24.06400
N  42.27300 41.57300 28.90900
C  41.90800 42.62200 29.58300
C  41.86900 42.31900 31.09400
C  42.72200 40.99000 31.19000
C  42.90500 40.58700 29.75500
C  44.16500 41.08900 31.79000
C  40.37900 42.09000 31.56000
C  40.01900 42.76400 32.86600
H  39.96000 41.70700 34.05800
N  42.87900 39.33600 27.01500
C  43.28700 38.66100 28.15500
C  43.67100 37.30300 27.81700
C  43.58400 37.21100 26.40700
C  43.04000 38.51900 25.94100
C  44.10700 36.25600 28.83300
C  43.94100 36.06000 25.46100
O  43.76400 35.99700 24.22200
C  44.69200 34.88600 26.00000
N  42.11500 41.21500 24.63500
C  42.37200 40.08500 24.00500
C  42.21400 40.27700 22.45900
C  41.57300 41.71200 22.34800
C  41.58400 42.15900 23.80600
C  43.43500 39.89600 21.52300
C  40.27300 41.72800 21.53400
C  38.96800 41.40500 22.35400
N  41.54200 43.21200 26.41400
C  41.17500 44.04100 25.36100
C  40.85900 45.41500 25.87100
C  40.95900 45.27300 27.22500
C  41.35800 43.96200 27.50800
C  40.23000 46.51600 24.95500
C  40.71100 46.00900 28.43900
O  40.18500 47.11500 28.63000
C  41.03000 45.01800 29.61600
C  42.01600 45.75500 30.48100
O  43.14100 46.05900 30.09200
O  41.54200 45.85100 31.74200
C  42.23300 46.68700 32.67200
H  43.71500 38.69300 30.24200
H  42.92800 38.00900 23.95800
H  40.89600 44.17900 23.29800
H  42.30200 43.14200 31.66400
H  42.25100 40.12500 31.65900
H  44.21500 41.90500 32.51000
H  44.75700 41.15000 30.87700
H  44.37500 40.13100 32.26700
H  40.27000 41.02100 31.74400
H  39.79300 42.27800 30.66100
H  39.05400 43.26600 32.80100
H  40.79100 43.47100 33.16800
H  45.16200 36.04600 28.65700
H  43.52500 35.33500 28.84600
H  44.08400 36.65500 29.84700
H  44.16200 34.21500 26.67600
H  45.66000 35.24200 26.35400
H  44.90800 34.20700 25.17500
H  41.40100 39.55000 22.46400
H  42.40100 42.29200 21.94100
H  44.16400 39.28900 22.06000
H  43.92500 40.77500 21.10500
H  43.13000 39.18000 20.76000
H  40.22400 41.17400 20.59600
H  40.17500 42.74200 21.14800
H  39.09800 40.59400 23.07100
H  38.23200 40.95100 21.69000
H  38.65300 42.35500 22.78600
H  39.53900 46.11000 24.21600
H  40.97900 47.22500 24.60100
H  39.57300 47.11100 25.59000
H  40.16600 44.66700 30.18100
H  43.08400 47.26000 32.30500
H  42.35900 46.05500 33.55100
H  41.51200 47.48600 32.84100

