158

Mg 48.00800 15.84700 27.85900
C  45.71200 15.80100 30.49900
C  50.00900 17.88300 29.70600
C  50.12200 15.82000 25.31900
C  45.63100 14.16300 25.81000
N  47.85800 16.81700 29.78800
C  46.88300 16.46800 30.76100
C  47.21500 17.12200 32.15900
C  48.39300 18.10300 31.69800
C  48.80900 17.59100 30.29100
C  48.08700 19.59100 31.60800
C  47.69700 15.99700 33.19600
C  47.12400 16.03700 34.67700
H  48.13400 15.86600 35.81400
N  49.88300 16.68700 27.57800
C  50.50800 17.49000 28.41300
C  51.79700 17.81400 27.87600
C  51.93100 17.15900 26.62700
C  50.62100 16.48500 26.43800
C  52.74400 18.75900 28.61200
C  53.02000 17.29800 25.59700
O  52.85600 16.82700 24.47400
C  54.30500 17.93600 25.88900
N  47.78000 15.31200 25.77100
C  48.83800 15.39200 24.96700
C  48.60300 14.75000 23.62200
C  47.21400 14.02000 23.80300
C  46.78700 14.52100 25.21500
C  48.77400 15.64500 22.33800
C  47.23900 12.52800 23.73800
C  47.79100 11.68400 22.58700
N  46.10200 15.22000 27.97300
C  45.25500 14.48600 27.13600
C  43.98900 14.24300 27.82400
C  44.16500 14.70300 29.12400
C  45.44900 15.24800 29.22200
C  42.76300 13.48800 27.31500
C  43.50300 14.86100 30.44800
O  42.37000 14.56100 30.77800
C  44.56900 15.46900 31.43900
C  44.08900 16.54300 32.26600
O  43.53600 17.56800 31.83200
O  44.39200 16.27700 33.57100
C  43.94900 17.35000 34.45100
H  50.73200 18.50400 30.24000
H  50.82900 15.81400 24.48600
H  44.93600 13.57400 25.20700
H  46.34300 17.68300 32.49400
H  49.26100 17.96300 32.34200
H  48.78400 20.15900 32.22500
H  47.06900 19.80300 31.93600
H  48.28200 20.00400 30.61800
H  48.77700 16.03200 33.33300
H  47.72300 15.03500 32.68400
H  46.32800 15.30700 34.82100
H  46.73600 17.05100 34.77300
H  53.61700 18.17500 28.90300
H  52.57100 19.19200 29.59700
H  52.97800 19.55400 27.90400
H  54.03000 18.94200 26.20500
H  54.83000 17.95800 24.93400
H  54.87200 17.35500 26.61700
H  49.30200 13.92800 23.46700
H  46.54400 14.27000 22.98000
H  48.20500 15.21900 21.51200
H  49.78600 15.45500 21.98100
H  48.70500 16.71200 22.54700
H  46.25800 12.08400 23.90700
H  47.92600 12.33400 24.56200
H  47.15300 10.98500 22.04600
H  48.68300 11.14700 22.91100
H  48.18900 12.37600 21.84500
H  43.02300 12.44100 27.46900
H  42.66800 13.69900 26.25000
H  41.80200 13.79100 27.73200
H  44.74400 14.58500 32.05300
H  44.38900 17.24200 35.44300
H  42.88000 17.15000 34.52600
H  44.14000 18.36600 34.10500
Mg 47.38000 44.79900 43.67100
C  43.84700 45.13500 43.17700
C  47.30700 41.69300 42.28700
C  50.82500 44.62300 43.83100
C  47.53800 48.22700 44.54300
N  45.76200 43.59700 42.71200
C  44.36900 43.89500 42.72900
C  43.60800 42.84600 41.93200
C  44.74200 41.70500 41.80400
C  46.03700 42.36000 42.31900
C  44.32300 40.41300 42.59000
C  43.21200 43.54800 40.58600
C  42.04500 43.04900 39.70100
H  42.33600 41.99100 38.62400
N  48.86500 43.30500 43.28500
C  48.60000 42.13200 42.71800
C  49.79400 41.34400 42.60500
C  50.84900 42.13600 43.20600
C  50.18700 43.44600 43.48200
C  49.81100 39.88000 42.03800
C  52.25700 41.66600 43.48700
O  52.56400 40.51700 43.18400
C  53.20500 42.50000 44.23600
N  48.98500 46.20900 44.06900
C  50.30100 45.91600 44.09700
C  51.17100 47.14400 44.42100
C  50.11700 48.25200 44.76100
C  48.76200 47.54400 44.44500
C  52.20700 46.92400 45.50800
C  50.27900 49.53000 43.96700
C  50.47700 50.87400 44.70400
N  45.99800 46.43300 43.91200
C  46.19700 47.74300 44.22300
C  44.89100 48.40100 44.32000
C  43.98500 47.45000 43.92100
C  44.66200 46.24000 43.65100
C  44.63300 49.90000 44.49100
C  42.55100 47.16300 43.68900
O  41.62900 47.98400 43.83100
C  42.43000 45.69600 43.18900
C  41.44500 44.94400 44.09200
O  40.31200 44.62200 43.75500
O  42.05700 44.68400 45.27800
C  41.20100 44.01500 46.25300
H  47.19700 40.77800 41.70100
H  51.91100 44.50400 43.82400
H  47.50100 49.20600 45.02500
H  42.72000 42.49500 42.45700
H  44.85000 41.31300 40.79200
H  43.80000 39.79500 41.85900
H  43.58300 40.66400 43.35000
H  45.18700 39.87100 42.97300
H  44.02900 43.40000 39.88000
H  43.19700 44.62800 40.73100
H  41.69800 43.99300 39.28100
H  41.30100 42.65600 40.39400
H  50.72900 39.48400 41.60300
H  48.99000 39.64100 41.36200
H  49.69100 39.20700 42.88700
H  53.67800 43.30500 43.67500
H  53.99500 41.80200 44.51200
H  52.77700 42.82000 45.18600
H  51.66100 47.47600 43.50500
H  50.01500 48.42800 45.83200
H  51.80400 46.16400 46.17700
H  52.32700 47.85300 46.06600
H  53.20400 46.66300 45.15400
H  49.30900 49.66500 43.49000
H  50.98700 49.46100 43.14100
H  49.72400 51.58200 44.35800
H  51.47800 51.27100 44.53400
H  50.40400 50.68100 45.77400
H  44.15300 50.27800 43.58800
H  45.56600 50.45800 44.57500
H  44.10300 50.11900 45.41700
H  41.87200 45.71300 42.25300
H  41.40600 44.48800 47.21400
H  41.54700 42.99500 46.42100
H  40.12600 43.97700 46.07500

