158

Mg 44.83900 4.24500 46.83600
C  43.34400 7.51100 46.55900
C  41.86700 3.01500 45.49000
C  46.42700 1.43000 46.36500
C  47.84300 5.92000 47.54300
N  42.90100 5.19700 45.97800
C  42.46400 6.46300 46.09000
C  40.99300 6.60100 45.85600
C  40.56300 5.19900 45.40200
C  41.85300 4.39900 45.65800
C  39.30800 4.55500 46.11000
C  40.53500 7.69500 44.84400
C  41.44400 7.96800 43.63900
H  40.96600 7.63400 42.20200
N  44.21600 2.44900 46.18500
C  42.93400 2.12000 45.63000
C  42.91300 0.75700 45.23800
C  44.25900 0.30400 45.28100
C  45.01900 1.37500 45.98700
C  41.65000 0.15700 44.66900
C  44.80300 -0.97800 44.74700
O  44.06700 -1.77600 44.19300
C  46.24500 -1.42000 44.79500
N  46.77600 3.72500 47.18600
C  47.20500 2.44000 46.96100
C  48.68300 2.22500 47.33900
C  49.19300 3.67300 47.42200
C  47.90000 4.52000 47.39600
C  48.87400 1.28400 48.64900
C  50.08600 4.09600 46.22000
C  51.62500 4.49000 46.39700
N  45.56400 6.29100 46.98100
C  46.78000 6.82900 47.40000
C  46.72300 8.27800 47.43700
C  45.38100 8.58100 47.20800
C  44.71200 7.38200 46.89800
C  47.82200 9.18900 47.76000
C  44.43000 9.66900 47.12100
O  44.58600 10.87900 47.29600
C  43.05800 9.03500 46.72800
C  42.12700 9.15000 47.87500
O  41.95600 8.43100 48.85100
O  41.25200 10.21300 47.54400
C  40.06900 10.35400 48.32700
H  40.91000 2.63400 45.12800
H  47.00700 0.52600 46.16900
H  48.80900 6.41300 47.67000
H  40.64900 6.91700 46.84100
H  40.37300 5.13900 44.33000
H  38.78800 5.26400 46.75400
H  39.69100 3.89100 46.88500
H  38.62700 4.12500 45.37600
H  40.50100 8.67500 45.32000
H  39.54100 7.45700 44.46500
H  42.31300 7.31500 43.71600
H  41.75600 9.01100 43.69600
H  41.15900 -0.33300 45.51000
H  41.74800 -0.54500 43.84100
H  40.99300 0.92900 44.26800
H  46.52500 -1.79400 45.78000
H  46.86600 -0.57400 44.50000
H  46.43400 -2.02100 43.90600
H  49.23800 1.72500 46.54600
H  49.74800 3.73000 48.35800
H  48.10000 0.51800 48.60700
H  48.74300 1.87700 49.55400
H  49.87900 0.86500 48.58900
H  49.61900 4.97600 45.77900
H  50.03500 3.33800 45.43900
H  52.30100 3.84100 45.83900
H  51.89800 4.58400 47.44800
H  51.74100 5.43300 45.86300
H  48.45400 9.45600 46.91200
H  48.55200 8.76900 48.45300
H  47.40500 10.07200 48.24400
H  42.67100 9.45700 45.80000
H  39.40200 11.10000 47.89500
H  40.38600 10.62500 49.33400
H  39.63600 9.36400 48.47100
Mg 48.02200 15.98200 28.51700
C  46.06800 15.53300 31.48300
C  49.94200 18.10900 30.43800
C  49.47200 16.85100 25.77600
C  45.34600 14.47000 26.75100
N  47.92600 16.73800 30.67100
C  47.07700 16.44800 31.67600
C  47.58100 16.89300 33.07500
C  48.70400 17.85400 32.65500
C  48.85800 17.55400 31.15600
C  48.44000 19.36900 33.06200
C  48.05600 15.66900 33.91900
C  48.17000 15.85300 35.44200
H  47.58400 17.11900 36.11500
N  49.58700 17.13800 28.18900
C  50.26500 17.95000 29.06700
C  51.41300 18.56900 28.41200
C  51.36200 18.11500 27.08200
C  50.08800 17.35900 26.96600
C  52.38300 19.44100 29.09800
C  52.37800 18.27700 25.93600
O  52.32700 17.55800 24.99200
C  53.58800 19.11100 26.18800
N  47.42600 15.76300 26.48500
C  48.26000 16.21200 25.52700
C  47.83400 15.79900 24.15300
C  46.53600 14.92300 24.47400
C  46.36400 15.10700 25.96200
C  47.67700 17.04500 23.17300
C  46.43000 13.44800 24.02900
C  47.00700 12.31600 24.93000
N  46.14600 15.06300 28.99000
C  45.20800 14.53300 28.19400
C  44.12800 13.98700 28.94500
C  44.49700 14.31100 30.26900
C  45.72300 15.01300 30.26500
C  42.83300 13.31000 28.52100
C  44.14600 14.10000 31.58000
O  43.24400 13.41900 32.11500
C  45.07000 14.96700 32.45100
C  44.35000 16.03700 33.17500
O  43.92400 17.09500 32.71400
O  44.16100 15.64400 34.44700
C  43.33600 16.48600 35.32400
H  50.50800 18.80800 31.05700
H  49.99600 17.32600 24.94400
H  44.48700 13.94300 26.32900
H  46.76800 17.31400 33.66700
H  49.58500 17.53400 33.21200
H  48.35800 20.01100 32.18500
H  49.35300 19.65700 33.58300
H  47.58100 19.46700 33.72500
H  49.07800 15.43900 33.61500
H  47.51500 14.77300 33.61400
H  49.22200 15.95900 35.70700
H  47.88400 14.93000 35.94700
H  52.75000 20.20700 28.41500
H  53.19900 18.87000 29.54000
H  52.03900 20.07500 29.91600
H  53.96400 18.81500 27.16800
H  53.28400 20.15500 26.25900
H  54.33400 18.95000 25.41000
H  48.58600 15.10800 23.77100
H  45.67400 15.39300 24.00000
H  46.64300 17.15700 22.84700
H  48.44800 16.72800 22.47000
H  48.05200 17.92000 23.70300
H  46.84100 13.23400 23.04200
H  45.34800 13.32300 23.99200
H  47.73100 12.56700 25.70500
H  47.57300 11.63100 24.29900
H  46.13600 11.89600 25.43400
H  42.05700 13.31400 29.28600
H  42.97100 12.26700 28.23500
H  42.42200 13.81000 27.64400
H  45.63700 14.38500 33.17800
H  42.69900 15.89500 35.98200
H  42.56800 17.09400 34.84600
H  43.99200 17.08700 35.95400

