158

Mg 53.65700 24.19900 44.59800
C  51.17900 26.48500 43.87300
C  51.62300 21.61900 43.68200
C  56.41800 22.25700 44.14800
C  55.80000 26.96100 45.08100
N  51.71600 24.07100 43.71000
C  50.81900 25.12700 43.62100
C  49.41000 24.71800 43.15800
C  49.59300 23.19800 43.57100
C  51.08200 22.96900 43.67900
C  48.86100 22.74100 44.86700
C  49.20600 25.08000 41.70000
C  48.23600 24.21200 40.90600
H  48.00700 24.62800 39.44000
N  53.97800 22.21600 43.99600
C  52.98600 21.32400 43.69600
C  53.57600 19.99200 43.60400
C  54.93600 20.17300 43.75700
C  55.12900 21.61000 43.89700
C  52.75100 18.73200 43.39700
C  56.04300 19.05000 43.76800
O  55.74800 17.87400 43.58600
C  57.55800 19.21000 43.98800
N  55.82600 24.60800 44.58500
C  56.70100 23.55900 44.55300
C  58.20500 24.06700 44.87000
C  57.97900 25.58300 45.08900
C  56.44000 25.75300 44.85800
C  58.70800 23.45300 46.17900
C  58.96400 26.44400 44.22900
C  58.82900 26.32100 42.70900
N  53.58300 26.34500 44.69400
C  54.46800 27.29100 44.98900
C  53.80400 28.57700 45.05900
C  52.45500 28.31000 44.64300
C  52.40100 26.95200 44.34900
C  54.46300 29.80400 45.64300
C  51.10300 28.93000 44.58500
O  50.64800 30.04100 44.82500
C  50.27100 27.80000 43.87800
C  50.14500 28.37600 42.46700
O  51.07200 28.62800 41.73300
O  48.82600 28.69500 42.17200
C  48.51900 29.02900 40.74200
H  50.93600 20.77000 43.66000
H  57.28200 21.60200 44.27300
H  56.45800 27.80900 45.28000
H  48.65600 25.28100 43.70800
H  49.28000 22.49600 42.79800
H  48.00900 22.11100 44.61300
H  48.43100 23.62300 45.34100
H  49.56000 22.26500 45.55600
H  50.15800 25.11200 41.17000
H  48.69600 26.04400 41.69900
H  47.29200 24.06000 41.43000
H  48.74400 23.25200 40.81400
H  51.88800 18.94100 42.76400
H  52.42500 18.43900 44.39500
H  53.20200 17.82700 42.99100
H  58.08100 18.25400 43.99400
H  57.69000 19.60900 44.99400
H  58.01600 19.92200 43.30200
H  58.89700 23.99200 44.03100
H  58.12500 25.95000 46.10600
H  57.99700 22.73100 46.58300
H  58.79900 24.21100 46.95600
H  59.72100 23.12600 45.94700
H  59.99300 26.15500 44.44400
H  58.85700 27.46600 44.59400
H  58.49000 27.25000 42.25000
H  58.13600 25.58000 42.31200
H  59.87200 26.21500 42.41100
H  55.53400 29.70700 45.82300
H  53.87500 30.14400 46.49600
H  54.30200 30.64500 44.96900
H  49.25400 27.73400 44.26500
H  49.36400 29.11600 40.05900
H  47.97100 29.95500 40.56700
H  47.86400 28.22500 40.40600
Mg 42.15300 41.71500 26.48100
C  41.06200 43.95800 28.89100
C  43.38100 39.70000 28.90600
C  43.05400 39.72500 23.96600
C  41.58300 44.27100 23.96300
N  42.15100 41.85500 28.60400
C  41.50600 42.75800 29.41500
C  41.62700 42.41200 30.95600
C  42.46600 41.07900 30.88700
C  42.66500 40.83200 29.37200
C  43.72800 41.03100 31.75100
C  40.31100 42.33200 31.67800
C  40.26800 43.04900 33.06100
H  39.58400 42.25100 34.17700
N  43.14600 39.94800 26.44400
C  43.56900 39.29700 27.56600
C  44.15100 38.02000 27.20300
C  43.91200 37.88300 25.75100
C  43.35200 39.21600 25.30200
C  44.83200 37.00600 28.16500
C  44.17700 36.75500 24.81700
O  43.80200 36.69200 23.63900
C  44.78000 35.45200 25.37400
N  42.44400 42.09400 24.28000
C  42.80600 40.99600 23.51500
C  42.65700 41.24900 22.01000
C  42.43200 42.80200 21.97300
C  42.15900 43.13300 23.48400
C  43.87800 40.78900 21.13200
C  41.37900 43.40100 20.99300
C  42.07400 44.32400 19.95500
N  41.40900 43.63200 26.37900
C  41.25300 44.56000 25.34000
C  40.77700 45.80900 25.89500
C  40.59900 45.55200 27.32200
C  41.01800 44.28000 27.56700
C  40.57600 47.15500 25.21100
C  40.24800 46.23700 28.54800
O  39.94300 47.38800 28.75900
C  40.42500 45.09800 29.67100
C  41.42700 45.61800 30.73100
O  42.63000 45.70200 30.57100
O  40.83500 46.07600 31.88800
C  41.51000 46.80000 32.94200
H  43.83500 38.98400 29.59500
H  43.19100 38.98100 23.17800
H  41.35100 45.03800 23.22200
H  42.20200 43.14400 31.52300
H  41.88100 40.21700 31.20900
H  43.58900 41.76300 32.54700
H  44.71100 41.33200 31.38900
H  43.80500 40.04500 32.20800
H  39.96700 41.30500 31.80200
H  39.55300 42.68300 30.97800
H  39.73500 44.00000 33.05600
H  41.26700 43.21600 33.46300
H  44.11100 36.21700 28.37900
H  45.26700 37.51800 29.02300
H  45.70400 36.59200 27.65800
H  44.26100 35.29400 26.32000
H  45.85500 35.49000 25.55200
H  44.49900 34.59600 24.76100
H  41.77300 40.70500 21.67600
H  43.42400 43.16600 21.70500
H  44.57800 40.24300 21.76400
H  44.39500 41.61900 20.65100
H  43.52700 40.12300 20.34300
H  40.64300 44.02900 21.49500
H  40.73800 42.66400 20.51100
H  42.17200 43.73000 19.04600
H  43.11600 44.50200 20.22100
H  41.54400 45.25300 19.74600
H  40.99300 47.10800 24.20500
H  40.89600 47.97100 25.85800
H  39.51600 47.18200 24.95800
H  39.46800 44.95100 30.17200
H  41.37700 46.30900 33.90600
H  41.06900 47.79700 32.98300
H  42.54300 47.14100 32.87500

