158

Mg 0.47600 7.38600 26.00200
C  0.99600 9.63200 28.67900
C  0.60200 4.79000 28.04800
C  0.22200 5.58700 23.28600
C  0.69500 10.26900 23.76300
N  0.72100 7.27100 28.18300
C  0.89800 8.27300 29.07100
C  1.00900 7.76300 30.53400
C  0.94900 6.12400 30.29700
C  0.71500 6.00700 28.73100
C  2.20600 5.32800 30.81600
C  -0.12200 8.34300 31.39100
C  0.26800 9.29100 32.50100
H  -0.20600 9.04300 33.92400
N  0.31900 5.49100 25.72500
C  0.35900 4.52000 26.73100
C  0.19600 3.21400 26.16500
C  0.10900 3.41500 24.74900
C  0.17800 4.89700 24.48200
C  0.32200 1.94300 26.96300
C  0.11200 2.44300 23.51900
O  0.13900 2.81600 22.33500
C  0.06000 1.00500 23.83100
N  0.49600 7.89900 23.76800
C  0.32000 6.93200 22.89200
C  0.20600 7.53700 21.44100
C  -0.04800 9.00400 21.69800
C  0.35000 9.13100 23.11500
C  1.48900 7.17900 20.65600
C  -1.51300 9.43100 21.59100
C  -1.81800 10.25300 20.31800
N  0.80600 9.57800 26.18800
C  0.95300 10.56200 25.18600
C  1.24200 11.86100 25.89100
C  1.22200 11.53500 27.26700
C  1.00600 10.14800 27.40500
C  1.24400 13.17800 25.19600
C  1.37000 12.08400 28.59600
O  1.56600 13.23400 28.95800
C  1.14000 10.79900 29.59200
C  2.31300 10.82800 30.45600
O  3.30400 10.16500 30.24100
O  2.19000 11.78300 31.47400
C  3.28900 11.87200 32.38400
H  0.58800 3.91200 28.69800
H  0.23000 5.01900 22.35300
H  0.68300 11.14600 23.11300
H  1.97500 8.03000 30.96400
H  0.14900 5.64600 30.86300
H  2.64200 4.81900 29.95700
H  1.77800 4.61700 31.52400
H  2.93600 5.95600 31.32600
H  -0.56900 7.52000 31.94900
H  -0.85900 8.78600 30.72200
H  -0.24800 10.20700 32.21300
H  1.33600 9.50900 32.49200
H  0.87400 2.04500 27.89700
H  0.87100 1.12500 26.49700
H  -0.64200 1.49000 27.19500
H  -0.84100 0.90100 24.43500
H  0.85500 0.62700 24.47400
H  -0.11400 0.27700 23.03800
H  -0.69700 7.04600 21.07800
H  0.66800 9.54100 21.07500
H  1.86400 8.03100 20.09000
H  1.34200 6.30000 20.02700
H  2.27900 6.94200 21.36900
H  -1.75500 9.98400 22.49900
H  -2.13400 8.55500 21.77800
H  -0.88800 10.26400 19.75000
H  -2.24200 11.21200 20.61500
H  -2.60200 9.75900 19.74400
H  1.21000 14.04100 25.86100
H  0.38300 13.12800 24.53100
H  2.12200 13.16400 24.55000
H  0.25300 11.04600 30.17500
H  3.40600 12.93700 32.58200
H  4.23200 11.46800 32.01500
H  2.96100 11.25100 33.21800
Mg 42.64100 41.13500 25.32100
C  41.66600 43.58400 27.81800
C  43.72300 39.09900 27.86300
C  43.70300 39.07300 22.98600
C  41.77500 43.47400 22.87900
N  42.74900 41.45900 27.62700
C  42.16700 42.43300 28.41500
C  42.14000 42.01100 29.84400
C  42.67400 40.51100 29.77100
C  43.13100 40.33500 28.34900
C  43.79700 40.22100 30.81900
C  40.68200 42.01800 30.48200
C  40.48800 41.32000 31.82200
H  39.78600 42.08400 32.96500
N  43.54100 39.35400 25.43100
C  43.95200 38.67200 26.54000
C  44.67400 37.47500 26.18800
C  44.60200 37.36500 24.76700
C  43.90300 38.61000 24.34800
C  45.21900 36.49400 27.15400
C  45.11800 36.28000 23.79600
O  45.01500 36.24800 22.57100
C  45.62000 35.00800 24.48500
N  42.69100 41.17800 23.31000
C  43.13800 40.23600 22.51900
C  42.97600 40.49400 21.02000
C  42.37500 41.95900 20.97300
C  42.19800 42.21400 22.44700
C  44.32200 40.35600 20.26400
C  41.10100 42.24300 20.17800
C  41.09000 43.39300 19.17000
N  41.86100 43.08700 25.26200
C  41.49800 43.88300 24.23400
C  41.11100 45.19700 24.70000
C  41.05700 45.13600 26.06800
C  41.54800 43.82100 26.38100
C  40.77600 46.42900 23.84400
C  40.73200 45.84900 27.32000
O  40.33700 46.97200 27.50600
C  40.99800 44.76400 28.44400
C  41.85300 45.44400 29.46700
O  43.05600 45.65000 29.30100
O  41.04400 45.83600 30.53000
C  41.82600 46.11900 31.74500
H  43.86300 38.42700 28.71200
H  44.09700 38.43500 22.19200
H  41.54000 44.18800 22.08700
H  42.83800 42.60100 30.43900
H  41.87800 39.78400 29.93200
H  43.60000 40.85500 31.68300
H  44.72700 40.38100 30.27200
H  43.64300 39.14900 30.94200
H  40.00000 41.52700 29.78700
H  40.33400 43.05100 30.46200
H  41.47500 41.07900 32.21700
H  39.95400 40.38100 31.67800
H  45.02400 36.82400 28.17500
H  46.29500 36.44000 26.99000
H  44.82100 35.50200 26.94400
H  44.74800 34.59300 24.98900
H  46.41800 35.15500 25.21300
H  45.94700 34.33000 23.69600
H  42.28900 39.83400 20.49000
H  43.06700 42.71100 20.59500
H  45.15900 40.16500 20.93500
H  44.51900 41.27000 19.70300
H  44.22500 39.47700 19.62800
H  40.35300 42.48300 20.93500
H  40.84900 41.30900 19.67600
H  42.12500 43.71800 19.05900
H  40.51800 44.22700 19.57700
H  40.72600 42.95000 18.24400
H  40.52000 46.19400 22.81100
H  41.58700 47.15400 23.78000
H  39.97200 46.94700 24.36700
H  40.01500 44.47300 28.81400
H  41.31800 45.64800 32.58700
H  41.83200 47.17500 32.01600
H  42.86700 45.80100 31.79100

