158

Mg 46.56900 24.37400 28.95500
C  47.63000 26.71400 31.29700
C  45.72100 22.32200 31.55800
C  46.10600 21.92700 26.70300
C  47.85500 26.48500 26.41800
N  46.79800 24.44600 31.21200
C  47.03400 25.61200 31.96800
C  46.76100 25.44000 33.47200
C  46.29900 23.95800 33.49700
C  46.18100 23.53600 32.03400
C  47.15600 22.99100 34.35700
C  45.69100 26.39900 33.97500
C  45.52500 26.83400 35.52800
H  46.33900 26.15700 36.70300
N  45.85200 22.45500 29.11100
C  45.52100 21.82000 30.26600
C  45.09100 20.45500 29.90900
C  45.10900 20.27200 28.50600
C  45.73800 21.53800 28.05000
C  44.66500 19.40600 30.89800
C  44.67900 19.13200 27.60200
O  44.71700 19.19100 26.37600
C  44.05600 18.06900 28.25900
N  47.19900 24.14800 26.88000
C  46.70100 23.09900 26.16200
C  46.93400 23.28400 24.64700
C  47.49600 24.71000 24.59100
C  47.47800 25.21900 26.01600
C  47.89500 22.24500 24.03500
C  46.79700 25.66900 23.56700
C  47.79200 26.53700 22.71500
N  47.66500 26.15800 28.86200
C  47.98400 26.94000 27.72600
C  48.67900 28.20100 28.15900
C  48.48300 28.12300 29.55100
C  47.93000 26.87300 29.93600
C  49.46900 29.14500 27.36400
C  48.75400 28.89800 30.77300
O  49.29800 29.99000 30.92200
C  48.13600 27.93000 31.91600
C  49.17900 27.89400 32.99500
O  50.31900 27.33100 32.92200
O  48.70900 28.43400 34.12500
C  49.50500 28.51700 35.37200
H  45.43800 21.68400 32.39800
H  46.07900 21.12800 25.95900
H  48.29600 27.15200 25.67500
H  47.69600 25.57400 34.01500
H  45.25400 23.85000 33.78800
H  47.79700 23.63600 34.95700
H  47.72200 22.37600 33.65700
H  46.51400 22.27600 34.87100
H  44.68500 26.10100 33.68000
H  45.90000 27.32300 33.43600
H  44.46600 26.70100 35.75100
H  45.54300 27.92300 35.57200
H  44.76700 19.67800 31.94800
H  45.32800 18.57200 30.66700
H  43.62800 19.13500 30.70100
H  43.16700 18.38900 28.80300
H  44.86400 17.63900 28.85000
H  43.86000 17.34200 27.47100
H  46.03200 23.14600 24.05000
H  48.53900 24.58500 24.30300
H  48.31100 21.68700 24.87400
H  48.77000 22.64100 23.52000
H  47.46500 21.58300 23.28400
H  46.15200 26.28300 24.19600
H  46.12800 25.14400 22.88600
H  47.43700 27.56700 22.69200
H  47.76700 26.25200 21.66300
H  48.79300 26.64100 23.13500
H  50.31000 29.45800 27.98200
H  48.92200 30.08300 27.27300
H  49.84800 28.64500 26.47300
H  47.36100 28.59000 32.30800
H  49.46900 29.55800 35.69500
H  50.53900 28.17300 35.33800
H  49.00600 27.83200 36.05700
Mg 26.77900 49.94000 27.42400
C  24.80300 51.04500 30.10800
C  29.05200 48.93800 29.71500
C  28.82600 49.56700 24.76000
C  24.47800 51.53200 25.33400
N  26.92900 50.14400 29.69400
C  25.93000 50.36800 30.60600
C  26.37700 50.04600 32.05500
C  27.80200 49.54800 31.81900
C  27.98400 49.59300 30.31800
C  28.91000 50.34900 32.56000
C  25.41400 48.97700 32.72500
C  24.64300 49.54700 33.96500
H  24.69000 48.71800 35.25200
N  28.58000 49.21700 27.25300
C  29.39400 48.86300 28.35100
C  30.68900 48.42100 27.81600
C  30.74800 48.68300 26.41600
C  29.31200 49.21300 26.08800
C  31.78700 47.83500 28.66200
C  31.97300 48.55700 25.40100
O  31.81000 48.83400 24.23600
C  33.32000 48.15200 25.82200
N  26.52700 50.28500 25.24600
C  27.52900 50.01500 24.38000
C  27.01100 50.18500 22.96700
C  25.50500 50.66100 23.20600
C  25.43000 50.88200 24.67700
C  27.83700 51.15100 22.11900
C  24.43800 49.66700 22.72700
C  23.22200 50.40200 21.99000
N  25.05900 51.16500 27.60000
C  24.18600 51.62900 26.70000
C  23.02700 52.21000 27.30400
C  23.20100 52.03500 28.69600
C  24.45200 51.40100 28.77500
C  21.93200 52.94900 26.70600
C  22.68200 52.17500 30.01900
O  21.55400 52.60100 30.29600
C  23.73900 51.64100 30.97500
C  24.25800 52.79900 31.81200
O  25.11100 53.64300 31.46900
O  23.68200 52.74400 33.07700
C  24.30100 53.73300 34.00200
H  29.82900 48.42600 30.28600
H  29.49800 49.36300 23.92400
H  23.71400 51.96500 24.68500
H  26.52500 50.99600 32.56900
H  27.96400 48.52700 32.16600
H  29.62700 50.83700 31.90000
H  29.54700 49.69900 33.15900
H  28.59500 51.13500 33.24600
H  25.88700 48.03000 32.98400
H  24.69400 48.68700 31.96100
H  23.61400 49.76200 33.67700
H  25.28500 50.40100 34.18100
H  32.52100 48.46000 29.17000
H  32.29600 47.09800 28.04000
H  31.27000 47.23000 29.40700
H  33.21600 47.13800 26.20900
H  33.59900 48.83000 26.62900
H  34.10400 48.20500 25.06700
H  26.99500 49.19100 22.52100
H  25.27900 51.61500 22.72900
H  28.73400 51.40500 22.68400
H  27.41600 52.15600 22.12100
H  27.92700 50.74500 21.11200
H  24.00900 49.16700 23.59500
H  24.89500 48.86300 22.15000
H  22.87600 49.95200 21.06000
H  23.33000 51.48100 21.88200
H  22.32500 50.23000 22.58500
H  21.06300 52.54100 27.22200
H  21.85900 52.67000 25.65400
H  22.02700 54.02400 26.85900
H  23.22900 50.98200 31.67700
H  25.35100 53.89300 33.75600
H  24.36900 53.23500 34.96900
H  23.88700 54.72600 34.17200

