158

Mg 25.30200 1.29300 29.89800
C  27.59900 0.91300 32.62900
C  22.90400 1.83600 32.12800
C  23.27500 1.49300 27.32400
C  28.08300 0.76900 27.75300
N  25.31200 1.29300 32.13900
C  26.34600 1.42200 32.97700
C  25.83200 1.89600 34.37600
C  24.28200 1.96500 34.20800
C  24.15400 1.71000 32.71700
C  23.58200 0.86200 35.11700
C  26.46000 3.24500 34.90900
C  26.94200 3.19600 36.39100
H  26.29800 4.18900 37.38800
N  23.30200 1.60200 29.71400
C  22.42200 1.77300 30.74700
C  21.08700 1.72900 30.29400
C  21.19200 1.73500 28.89100
C  22.65200 1.64000 28.58300
C  19.87200 1.74700 31.19300
C  20.11100 1.76800 27.83700
O  20.31700 1.69100 26.65500
C  18.68200 1.78100 28.25700
N  25.62200 1.06100 27.92600
C  24.62800 1.25400 26.99100
C  25.11900 1.23100 25.50800
C  26.60800 1.33400 25.76800
C  26.78300 1.00800 27.25200
C  24.60900 0.16200 24.54200
C  27.35700 2.59300 25.24100
C  27.32100 3.79100 26.13500
N  27.31300 0.77600 30.11400
C  28.33400 0.60500 29.11900
C  29.59200 0.39700 29.76900
C  29.31100 0.55400 31.13700
C  27.95800 0.74400 31.30900
C  30.86100 0.06800 29.07800
C  29.99700 0.64100 32.39500
O  31.14300 0.52600 32.68500
C  28.88800 0.99300 33.44000
C  29.10200 0.00900 34.50200
O  29.10500 -1.18200 34.29800
O  29.20000 0.66600 35.66200
C  29.36900 -0.04700 36.91700
H  22.14800 1.99700 32.89900
H  22.61100 1.62500 26.46700
H  28.86600 0.77700 26.99200
H  26.07700 1.14900 35.13100
H  23.94800 2.96100 34.49700
H  24.04900 -0.10800 34.94600
H  22.55600 0.76000 34.76300
H  23.57200 1.19300 36.15500
H  25.75100 4.05200 34.72500
H  27.40100 3.42900 34.38900
H  28.01300 3.39500 36.38800
H  26.73100 2.20700 36.79800
H  19.56500 2.78500 31.32100
H  20.26100 1.38200 32.14400
H  19.14600 0.98500 30.90900
H  18.51300 2.59300 28.96400
H  18.45500 0.75300 28.53800
H  18.03600 1.97900 27.40100
H  24.76200 2.13000 25.00700
H  27.11300 0.42700 25.43500
H  24.23000 -0.62700 25.19100
H  25.41200 -0.39400 24.05700
H  23.82700 0.34000 23.80400
H  26.90700 2.80000 24.27000
H  28.41000 2.35000 25.09600
H  26.85800 3.64300 27.11000
H  26.65100 4.48900 25.63200
H  28.32200 4.21700 26.20200
H  31.04100 0.13000 28.00400
H  30.99000 -0.95900 29.42000
H  31.50300 0.84700 29.48900
H  29.04100 2.01900 33.77400
H  29.43300 -1.12900 36.80300
H  28.59500 -0.01400 37.68500
H  30.30000 0.26700 37.38900
Mg -12.41500 37.86900 42.82000
C  -10.24900 35.41500 41.50400
C  -10.32800 40.31200 41.50200
C  -14.80900 40.07700 43.24800
C  -14.60700 35.34800 43.74600
N  -10.60000 37.91000 41.53400
C  -9.83300 36.74500 41.30700
C  -8.56600 37.06000 40.52500
C  -8.45600 38.65000 40.81000
C  -9.87100 39.00100 41.30600
C  -7.34100 39.10500 41.77700
C  -8.69200 36.66100 39.03100
C  -7.58600 35.66500 38.62600
H  -6.61200 36.11000 37.51600
N  -12.61200 39.91600 42.41200
C  -11.59100 40.76900 41.98500
C  -12.04000 42.12100 42.02000
C  -13.40900 42.06900 42.46200
C  -13.69100 40.62900 42.69500
C  -11.17900 43.33600 41.63300
C  -14.31500 43.32900 42.72100
O  -13.89200 44.38000 42.33200
C  -15.76300 43.28700 43.32400
N  -14.50200 37.59400 43.15400
C  -15.20800 38.75900 43.43400
C  -16.48900 38.44800 44.25100
C  -16.28400 36.91500 44.57900
C  -15.09000 36.57000 43.77200
C  -16.83300 39.32700 45.51800
C  -17.51100 35.98300 44.35600
C  -17.78900 34.94500 45.37700
N  -12.42000 35.77600 42.70700
C  -13.38400 34.85600 43.15500
C  -12.79600 33.56900 43.06100
C  -11.55100 33.71300 42.39900
C  -11.38900 35.06300 42.13500
C  -13.42900 32.40900 43.60500
C  -10.38200 33.04100 41.85700
O  -9.99600 31.87200 41.87400
C  -9.53800 34.12400 41.11400
C  -8.10800 34.03000 41.60000
O  -7.24800 33.62900 40.88300
O  -7.87300 34.25400 42.93600
C  -6.52400 34.06900 43.29800
H  -9.62100 41.08200 41.18600
H  -15.52800 40.83600 43.56200
H  -15.11000 34.58100 44.33900
H  -7.73500 36.54400 41.00700
H  -8.14200 39.13700 39.88700
H  -6.94300 38.19800 42.23100
H  -7.71200 39.79200 42.53900
H  -6.57900 39.60800 41.18200
H  -8.60800 37.57400 38.44200
H  -9.73700 36.35900 38.95400
H  -8.07700 34.78400 38.21300
H  -6.96900 35.29000 39.44200
H  -11.31700 43.62800 40.59200
H  -10.14500 43.04500 41.81900
H  -11.46100 44.18000 42.26300
H  -16.33200 42.80200 42.53100
H  -16.24100 44.26500 43.27500
H  -15.90900 42.73900 44.25500
H  -17.37200 38.64100 43.64300
H  -16.04400 36.86600 45.64100
H  -17.47900 40.14600 45.20000
H  -15.96900 39.81900 45.96400
H  -17.35000 38.64500 46.19300
H  -17.43300 35.57500 43.34800
H  -18.37900 36.64100 44.32000
H  -17.06200 34.82700 46.18100
H  -17.85000 34.00600 44.82800
H  -18.77900 35.12000 45.79800
H  -12.85900 31.98800 44.43400
H  -13.47300 31.70200 42.77700
H  -14.45000 32.59500 43.93900
H  -9.60100 33.73800 40.09700
H  -5.92700 34.75700 42.69800
H  -6.17000 33.06300 43.07500
H  -6.34700 34.19000 44.36700

