158

Mg 34.79800 3.25300 29.52500
C  32.55300 3.84300 32.15400
C  37.35500 3.53300 32.00300
C  37.13700 2.68600 27.20200
C  32.36300 3.80700 27.26100
N  34.96000 3.77900 31.81500
C  33.89400 3.89900 32.62900
C  34.33000 3.96900 34.07400
C  35.90700 4.27200 33.97500
C  36.14500 3.85000 32.48800
C  36.38700 5.78500 34.33000
C  33.87900 2.83100 34.93900
C  33.72200 3.12300 36.46300
H  34.47100 4.33100 37.06200
N  36.91800 2.88800 29.67100
C  37.81900 3.11800 30.75300
C  39.13100 2.74300 30.33500
C  39.01200 2.25100 28.97700
C  37.66200 2.63600 28.52500
C  40.26200 2.85100 31.18900
C  40.02400 1.49400 28.12200
O  39.81500 1.26300 26.92000
C  41.48100 0.96000 28.64400
N  34.88700 3.44700 27.53500
C  35.87600 3.02100 26.74300
C  35.50700 3.32700 25.24400
C  33.95700 3.52300 25.27400
C  33.69200 3.63500 26.76200
C  36.29300 4.60500 24.64700
C  33.17400 2.42300 24.57500
C  32.55800 1.26200 25.39300
N  32.78900 3.69300 29.58300
C  31.90200 3.75100 28.60700
C  30.53100 3.81600 29.07100
C  30.77200 3.89700 30.49900
C  32.16800 3.79200 30.75100
C  29.24600 3.92200 28.27300
C  30.11000 4.01100 31.81500
O  28.95000 4.04500 32.14800
C  31.27000 4.07700 32.91000
C  31.18700 5.39700 33.56300
O  31.23100 6.49200 32.99800
O  31.04000 5.20400 34.91000
C  31.14200 6.51500 35.65900
H  38.11800 3.57500 32.78300
H  37.89300 2.47900 26.44200
H  31.62100 3.80400 26.45900
H  33.95000 4.92900 34.42200
H  36.39400 3.52500 34.60100
H  35.64900 6.56200 34.52900
H  36.99400 6.04200 33.46100
H  37.02700 5.73500 35.21100
H  34.61700 2.03000 34.93100
H  32.99700 2.39200 34.47300
H  34.12200 2.19500 36.87300
H  32.66600 3.30100 36.66500
H  40.14300 3.72400 31.83100
H  41.13300 2.80200 30.53500
H  40.23100 1.96100 31.81700
H  41.92900 0.26200 27.93600
H  41.23300 0.49500 29.59800
H  42.02800 1.89000 28.79400
H  35.83200 2.50300 24.60700
H  33.63700 4.49300 24.89400
H  35.68000 5.50700 24.64700
H  36.66700 4.40400 23.64400
H  37.16300 4.72300 25.29300
H  33.82100 2.03900 23.78600
H  32.41500 2.98500 24.03100
H  31.51900 1.28600 25.72000
H  33.27800 1.09300 26.19400
H  32.72900 0.27200 24.97100
H  29.31200 3.96300 27.18600
H  28.69200 4.79400 28.62200
H  28.55400 3.11300 28.50600
H  31.29800 3.38000 33.74700
H  30.67300 7.33400 35.11400
H  32.20200 6.74300 35.77400
H  30.56100 6.32200 36.56000
Mg 30.45800 57.72700 39.68600
C  27.82300 55.68600 38.58000
C  32.61900 55.13400 38.73000
C  33.19300 59.76800 40.15000
C  28.28600 60.31500 40.10000
N  30.22700 55.69200 38.70600
C  29.06700 55.05400 38.51500
C  29.13500 53.55400 38.10300
C  30.74600 53.39200 38.21200
C  31.26700 54.81000 38.60700
C  31.22600 52.25100 39.26500
C  28.66500 53.18700 36.71500
C  29.26000 53.86800 35.52100
H  28.28800 54.52000 34.54300
N  32.57300 57.49500 39.52500
C  33.22100 56.33800 39.08100
C  34.66700 56.62300 38.94200
C  34.88200 57.88500 39.51700
C  33.50700 58.42800 39.79300
C  35.63700 55.69900 38.35200
C  36.27000 58.60800 39.67700
O  37.30800 58.08100 39.32600
C  36.37600 59.81200 40.56800
N  30.65200 59.78400 39.96100
C  31.86500 60.31500 40.29300
C  31.65800 61.73800 40.76800
C  30.17200 62.04400 40.63300
C  29.65400 60.64700 40.27800
C  32.37600 62.14300 42.05600
C  29.79800 63.11800 39.56900
C  28.80000 64.20500 40.06500
N  28.45200 58.01200 39.33600
C  27.68500 59.18400 39.59000
C  26.26400 58.77400 39.31000
C  26.31900 57.42400 38.98100
C  27.61500 56.98300 38.94600
C  25.09700 59.76800 39.33800
C  25.49800 56.27900 38.64000
O  24.29800 56.13500 38.44600
C  26.42600 55.12000 38.34400
C  26.06800 53.88900 39.07900
O  26.36000 53.67400 40.21000
O  25.37200 53.01400 38.36200
C  24.60300 51.95000 39.07700
H  33.24800 54.28800 38.44400
H  33.92400 60.57200 40.25900
H  27.61700 61.17400 40.18800
H  28.62300 52.95800 38.85800
H  31.36000 53.27200 37.32000
H  31.98500 51.71600 38.69300
H  30.43000 51.54300 39.49700
H  31.47600 52.60400 40.26500
H  27.57900 53.28700 36.72500
H  28.98200 52.14800 36.63700
H  29.64100 53.02200 34.94900
H  29.99800 54.62600 35.78300
H  36.48100 56.29000 37.99600
H  35.11000 55.07400 37.63100
H  35.91500 55.06000 39.19000
H  37.43700 60.00300 40.72600
H  35.92800 59.55000 41.52600
H  36.02400 60.72900 40.09500
H  32.22400 62.21300 39.96600
H  29.72000 62.26700 41.60000
H  33.03400 61.31700 42.32400
H  31.69300 62.41900 42.86000
H  33.07000 62.92500 41.75100
H  29.21200 62.70200 38.74900
H  30.66300 63.60700 39.12100
H  28.62600 63.97800 41.11600
H  27.95600 64.00700 39.40400
H  29.08400 65.24400 39.89200
H  25.46100 60.78900 39.45200
H  24.36900 59.38000 40.05100
H  24.59600 59.76100 38.37100
H  26.35000 54.96400 37.26800
H  25.20900 51.42800 39.81800
H  24.18600 51.19300 38.41300
H  23.77800 52.49900 39.53100

