158

Mg 1.71400 -2.82700 45.40700
C  5.10900 -2.92700 44.66800
C  1.41700 -0.15500 43.04700
C  -1.62300 -3.24400 45.33300
C  2.14200 -5.90800 47.14300
N  3.09300 -1.63600 44.08400
C  4.45500 -1.90300 43.92700
C  5.09900 -0.90000 42.88000
C  4.00100 0.13700 42.69400
C  2.75600 -0.60900 43.22600
C  4.16100 1.53900 43.28400
C  5.62200 -1.67100 41.56900
C  7.09400 -1.41300 41.10700
H  7.34900 -0.87700 39.70500
N  0.17800 -1.70200 44.54500
C  0.24800 -0.67900 43.61200
C  -1.08900 -0.18400 43.31900
C  -1.96200 -1.08400 43.85700
C  -1.14900 -2.06300 44.66100
C  -1.32200 0.97100 42.38500
C  -3.44900 -1.11200 43.63500
O  -3.85400 -0.20500 42.93800
C  -4.34200 -2.13300 44.24000
N  0.51200 -4.33000 46.08300
C  -0.85500 -4.20800 46.05100
C  -1.54600 -5.44100 46.72900
C  -0.33000 -6.17100 47.31500
C  0.85300 -5.49600 46.78000
C  -2.60400 -5.07500 47.83900
C  -0.33500 -7.67600 47.23800
C  0.40300 -8.40600 46.11500
N  3.28200 -4.15000 45.92600
C  3.33900 -5.28700 46.70100
C  4.68800 -5.74000 46.83000
C  5.41800 -4.79300 46.08900
C  4.48800 -3.84600 45.53600
C  5.24300 -6.91600 47.59600
C  6.74300 -4.49500 45.59700
O  7.86000 -5.04800 45.78800
C  6.60700 -3.22800 44.69500
C  7.37700 -2.14100 45.20600
O  7.36100 -1.71900 46.35000
O  7.96100 -1.40800 44.18300
C  8.58800 -0.09000 44.34400
H  1.30200 0.73900 42.43100
H  -2.69000 -3.46900 45.38800
H  2.05800 -6.72200 47.86600
H  5.94100 -0.43500 43.39400
H  3.79800 0.42700 41.66400
H  4.86700 1.41900 44.10600
H  3.19900 1.89700 43.65200
H  4.61200 2.22700 42.57000
H  4.91400 -1.42000 40.78000
H  5.41900 -2.72600 41.75200
H  7.70000 -2.31300 41.20600
H  7.43500 -0.67000 41.82800
H  -1.66200 0.65700 41.39800
H  -0.42000 1.58200 42.35400
H  -2.12300 1.56000 42.83200
H  -4.14800 -3.09000 43.75600
H  -5.34200 -1.80900 43.95000
H  -4.41500 -2.21300 45.32400
H  -1.97200 -6.09100 45.96500
H  -0.28200 -5.99400 48.39000
H  -2.82800 -4.01100 47.90500
H  -2.18600 -5.43600 48.77900
H  -3.58700 -5.50600 47.65100
H  -1.34100 -8.06800 47.38900
H  0.17700 -7.98800 48.14900
H  -0.30400 -9.08200 45.63400
H  1.22800 -8.99800 46.51000
H  0.85500 -7.74900 45.37100
H  4.77700 -7.84400 47.26300
H  4.84900 -6.83900 48.60900
H  6.31200 -6.70800 47.55900
H  7.00200 -3.43500 43.70100
H  9.26000 -0.07800 45.20200
H  7.80000 0.63200 44.56000
H  9.25700 0.23400 43.54700
Mg 45.54400 4.02800 46.76100
C  43.48200 6.76400 47.09100
C  42.58000 2.06500 46.20500
C  47.49900 1.44200 45.88000
C  48.32300 6.07300 46.82100
N  43.29700 4.44500 46.49100
C  42.69400 5.64700 46.77900
C  41.12700 5.52400 46.68200
C  40.85000 3.98100 46.50100
C  42.33100 3.43300 46.40900
C  39.94000 3.35700 47.64000
C  40.52300 6.29900 45.50600
C  41.28600 6.31200 44.17100
H  40.47800 5.85400 42.89300
N  45.08100 2.01000 46.22600
C  43.83200 1.38600 46.16000
C  44.06500 -0.00500 45.91000
C  45.51100 -0.29300 46.03400
C  46.13100 1.08500 46.05600
C  42.94800 -1.06700 45.90200
C  46.15700 -1.65100 46.02400
O  45.52400 -2.70000 46.06000
C  47.68200 -1.80300 45.92900
N  47.65900 3.82500 46.18700
C  48.17800 2.65000 45.96500
C  49.73300 2.78600 46.01000
C  49.89500 4.28100 46.37700
C  48.52700 4.78000 46.44100
C  50.55100 1.78900 46.90700
C  51.05700 5.07500 45.59000
C  52.32200 5.42600 46.23300
N  45.93500 6.05900 46.91300
C  47.10900 6.76700 46.98200
C  46.82100 8.18400 47.14500
C  45.38800 8.25700 47.23000
C  44.90700 6.91100 47.08800
C  47.74200 9.27200 47.29000
C  44.22000 9.10100 47.39300
O  44.14100 10.31000 47.54800
C  42.99500 8.17900 47.29200
C  42.01900 8.29400 48.42200
O  42.23100 7.91500 49.57300
O  40.88100 9.01600 48.09700
C  39.99000 9.40600 49.17100
H  41.69300 1.47600 45.95800
H  48.18100 0.66600 45.52500
H  49.14900 6.74000 47.07700
H  40.61800 5.89000 47.57400
H  40.27900 3.80600 45.58800
H  40.40400 2.79800 48.45300
H  39.12200 2.74000 47.26700
H  39.48500 4.22700 48.11300
H  40.56500 7.34300 45.81900
H  39.53700 5.83400 45.49800
H  42.09200 5.57700 44.17900
H  41.67300 7.33100 44.14800
H  42.66900 -1.34200 46.91900
H  43.07100 -1.89900 45.20900
H  42.00900 -0.64700 45.54100
H  48.07000 -1.09100 46.65800
H  48.00000 -1.61400 44.90300
H  48.00800 -2.77600 46.29600
H  50.07500 2.74800 44.97600
H  50.23600 4.32300 47.41100
H  51.13500 2.37700 47.61500
H  51.33400 1.22400 46.40200
H  49.91700 1.05600 47.40700
H  50.53200 5.97900 45.28000
H  51.29600 4.48600 44.70500
H  53.10700 5.40400 45.47800
H  52.47000 4.53700 46.84700
H  52.23800 6.31300 46.86100
H  48.05900 9.48300 46.26800
H  48.63300 9.07100 47.88500
H  47.16900 10.12200 47.66000
H  42.62100 8.59900 46.35800
H  40.44000 10.29300 49.61500
H  39.83900 8.75900 50.03500
H  39.02900 9.66500 48.72600

