158

Mg 47.25100 25.48000 27.84100
C  47.98100 27.62900 30.32900
C  46.73100 23.12900 30.34600
C  46.43600 23.13700 25.45700
C  48.45200 27.58500 25.46300
N  47.01000 25.52700 30.16800
C  47.30000 26.58800 30.91800
C  47.19800 26.20200 32.46400
C  46.98000 24.62700 32.46800
C  46.84600 24.40700 30.90900
C  48.21400 23.77000 32.96200
C  46.24300 27.08300 33.26000
C  46.04400 26.38600 34.73700
H  46.23600 27.33600 35.87200
N  46.51000 23.41900 27.91300
C  46.43500 22.66500 29.03100
C  45.89800 21.34100 28.63100
C  45.59800 21.46000 27.22400
C  46.15500 22.73500 26.81300
C  45.67800 20.19500 29.64800
C  44.93700 20.46600 26.32000
O  44.73200 20.77000 25.15000
C  44.72500 19.03000 26.75200
N  47.46700 25.36000 25.72800
C  47.11600 24.29000 24.98600
C  47.34600 24.56800 23.51400
C  47.94300 26.03300 23.52900
C  47.87500 26.39000 24.98300
C  48.18400 23.55600 22.76800
C  47.10500 27.08800 22.67400
C  47.73600 27.61300 21.38000
N  48.15800 27.20200 27.81500
C  48.53300 28.00500 26.77400
C  49.16300 29.20400 27.27600
C  49.02400 29.06100 28.69900
C  48.37400 27.82700 28.97600
C  49.84500 30.18200 26.36000
C  49.26400 29.67500 29.96800
O  49.78000 30.69300 30.30700
C  48.48300 28.87200 31.07600
C  49.39200 28.59200 32.31100
O  50.43500 27.86300 32.16600
O  48.90600 29.34100 33.39900
C  49.60700 29.29100 34.70200
H  46.80700 22.30400 31.05800
H  46.21900 22.37800 24.70200
H  48.92300 28.15700 24.66100
H  48.13900 26.37000 32.98800
H  46.07900 24.31900 32.99900
H  48.05500 22.73800 33.27600
H  48.70000 24.32800 33.76300
H  49.00100 23.68100 32.21300
H  45.30700 27.02200 32.70400
H  46.57500 28.12000 33.21100
H  46.84800 25.65900 34.85500
H  45.03700 25.97100 34.77200
H  46.03400 19.24400 29.25300
H  44.61800 20.00500 29.81500
H  46.17100 20.28800 30.61500
H  44.23200 18.96400 27.72200
H  45.66800 18.48600 26.81000
H  44.06200 18.56100 26.02500
H  46.38700 24.51300 22.99900
H  48.98600 26.18800 23.25300
H  48.71900 22.81900 23.36700
H  48.95100 24.04700 22.16800
H  47.54100 22.98300 22.10000
H  46.78300 27.84900 23.38500
H  46.19300 26.62600 22.29700
H  47.26500 27.02700 20.59100
H  48.74700 27.20600 21.39000
H  47.57000 28.68000 21.23100
H  49.83500 29.99000 25.28700
H  50.90000 30.14900 26.63300
H  49.58200 31.22900 26.51300
H  47.66800 29.52600 31.38700
H  49.26200 30.07100 35.38000
H  50.69300 29.28800 34.61400
H  49.24000 28.33200 35.06900
Mg 51.01100 46.02300 42.12000
C  47.82600 46.88500 40.65800
C  50.39900 42.76400 41.06300
C  54.17500 45.36800 42.63100
C  51.63600 49.40100 42.36200
N  49.23900 45.01600 40.90100
C  48.03700 45.47300 40.62900
C  47.08400 44.43400 40.13200
C  47.94100 43.05400 40.29200
C  49.23200 43.61000 40.94900
C  47.27900 41.87600 41.04300
C  46.55800 44.61400 38.63600
C  45.05300 44.80400 38.44700
H  44.52000 43.73800 37.44200
N  52.06100 44.28800 42.04100
C  51.65700 43.07800 41.59800
C  52.73800 42.09100 41.79200
C  53.85700 42.83600 42.25300
C  53.43200 44.24500 42.33000
C  52.62500 40.58300 41.66300
C  55.18400 42.28100 42.57900
O  55.30300 41.09000 42.33000
C  56.25900 43.03300 43.19700
N  52.66300 47.21200 42.53300
C  53.85600 46.74100 42.76700
C  54.86600 47.81900 42.88900
C  54.07300 49.15400 42.81200
C  52.68300 48.56000 42.56600
C  55.76000 47.59000 44.12400
C  54.47800 50.21600 41.78800
C  54.98900 51.53000 42.30900
N  49.92300 47.81500 41.77400
C  50.34200 49.12700 41.90800
C  49.33300 50.03500 41.51400
C  48.34900 49.16000 40.98700
C  48.76700 47.81200 41.18900
C  49.24400 51.48700 41.67900
C  47.04100 49.18800 40.32200
O  46.28200 50.07100 39.91800
C  46.58800 47.70300 40.19000
C  45.44500 47.36300 41.07600
O  45.44600 46.94800 42.18600
O  44.30200 47.69400 40.41900
C  42.98900 47.62300 41.10600
H  50.32500 41.71000 40.78500
H  55.26000 45.24800 42.60300
H  51.93700 50.43900 42.51900
H  46.28500 44.33300 40.86700
H  48.28900 42.62500 39.35200
H  47.30700 41.08400 40.29400
H  46.23200 42.11700 41.22700
H  47.82600 41.67200 41.96300
H  46.86500 43.85400 37.91800
H  47.02100 45.48500 38.17200
H  44.81100 45.84500 38.23100
H  44.51800 44.58600 39.37100
H  51.55700 40.39000 41.57000
H  53.12200 40.12400 42.51800
H  53.14800 40.18800 40.79200
H  56.10600 43.57100 44.13200
H  56.69200 43.78800 42.54100
H  57.12200 42.40200 43.40600
H  55.46600 47.60300 42.00600
H  54.11000 49.61800 43.79700
H  55.39600 46.66300 44.56800
H  55.70000 48.35300 44.90000
H  56.77000 47.53500 43.71800
H  53.63200 50.49900 41.16200
H  55.26500 49.79500 41.16400
H  54.91700 51.75100 43.37400
H  54.50600 52.33000 41.74700
H  56.05200 51.67300 42.11800
H  50.20800 51.98100 41.79400
H  48.69100 51.68200 42.59800
H  48.75800 51.89800 40.79300
H  46.30000 47.49900 39.15800
H  42.73000 48.68100 41.13400
H  42.92500 47.19600 42.10600
H  42.46400 46.94000 40.43800

