158

Mg 47.26300 15.28300 28.24600
C  45.19300 14.88600 31.11600
C  49.41900 17.08300 30.30300
C  49.11500 15.87400 25.58100
C  44.96400 13.26200 26.47000
N  47.26700 15.93900 30.40900
C  46.37300 15.54000 31.33200
C  46.70300 16.05400 32.72300
C  47.88800 17.08200 32.37300
C  48.24800 16.58700 31.00400
C  47.58500 18.60100 32.39300
C  47.00500 14.79000 33.66100
C  46.78300 14.99800 35.15900
H  46.88900 16.39200 35.73400
N  49.00800 16.27600 28.01800
C  49.74300 16.91700 28.94000
C  51.02500 17.25100 28.33300
C  51.01200 16.86800 26.95700
C  49.65200 16.38800 26.78400
C  51.97500 18.07300 29.13500
C  52.05800 17.01600 25.95500
O  51.89500 16.78000 24.75700
C  53.37200 17.50100 26.48200
N  46.97700 14.76200 26.31400
C  47.92300 15.11200 25.35300
C  47.54500 14.59700 23.93300
C  46.47200 13.51000 24.40500
C  46.08100 13.88500 25.79100
C  47.06200 15.65600 22.92500
C  47.03100 12.02200 24.57900
C  46.16700 10.83200 24.34500
N  45.40500 14.25500 28.67100
C  44.62100 13.52000 27.82400
C  43.45800 13.08300 28.63000
C  43.61100 13.66300 29.89800
C  44.83100 14.30100 29.87800
C  42.35100 12.11800 28.15100
C  43.03900 13.82100 31.25200
O  41.92400 13.49400 31.67700
C  44.07700 14.67300 32.06900
C  43.41400 15.87100 32.49400
O  42.85700 16.63300 31.76300
O  43.35700 15.94800 33.84500
C  42.60300 17.02800 34.40500
H  50.15100 17.54600 30.96900
H  49.63800 16.07400 24.64300
H  44.41000 12.61400 25.78700
H  45.90100 16.68300 33.10900
H  48.67300 16.88400 33.10300
H  46.67800 18.75200 32.97700
H  47.39100 18.99400 31.39500
H  48.40200 19.16000 32.84800
H  48.02200 14.49200 33.40600
H  46.42500 13.89800 33.42400
H  47.39300 14.26400 35.68600
H  45.73300 14.71200 35.22300
H  51.40900 18.68400 29.83800
H  52.45900 18.79600 28.47900
H  52.75100 17.44100 29.56600
H  54.19400 17.15600 25.85400
H  53.61500 17.03500 27.43600
H  53.59000 18.56900 26.45600
H  48.34800 14.02200 23.47300
H  45.55500 13.48600 23.81700
H  46.05800 15.40400 22.58300
H  47.75000 15.80100 22.09200
H  47.13200 16.54900 23.54600
H  47.38300 11.83300 25.59300
H  47.82500 11.99400 23.83400
H  45.19600 11.25000 24.08000
H  46.14000 10.19500 25.22900
H  46.41800 10.18400 23.50500
H  42.68200 11.48700 27.32600
H  41.49000 12.73000 27.88000
H  42.08100 11.47700 28.99000
H  44.35000 13.94800 32.83700
H  41.73400 17.20500 33.77200
H  43.23500 17.91400 34.33600
H  42.29800 16.74400 35.41200
Mg 47.30000 34.52000 26.60700
C  45.45700 33.35300 29.38800
C  47.61900 37.57000 28.28400
C  48.63700 35.71600 23.78600
C  46.34700 31.60500 24.90000
N  46.74200 35.25800 28.65800
C  46.05200 34.58800 29.69500
C  46.22100 35.42200 31.00600
C  46.48800 36.87000 30.45300
C  47.04000 36.58300 29.06100
C  45.23500 37.82300 30.35000
C  47.35700 34.82200 31.90700
C  46.97400 34.52500 33.30900
H  47.91000 34.98300 34.42900
N  48.13000 36.38800 26.17100
C  48.14100 37.51600 26.96600
C  48.70700 38.56800 26.19300
C  49.01400 38.02600 24.86000
C  48.60200 36.64700 24.92600
C  48.75900 39.98700 26.73500
C  49.76500 38.73500 23.68200
O  49.92400 38.20000 22.57800
C  50.41100 40.07400 23.83900
N  47.44500 33.78000 24.70300
C  48.12200 34.42700 23.70200
C  48.30300 33.56900 22.41600
C  47.79200 32.14800 22.85600
C  47.20400 32.52700 24.27400
C  47.47900 34.13900 21.27000
C  48.79100 31.06800 23.24200
C  49.85400 30.59400 22.14700
N  46.08300 32.77500 26.96500
C  45.86000 31.63200 26.22400
C  45.02400 30.74700 27.03300
C  44.74700 31.42400 28.26600
C  45.54700 32.61000 28.19400
C  44.56800 29.41600 26.54200
C  44.12900 31.25100 29.56400
O  43.44500 30.37500 30.12200
C  44.44500 32.58700 30.24900
C  44.82000 32.30500 31.71800
O  45.71000 31.55100 32.13600
O  43.89700 32.83500 32.54200
C  43.84400 32.43700 33.93400
H  47.64500 38.57600 28.70800
H  49.10600 35.95000 22.82800
H  46.18900 30.69500 24.31700
H  45.25600 35.44900 31.51300
H  47.20600 37.50100 30.97700
H  45.42200 38.65900 31.02400
H  44.29100 37.33200 30.58700
H  45.11300 38.24000 29.35000
H  48.22500 35.47900 31.94100
H  47.62900 33.87800 31.43600
H  47.03300 33.43800 33.36700
H  46.01200 34.96700 33.56900
H  48.23800 40.19900 27.66900
H  48.16900 40.57400 26.03100
H  49.73100 40.47900 26.77100
H  49.70600 40.80900 24.22700
H  50.76000 40.56800 22.93200
H  51.20900 39.80200 24.53000
H  49.37100 33.59300 22.20100
H  47.01000 31.68200 22.25700
H  47.99000 34.15700 20.30800
H  47.04400 35.13200 21.38600
H  46.68000 33.45300 20.98700
H  48.20000 30.22100 23.59000
H  49.26600 31.37200 24.17500
H  50.84600 30.61000 22.59800
H  49.89000 31.24200 21.27100
H  49.70200 29.56200 21.83300
H  45.03300 29.27500 25.56600
H  43.47900 29.45200 26.57600
H  44.95000 28.63500 27.19900
H  43.54600 33.20300 30.23200
H  44.58500 32.94400 34.55100
H  43.93400 31.36500 34.11300
H  42.86100 32.73100 34.30300

