158

Mg -2.04900 16.98500 26.35600
C  -2.35400 14.69700 29.04500
C  -2.41400 19.55700 28.56600
C  -1.99800 18.94700 23.80200
C  -2.11400 14.14800 24.20300
N  -2.31800 17.03600 28.52600
C  -2.42700 16.03700 29.39500
C  -2.62700 16.53200 30.84500
C  -2.52800 18.10200 30.68700
C  -2.38000 18.28300 29.15200
C  -3.71100 18.91800 31.32200
C  -1.59600 16.15500 31.94300
C  -1.38600 17.05300 33.17800
H  -2.02600 16.57900 34.42100
N  -2.23500 18.99700 26.19800
C  -2.37800 19.93000 27.22500
C  -2.29300 21.26200 26.61800
C  -2.20500 21.06400 25.20400
C  -2.09200 19.59300 25.01100
C  -2.56300 22.53600 27.39300
C  -2.08100 22.04000 24.03300
O  -2.09500 21.69900 22.85100
C  -1.96500 23.50000 24.29900
N  -2.10900 16.60400 24.28800
C  -2.08300 17.63200 23.36000
C  -2.09800 17.10300 21.87800
C  -2.11500 15.56900 22.09000
C  -2.02700 15.43600 23.60700
C  -3.24700 17.66400 21.06700
C  -1.05200 14.74400 21.31600
C  -0.84700 15.15900 19.86500
N  -2.24000 14.84800 26.51900
C  -2.20500 13.85000 25.57700
C  -2.28500 12.58300 26.23300
C  -2.34900 12.82900 27.62100
C  -2.27500 14.26400 27.69700
C  -2.18700 11.26100 25.55900
C  -2.52900 12.26900 28.87900
O  -2.71900 11.10100 29.23700
C  -2.51800 13.42900 29.89600
C  -1.45900 13.05000 30.77800
O  -0.29200 13.51000 30.87200
O  -1.97500 12.12700 31.67700
C  -1.08500 11.72700 32.83600
H  -2.26300 20.33900 29.31300
H  -1.95800 19.55700 22.89600
H  -1.89100 13.26200 23.60500
H  -3.58500 16.19700 31.24100
H  -1.51600 18.45600 30.87900
H  -4.52300 19.04300 30.60400
H  -3.35600 19.88600 31.67600
H  -4.11900 18.40900 32.19500
H  -0.57900 15.98800 31.58600
H  -2.00100 15.20400 32.29100
H  -1.72000 18.07800 33.01800
H  -0.30800 17.12700 33.31700
H  -3.46800 23.06300 27.09200
H  -1.60200 23.04800 27.35800
H  -2.62900 22.34300 28.46300
H  -1.43300 23.64500 25.24000
H  -2.99600 23.81000 24.46500
H  -1.37400 23.99700 23.52900
H  -1.08600 17.37400 21.57800
H  -3.10600 15.22500 21.79500
H  -2.95300 18.31800 20.24600
H  -3.85400 18.39000 21.60800
H  -3.86200 16.91300 20.57000
H  -1.35900 13.70100 21.39500
H  -0.08600 14.78100 21.81800
H  0.21800 15.08800 19.64300
H  -1.14400 16.17000 19.58700
H  -1.40300 14.45400 19.24700
H  -3.16500 10.99400 25.15600
H  -2.02100 10.42600 26.23900
H  -1.53500 11.36600 24.69100
H  -3.53200 13.29000 30.27000
H  -0.70000 10.78800 32.43900
H  -1.58200 11.56200 33.79200
H  -0.29600 12.44500 33.05800
Mg -5.97400 24.89100 26.09100
C  -4.17200 26.43100 28.60500
C  -7.41500 22.89400 28.54000
C  -7.07000 22.92300 23.53300
C  -4.21900 26.96100 23.68900
N  -5.76200 24.61900 28.25300
C  -5.03400 25.50700 29.09700
C  -5.40900 25.24900 30.55600
C  -6.12800 23.90400 30.51200
C  -6.41700 23.76300 29.00800
C  -5.26500 22.85700 31.11800
C  -6.22700 26.40800 31.15600
C  -5.43000 27.00000 32.38800
H  -5.00500 25.99600 33.45400
N  -7.22100 23.25100 26.07900
C  -7.79400 22.68300 27.17300
C  -8.75800 21.67900 26.67200
C  -8.61400 21.66700 25.26000
C  -7.59200 22.64200 24.88700
C  -9.70200 20.96500 27.56500
C  -9.32900 20.78200 24.30400
O  -9.21400 20.79100 23.06700
C  -10.27100 19.79300 24.70700
N  -5.77200 24.94700 23.91000
C  -6.27600 24.01100 23.07700
C  -5.82800 24.23000 21.61400
C  -5.25000 25.70600 21.70700
C  -5.06400 25.92900 23.20200
C  -4.81300 23.10900 21.16400
C  -6.15500 26.82400 21.08500
C  -5.48400 27.56300 19.90700
N  -4.52600 26.36900 26.10100
C  -3.97600 27.14800 25.09400
C  -2.96200 28.03100 25.59900
C  -3.03800 27.75900 27.03700
C  -3.94500 26.72900 27.24000
C  -2.26300 29.08200 24.81700
C  -2.50600 28.15100 28.25500
O  -1.68900 28.97500 28.42600
C  -3.15900 27.31300 29.32800
C  -2.13000 26.56900 30.05600
O  -1.65700 25.45500 29.74900
O  -1.84600 27.28700 31.21300
C  -1.05900 26.63700 32.30300
H  -7.77000 22.28200 29.37200
H  -7.30100 22.28400 22.67800
H  -3.65200 27.59700 23.00500
H  -4.46100 25.16700 31.08700
H  -7.03300 23.96300 31.11700
H  -5.71700 22.69700 32.09700
H  -4.20100 23.04300 31.26700
H  -5.44700 21.97500 30.50400
H  -7.26200 26.16800 31.39700
H  -6.46500 27.22500 30.47400
H  -6.06600 27.76600 32.83100
H  -4.53200 27.56700 32.14300
H  -9.43500 19.97200 27.92800
H  -10.69500 21.02200 27.11900
H  -9.80800 21.57300 28.46300
H  -10.33300 19.04800 23.91300
H  -11.25000 20.27100 24.73600
H  -9.85500 19.31300 25.59300
H  -6.70900 24.26000 20.97400
H  -4.23900 25.76100 21.30200
H  -3.84900 23.61300 21.09600
H  -5.03900 22.69600 20.18100
H  -4.72000 22.32100 21.91200
H  -6.38300 27.67600 21.72600
H  -7.09000 26.40100 20.71700
H  -6.28600 27.49900 19.17200
H  -4.62300 27.03100 19.50200
H  -5.41200 28.60500 20.22000
H  -2.93700 29.72700 24.25200
H  -1.72300 28.53500 24.04400
H  -1.52600 29.62100 25.41200
H  -3.61900 27.93200 30.09800
H  -1.55400 25.81600 32.82200
H  -0.79000 27.34400 33.08800
H  -0.08600 26.26700 31.98000

