158

Mg 24.31300 -8.33700 47.44000
C  26.84700 -6.31600 46.51800
C  22.39100 -7.14500 44.90300
C  22.16900 -11.11400 47.74100
C  26.62100 -10.27800 49.33600
N  24.58500 -6.91200 45.91000
C  25.67200 -6.11400 45.75800
C  25.52300 -5.07600 44.64000
C  24.08300 -5.41100 44.08400
C  23.60800 -6.55000 45.02400
C  23.15300 -4.19100 43.92800
C  26.62800 -5.27300 43.50600
C  27.12800 -3.93900 42.90700
H  26.95700 -3.61800 41.43900
N  22.42500 -8.88200 46.66800
C  21.79200 -8.17100 45.64500
C  20.47800 -8.74900 45.42900
C  20.36600 -9.93500 46.27100
C  21.69900 -9.98400 46.97800
C  19.63600 -8.29200 44.28800
C  19.15500 -10.86800 46.35200
O  18.12300 -10.51500 45.79100
C  19.10100 -11.98100 47.13600
N  24.27800 -10.46500 48.45800
C  23.31000 -11.38700 48.48700
C  23.66100 -12.70900 49.19400
C  25.13600 -12.24400 49.83200
C  25.37300 -10.87200 49.21000
C  22.67400 -13.10700 50.29200
C  26.27700 -13.29900 49.52200
C  27.30900 -13.59600 50.53000
N  26.34100 -8.40900 47.82000
C  27.09500 -9.13400 48.71600
C  28.27000 -8.44300 48.93900
C  28.27100 -7.29400 48.09400
C  27.07400 -7.35200 47.40300
C  29.44100 -8.82400 49.91200
C  28.99300 -6.13100 47.66000
O  30.12100 -5.71200 48.07100
C  28.08700 -5.40600 46.56300
C  27.74700 -4.04900 47.03900
O  27.45100 -3.71000 48.15300
O  27.92700 -3.19400 46.01400
C  27.65000 -1.74900 46.24600
H  21.79300 -6.74300 44.08300
H  21.50200 -11.97800 47.78500
H  27.39400 -10.65200 50.01000
H  25.61400 -4.10100 45.11900
H  24.19400 -5.86500 43.09900
H  22.34100 -4.44000 43.24500
H  23.84200 -3.48300 43.46800
H  22.78000 -3.77900 44.86600
H  26.29000 -5.89100 42.67500
H  27.45600 -5.89300 43.85100
H  28.21000 -4.00400 43.02800
H  26.71600 -3.10300 43.47200
H  18.59100 -8.58200 44.17300
H  20.16100 -8.62600 43.39300
H  19.82800 -7.23000 44.44400
H  19.83700 -12.69800 46.77200
H  18.10600 -12.41500 47.23600
H  19.37400 -11.65700 48.14000
H  23.80500 -13.56700 48.53700
H  24.98300 -12.03400 50.89000
H  22.64200 -14.17400 50.07200
H  21.70800 -12.60400 50.23600
H  23.09400 -13.06000 51.29600
H  26.84100 -13.09900 48.61100
H  25.80300 -14.27300 49.40400
H  27.23800 -14.66900 50.70900
H  27.11100 -13.00200 51.42300
H  28.31100 -13.44100 50.13100
H  29.90200 -9.74800 49.56400
H  29.04400 -9.05800 50.90000
H  30.10500 -7.96400 50.00400
H  28.76900 -5.22400 45.73200
H  26.71500 -1.63400 46.79300
H  27.58800 -1.19900 45.30700
H  28.51400 -1.45500 46.84300
Mg -4.71000 24.88500 25.89800
C  -2.89500 26.44500 28.51000
C  -5.74400 22.63400 28.13800
C  -6.36400 23.56000 23.47800
C  -3.11000 27.13100 23.59900
N  -4.38200 24.69000 28.05300
C  -3.73700 25.46100 28.90800
C  -4.07600 25.15900 30.39300
C  -4.71200 23.78900 30.22100
C  -5.03000 23.67700 28.69900
C  -3.79800 22.64000 30.70000
C  -5.09600 26.25700 30.88800
C  -5.02300 26.43000 32.44500
H  -4.62300 25.24700 33.33500
N  -5.95700 23.33100 25.82300
C  -6.18600 22.45900 26.80500
C  -6.88600 21.29000 26.27300
C  -7.15200 21.52100 24.88800
C  -6.50300 22.84300 24.68500
C  -7.47300 20.16700 27.20700
C  -7.97400 20.77300 23.87000
O  -8.26500 21.27700 22.79500
C  -8.54000 19.38100 24.18300
N  -4.89400 25.48400 23.85500
C  -5.60800 24.67200 23.08000
C  -5.41300 24.85400 21.57000
C  -4.45400 26.09600 21.58900
C  -4.14200 26.31500 23.10200
C  -4.76600 23.59500 20.95100
C  -5.03800 27.31400 20.89200
C  -4.20500 27.76200 19.70800
N  -3.25400 26.41700 25.96600
C  -2.73200 27.24400 24.96000
C  -1.81700 28.22400 25.60100
C  -1.89100 27.99400 26.96000
C  -2.70600 26.81700 27.16700
C  -1.15400 29.33600 24.90500
C  -1.31900 28.43300 28.27200
O  -0.48100 29.30400 28.51300
C  -2.11000 27.48400 29.37200
C  -1.12500 26.79200 30.22600
O  -0.24700 26.06900 29.92100
O  -1.44600 27.11700 31.52900
C  -0.58300 26.72300 32.66100
H  -6.19400 21.91500 28.82500
H  -6.88100 23.15500 22.60600
H  -2.74800 27.77800 22.79800
H  -3.20600 25.19000 31.04900
H  -5.58100 23.72400 30.87500
H  -4.41900 22.01600 31.34300
H  -3.02700 22.96900 31.39700
H  -3.37200 22.06800 29.87500
H  -6.11700 26.03300 30.57900
H  -4.87600 27.24400 30.48100
H  -5.99400 26.69100 32.86800
H  -4.25600 27.17400 32.65800
H  -6.79500 19.31400 27.22400
H  -8.48300 20.06100 26.81200
H  -7.56900 20.64600 28.18100
H  -7.72700 18.71800 24.47700
H  -8.98600 19.06900 23.23800
H  -9.25800 19.37500 25.00300
H  -6.42100 24.99700 21.18000
H  -3.50400 25.85900 21.10900
H  -4.70600 22.74900 21.63600
H  -3.78200 23.71000 20.49700
H  -5.38900 23.37600 20.08400
H  -5.10600 28.16900 21.56400
H  -6.06800 27.18200 20.56000
H  -4.82600 28.36900 19.04900
H  -3.96900 26.88800 19.10000
H  -3.36100 28.31900 20.11500
H  -0.08400 29.24000 25.08800
H  -1.34700 30.35600 25.23800
H  -1.28700 29.15600 23.83800
H  -2.73100 28.17300 29.94600
H  0.22300 27.45300 32.73700
H  -0.05100 25.81200 32.38400
H  -0.98800 26.68500 33.67200

