158

Mg 17.53400 -0.96000 28.53700
C  16.79200 1.20300 31.07600
C  19.60000 -2.79000 30.76600
C  19.02000 -2.53600 25.88500
C  16.02300 1.28500 26.27900
N  18.25500 -0.66400 30.64900
C  17.63000 0.11700 31.50700
C  17.82200 -0.31700 32.96500
C  18.95100 -1.36500 32.85600
C  18.88500 -1.68600 31.34600
C  20.41300 -0.93700 33.22200
C  16.35900 -0.77300 33.57600
C  15.89800 -0.34100 34.96600
H  17.07500 -0.00100 35.94500
N  18.96400 -2.46500 28.35200
C  19.63000 -3.11500 29.39100
C  20.36600 -4.27200 28.82000
C  20.27700 -4.15800 27.35300
C  19.43600 -2.96100 27.14600
C  20.96500 -5.40000 29.61300
C  20.93200 -5.02100 26.35400
O  20.96800 -4.75300 25.16000
C  21.62500 -6.29300 26.77000
N  17.66000 -0.62200 26.38100
C  18.26200 -1.46200 25.51100
C  18.00700 -1.08800 24.03700
C  16.94300 0.06900 24.24500
C  16.82800 0.28900 25.70400
C  19.22900 -0.70700 23.13300
C  15.57800 -0.20800 23.53000
C  14.48600 -1.13600 24.20400
N  16.47200 0.81300 28.62300
C  15.82800 1.59300 27.69700
C  15.22500 2.77000 28.31900
C  15.51700 2.55400 29.66500
C  16.28300 1.40100 29.75500
C  14.61300 3.93400 27.76400
C  15.38800 3.15500 31.00600
O  14.83900 4.19000 31.30700
C  16.09700 2.24900 31.94200
C  17.01300 3.07600 32.76000
O  18.02600 3.63300 32.34500
O  16.47800 3.28900 34.00000
C  17.16700 4.33600 34.83700
H  20.09500 -3.41100 31.51500
H  19.37800 -3.05400 24.99300
H  15.42300 1.93700 25.64200
H  18.21100 0.60800 33.38900
H  18.64000 -2.22800 33.44500
H  21.18400 -1.07300 32.46400
H  20.78100 -1.50800 34.07400
H  20.42600 0.13700 33.40300
H  16.45500 -1.85100 33.69900
H  15.61700 -0.60000 32.79600
H  15.36500 -1.11500 35.51700
H  15.35800 0.60500 35.01600
H  20.33300 -6.25700 29.38400
H  20.86500 -5.28400 30.69300
H  22.03900 -5.49300 29.45400
H  22.48900 -6.16500 27.42100
H  21.91300 -6.78000 25.83800
H  20.89900 -6.89900 27.31300
H  17.40100 -1.89100 23.61600
H  17.32100 0.98100 23.78300
H  20.15200 -0.97200 23.64800
H  19.28300 0.36100 22.92200
H  19.27500 -1.23700 22.18200
H  15.80200 -0.66900 22.56800
H  15.02800 0.73200 23.49700
H  13.49500 -0.71600 24.37900
H  14.75800 -1.62300 25.14000
H  14.36400 -2.05000 23.62200
H  14.63000 4.80500 28.42000
H  13.56300 3.72300 27.56100
H  15.13200 4.08100 26.81700
H  15.27700 1.77500 32.48100
H  16.66300 5.25600 34.54300
H  18.24200 4.45600 34.69900
H  16.95400 3.96500 35.83900
Mg 26.73100 1.09100 28.91500
C  28.70400 0.56800 31.80000
C  23.99200 0.94200 30.92600
C  24.97200 1.30400 26.22400
C  29.61500 0.23400 27.01600
N  26.42000 0.73500 31.09300
C  27.32600 0.75400 32.10600
C  26.76000 0.83700 33.50900
C  25.22400 0.90400 33.13700
C  25.22200 0.75800 31.63100
C  24.23400 -0.06500 33.89600
C  27.22200 2.04900 34.33700
C  26.40800 2.67200 35.49600
H  26.87100 2.07600 36.85200
N  24.72300 1.39600 28.63900
C  23.73200 1.30800 29.57900
C  22.35600 1.39300 28.90400
C  22.69600 1.48300 27.45600
C  24.16600 1.47500 27.39800
C  21.04300 1.29100 29.58700
C  21.76100 1.75400 26.29500
O  22.19700 2.06700 25.15100
C  20.30600 1.72000 26.45700
N  27.22600 0.78800 26.90100
C  26.30800 0.97200 25.97100
C  26.82500 0.85900 24.52100
C  28.30500 0.52400 24.79400
C  28.45200 0.60600 26.29900
C  26.14900 -0.20200 23.60400
C  29.30700 1.51500 24.03300
C  29.99800 2.62100 24.69900
N  28.71700 0.46200 29.24900
C  29.78600 0.10700 28.41400
C  30.92700 -0.29000 29.18800
C  30.58000 0.01500 30.47700
C  29.19200 0.38700 30.46000
C  32.26900 -0.74400 28.68400
C  31.16600 -0.01500 31.85400
O  32.31700 -0.17700 32.29700
C  29.88600 0.29200 32.76200
C  29.60200 -0.78800 33.65300
O  29.22500 -1.91400 33.30600
O  29.80400 -0.40600 34.92600
C  29.49900 -1.40100 35.95000
H  23.09700 0.95800 31.55100
H  24.29000 1.24700 25.37300
H  30.49700 -0.02700 26.42700
H  27.04200 0.02900 34.18300
H  24.83600 1.85100 33.51200
H  24.22800 -1.04300 33.41500
H  23.22500 0.34600 33.91000
H  24.63100 -0.23400 34.89700
H  27.33100 2.92700 33.70100
H  28.23500 1.80900 34.66200
H  25.38900 2.29000 35.43500
H  26.42600 3.76200 35.47700
H  20.53700 2.24500 29.43600
H  21.21200 1.14000 30.65400
H  20.47700 0.42000 29.26000
H  19.88100 1.83400 25.46000
H  20.00900 2.39600 27.25900
H  20.10900 0.71300 26.82300
H  26.78800 1.86100 24.09400
H  28.58000 -0.50100 24.54200
H  26.76300 -1.09200 23.46600
H  25.94700 0.13200 22.58600
H  25.30000 -0.53500 24.20100
H  28.81200 1.86600 23.12800
H  30.14500 0.86400 23.78500
H  29.99000 3.46100 24.00400
H  31.00100 2.35300 25.03200
H  29.38100 3.10100 25.45800
H  32.64600 0.12900 28.15100
H  32.30300 -1.52000 27.92000
H  32.97100 -1.03000 29.46800
H  30.05400 1.23500 33.28100
H  30.09200 -2.28700 35.72100
H  28.46600 -1.73200 36.06100
H  29.85900 -1.05600 36.91900

