158

Mg 2.13600 -1.01100 44.91400
C  5.49300 -0.18300 43.91400
C  1.18600 1.62900 43.03800
C  -0.94200 -2.11700 45.32200
C  3.41400 -3.96500 46.11400
N  3.31300 0.61100 43.68700
C  4.62900 0.78900 43.51200
C  4.96900 2.18500 42.91600
C  3.48900 2.76500 42.68000
C  2.57600 1.61900 43.15600
C  3.27100 4.16600 43.39500
C  5.75500 2.23900 41.61700
C  5.46400 1.23000 40.52600
H  5.11900 1.70500 39.04700
N  0.30900 -0.29500 44.28300
C  0.09100 0.80000 43.50200
C  -1.37500 0.91700 43.22000
C  -2.03600 -0.09300 43.94300
C  -0.87600 -0.84700 44.62000
C  -1.99400 2.03600 42.38900
C  -3.58400 -0.27200 44.08600
O  -4.36500 0.49400 43.50900
C  -4.19700 -1.50800 44.85700
N  1.33600 -2.76200 45.60400
C  0.05700 -2.93900 45.75900
C  -0.32600 -4.27100 46.48500
C  1.12000 -5.04000 46.43600
C  2.01400 -3.79700 46.18000
C  -0.94600 -4.10800 47.96200
C  1.30000 -6.11600 45.28900
C  1.78200 -7.57100 45.74300
N  4.07500 -1.84000 45.15700
C  4.40900 -3.09800 45.57100
C  5.88000 -3.28800 45.62500
C  6.30200 -2.20000 44.83000
C  5.22300 -1.33100 44.72200
C  6.53300 -4.49100 46.16600
C  7.38900 -1.64500 44.23200
O  8.48500 -2.15700 44.09600
C  6.99000 -0.25800 43.70600
C  7.66400 0.96000 44.31000
O  7.23300 1.60700 45.27400
O  8.67300 1.42800 43.48600
C  9.48500 2.40800 44.21000
H  0.74400 2.48800 42.53000
H  -1.91400 -2.56900 45.53400
H  3.75000 -4.80800 46.72100
H  5.42000 2.85500 43.64800
H  3.28200 2.83700 41.61200
H  4.28700 4.43400 43.68600
H  2.74800 4.15400 44.35100
H  2.86400 4.87900 42.67800
H  6.81400 2.26700 41.87500
H  5.52800 3.20300 41.16100
H  4.66900 0.53800 40.80300
H  6.31800 0.57700 40.35100
H  -2.99300 1.81900 42.01100
H  -1.34700 2.33800 41.56500
H  -2.14700 2.85900 43.08700
H  -3.59000 -2.38200 44.62000
H  -5.25800 -1.70200 44.69800
H  -4.18400 -1.32500 45.93100
H  -1.03500 -4.92900 45.98500
H  1.39100 -5.64200 47.30200
H  -0.22400 -4.51100 48.67200
H  -1.66600 -4.92700 47.97200
H  -1.37300 -3.12800 48.17400
H  1.99800 -5.68100 44.57300
H  0.32000 -6.30100 44.84900
H  1.12000 -8.28900 45.25900
H  1.83800 -7.68600 46.82500
H  2.78500 -7.71200 45.34000
H  5.92200 -5.38900 46.06900
H  6.81900 -4.15900 47.16400
H  7.40800 -4.64000 45.53300
H  7.29000 -0.14900 42.66400
H  9.72100 2.06200 45.21600
H  8.99600 3.37700 44.31400
H  10.36400 2.76500 43.67500
Mg 24.69900 -7.59200 48.17400
C  27.03100 -5.29300 47.06300
C  22.38200 -6.53400 45.80800
C  22.74400 -10.12000 49.06400
C  27.36400 -9.28100 49.97300
N  24.71800 -6.19500 46.57900
C  25.78500 -5.32600 46.36500
C  25.38800 -4.36300 45.22400
C  23.85300 -4.48300 45.16400
C  23.65300 -5.86900 45.80400
C  22.97800 -3.43800 45.87200
C  26.06800 -4.81900 43.94800
C  26.66800 -3.65800 43.28100
H  25.72900 -2.59300 42.72400
N  22.76200 -8.18200 47.51200
C  22.00700 -7.66000 46.51600
C  20.81900 -8.38900 46.37100
C  20.79100 -9.41800 47.36700
C  22.13400 -9.30200 48.04900
C  19.71700 -8.13100 45.35000
C  19.71500 -10.45900 47.57100
O  18.65300 -10.48000 46.95500
C  19.84200 -11.49700 48.71300
N  25.14800 -9.57700 49.16100
C  24.00400 -10.22100 49.56100
C  24.25300 -11.22000 50.68500
C  25.81900 -11.15100 50.77500
C  26.12200 -9.94100 49.94600
C  23.58500 -11.00300 52.06600
C  26.57500 -12.45900 50.37900
C  27.46400 -12.50100 49.05000
N  26.73200 -7.33000 48.51000
C  27.64600 -8.08600 49.30400
C  28.90900 -7.27600 49.21500
C  28.68900 -6.17100 48.41000
C  27.37500 -6.20900 47.98100
C  30.20900 -7.73500 49.75600
C  29.27800 -4.95200 47.90600
O  30.39900 -4.47400 48.13400
C  28.25200 -4.47100 46.82800
C  28.02600 -3.03700 47.01200
O  27.48700 -2.46800 47.96800
O  28.55100 -2.41500 45.97000
C  28.25200 -0.97900 45.82600
H  21.49200 -6.11000 45.33900
H  22.17000 -10.88000 49.59800
H  28.08600 -9.80800 50.60000
H  25.75900 -3.36500 45.45700
H  23.58000 -4.52600 44.10900
H  22.51200 -3.87300 46.75700
H  22.24000 -2.98900 45.20700
H  23.62900 -2.66600 46.28100
H  25.40100 -5.42300 43.33300
H  26.89600 -5.47700 44.21500
H  27.30700 -4.14000 42.54000
H  27.44100 -3.21400 43.90900
H  20.02300 -8.88800 44.62700
H  19.87300 -7.18100 44.84100
H  18.66000 -8.34500 45.51000
H  20.40900 -12.26500 48.18700
H  18.82400 -11.86800 48.82800
H  20.14100 -11.04600 49.66000
H  23.97200 -12.23400 50.40000
H  26.13600 -10.99000 51.80500
H  23.21900 -9.99000 52.23200
H  24.09600 -11.23700 53.00100
H  22.66800 -11.59100 52.05100
H  25.75500 -13.17000 50.28000
H  27.17500 -12.75700 51.23800
H  27.43200 -13.56800 48.83100
H  28.48500 -12.17200 49.24300
H  27.14600 -12.11800 48.08000
H  31.12000 -7.74500 49.15700
H  30.01200 -8.67900 50.26400
H  30.63900 -7.08200 50.51500
H  28.53400 -4.66200 45.79300
H  29.29600 -0.66600 45.81300
H  27.78100 -0.51500 46.69200
H  27.61700 -0.83000 44.95200

