158

Mg 49.72700 36.48400 27.52400
C  47.26300 34.84800 29.43100
C  50.05100 38.67400 29.97800
C  51.30000 38.35000 25.30500
C  48.72600 34.33900 24.72200
N  48.61400 36.77500 29.45800
C  47.99000 35.77100 30.13800
C  48.08000 36.03500 31.61200
C  48.60100 37.51100 31.73900
C  49.17700 37.72300 30.34500
C  47.52300 38.61100 32.02100
C  48.95200 35.02400 32.39700
C  48.65100 34.85700 33.87200
H  47.79400 35.94000 34.54700
N  50.55000 38.28400 27.62200
C  50.68000 39.03100 28.76400
C  51.57400 40.15200 28.50500
C  51.93000 40.04400 27.13500
C  51.25100 38.86300 26.59700
C  51.98400 41.12500 29.56400
C  52.76500 41.05600 26.32300
O  52.91400 40.96300 25.08800
C  53.62500 42.23700 27.02800
N  49.90400 36.41600 25.23500
C  50.61700 37.31700 24.63800
C  50.90700 37.01600 23.16500
C  50.35600 35.54200 23.05600
C  49.58000 35.37300 24.41500
C  50.16300 37.99000 22.15900
C  51.39700 34.34700 23.01700
C  51.02100 33.01100 22.31100
N  48.35900 34.85500 27.06000
C  48.06200 34.09100 25.92700
C  47.18000 33.02100 26.31200
C  46.70200 33.33600 27.63700
C  47.49700 34.49900 28.04100
C  46.76700 31.92100 25.40800
C  45.78200 32.96100 28.66600
O  45.02800 32.00600 28.76100
C  46.14000 34.00000 29.86100
C  46.21600 33.33400 31.18500
O  46.74500 32.25600 31.38600
O  45.41900 34.01300 32.07800
C  45.30800 33.36200 33.44600
H  50.36200 39.36600 30.76300
H  51.87900 38.85100 24.52700
H  48.50400 33.66200 23.89400
H  47.07100 35.93300 32.01100
H  49.32800 37.58300 32.54700
H  46.52700 38.24500 32.27200
H  47.51500 39.37300 31.24100
H  47.82200 39.07700 32.96000
H  50.02200 35.19200 32.27400
H  48.77900 34.02700 31.99300
H  49.62600 34.93400 34.35500
H  48.33400 33.84300 34.11400
H  51.53400 40.94200 30.54000
H  51.70900 42.13300 29.25400
H  53.06900 41.08800 29.65900
H  53.00600 42.95100 27.57100
H  54.12300 42.89300 26.31400
H  54.33900 41.77600 27.71000
H  51.98400 37.13400 23.04600
H  49.56300 35.34600 22.33400
H  50.75900 38.05600 21.24800
H  50.05400 38.93300 22.69400
H  49.17000 37.62000 21.90300
H  51.66400 34.00600 24.01700
H  52.28600 34.75300 22.53400
H  51.59200 32.81300 21.40400
H  49.97700 32.91500 22.01200
H  51.25000 32.07300 22.81600
H  46.24300 31.06500 25.83200
H  47.65100 31.46200 24.96700
H  46.24400 32.28100 24.52300
H  45.33600 34.72400 29.99100
H  44.47400 32.66300 33.51700
H  45.02300 34.20200 34.08000
H  46.22900 32.98300 33.88800
Mg -1.76100 33.84900 27.46700
C  -3.68000 32.31000 29.91000
C  -0.40800 35.82400 29.86300
C  -0.29200 35.75400 25.04300
C  -3.52600 32.21900 24.88000
N  -2.06700 34.00700 29.61800
C  -2.76700 33.18900 30.50400
C  -2.61900 33.63500 31.98300
C  -1.65900 34.83900 31.86100
C  -1.38500 34.94900 30.36700
C  -2.15700 36.21600 32.35900
C  -2.16300 32.46700 32.96000
C  -1.43300 32.95500 34.30100
H  -1.59700 32.19000 35.64700
N  -0.43300 35.50900 27.46600
C  0.06800 36.04500 28.54500
C  1.09200 37.00000 28.18200
C  1.06000 37.12400 26.80700
C  0.07200 36.16400 26.34800
C  1.98800 37.58100 29.21500
C  1.96800 37.85300 25.84600
O  1.82100 37.71400 24.65900
C  3.00300 38.80400 26.30100
N  -1.92100 34.04400 25.29200
C  -1.19000 34.85100 24.55200
C  -1.66100 34.77900 23.12500
C  -2.28300 33.37600 22.94900
C  -2.59200 33.13100 24.47000
C  -2.49700 36.06100 22.73100
C  -1.28200 32.18100 22.46400
C  0.18400 32.05900 22.96100
N  -3.34500 32.54800 27.38300
C  -3.95500 31.92800 26.28200
C  -4.89700 31.05600 26.77300
C  -4.87000 31.13700 28.16900
C  -3.86100 32.05100 28.49400
C  -5.75800 30.24400 25.92900
C  -5.42500 30.60700 29.42400
O  -6.24700 29.74000 29.64600
C  -4.72500 31.38400 30.50800
C  -5.82400 32.18700 31.19600
O  -6.69000 32.91300 30.69400
O  -5.74100 31.80700 32.49100
C  -6.84300 32.27300 33.35100
H  0.06200 36.32600 30.71100
H  0.08700 36.35500 24.21400
H  -4.08300 31.67700 24.11300
H  -3.64200 33.90500 32.24300
H  -0.66900 34.66900 32.28200
H  -1.34300 36.76800 32.83000
H  -2.83100 35.97400 33.18100
H  -2.64500 36.79600 31.57600
H  -1.46500 31.80500 32.44700
H  -3.02000 31.82300 33.15600
H  -1.75700 33.94300 34.62900
H  -0.36700 33.00300 34.08100
H  2.82000 36.94800 29.52300
H  1.36700 37.75400 30.09400
H  2.34200 38.56900 28.92100
H  3.77800 38.38900 26.94500
H  2.53100 39.68600 26.73300
H  3.41800 39.20300 25.37500
H  -0.86700 34.82500 22.37900
H  -3.18800 33.36300 22.34200
H  -2.39000 36.85800 23.46500
H  -3.53500 35.80600 22.51700
H  -2.12900 36.45600 21.78400
H  -1.37700 32.30100 21.38500
H  -1.89000 31.31700 22.73100
H  0.91200 32.27000 22.17800
H  0.38800 31.06400 23.35800
H  0.41400 32.72800 23.79100
H  -6.51000 30.89200 25.48000
H  -6.32700 29.61600 26.61500
H  -5.21000 29.68100 25.17400
H  -4.36900 30.66100 31.24200
H  -7.55500 32.91500 32.83100
H  -6.42300 32.78800 34.21500
H  -7.43000 31.40300 33.64500

