158

Mg 25.95900 0.12400 28.69900
C  27.71200 -0.36000 31.72300
C  23.04400 0.52700 30.59300
C  24.22500 0.43700 25.77800
C  28.81800 -0.69700 27.02500
N  25.47800 -0.01400 30.86800
C  26.42000 0.02700 31.91600
C  25.77300 0.34700 33.25700
C  24.18400 0.29900 32.87800
C  24.21700 0.25100 31.34200
C  23.30500 -0.85500 33.56000
C  26.34600 1.62100 34.00600
C  26.99200 1.38100 35.37700
H  26.67700 2.30600 36.55200
N  23.98100 0.45300 28.25400
C  22.89900 0.57000 29.19000
C  21.69400 0.86200 28.42200
C  21.98700 0.80000 27.01900
C  23.43800 0.59100 26.95900
C  20.38900 1.17600 29.11900
C  21.09500 1.04300 25.77200
O  21.43900 0.86900 24.58200
C  19.58500 1.40900 25.99300
N  26.45500 -0.15300 26.74000
C  25.53700 -0.07300 25.68400
C  26.22200 -0.55200 24.42900
C  27.78300 -0.60400 24.80200
C  27.69800 -0.41300 26.26600
C  25.76100 -1.87900 23.86000
C  28.69300 0.51000 24.13300
C  29.99300 -0.03200 23.52800
N  27.98000 -0.47600 29.22900
C  29.01900 -0.74200 28.43900
C  30.24100 -0.96800 29.25300
C  29.77300 -0.82400 30.54300
C  28.36800 -0.57200 30.47300
C  31.63400 -1.16900 28.77400
C  30.08700 -0.87200 31.97700
O  31.15200 -1.14100 32.57300
C  28.74700 -0.45800 32.71800
C  28.45800 -1.50200 33.82500
O  27.90400 -2.54400 33.69800
O  29.22200 -1.23300 34.95800
C  29.11300 -2.14500 36.09400
H  22.15900 0.78200 31.18000
H  23.72500 0.56100 24.81500
H  29.70200 -0.91400 26.42200
H  26.01700 -0.58900 33.75800
H  23.74800 1.22100 33.26400
H  22.77700 -1.47700 32.83800
H  22.52400 -0.21300 33.96900
H  23.86800 -1.42800 34.29700
H  25.49700 2.26100 34.24800
H  27.02100 2.13600 33.32200
H  28.06100 1.48500 35.19100
H  26.73200 0.36800 35.68400
H  20.29300 2.26100 29.14600
H  20.46600 0.86400 30.16100
H  19.58400 0.73400 28.53300
H  19.07000 0.64100 26.57100
H  19.15000 1.57900 25.00800
H  19.62100 2.36100 26.52200
H  26.16200 0.21300 23.65400
H  28.28400 -1.56900 24.71800
H  24.80000 -2.22800 24.23900
H  26.53900 -2.63000 23.99400
H  25.63800 -1.85200 22.77700
H  29.05300 1.28400 24.81000
H  28.17500 0.99400 23.30500
H  29.94600 -0.52000 22.55400
H  30.53700 -0.77700 24.10800
H  30.69100 0.80500 23.55500
H  31.87600 -2.15100 29.18000
H  32.42900 -0.48400 29.06900
H  31.73100 -1.25300 27.69200
H  28.92800 0.49600 33.21500
H  30.05000 -2.18400 36.65000
H  28.76900 -3.14300 35.82300
H  28.35300 -1.69600 36.73300
Mg 52.38900 24.06100 44.19600
C  49.35600 25.99100 43.88400
C  50.49500 21.21700 44.06100
C  55.29500 22.39200 43.76700
C  54.19800 27.15900 43.99300
N  50.13500 23.66400 43.86300
C  49.10100 24.55100 43.91600
C  47.71300 23.86000 43.85100
C  48.16700 22.41900 44.30000
C  49.69000 22.40900 43.99700
C  47.97800 22.04400 45.79100
C  47.04400 23.97500 42.43800
C  47.96800 23.58800 41.22400
H  47.40900 23.79600 39.83600
N  52.75000 22.06900 43.89600
C  51.88500 21.07100 43.98100
C  52.61600 19.79300 43.78600
C  53.99100 20.13300 43.66500
C  54.09600 21.56400 43.83900
C  52.00300 18.43600 43.87400
C  55.11500 19.06000 43.44200
O  54.82400 17.84900 43.30500
C  56.54400 19.35900 43.38300
N  54.45700 24.67800 43.78400
C  55.46800 23.80700 43.76300
C  56.85700 24.47500 43.88900
C  56.48600 26.04600 43.72200
C  54.95500 25.95500 43.83200
C  57.66100 24.02900 45.16100
C  57.04900 26.64900 42.39900
C  58.02600 27.84800 42.59400
N  51.93900 26.13000 44.12900
C  52.81300 27.24800 44.13000
C  51.96900 28.42100 44.24000
C  50.63900 27.96900 44.05800
C  50.64400 26.57000 44.02600
C  52.36800 29.83300 44.23700
C  49.23900 28.50100 43.92600
O  48.77700 29.55500 43.72200
C  48.44000 27.16700 43.73400
C  47.80400 27.23400 42.42800
O  48.35400 27.24200 41.34600
O  46.39700 27.54900 42.63100
C  45.76000 28.13400 41.46800
H  49.92900 20.29400 44.20000
H  56.24900 21.86100 43.79000
H  54.74200 28.06700 44.26400
H  47.07500 24.39000 44.55900
H  47.71100 21.69700 43.62200
H  47.40600 22.88300 46.18600
H  48.97900 21.96900 46.21600
H  47.50800 21.06500 45.88500
H  46.46300 24.88900 42.32100
H  46.34900 23.13600 42.39600
H  47.95700 22.51500 41.41700
H  48.90000 24.10700 41.44600
H  52.43000 17.73800 43.15300
H  50.92600 18.51100 43.72400
H  52.25700 18.04100 44.85800
H  57.22900 18.51100 43.36800
H  56.82100 20.02100 44.20300
H  56.80700 19.92100 42.48700
H  57.44500 24.00000 43.10400
H  56.89900 26.54600 44.59800
H  57.01500 23.58800 45.92000
H  58.13700 24.92000 45.56900
H  58.46200 23.32800 44.92700
H  56.26100 26.94100 41.70500
H  57.65000 25.96800 41.79700
H  59.02400 27.46900 42.37300
H  57.82600 28.38300 43.52200
H  57.92800 28.63800 41.84900
H  53.31700 29.98200 44.75200
H  51.70600 30.50700 44.77900
H  52.40600 30.16100 43.19800
H  47.61200 27.23400 44.44000
H  46.26300 29.04600 41.14800
H  44.74800 28.33800 41.81800
H  45.85700 27.52400 40.57000

