158

Mg 16.86500 52.04700 26.77800
C  18.78600 50.46300 29.23200
C  14.58500 52.95600 29.09300
C  15.16600 53.34800 24.22100
C  18.90100 50.32700 24.34400
N  16.67500 51.59500 28.88100
C  17.62700 51.08700 29.75600
C  17.22400 51.35900 31.26800
C  15.78200 51.92200 31.12200
C  15.62700 52.18400 29.63300
C  14.74100 50.95900 31.74900
C  18.26300 52.40500 31.77300
C  18.49000 52.36800 33.25800
H  17.56000 51.51500 34.12800
N  15.31000 53.24800 26.68900
C  14.47200 53.53100 27.78600
C  13.38800 54.43100 27.32100
C  13.61000 54.66100 25.88600
C  14.72800 53.74300 25.51000
C  12.41700 55.05300 28.18600
C  12.73900 55.46600 24.94300
O  12.68100 55.31000 23.71400
C  11.68700 56.43700 25.50500
N  17.09900 52.01600 24.63800
C  16.16100 52.59300 23.82500
C  16.45600 52.20800 22.31500
C  17.74100 51.29700 22.34900
C  17.98100 51.26300 23.86200
C  15.28900 51.51500 21.48200
C  18.94200 51.76800 21.45500
C  19.61000 53.08000 21.72700
N  18.48300 50.67100 26.77600
C  19.12200 50.04900 25.72600
C  20.24900 49.29300 26.27500
C  20.11800 49.41300 27.65000
C  19.05300 50.26400 27.90600
C  21.19100 48.54500 25.51100
C  20.79500 49.10900 28.93500
O  21.83100 48.58100 29.22200
C  19.91600 49.85000 29.98200
C  19.49500 48.81400 30.96200
O  18.76000 47.82400 30.73800
O  20.03300 49.07500 32.20900
C  19.70100 48.07900 33.18900
H  13.81800 53.26100 29.80700
H  14.74700 53.73500 23.29000
H  19.50700 49.90800 23.53800
H  17.36000 50.41700 31.80000
H  15.58500 52.88700 31.58800
H  15.03700 50.34900 32.60200
H  14.27000 50.27700 31.04100
H  13.92300 51.56300 32.14200
H  17.79100 53.34200 31.47800
H  19.11900 52.41600 31.09700
H  18.41700 53.36900 33.68200
H  19.53600 52.09100 33.39200
H  12.66800 54.92200 29.23800
H  11.48200 54.56400 27.91500
H  12.34100 56.12400 27.99300
H  10.88300 55.96300 26.06800
H  11.42900 57.02700 24.62600
H  12.27200 57.17500 26.05400
H  16.74700 53.11300 21.78100
H  17.47100 50.29600 22.01200
H  15.71900 51.16800 20.54200
H  14.47600 52.16900 21.16800
H  14.96000 50.60800 21.98900
H  18.72900 51.61200 20.39700
H  19.77800 51.08400 21.60000
H  20.66800 52.93700 21.94600
H  19.21200 53.52600 22.63900
H  19.61600 53.77800 20.89000
H  20.51000 47.89500 24.96100
H  21.84600 47.90800 26.10600
H  21.65500 49.28800 24.86200
H  20.50300 50.63600 30.45800
H  20.30400 47.17200 33.13800
H  18.67100 47.74400 33.06100
H  19.72800 48.55700 34.16800
Mg -12.20800 16.22100 42.20000
C  -9.01500 14.93800 41.29200
C  -11.29400 19.13600 40.77800
C  -15.46200 17.19000 42.41000
C  -13.12400 12.92000 42.83100
N  -10.43400 16.82500 40.99100
C  -9.20500 16.20200 40.76100
C  -8.16400 17.10300 40.14000
C  -8.86000 18.49000 40.09600
C  -10.31200 18.13200 40.57600
C  -8.18000 19.57900 41.00700
C  -7.64200 16.49800 38.81200
C  -6.13300 16.56300 38.62900
H  -5.54300 17.44500 37.43900
N  -13.27100 17.90200 41.72300
C  -12.67100 18.98900 41.26900
C  -13.63800 20.07200 41.13100
C  -14.88500 19.50700 41.49400
C  -14.60500 18.16100 41.92800
C  -13.30700 21.42300 40.55600
C  -16.31000 20.16700 41.34400
O  -16.45700 21.36400 41.03700
C  -17.55600 19.38000 41.68200
N  -14.05600 15.25500 42.47200
C  -15.25100 15.81100 42.62800
C  -16.34900 14.85200 43.24800
C  -15.62600 13.44300 43.06400
C  -14.11100 13.90800 42.84000
C  -16.57800 15.16600 44.82400
C  -16.06300 12.78200 41.74300
C  -17.03300 11.59000 41.76200
N  -11.22100 14.34200 42.35600
C  -11.74500 13.09900 42.61000
C  -10.73000 12.06300 42.60900
C  -9.61500 12.78500 42.15700
C  -9.97000 14.13500 42.00100
C  -10.95200 10.61600 42.84200
C  -8.23500 12.65400 41.77100
O  -7.49700 11.69200 41.78900
C  -7.74100 14.05400 41.24500
C  -6.58900 14.55000 42.01400
O  -6.64200 15.03000 43.15300
O  -5.41400 14.47900 41.31800
C  -4.23400 14.99000 42.03900
H  -10.93300 20.04600 40.29300
H  -16.48300 17.44900 42.70000
H  -13.38700 11.89300 43.09400
H  -7.37000 17.06400 40.88600
H  -9.08900 18.90300 39.11400
H  -7.16700 19.36400 41.34700
H  -8.90600 19.64400 41.81800
H  -8.03900 20.45000 40.36700
H  -8.00500 17.07400 37.96100
H  -7.95800 15.45500 38.77300
H  -5.92400 15.56200 38.25200
H  -5.63900 16.76700 39.57800
H  -13.22200 21.33700 39.47300
H  -12.34300 21.86100 40.81400
H  -14.10800 22.11300 40.81900
H  -18.36900 20.09200 41.54200
H  -17.42600 19.24400 42.75600
H  -17.65700 18.42200 41.17100
H  -17.26000 14.94200 42.65800
H  -15.79500 12.88800 43.98700
H  -15.78200 15.73200 45.30700
H  -16.87500 14.25800 45.35100
H  -17.48100 15.77700 44.81600
H  -15.21100 12.41100 41.17300
H  -16.56400 13.54100 41.14300
H  -17.84800 11.81700 41.07500
H  -17.44700 11.45800 42.76200
H  -16.43900 10.75900 41.38100
H  -11.59600 10.46600 43.70900
H  -10.07700 9.99600 43.03800
H  -11.47500 10.21600 41.97400
H  -7.43700 13.86300 40.21600
H  -3.37500 14.71200 41.42800
H  -4.14800 14.47900 42.99800
H  -4.13600 16.07300 42.10300

