158

Mg -1.68100 17.35600 26.86300
C  -2.34500 15.38100 29.63200
C  -2.36600 20.05800 28.76500
C  -1.46100 19.31700 24.08600
C  -1.65000 14.48000 24.89800
N  -2.14300 17.72300 29.00400
C  -2.27700 16.74700 30.02300
C  -2.56100 17.42700 31.42700
C  -2.79900 18.89000 31.04800
C  -2.41100 18.86900 29.48800
C  -4.29800 19.49300 31.29600
C  -1.41000 17.25900 32.46600
C  -1.84600 16.78600 33.88300
H  -0.87000 16.80300 35.06300
N  -1.75400 19.42700 26.50300
C  -2.04100 20.34300 27.43700
C  -2.01500 21.62300 26.87300
C  -1.64600 21.50900 25.47000
C  -1.52900 20.06300 25.29300
C  -2.11000 22.88400 27.74100
C  -1.35400 22.58700 24.43500
O  -1.05200 22.24700 23.27000
C  -1.74900 23.98600 24.65400
N  -1.45600 16.96900 24.83000
C  -1.37900 17.96900 23.86600
C  -1.12100 17.32300 22.53700
C  -0.98700 15.81000 22.86700
C  -1.47300 15.71700 24.27300
C  -2.21600 17.55000 21.48500
C  0.48100 15.25500 22.63700
C  1.61800 15.66100 23.61900
N  -1.93500 15.33900 27.15000
C  -1.87400 14.30200 26.26400
C  -2.11300 13.07200 26.90500
C  -2.21000 13.41700 28.22700
C  -2.18600 14.82400 28.33500
C  -2.22400 11.68500 26.35300
C  -2.49600 12.90700 29.59500
O  -2.72000 11.76800 29.96600
C  -2.66100 14.15600 30.49500
C  -1.65300 13.78600 31.64000
O  -0.48200 13.99400 31.53900
O  -2.32100 13.25300 32.74200
C  -1.51300 12.95900 33.95800
H  -2.62000 20.94100 29.35500
H  -1.60800 19.93700 23.19900
H  -1.74200 13.60600 24.25000
H  -3.47000 17.04500 31.89200
H  -2.17600 19.55200 31.64900
H  -5.01500 18.77700 31.69700
H  -4.72700 19.96800 30.41400
H  -4.12100 20.27500 32.03500
H  -0.87700 18.20200 32.58500
H  -0.65400 16.65900 31.96000
H  -2.17400 15.75400 33.75700
H  -2.68000 17.42300 34.17600
H  -3.12700 23.27500 27.76400
H  -1.49800 23.71300 27.38600
H  -1.73200 22.82400 28.76100
H  -1.79800 24.63900 23.78300
H  -1.07000 24.41100 25.39300
H  -2.72400 24.00700 25.14100
H  -0.13600 17.66600 22.22000
H  -1.73700 15.23800 22.32000
H  -1.79700 17.47600 20.48100
H  -2.52900 18.59200 21.55500
H  -3.03800 16.87400 21.71700
H  0.75100 15.42100 21.59400
H  0.36800 14.17600 22.73800
H  1.27000 16.37600 24.36400
H  2.26100 16.30700 23.02100
H  2.19500 14.78700 23.92100
H  -1.76200 11.65200 25.36600
H  -3.31200 11.64100 26.30600
H  -1.83500 10.86600 26.95900
H  -3.63200 14.22400 30.98500
H  -1.30700 13.87100 34.51900
H  -0.49000 12.62800 33.78000
H  -1.91000 12.14900 34.57000
Mg 54.50700 23.35200 43.60300
C  51.87600 25.54800 42.92200
C  52.39500 20.72500 43.02600
C  57.20600 21.46900 43.42000
C  56.63200 26.22200 43.98400
N  52.45900 23.21700 43.06100
C  51.56400 24.16700 42.89700
C  50.22500 23.55500 42.38300
C  50.26800 22.11400 42.93000
C  51.80500 22.00900 43.04500
C  49.51300 21.88900 44.25800
C  50.03700 23.64900 40.85100
C  48.78900 24.22900 40.29300
H  48.74200 24.81500 38.80600
N  54.79000 21.40100 43.23000
C  53.78900 20.44700 43.08300
C  54.38800 19.14300 42.84800
C  55.78400 19.36400 42.98500
C  56.00900 20.77900 43.23500
C  53.59400 17.83600 42.68100
C  56.71800 18.23600 42.83400
O  56.38300 17.03800 42.64300
C  58.10100 18.50900 42.76600
N  56.60200 23.85500 43.41900
C  57.47300 22.81400 43.45200
C  58.92300 23.34700 43.67700
C  58.84900 24.92100 43.80700
C  57.28000 25.03000 43.76900
C  59.58800 22.63500 44.88900
C  59.60400 25.69800 42.70900
C  60.15900 27.06500 43.07000
N  54.32400 25.50700 43.66300
C  55.23800 26.49000 43.86000
C  54.57400 27.72100 43.87400
C  53.24200 27.43200 43.44200
C  53.15800 26.06100 43.36300
C  55.20100 29.10900 43.93600
C  51.85900 27.92200 43.20800
O  51.41200 29.05300 43.31500
C  50.96000 26.72400 42.65700
C  50.72600 27.08300 41.28300
O  51.49800 27.07800 40.28200
O  49.38500 27.48200 41.05500
C  49.15600 28.03500 39.74100
H  51.65600 19.93100 42.89800
H  58.07900 20.81900 43.51500
H  57.24200 27.12700 44.00800
H  49.43900 24.14300 42.85500
H  49.94600 21.41600 42.15800
H  49.50100 22.73300 44.94700
H  49.90600 21.03600 44.81100
H  48.44400 21.71900 44.12700
H  50.08000 22.66400 40.38700
H  50.91800 24.18500 40.49500
H  48.41500 24.96600 41.00300
H  48.00400 23.47400 40.34400
H  54.04000 17.07000 42.04700
H  52.58500 17.93900 42.28200
H  53.53600 17.40000 43.67900
H  58.20200 19.37800 42.11600
H  58.64900 17.72500 42.24400
H  58.60700 18.85300 43.66800
H  59.44500 23.23400 42.72600
H  59.03000 25.26700 44.82400
H  59.34900 23.24300 45.76200
H  60.64500 22.80400 44.68400
H  59.36300 21.58200 45.05700
H  58.94700 25.69300 41.83900
H  60.42300 25.04700 42.40400
H  61.11200 27.07000 42.54000
H  60.31400 27.14500 44.14600
H  59.47800 27.81500 42.66600
H  55.78200 29.31100 43.03600
H  55.91100 29.13400 44.76200
H  54.35200 29.77200 44.10300
H  50.00600 26.70800 43.18400
H  49.57700 27.35400 39.00000
H  49.75600 28.93700 39.62100
H  48.10900 28.31500 39.62600

