158

Mg 42.46000 41.90600 26.85000
C  41.32600 44.09300 29.33700
C  43.15400 39.66300 29.25300
C  43.74400 39.92300 24.48600
C  42.09900 44.43000 24.47200
N  42.20000 41.83200 29.04400
C  41.63800 42.82900 29.81300
C  41.57400 42.38000 31.24500
C  42.22300 40.92400 31.22800
C  42.56400 40.81500 29.77900
C  43.37200 40.65200 32.28500
C  40.15100 42.39400 31.84900
C  39.80200 43.15800 33.07600
H  39.33700 42.27400 34.24800
N  43.33700 40.06600 26.85800
C  43.44200 39.20700 27.95000
C  44.10400 37.99400 27.63600
C  44.34900 38.14000 26.25700
C  43.85800 39.43900 25.79800
C  44.52700 36.92200 28.60800
C  44.95200 37.10600 25.27300
O  45.22400 37.24600 24.05700
C  45.30200 35.84700 25.79900
N  42.71100 42.07000 24.72400
C  43.21600 41.10300 23.96200
C  43.20400 41.54700 22.44100
C  42.58200 42.98100 22.51300
C  42.44600 43.15900 23.99300
C  44.56600 41.35800 21.66900
C  41.23100 43.06100 21.74700
C  41.22800 43.60700 20.25800
N  41.81400 43.84300 26.82700
C  41.79400 44.73100 25.79400
C  41.37600 45.98400 26.37900
C  41.12100 45.76500 27.70000
C  41.39500 44.45300 27.99700
C  41.23500 47.24700 25.70400
C  40.66400 46.36800 29.03800
O  40.30300 47.50500 29.34100
C  40.78800 45.31200 30.11900
C  41.82500 45.88600 31.05200
O  43.00600 46.11700 30.67300
O  41.21300 46.33400 32.18700
C  42.17100 46.83600 33.17700
H  43.19100 38.86400 29.99700
H  43.95600 39.21900 23.67700
H  42.08400 45.30900 23.82500
H  42.27500 42.97200 31.83400
H  41.45900 40.14900 31.28300
H  43.51700 41.43900 33.02500
H  44.28800 40.70700 31.69700
H  43.41000 39.67700 32.77000
H  39.76100 41.40000 32.06800
H  39.66400 42.99000 31.07700
H  39.02500 43.87400 32.80700
H  40.72600 43.57200 33.48000
H  43.97800 35.98800 28.48800
H  44.47800 37.33000 29.61700
H  45.57700 36.68300 28.43900
H  45.41100 35.09400 25.01900
H  44.56900 35.33200 26.42000
H  46.23200 35.98300 26.35100
H  42.48300 40.86500 21.98900
H  43.33700 43.67000 22.13400
H  45.14300 42.27500 21.78300
H  44.35400 41.35700 20.60000
H  45.24400 40.56800 21.99100
H  40.54500 43.64700 22.36000
H  40.76600 42.07600 21.74300
H  42.08100 44.25000 20.04100
H  40.28600 44.14500 20.15300
H  41.25700 42.72700 19.61600
H  41.77300 47.34200 24.76100
H  41.35400 48.10500 26.36600
H  40.16900 47.22500 25.47500
H  39.78700 45.28800 30.54900
H  42.89100 47.58500 32.84800
H  42.68400 45.95200 33.55600
H  41.82100 47.38000 34.05400
Mg -12.81200 16.68000 41.77100
C  -9.77200 15.03900 41.27300
C  -11.42300 19.60400 40.56900
C  -15.88300 17.94000 41.53700
C  -14.26300 13.50800 42.68500
N  -10.86600 17.16300 40.80700
C  -9.73100 16.36900 40.90200
C  -8.57100 17.22200 40.47100
C  -9.12400 18.62100 40.17600
C  -10.55300 18.51000 40.63400
C  -8.33800 19.79500 40.83200
C  -7.68900 16.55600 39.42300
C  -6.11900 16.48300 39.66400
H  -5.37500 15.34700 39.01900
N  -13.45400 18.53100 41.27000
C  -12.75700 19.59600 40.77700
C  -13.65500 20.70200 40.50900
C  -15.00000 20.31200 40.84500
C  -14.78900 18.83900 41.26100
C  -13.12600 22.02500 40.00100
C  -16.29300 21.21500 40.81800
O  -16.29800 22.35400 40.35700
C  -17.65300 20.75700 41.51800
N  -14.80200 15.79600 42.28100
C  -15.91300 16.57400 41.97400
C  -17.16500 15.71100 42.06600
C  -16.63300 14.36500 42.48000
C  -15.10500 14.52300 42.41000
C  -18.45900 16.36900 42.78700
C  -17.24900 13.25600 41.64800
C  -17.49600 11.84800 42.32200
N  -12.24500 14.76400 41.96300
C  -12.90100 13.59300 42.40100
C  -11.92200 12.59100 42.65200
C  -10.70300 13.13400 42.18100
C  -10.91500 14.37600 41.72300
C  -12.20100 11.12300 43.16600
C  -9.31300 12.76900 42.04300
O  -8.68400 11.73800 42.15400
C  -8.68000 14.02000 41.42300
C  -7.68900 14.45700 42.46900
O  -7.91600 15.14600 43.46500
O  -6.51500 13.85600 42.15100
C  -5.47500 13.93600 43.23900
H  -10.90700 20.47900 40.16800
H  -16.87600 18.30300 41.26800
H  -14.65000 12.53600 42.99700
H  -7.87600 17.44400 41.28100
H  -9.06300 18.96800 39.14400
H  -7.38200 19.51500 41.27400
H  -8.92700 20.29500 41.60000
H  -8.00300 20.45300 40.03000
H  -7.70300 17.14000 38.50300
H  -8.10800 15.59300 39.13400
H  -6.03400 16.32900 40.73900
H  -5.61900 17.41600 39.40600
H  -13.89000 22.73600 39.68500
H  -12.54900 21.73400 39.12300
H  -12.52900 22.42000 40.82300
H  -18.31600 21.49900 41.96300
H  -17.41000 20.13000 42.37500
H  -18.23500 20.26900 40.73600
H  -17.45300 15.58400 41.02200
H  -16.68100 14.19200 43.55500
H  -18.75500 15.86200 43.70500
H  -19.27600 16.25300 42.07500
H  -18.37900 17.44000 42.97300
H  -16.59600 13.09400 40.79000
H  -18.23700 13.53400 41.28000
H  -18.53400 11.69400 42.61500
H  -17.03400 11.81000 43.30900
H  -17.04000 11.13900 41.63100
H  -11.23600 10.66300 43.37700
H  -12.76100 10.51000 42.45900
H  -12.71500 11.09800 44.12600
H  -8.15300 13.66200 40.53900
H  -5.29800 14.98700 43.46500
H  -4.51200 13.66100 42.80800
H  -5.59400 13.34400 44.14600

