158

Mg 26.24800 1.81900 29.17000
C  27.96300 1.43600 32.10500
C  23.26900 1.76000 31.09500
C  24.39300 1.73200 26.32100
C  29.17400 1.26800 27.36300
N  25.75200 1.65300 31.34600
C  26.60800 1.57700 32.37500
C  25.95300 1.55200 33.73100
C  24.42500 1.37200 33.38100
C  24.44900 1.60900 31.83700
C  23.85500 -0.02700 33.85900
C  26.30300 2.81700 34.61300
C  26.88100 2.48900 35.96600
H  26.85600 3.54900 37.10000
N  24.14500 1.88700 28.71700
C  23.11000 1.86800 29.66200
C  21.82500 1.88500 28.92600
C  22.14300 1.96700 27.54700
C  23.59000 1.87600 27.46900
C  20.50000 1.94900 29.63600
C  21.22100 2.09200 26.38400
O  21.61300 2.10900 25.21900
C  19.66600 2.22200 26.60300
N  26.68400 1.36300 27.10900
C  25.75600 1.55100 26.12800
C  26.38500 1.58300 24.71600
C  27.90200 1.67500 25.10800
C  27.94200 1.47700 26.63400
C  26.06100 0.33400 23.84800
C  28.57500 3.02000 24.57700
C  28.21000 4.37300 25.14400
N  28.15500 1.39600 29.55600
C  29.30300 1.24000 28.74100
C  30.47900 1.14700 29.57700
C  30.02800 1.20400 30.92200
C  28.58100 1.36200 30.83300
C  31.88300 0.90800 29.20300
C  30.44500 1.20300 32.22600
O  31.58900 1.03400 32.61900
C  29.20500 1.41600 33.08800
C  29.03500 0.20600 34.09500
O  28.39300 -0.85400 34.04200
O  29.81100 0.56800 35.19800
C  29.68600 -0.31700 36.41000
H  22.33000 1.78200 31.65300
H  23.82300 1.74300 25.39000
H  30.03100 1.20100 26.69000
H  26.34400 0.63000 34.16200
H  23.85600 2.08700 33.97600
H  24.51100 -0.48900 34.59600
H  23.85400 -0.64700 32.96200
H  22.87400 0.06300 34.32400
H  25.43000 3.45500 34.75300
H  26.99500 3.45600 34.06300
H  27.91800 2.15200 35.96000
H  26.22900 1.72800 36.39500
H  20.47600 2.04800 30.72100
H  19.98200 1.08000 29.22900
H  20.02600 2.85100 29.24900
H  19.27200 1.43600 27.24800
H  19.08200 2.13900 25.68600
H  19.63900 3.23200 27.01200
H  26.13000 2.46300 24.12500
H  28.51200 0.83400 24.77700
H  26.92200 -0.23600 23.50000
H  25.69200 0.74400 22.90800
H  25.28800 -0.22300 24.37900
H  28.41200 3.13300 23.50500
H  29.65800 2.90200 24.55100
H  27.98300 5.01000 24.29000
H  29.01200 4.79200 25.75200
H  27.37900 4.35500 25.84900
H  32.03700 -0.10300 29.57900
H  32.43500 1.67500 29.74700
H  32.07500 0.95400 28.13100
H  29.34500 2.23000 33.79900
H  28.69600 -0.40000 36.85800
H  30.41400 0.11500 37.09800
H  30.01800 -1.30800 36.10200
Mg 30.70800 57.94300 39.47000
C  28.05000 56.02900 38.45000
C  32.81200 55.24900 38.52600
C  33.34000 59.82100 40.01400
C  28.42400 60.61300 39.73600
N  30.44400 55.97100 38.36300
C  29.22600 55.34300 38.18300
C  29.36700 53.85400 37.77400
C  30.88000 53.61300 38.11100
C  31.42000 55.07200 38.34700
C  31.16200 52.70100 39.35000
C  28.98200 53.49800 36.32000
C  29.35700 54.51900 35.17400
H  28.21700 55.08300 34.34300
N  32.73900 57.61400 39.37200
C  33.42800 56.45100 38.90600
C  34.80900 56.69400 39.04200
C  35.00900 57.94300 39.64800
C  33.66600 58.52200 39.75700
C  35.73100 55.54400 38.82300
C  36.37900 58.49900 40.07100
O  37.41300 57.86600 39.88800
C  36.56100 59.85300 40.73800
N  30.79300 59.97800 39.89500
C  32.05700 60.52400 40.05000
C  31.94000 62.12000 40.11300
C  30.38100 62.26900 40.14500
C  29.79300 60.87900 39.85600
C  32.75300 62.81800 41.32400
C  29.89100 63.31500 39.10200
C  29.91000 62.84100 37.55900
N  28.61400 58.27500 39.31200
C  27.83700 59.38400 39.55300
C  26.47600 58.99700 39.47200
C  26.46100 57.69500 39.05000
C  27.83700 57.30600 38.93400
C  25.27100 59.77700 39.80100
C  25.62700 56.57200 38.63900
O  24.43800 56.49300 38.55400
C  26.64200 55.41100 38.20200
C  26.19700 54.29500 39.16000
O  26.82600 53.92700 40.13200
O  25.00100 53.81000 38.66900
C  24.37000 52.82800 39.51800
H  33.38600 54.32300 38.45700
H  34.11500 60.58200 40.12100
H  27.73300 61.45800 39.72900
H  28.65800 53.35400 38.43400
H  31.40600 53.14000 37.28200
H  30.22000 52.32600 39.75100
H  31.77400 53.18700 40.11000
H  31.69000 51.77800 39.10900
H  27.91500 53.28100 36.26700
H  29.53500 52.58200 36.11300
H  30.04000 53.98200 34.51500
H  30.00200 55.25600 35.65100
H  36.78300 55.79500 38.96000
H  35.62900 55.15100 37.81100
H  35.48600 54.84200 39.62000
H  35.74000 60.04400 41.42900
H  36.52300 60.62000 39.96500
H  37.55300 59.75100 41.17900
H  32.29400 62.60000 39.20000
H  30.04600 62.43200 41.16900
H  33.50000 62.19300 41.81300
H  32.06000 63.03700 42.13700
H  33.20700 63.72900 40.93600
H  30.48000 64.23200 39.12100
H  28.89400 63.50500 39.49900
H  30.12200 63.72400 36.95500
H  28.91700 62.41100 37.43400
H  30.69400 62.12000 37.32700
H  25.16200 60.68800 39.21300
H  25.19900 59.95900 40.87400
H  24.46200 59.11000 39.50500
H  26.47900 55.08400 37.17500
H  24.01200 52.05000 38.84400
H  23.62300 53.37200 40.09600
H  25.01200 52.34600 40.25500

