158

Mg 2.07900 -1.85400 44.06900
C  5.52300 -1.04500 43.72800
C  1.37100 1.11100 42.34000
C  -1.18700 -2.97900 43.56500
C  2.88800 -4.99800 45.24600
N  3.31600 -0.29500 42.95000
C  4.70100 -0.10000 42.99700
C  5.16100 1.16200 42.29500
C  3.78700 1.91900 42.21300
C  2.71600 0.84700 42.49300
C  3.61500 3.10900 43.16900
C  5.78900 0.79800 40.88800
C  7.12400 1.50000 40.60000
H  7.18300 2.48700 39.41600
N  0.33200 -1.04200 43.11700
C  0.22200 0.24500 42.57000
C  -1.18200 0.47000 42.21400
C  -1.90400 -0.65300 42.71100
C  -0.91300 -1.62900 43.09200
C  -1.56600 1.71600 41.54300
C  -3.35400 -0.69700 42.75200
O  -4.06600 0.14000 42.26500
C  -4.10600 -1.75300 43.58800
N  0.96800 -3.81400 44.32100
C  -0.35700 -3.90300 44.15100
C  -0.81100 -5.27100 44.66900
C  0.48400 -5.96500 45.14700
C  1.55300 -4.86800 44.88900
C  -1.95900 -5.20000 45.70500
C  0.79200 -7.33100 44.52200
C  1.20600 -8.55100 45.38100
N  3.77700 -2.84900 44.54100
C  3.93000 -4.05200 45.11700
C  5.34300 -4.19100 45.40600
C  5.99200 -3.06700 44.89200
C  5.00700 -2.23200 44.38500
C  5.95300 -5.40300 46.05300
C  7.31600 -2.39400 44.64700
O  8.41300 -2.74400 44.96000
C  7.02700 -0.98700 44.00700
C  7.35500 0.00700 45.08300
O  7.02900 -0.06700 46.28600
O  7.89400 1.13000 44.52800
C  8.03000 2.26800 45.42100
H  1.14600 1.96600 41.69900
H  -2.19100 -3.39700 43.46500
H  3.05900 -5.91600 45.81200
H  5.77100 1.63700 43.06300
H  3.52100 2.30900 41.23000
H  2.65400 3.07100 43.68200
H  3.70100 3.98400 42.52500
H  4.37900 3.00600 43.93900
H  5.00500 1.12700 40.20700
H  5.84100 -0.28300 40.75400
H  7.73200 0.61800 40.40000
H  7.59000 1.94400 41.48000
H  -2.48600 1.50400 40.99800
H  -0.99500 2.02800 40.66900
H  -1.81600 2.57700 42.16400
H  -5.00000 -1.21800 43.90700
H  -3.55300 -1.87700 44.51900
H  -4.35600 -2.61000 42.96200
H  -1.24000 -5.85400 43.85400
H  0.50200 -6.06900 46.23200
H  -2.02300 -4.14400 45.97000
H  -1.81700 -5.87100 46.55100
H  -2.88700 -5.42000 45.17600
H  1.53800 -7.19300 43.73800
H  -0.11700 -7.59700 43.98300
H  0.55100 -9.39800 45.17700
H  1.17500 -8.31000 46.44400
H  2.20000 -8.93100 45.14600
H  5.61900 -6.26400 45.47400
H  5.60200 -5.44200 47.08400
H  7.02300 -5.19200 46.05900
H  7.62700 -0.80200 43.11600
H  7.40100 2.31900 46.31000
H  7.70300 3.11400 44.81600
H  9.06800 2.40200 45.72600
Mg -10.37300 17.43700 40.58200
C  -6.97300 17.03200 40.82900
C  -9.86700 20.87600 39.88300
C  -13.57500 17.64600 39.50300
C  -10.52900 13.88100 40.28400
N  -8.55900 18.80800 40.39700
C  -7.30600 18.41800 40.63400
C  -6.36300 19.61200 40.48100
C  -7.37500 20.87400 40.58800
C  -8.64800 20.17800 40.27000
C  -7.40000 21.61800 41.99900
C  -5.82500 19.52200 38.93000
C  -4.32300 19.39600 38.75800
H  -3.88500 18.59600 37.58300
N  -11.54500 19.07700 40.07000
C  -11.20000 20.38800 39.75400
C  -12.27400 21.02300 39.20900
C  -13.43600 20.18400 39.39800
C  -12.87900 18.85700 39.63400
C  -12.30700 22.48400 38.74800
C  -14.88000 20.71200 39.40100
O  -15.17900 21.89200 39.07100
C  -16.03700 19.82100 39.75000
N  -11.72400 16.03300 39.89300
C  -12.98700 16.33800 39.64000
C  -13.83600 15.03700 39.28700
C  -12.89600 13.85400 39.50200
C  -11.62200 14.61700 39.90400
C  -15.09300 15.00100 40.20500
C  -12.59500 13.04400 38.21600
C  -13.83400 12.53400 37.48700
N  -9.10700 15.68200 40.70800
C  -9.32300 14.34000 40.55800
C  -8.03800 13.61900 40.86500
C  -7.02900 14.69500 40.94900
C  -7.75600 15.89300 40.91600
C  -7.73100 12.13800 40.86000
C  -5.61100 14.91700 41.11400
O  -4.70200 14.13800 41.28800
C  -5.55600 16.51900 41.03500
C  -4.94400 16.99900 42.27600
O  -4.10600 17.89400 42.30500
O  -5.39600 16.31800 43.37300
C  -4.77100 16.72600 44.67700
H  -9.77000 21.95200 39.72400
H  -14.62100 17.66600 39.18900
H  -10.77400 12.81700 40.30100
H  -5.57600 19.62600 41.23500
H  -7.23700 21.60200 39.78900
H  -6.50300 21.23400 42.48400
H  -8.30200 21.22100 42.46400
H  -7.33800 22.70400 41.93100
H  -6.03100 20.44800 38.39400
H  -6.34400 18.70300 38.43200
H  -3.78200 19.20500 39.68500
H  -3.97300 20.40800 38.55800
H  -12.97100 22.63600 37.89700
H  -11.33000 22.76100 38.35200
H  -12.54600 23.20100 39.53300
H  -16.89800 20.40200 40.07900
H  -15.72700 19.05800 40.46500
H  -16.35300 19.39500 38.79800
H  -14.09100 15.15600 38.23400
H  -13.25300 13.14300 40.24600
H  -15.15700 15.95400 40.72900
H  -15.02700 14.23900 40.98200
H  -15.99300 14.87300 39.60300
H  -12.03800 12.19000 38.60000
H  -11.90000 13.56500 37.55700
H  -14.71700 12.96200 37.96200
H  -13.80300 11.44600 37.42600
H  -13.82400 12.90300 36.46200
H  -6.81300 11.98800 41.42900
H  -7.54200 11.89700 39.81400
H  -8.62500 11.58800 41.15300
H  -4.86900 16.82700 40.24700
H  -5.37200 17.52800 45.10600
H  -3.76800 17.12000 44.51000
H  -4.72600 15.88600 45.37000

