158

Mg -2.12500 17.60300 25.68300
C  -2.39300 15.20800 28.43000
C  -2.56700 20.02100 27.94500
C  -1.87200 19.71300 23.19300
C  -1.94900 14.82200 23.51900
N  -2.45400 17.52900 27.93100
C  -2.52900 16.51900 28.91800
C  -2.97100 16.98600 30.28200
C  -3.05200 18.54100 29.99000
C  -2.63000 18.72800 28.56300
C  -4.47300 19.25500 30.33500
C  -2.14100 16.52100 31.59100
C  -2.95100 16.09800 32.82300
H  -2.25300 15.28300 33.99900
N  -2.15400 19.62400 25.57800
C  -2.37500 20.42400 26.60400
C  -2.37700 21.79200 26.16800
C  -2.25000 21.75100 24.74100
C  -2.09600 20.34500 24.41700
C  -2.61500 22.91900 26.97400
C  -2.32900 22.86600 23.67900
O  -2.38500 22.64200 22.47500
C  -2.24600 24.27200 24.12300
N  -1.83200 17.26000 23.66500
C  -1.69300 18.30600 22.84100
C  -1.50200 17.80900 21.37000
C  -1.35900 16.23700 21.54300
C  -1.66800 16.06700 23.01000
C  -2.60100 18.29600 20.40600
C  0.05800 15.68500 21.22800
C  -0.00800 14.39100 20.42800
N  -2.18500 15.45200 25.82600
C  -2.16600 14.46700 24.86600
C  -2.50500 13.17600 25.47700
C  -2.50800 13.43600 26.87300
C  -2.33900 14.81400 27.03200
C  -2.74700 11.88700 24.77600
C  -2.50500 12.82500 28.19800
O  -2.57500 11.64400 28.48600
C  -2.36900 13.91600 29.20500
C  -1.17400 13.66000 29.96600
O  -0.06900 14.07600 29.66400
O  -1.41700 12.86700 31.07000
C  -0.29300 12.56700 31.85300
H  -2.88800 20.86300 28.56200
H  -1.76800 20.33000 22.29800
H  -1.81700 14.11300 22.69900
H  -3.98000 16.66500 30.54100
H  -2.26700 19.07700 30.52500
H  -4.37800 19.87100 31.22900
H  -5.26200 18.53300 30.54500
H  -4.80600 19.79100 29.44700
H  -1.68200 17.46100 31.89700
H  -1.40700 15.76300 31.31800
H  -3.80800 15.52500 32.46800
H  -3.26900 17.02100 33.30700
H  -3.47400 23.37700 26.48300
H  -1.71800 23.51800 27.12600
H  -3.04900 22.58100 27.91500
H  -1.33900 24.32700 24.72600
H  -3.11800 24.69600 24.62000
H  -2.07700 24.88800 23.24000
H  -0.59900 18.28700 20.98900
H  -2.18100 15.80300 20.97300
H  -2.23600 19.21400 19.94400
H  -3.48900 18.49300 21.00700
H  -2.80200 17.59100 19.60000
H  0.59200 15.30900 22.10100
H  0.73900 16.43600 20.82600
H  0.36400 14.55600 19.41600
H  -1.03300 14.02100 20.40700
H  0.64600 13.67800 20.93200
H  -2.31800 11.98300 23.77800
H  -3.82400 11.72800 24.82100
H  -2.17800 11.10600 25.27900
H  -3.20500 13.93400 29.90500
H  -0.64700 11.78100 32.52000
H  -0.02700 13.41900 32.48000
H  0.46700 11.98700 31.32900
Mg 36.03800 0.95300 30.33700
C  33.96500 2.35500 32.83800
C  38.56700 1.14000 32.66300
C  38.15900 0.16500 27.92100
C  33.45500 1.51400 28.01900
N  36.18500 1.45200 32.54500
C  35.24400 2.05500 33.33000
C  35.70500 2.27600 34.76900
C  37.22800 2.05300 34.58900
C  37.29400 1.41700 33.21100
C  38.07600 3.34200 34.81000
C  34.98000 1.21000 35.60600
C  34.57600 1.62900 37.04700
H  35.33000 2.84000 37.63100
N  38.15800 0.61600 30.27200
C  39.03500 0.73900 31.34700
C  40.31400 0.34400 30.98200
C  40.17900 0.01900 29.59400
C  38.79500 0.25200 29.19800
C  41.50700 0.24800 31.92700
C  41.25300 -0.53100 28.65000
O  41.01100 -0.81100 27.47700
C  42.69300 -0.75000 29.10300
N  35.73500 0.73000 28.25400
C  36.80900 0.39700 27.44800
C  36.40800 0.33000 26.01700
C  34.88500 0.63900 26.03100
C  34.60000 0.89500 27.53900
C  37.20000 1.35700 25.18600
C  33.85200 -0.41800 25.37300
C  32.94800 -0.01200 24.20200
N  34.10900 1.74200 30.33100
C  33.19800 1.92300 29.28100
C  31.98100 2.47900 29.87100
C  32.25000 2.70700 31.23400
C  33.56400 2.26800 31.45400
C  30.68100 2.84000 29.08200
C  31.71200 3.17300 32.46200
O  30.63200 3.67500 32.56600
C  32.78200 3.02200 33.55500
C  33.11500 4.38800 34.14700
O  33.99000 5.12100 33.79600
O  32.42300 4.56900 35.29900
C  32.74400 5.58800 36.20900
H  39.34400 1.36600 33.39500
H  38.82300 0.02400 27.06500
H  32.72100 1.86700 27.29200
H  35.35700 3.29300 34.94900
H  37.70300 1.38300 35.30600
H  38.84000 3.21900 35.57800
H  37.41800 4.18600 35.01800
H  38.66100 3.60000 33.92800
H  35.74200 0.43700 35.70400
H  34.15400 0.73900 35.07500
H  34.74300 0.72400 37.63100
H  33.51700 1.89000 37.05800
H  42.27300 -0.46400 31.62000
H  41.10600 -0.19100 32.84100
H  42.00900 1.19800 32.10700
H  43.33100 -1.09800 28.29100
H  42.59600 -1.51500 29.87400
H  43.11000 0.21600 29.38900
H  36.64100 -0.66100 25.62800
H  34.72800 1.55700 25.46600
H  37.85600 1.97000 25.80500
H  36.56200 2.03500 24.62000
H  37.89300 0.85600 24.51000
H  33.17400 -0.75600 26.15700
H  34.46300 -1.24600 25.01600
H  33.10600 1.04900 24.01300
H  31.90100 -0.30200 24.29200
H  33.30100 -0.56900 23.33300
H  30.84400 2.84100 28.00400
H  30.24400 3.81600 29.29200
H  29.92700 2.11200 29.38300
H  32.27000 2.50800 34.36900
H  33.74400 6.00200 36.07500
H  32.62500 5.02100 37.13300
H  32.01700 6.39500 36.12100

