158

Mg 8.63000 4.39700 27.40500
C  9.88000 2.97800 30.33300
C  6.71800 6.51700 29.46200
C  7.14200 5.76400 24.65700
C  10.40900 2.26200 25.41100
N  8.25000 4.64300 29.66300
C  8.99700 4.02700 30.62400
C  8.61800 4.63000 31.98200
C  7.62000 5.80200 31.70100
C  7.43700 5.63500 30.15600
C  6.39900 5.77200 32.57900
C  9.82300 4.97700 32.84800
C  9.56300 5.81100 34.10100
H  10.22500 5.22300 35.37700
N  7.12000 5.83000 27.11800
C  6.49300 6.61100 28.05900
C  5.64400 7.58900 27.42700
C  5.70100 7.43200 26.05300
C  6.67700 6.32200 25.84800
C  4.86300 8.62400 28.19400
C  5.06400 8.11400 24.93200
O  5.08100 7.76600 23.78500
C  4.27500 9.32200 25.10300
N  8.64700 3.97200 25.33400
C  7.97900 4.67400 24.38300
C  8.32000 4.25400 22.98800
C  9.41200 3.10900 23.25100
C  9.58200 3.11400 24.76500
C  7.09900 3.85400 22.22600
C  10.78200 3.41700 22.49800
C  11.46900 2.18500 21.86900
N  9.86500 2.89000 27.70200
C  10.55300 2.10700 26.79900
C  11.26100 1.10800 27.54500
C  11.00300 1.35700 28.94100
C  10.22700 2.49400 28.99700
C  12.15800 0.02600 27.13300
C  11.32900 0.99300 30.30300
O  12.05800 0.08500 30.67700
C  10.50000 2.00700 31.31300
C  9.59100 1.20300 32.25200
O  8.91000 0.21700 31.98800
O  9.94100 1.63500 33.53400
C  9.49000 0.64000 34.61700
H  6.24500 7.34700 29.99100
H  6.85400 6.30500 23.75300
H  10.91300 1.49000 24.82600
H  8.02200 3.84000 32.44000
H  8.12600 6.75700 31.84300
H  5.64000 5.27500 31.97500
H  6.06800 6.80000 32.72600
H  6.46800 5.39500 33.59900
H  10.24100 5.66700 32.11500
H  10.47800 4.14500 33.10800
H  8.50800 5.75300 34.37000
H  9.88200 6.82900 33.87400
H  5.31100 9.58800 27.95400
H  4.73300 8.54300 29.27300
H  3.86700 8.71900 27.76300
H  3.20400 9.19500 25.25800
H  4.43400 9.77700 24.12500
H  4.67600 10.01900 25.83800
H  8.93900 5.06800 22.61100
H  9.08000 2.09700 23.01700
H  7.07100 2.81100 21.91000
H  6.91600 4.56400 21.42000
H  6.20600 3.96400 22.84200
H  11.47200 3.91000 23.18300
H  10.54700 4.09900 21.68100
H  11.73000 2.43800 20.84200
H  10.84400 1.29200 21.89800
H  12.49700 2.08900 22.21900
H  11.49500 -0.80700 26.90100
H  12.90600 -0.22000 27.88700
H  12.63100 0.39400 26.22300
H  11.27700 2.43900 31.94500
H  8.48800 0.22900 34.50000
H  9.39900 1.19400 35.55100
H  10.18000 -0.19100 34.76700
Mg 9.94800 47.97500 25.63700
C  7.85400 48.43000 28.51300
C  12.46100 49.22600 27.37400
C  11.73300 47.58200 22.86400
C  6.88300 47.93000 23.67700
N  10.03200 48.82900 27.63800
C  9.20700 48.72300 28.71800
C  9.90700 49.05600 30.03200
C  11.27300 49.69800 29.59900
C  11.25900 49.25900 28.08300
C  11.27400 51.22900 29.62100
C  10.09500 47.88000 30.97800
C  10.45700 48.16400 32.46100
H  9.81600 47.33000 33.68900
N  11.94700 48.22100 25.21100
C  12.83200 48.81400 26.04700
C  14.12500 48.65500 25.51000
C  13.97800 48.18400 24.19400
C  12.52100 47.98600 24.01200
C  15.34700 48.83300 26.29900
C  14.96200 47.83400 23.13600
O  14.58000 47.54500 22.01200
C  16.41800 47.92400 23.33500
N  9.35900 47.84300 23.56900
C  10.29500 47.49700 22.61900
C  9.57900 46.97400 21.38100
C  8.15100 47.60400 21.50700
C  8.09900 47.78000 23.00900
C  10.14900 47.33800 19.97200
C  7.06100 46.69400 20.92200
C  6.02100 47.49900 20.08000
N  7.77000 48.13200 25.97800
C  6.71500 48.04100 25.09500
C  5.43300 47.95900 25.85700
C  5.88100 48.09700 27.16500
C  7.26400 48.17100 27.20300
C  4.04300 47.77200 25.30100
C  5.39300 48.16500 28.52000
O  4.22700 48.05500 28.89000
C  6.65100 48.42600 29.42800
C  6.52400 47.36400 30.40600
O  7.06400 46.28100 30.40600
O  5.77400 47.84400 31.46700
C  5.56100 47.00100 32.67800
H  13.31000 49.61800 27.93800
H  12.27000 47.28300 21.96100
H  5.99100 47.91800 23.04800
H  9.28200 49.79700 30.53100
H  12.12400 49.25300 30.11300
H  10.62200 51.47000 30.46000
H  10.81500 51.57300 28.69400
H  12.28300 51.62600 29.72700
H  10.76200 47.18300 30.47000
H  9.23700 47.21700 31.08500
H  10.10100 49.16900 32.69000
H  11.54000 48.04700 32.51700
H  15.15800 49.11400 27.33500
H  15.96500 49.61600 25.86000
H  15.94500 47.93400 26.44300
H  16.67800 48.50300 24.22100
H  16.94800 48.41100 22.51600
H  16.79600 46.90400 23.39100
H  9.47100 45.89200 21.45000
H  8.19600 48.58900 21.04300
H  10.89900 48.11100 20.14300
H  9.52200 47.85100 19.24200
H  10.71900 46.54700 19.48400
H  6.65000 46.08900 21.73000
H  7.45700 45.88100 20.31500
H  6.41500 48.48400 19.82900
H  5.12100 47.50200 20.69600
H  5.84200 47.01600 19.12000
H  3.33400 48.32700 25.91600
H  3.93900 46.68900 25.36800
H  3.76000 48.18100 24.33100
H  6.53800 49.36600 29.96800
H  4.89800 46.13700 32.62800
H  5.22200 47.72500 33.41900
H  6.53100 46.57000 32.92800

