158

Mg 40.13200 9.20400 29.92400
C  42.40400 10.60300 32.26300
C  38.26800 8.11600 32.57800
C  38.15400 7.86400 27.77900
C  42.36300 10.03800 27.37100
N  40.44000 9.32500 32.17400
C  41.29000 10.07500 32.88900
C  40.86000 10.12900 34.35400
C  39.82600 8.92400 34.32600
C  39.44700 8.78900 32.97400
C  40.27900 7.62300 35.01500
C  40.28300 11.52800 34.78500
C  40.07200 11.43100 36.31200
H  40.93700 12.23400 37.21600
N  38.43400 8.19100 30.17100
C  37.79200 7.76900 31.33300
C  36.47000 7.16400 30.97000
C  36.52400 7.02100 29.55700
C  37.75100 7.66200 29.11200
C  35.46700 6.54200 31.96900
C  35.51900 6.30300 28.60900
O  35.65300 6.10700 27.41700
C  34.44400 5.63500 29.27700
N  40.31200 8.82900 27.85900
C  39.23800 8.42800 27.20500
C  39.38000 8.56600 25.68800
C  40.87200 9.09300 25.52900
C  41.22900 9.34800 26.94200
C  39.07400 7.12200 24.98500
C  40.95000 10.29500 24.59000
C  40.47500 11.63400 25.14100
N  42.05400 10.09300 29.76500
C  42.78000 10.39400 28.65400
C  44.03500 11.02200 29.08500
C  43.89200 11.20500 30.49300
C  42.73000 10.56800 30.89700
C  45.10800 11.49300 28.11400
C  44.43500 11.87700 31.66300
O  45.44500 12.60500 31.79000
C  43.57700 11.42500 32.84500
C  44.46500 10.68400 33.77200
O  44.82200 9.53700 33.61200
O  44.69600 11.49600 34.87700
C  45.43900 10.92600 36.00300
H  37.71300 7.67100 33.40700
H  37.42600 7.55000 27.02800
H  43.02600 10.20200 26.52000
H  41.71400 9.86300 34.97700
H  38.93700 9.25300 34.86400
H  40.15100 6.77000 34.34800
H  39.85100 7.32100 35.97100
H  41.34600 7.77800 35.17400
H  39.41400 11.76300 34.17100
H  40.99500 12.29900 34.49100
H  40.01100 10.43800 36.75800
H  39.03800 11.76900 36.37000
H  34.53100 7.00100 31.65200
H  35.73200 6.88200 32.97000
H  35.50300 5.46100 31.84000
H  34.91500 4.83700 29.85000
H  33.72700 5.19100 28.58600
H  33.88200 6.26600 29.96500
H  38.63600 9.31000 25.40500
H  41.59700 8.34100 25.21900
H  39.95600 6.76100 24.45600
H  38.21400 7.13600 24.31600
H  38.87100 6.36800 25.74600
H  40.31100 10.17000 23.71600
H  41.99600 10.34100 24.28400
H  40.20100 11.76200 26.18800
H  39.74800 12.10600 24.48000
H  41.33100 12.30300 25.06500
H  44.65000 12.42600 27.78500
H  44.89900 10.72800 27.36600
H  46.05300 11.55700 28.65200
H  43.13200 12.29500 33.32900
H  44.63600 10.55700 36.64000
H  46.04700 11.70600 36.46100
H  46.07000 10.10300 35.66800
Mg 49.02000 35.78600 27.58000
C  47.03800 34.00300 29.84600
C  49.15000 38.30300 30.03000
C  50.88500 37.47000 25.51200
C  48.61400 33.22100 25.28800
N  48.13700 36.08900 29.67400
C  47.55000 35.16700 30.44400
C  47.48900 35.56200 31.90000
C  47.89900 37.08400 31.84900
C  48.42700 37.18000 30.42500
C  46.88400 38.20700 32.34200
C  48.45900 34.70000 32.71600
C  48.13400 34.40800 34.16600
H  47.05800 35.29700 34.88400
N  49.97600 37.57800 27.71100
C  49.96000 38.43800 28.80900
C  50.79200 39.51400 28.49000
C  51.28300 39.37700 27.16100
C  50.68200 38.12000 26.68200
C  50.95900 40.65200 29.50100
C  52.19700 40.39500 26.37600
O  52.59700 40.18300 25.24800
C  52.67300 41.69200 27.01900
N  49.51100 35.46900 25.51500
C  50.44100 36.28800 24.96900
C  50.88300 35.79300 23.57900
C  50.10300 34.39000 23.55000
C  49.35100 34.34600 24.86200
C  50.54000 36.72400 22.45600
C  50.92800 33.10800 23.23600
C  50.35100 32.11000 22.15100
N  48.04700 33.96000 27.43300
C  47.90000 33.04000 26.43900
C  47.02100 31.93600 26.88000
C  46.60700 32.34400 28.14900
C  47.28400 33.48200 28.52000
C  46.54200 30.74100 26.16200
C  45.75700 32.01400 29.31700
O  45.05700 31.01000 29.57000
C  46.05200 33.05800 30.44300
C  46.39800 32.20500 31.53800
O  47.23600 31.32900 31.53100
O  45.69700 32.60700 32.62700
C  45.73400 31.73300 33.75900
H  49.22900 38.97800 30.88500
H  51.67500 37.90100 24.89400
H  48.49100 32.37800 24.60400
H  46.45100 35.48200 32.22500
H  48.75900 37.14800 32.51500
H  46.03700 37.67800 32.77900
H  46.54600 38.64400 31.40200
H  47.28700 38.81000 33.15500
H  49.46100 35.12500 32.64200
H  48.62000 33.71100 32.28900
H  49.05800 34.62000 34.70300
H  48.07000 33.32000 34.18700
H  50.55000 40.52000 30.50300
H  50.56300 41.58000 29.09000
H  52.00600 40.94900 29.56600
H  53.21000 42.37600 26.36200
H  53.42400 41.34300 27.72700
H  51.87400 42.24400 27.51300
H  51.96000 35.64300 23.65300
H  49.32600 34.43700 22.78800
H  50.12200 36.15000 21.62900
H  51.44900 37.08900 21.97800
H  49.80100 37.44700 22.80100
H  51.09000 32.64200 24.20800
H  51.88400 33.51500 22.90700
H  50.35300 31.10000 22.56100
H  51.09400 32.07900 21.35400
H  49.37300 32.43500 21.79600
H  45.46900 30.81300 25.98100
H  46.71800 29.88800 26.81800
H  47.04600 30.59100 25.20800
H  45.12400 33.61100 30.58900
H  45.04200 30.91300 33.56500
H  45.40700 32.27100 34.64900
H  46.72700 31.36100 34.00900

