158

Mg 30.05100 59.18700 41.24200
C  26.90800 57.99900 40.18300
C  31.58600 56.54900 39.57100
C  32.95600 60.94500 41.28100
C  28.34000 62.12700 42.30600
N  29.27800 57.58200 40.02000
C  27.99100 57.19300 39.73000
C  27.91600 55.89200 38.93500
C  29.38100 55.27100 39.09800
C  30.19800 56.56300 39.58800
C  29.47500 54.04700 40.07500
C  27.43900 56.14300 37.47400
C  26.73100 54.94300 36.76700
H  26.69200 54.82800 35.22500
N  32.00600 58.73300 40.73800
C  32.43300 57.58800 40.05600
C  33.89300 57.65600 39.83800
C  34.36400 58.90100 40.34800
C  33.11700 59.60900 40.87800
C  34.69800 56.56900 39.14100
C  35.79000 59.43400 40.29900
O  36.66600 58.79900 39.70600
C  36.18300 60.78100 40.90700
N  30.59200 61.27900 41.59500
C  31.87600 61.78400 41.48400
C  31.94300 63.25200 42.05800
C  30.48300 63.39000 42.69200
C  29.72000 62.25200 42.15500
C  33.05000 63.29100 43.13100
C  29.79000 64.74500 42.28300
C  28.78700 65.34800 43.25500
N  28.03000 60.01400 41.25700
C  27.53400 61.10100 41.79200
C  26.13100 61.16700 41.66000
C  25.74500 59.89800 41.03600
C  27.01000 59.19400 40.87600
C  25.12000 62.24900 42.09400
C  24.75000 58.97200 40.54100
O  23.49200 59.14500 40.44600
C  25.43600 57.66900 40.04000
C  25.11800 56.47400 40.81100
O  25.26400 56.34600 42.02300
O  24.56200 55.50100 39.96400
C  24.14900 54.25300 40.66500
H  32.02500 55.64800 39.13900
H  33.84300 61.58100 41.26200
H  27.79200 62.93400 42.79700
H  27.18000 55.23100 39.39400
H  29.77300 54.94800 38.13300
H  29.81700 54.38400 41.05400
H  30.11000 53.23400 39.72300
H  28.53000 53.52900 40.23900
H  28.29700 56.35700 36.83700
H  26.71700 56.95600 37.39900
H  25.70000 54.78300 37.08400
H  27.24100 54.00300 36.98000
H  35.15800 56.95000 38.23000
H  34.03400 55.76800 38.81400
H  35.39000 56.18600 39.89100
H  35.79600 61.63800 40.35700
H  37.26800 60.83800 41.00000
H  35.87100 60.77400 41.95200
H  32.11400 63.83000 41.15000
H  30.54900 63.32300 43.77800
H  32.65700 63.61400 44.09600
H  33.75900 64.06600 42.84200
H  33.48600 62.31300 43.33500
H  29.23300 64.48300 41.38300
H  30.49600 65.46700 41.87200
H  29.17400 66.35900 43.37800
H  28.76200 64.82100 44.20900
H  27.84400 65.30800 42.70900
H  25.05700 62.17500 43.18000
H  24.14100 62.19000 41.61700
H  25.61700 63.19600 41.88400
H  25.04100 57.65500 39.02400
H  24.46800 54.10100 41.69600
H  24.69900 53.44200 40.18700
H  23.08200 54.05900 40.76900
Mg -2.23800 34.09200 26.78700
C  -3.61200 32.48600 29.54500
C  -0.69400 36.29400 28.96200
C  -1.23800 35.93000 24.09700
C  -4.31700 32.23800 24.66900
N  -2.25600 34.33000 29.00800
C  -2.69500 33.40500 29.92000
C  -1.98100 33.51700 31.28000
C  -1.15800 34.85400 31.12600
C  -1.35400 35.26200 29.57400
C  -1.53300 35.91000 32.10200
C  -1.15600 32.27800 31.83700
C  -1.47600 31.86000 33.30200
H  -0.27400 31.84200 34.27600
N  -1.07900 35.86400 26.56800
C  -0.52800 36.56400 27.60600
C  0.28600 37.56400 27.11700
C  0.15600 37.48000 25.66800
C  -0.69700 36.37300 25.35700
C  1.15200 38.54900 27.86600
C  0.83900 38.24000 24.49200
O  0.72500 37.98000 23.30300
C  1.76800 39.33300 24.85700
N  -2.88300 34.20400 24.64900
C  -2.23900 34.98700 23.76000
C  -2.80700 34.77400 22.32400
C  -3.82700 33.63700 22.48700
C  -3.66300 33.34400 24.03000
C  -3.32400 36.07400 21.65500
C  -3.64400 32.48900 21.54200
C  -2.42100 31.61700 21.73700
N  -3.66000 32.64400 26.97900
C  -4.31800 31.90900 26.04000
C  -5.15800 30.90100 26.74900
C  -4.76900 31.07300 28.11200
C  -3.97100 32.17600 28.18000
C  -6.07500 29.92300 26.07700
C  -5.00200 30.52400 29.43100
O  -5.73000 29.60600 29.80800
C  -4.11300 31.34300 30.39100
C  -5.03400 31.90000 31.36700
O  -5.96700 32.62300 31.04300
O  -4.77600 31.64900 32.66900
C  -5.61800 32.28900 33.71800
H  -0.14700 37.04400 29.53700
H  -0.93400 36.41100 23.16500
H  -4.91700 31.54500 24.07500
H  -2.82800 33.72200 31.93400
H  -0.08000 34.70000 31.15800
H  -2.36900 35.71400 32.77300
H  -1.89600 36.77800 31.55100
H  -0.65700 36.29300 32.62600
H  -0.11600 32.60500 31.82500
H  -1.26400 31.36700 31.24800
H  -1.83400 30.85000 33.49800
H  -2.11100 32.66800 33.66600
H  2.18900 38.37700 27.58000
H  0.87700 38.56500 28.92100
H  0.78900 39.50800 27.49500
H  1.92100 40.01700 24.02200
H  2.74200 38.95000 25.16200
H  1.27800 39.91900 25.63500
H  -2.01300 34.31400 21.73600
H  -4.80800 34.11300 22.47700
H  -3.12800 36.07000 20.58300
H  -2.85900 37.01100 21.96200
H  -4.40500 36.18700 21.74000
H  -3.72500 32.79600 20.49900
H  -4.51700 31.84800 21.66400
H  -1.90200 31.85800 20.80900
H  -2.62200 30.54600 21.70200
H  -1.80600 31.91200 22.58700
H  -6.17000 30.08700 25.00300
H  -7.04400 29.97700 26.57300
H  -5.73800 28.90000 26.24300
H  -3.43300 30.63200 30.86100
H  -4.99400 32.56400 34.56800
H  -6.29600 31.50400 34.05400
H  -6.01000 33.23900 33.35600

