158

Mg 49.44800 45.67400 42.76300
C  45.94500 45.60700 42.13400
C  49.50900 42.30400 41.87200
C  52.71500 45.82300 42.55700
C  49.21300 49.04700 43.22000
N  47.86300 44.14300 42.10100
C  46.50600 44.33200 41.96200
C  45.73800 42.94200 41.77500
C  46.92500 41.95800 41.87500
C  48.17800 42.85900 41.96200
C  46.95700 40.91700 43.08200
C  44.96200 42.75800 40.44100
C  45.60800 43.36400 39.25300
H  45.63500 42.56600 37.94500
N  50.91600 44.21600 42.36900
C  50.73600 42.92100 42.08400
C  52.02200 42.28400 41.88500
C  53.02600 43.27100 42.11300
C  52.26400 44.53000 42.32000
C  52.23800 40.79200 41.43100
C  54.52200 43.03200 41.83200
O  54.92700 41.89100 41.79900
C  55.39800 44.22500 41.53900
N  50.71100 47.33900 42.71000
C  52.04400 47.05500 42.85600
C  52.81000 48.29900 43.30800
C  51.75300 49.36600 43.41400
C  50.46500 48.56900 43.15000
C  53.64500 48.17700 44.60800
C  52.00600 50.65800 42.52100
C  51.69100 52.04200 43.21800
N  47.87100 47.10100 42.69000
C  47.93700 48.43600 42.88500
C  46.59700 48.99700 42.77100
C  45.75300 47.87500 42.50900
C  46.62300 46.79700 42.37600
C  46.11900 50.41000 42.90500
C  44.35300 47.38300 42.32000
O  43.30400 47.93300 42.24500
C  44.46500 45.85700 42.14000
C  43.70800 45.11200 43.14200
O  42.80600 44.32000 42.91300
O  44.26900 45.38000 44.40700
C  43.67000 44.47900 45.47000
H  49.52700 41.22100 41.73100
H  53.80100 45.91200 42.62300
H  49.14700 50.13000 43.34200
H  45.00200 42.68800 42.53700
H  47.06200 41.46400 40.91300
H  46.10700 41.04700 43.75200
H  47.93500 40.85000 43.55800
H  46.85900 39.91500 42.66300
H  43.99100 43.22800 40.59100
H  44.87900 41.69400 40.21700
H  46.65400 43.54300 39.50400
H  45.00400 44.23900 39.01400
H  52.99900 40.88800 40.65600
H  51.35100 40.27300 41.06700
H  52.71700 40.20100 42.21100
H  55.54100 44.74700 42.48500
H  54.93900 44.95200 40.86800
H  56.32900 43.94300 41.04700
H  53.53200 48.35300 42.49400
H  51.74700 49.55800 44.48700
H  53.30600 47.38100 45.27200
H  53.80400 49.14900 45.07500
H  54.59900 47.85400 44.19300
H  51.32300 50.58200 41.67400
H  53.03300 50.72800 42.16400
H  51.19500 52.64500 42.45700
H  52.63200 52.48900 43.54000
H  51.15700 52.10600 44.16600
H  45.04500 50.51400 43.05900
H  46.44800 51.03000 42.07100
H  46.67900 50.81900 43.74600
H  43.90100 45.62100 41.23800
H  43.36200 43.49000 45.13300
H  42.85200 45.03500 45.92800
H  44.43500 44.26200 46.21600
Mg -12.23000 15.92600 41.77700
C  -9.22200 14.05200 41.27600
C  -10.81200 18.44800 39.89900
C  -15.22100 17.34200 41.59500
C  -13.69900 12.94800 43.10400
N  -10.27200 16.09300 40.44000
C  -9.19500 15.27900 40.54700
C  -7.93900 15.94900 39.95400
C  -8.47900 17.35700 39.59900
C  -9.93200 17.34200 40.08000
C  -7.67200 18.58900 40.23400
C  -7.44100 15.12600 38.71000
C  -5.97200 15.09100 38.49800
H  -5.61000 15.66800 37.18400
N  -12.94700 17.69300 40.98100
C  -12.19500 18.61200 40.22600
C  -13.05600 19.74400 39.80200
C  -14.31000 19.47200 40.31100
C  -14.21500 18.17600 41.05100
C  -12.52000 20.85500 38.93200
C  -15.55500 20.33400 40.04200
O  -15.53500 21.28200 39.24400
C  -16.78000 20.12300 40.84900
N  -14.14600 15.23400 42.29400
C  -15.19700 16.09000 42.16200
C  -16.48700 15.23500 42.39600
C  -16.01200 13.96800 43.06900
C  -14.53000 14.04200 42.85200
C  -17.49900 15.97300 43.37400
C  -16.74900 12.60300 42.74500
C  -16.96900 11.67600 43.89000
N  -11.60600 14.00600 42.28100
C  -12.29300 12.90500 42.80000
C  -11.43700 11.80900 42.97900
C  -10.22400 12.21600 42.43500
C  -10.36300 13.54200 41.97400
C  -11.77100 10.50800 43.60100
C  -8.85900 11.78600 42.20500
O  -8.31000 10.71300 42.49100
C  -8.11800 12.95500 41.50100
C  -7.14300 13.45600 42.47800
O  -7.34000 13.68900 43.66000
O  -5.94200 13.76100 41.86500
C  -5.00000 14.53600 42.75100
H  -10.25600 19.18900 39.32100
H  -16.17700 17.63000 41.15300
H  -14.28000 12.11400 43.50500
H  -7.15200 16.00600 40.70500
H  -8.59400 17.51400 38.52700
H  -6.64100 18.24700 40.13600
H  -7.88300 18.75800 41.29000
H  -7.81700 19.59200 39.83400
H  -7.87000 15.62400 37.84000
H  -7.85500 14.11800 38.70800
H  -5.66700 14.05300 38.62900
H  -5.39900 15.71800 39.18100
H  -13.28200 21.49200 38.48300
H  -11.88000 20.35800 38.20300
H  -11.84700 21.52000 39.47400
H  -16.54000 19.80400 41.86300
H  -17.30800 19.35900 40.27900
H  -17.42500 20.99800 40.93100
H  -16.91500 14.93700 41.43900
H  -16.17400 14.13300 44.13400
H  -17.91300 15.21000 44.03200
H  -18.31200 16.47200 42.84600
H  -16.95700 16.72900 43.94300
H  -16.17000 12.08000 41.98300
H  -17.78600 12.66900 42.41500
H  -16.58000 10.70300 43.58900
H  -18.04500 11.52900 43.98900
H  -16.44300 11.94800 44.80500
H  -11.93300 10.73600 44.65400
H  -10.92400 9.83500 43.47400
H  -12.71900 10.13800 43.20800
H  -7.62100 12.63100 40.58700
H  -5.16800 14.43500 43.82300
H  -5.09700 15.60600 42.56900
H  -4.01900 14.10000 42.56000

