158

Mg 8.99600 2.59600 27.31400
C  10.29800 1.01800 30.28300
C  7.16100 4.67600 29.31300
C  7.23400 3.43500 24.70200
C  10.40500 -0.16800 25.58700
N  8.70800 2.72500 29.49200
C  9.44400 2.12500 30.50800
C  9.13800 2.88300 31.83300
C  7.99100 3.89100 31.52500
C  7.88700 3.68600 30.01000
C  6.63500 3.78200 32.26600
C  10.50900 3.62200 32.32500
C  10.50500 4.54900 33.52700
H  10.93300 4.03000 34.96500
N  7.51600 4.02200 27.00600
C  6.91600 4.80300 27.93400
C  6.01500 5.71600 27.26200
C  5.95400 5.30300 25.92400
C  6.98100 4.22700 25.84200
C  5.19700 6.72300 28.02900
C  5.01700 5.79900 24.83800
O  5.17100 5.37400 23.73000
C  4.03900 6.94200 25.08600
N  9.00800 1.87600 25.36600
C  8.05100 2.39300 24.48700
C  8.33200 1.76300 23.16400
C  9.26200 0.56200 23.43100
C  9.56900 0.68000 24.88500
C  7.08800 1.23100 22.32800
C  10.54800 0.56700 22.53400
C  10.55100 -0.66300 21.58700
N  10.15900 0.74400 27.76000
C  10.67000 -0.27400 26.96200
C  11.42400 -1.12900 27.74400
C  11.40300 -0.65200 29.02900
C  10.52000 0.46300 28.97400
C  12.09500 -2.34900 27.16900
C  11.86100 -0.83200 30.39900
O  12.65900 -1.63300 30.86800
C  11.26100 0.31200 31.29800
C  10.60900 -0.47000 32.36300
O  9.56900 -1.14000 32.21200
O  11.27000 -0.20400 33.53900
C  10.77700 -0.88300 34.73100
H  6.69200 5.46500 29.90400
H  6.62200 3.62600 23.81700
H  10.73000 -0.99300 24.95000
H  8.76800 2.07400 32.46200
H  8.37700 4.89300 31.71300
H  6.90600 3.20500 33.15000
H  5.81500 3.31300 31.72300
H  6.29700 4.71800 32.71200
H  10.85600 4.20000 31.46900
H  11.20200 2.79800 32.49500
H  9.44500 4.78800 33.61500
H  11.17400 5.38200 33.31100
H  5.58400 7.01800 29.00400
H  4.27100 6.21800 28.30700
H  4.93300 7.62100 27.47000
H  3.45400 7.15500 24.19100
H  4.52300 7.87500 25.37400
H  3.38500 6.67300 25.91600
H  8.80700 2.55100 22.57900
H  8.87200 -0.42200 23.16900
H  6.33500 1.64100 23.00200
H  7.03100 0.14400 22.27800
H  6.94100 1.71200 21.36200
H  11.42800 0.49300 23.17300
H  10.61300 1.48200 21.94500
H  9.57600 -1.06900 21.32000
H  11.07700 -1.46000 22.11300
H  11.26300 -0.38300 20.81100
H  12.68200 -2.19000 26.26400
H  11.29300 -3.05200 26.94400
H  12.85300 -2.73500 27.85100
H  12.03000 0.95800 31.72200
H  10.27300 -1.84700 34.65600
H  10.25900 -0.11300 35.30200
H  11.64600 -1.08100 35.35900
Mg 25.73600 -6.31900 48.41100
C  27.33800 -3.65900 46.82600
C  23.22300 -6.17300 46.08400
C  24.55300 -9.13200 49.59200
C  28.75300 -6.80600 50.17500
N  25.39600 -5.08700 46.61100
C  26.12200 -4.03600 46.19000
C  25.65500 -3.53500 44.82800
C  24.24200 -4.16000 44.74900
C  24.25700 -5.23400 45.89500
C  23.12500 -3.08500 44.93400
C  26.63500 -3.92000 43.68600
C  26.97000 -2.85900 42.64000
H  25.95600 -2.71500 41.47300
N  24.10500 -7.49600 47.92500
C  23.14300 -7.20700 47.01500
C  22.06500 -8.16900 47.08600
C  22.44800 -9.12200 48.05200
C  23.70800 -8.58500 48.60300
C  20.78600 -8.17000 46.32800
C  21.71300 -10.43000 48.32400
O  20.89200 -10.89700 47.50200
C  22.20200 -11.43600 49.35000
N  26.49400 -7.61500 49.83300
C  25.85400 -8.76700 50.06500
C  26.67400 -9.83600 50.92500
C  28.07700 -9.06300 51.02000
C  27.77700 -7.77900 50.28200
C  26.08100 -10.19200 52.31000
C  29.19100 -9.88500 50.30800
C  29.41700 -11.39300 50.78300
N  27.64000 -5.37600 48.58300
C  28.71800 -5.65900 49.42000
C  29.76100 -4.66700 49.15900
C  29.27100 -3.83900 48.17300
C  27.97600 -4.35200 47.83300
C  31.12200 -4.66400 49.75100
C  29.46200 -2.62600 47.38600
O  30.34400 -1.83400 47.41300
C  28.30300 -2.60600 46.37500
C  27.76800 -1.23900 46.44300
O  27.73000 -0.43900 45.48000
O  27.39300 -0.98400 47.76300
C  27.21600 0.34600 48.20900
H  22.33200 -6.12200 45.45500
H  24.16000 -10.04800 50.03800
H  29.74400 -6.92000 50.62100
H  25.60000 -2.45000 44.73200
H  24.09400 -4.66000 43.79200
H  22.90000 -2.44500 44.08100
H  23.57800 -2.52100 45.74900
H  22.18400 -3.56800 45.19700
H  26.18600 -4.74700 43.13700
H  27.59200 -4.26500 44.07700
H  27.93600 -3.04400 42.17000
H  26.94200 -1.88500 43.12800
H  20.47300 -7.26300 45.81000
H  19.91500 -8.55000 46.86200
H  20.80800 -8.89500 45.51400
H  23.08700 -11.92400 48.94200
H  21.50000 -12.26900 49.38200
H  22.36200 -11.05000 50.35700
H  26.79800 -10.78200 50.39800
H  28.26800 -8.91600 52.08400
H  25.67100 -11.20200 52.33200
H  25.32000 -9.44100 52.52400
H  26.87700 -10.17700 53.05400
H  30.15600 -9.39500 50.43100
H  29.06700 -9.82100 49.22600
H  30.48800 -11.50900 50.95000
H  29.23400 -12.14000 50.01100
H  28.87500 -11.57200 51.71200
H  31.88400 -4.14000 49.17400
H  31.42400 -5.67800 50.01400
H  31.05500 -4.03500 50.63900
H  28.81000 -2.73100 45.41800
H  27.33700 1.03700 47.37600
H  28.04100 0.55700 48.89000
H  26.23900 0.50400 48.66700

