158

Mg 48.26400 35.32300 28.45300
C  46.18900 33.94100 30.77400
C  48.47300 38.08300 30.42400
C  49.46600 37.07700 25.82300
C  47.69200 32.64700 26.34600
N  47.52100 35.81600 30.31400
C  46.84000 35.07000 31.13500
C  47.20600 35.46000 32.53300
C  47.45300 36.97700 32.37600
C  47.88500 36.96000 30.90100
C  46.22500 37.85600 32.67800
C  48.45100 34.68100 33.12000
C  48.67000 34.71900 34.64500
H  47.64200 35.54400 35.42000
N  48.87700 37.27500 28.17600
C  48.88000 38.30200 29.14300
C  49.39200 39.49800 28.64300
C  49.77900 39.21100 27.26300
C  49.42400 37.80400 27.01100
C  49.58800 40.80800 29.53700
C  50.40800 40.24700 26.25600
O  50.70700 39.95900 25.06500
C  50.75500 41.67900 26.67400
N  48.40900 34.87800 26.35100
C  49.11900 35.72300 25.55600
C  49.41000 35.14300 24.18500
C  49.09600 33.62800 24.46100
C  48.46100 33.68800 25.86000
C  48.53600 35.84900 23.17100
C  50.33000 32.72100 24.33300
C  50.82900 32.43300 22.90400
N  47.18700 33.53700 28.53900
C  47.05300 32.50500 27.61300
C  46.30700 31.45900 28.15600
C  45.86500 31.94800 29.40200
C  46.48000 33.26200 29.60100
C  45.96500 30.13100 27.61700
C  45.07300 31.69500 30.60600
O  44.36600 30.72700 30.93200
C  45.13700 33.04800 31.41900
C  45.43800 32.62300 32.84000
O  46.43600 32.00700 33.23700
O  44.42700 32.99900 33.63300
C  44.30800 32.43300 35.04900
H  48.42000 38.89900 31.14900
H  49.91400 37.70100 25.04600
H  47.51000 31.85000 25.62200
H  46.30800 35.31200 33.13300
H  48.20100 37.34400 33.07800
H  46.10800 38.09800 33.73500
H  45.40400 37.34500 32.17600
H  46.42200 38.85000 32.27500
H  49.31400 35.10700 32.60700
H  48.35600 33.65500 32.76500
H  49.70900 34.95000 34.88200
H  48.46000 33.70400 34.98100
H  50.41800 41.42800 29.20000
H  49.82200 40.63300 30.58700
H  48.67000 41.39400 29.47900
H  49.80300 42.03700 27.06700
H  51.14100 42.15600 25.77300
H  51.66200 41.63800 27.27600
H  50.43800 35.38600 23.91600
H  48.35100 33.29100 23.74000
H  49.15800 36.51800 22.57700
H  47.65900 36.29900 23.63600
H  48.21500 35.05400 22.49900
H  49.94900 31.75100 24.65200
H  51.06200 33.07200 25.06000
H  50.44000 33.14000 22.17100
H  50.49600 31.48400 22.48500
H  51.91000 32.29400 22.93900
H  44.89700 30.01800 27.42900
H  46.36000 29.31500 28.22300
H  46.51800 29.97700 26.69100
H  44.13000 33.46400 31.43400
H  43.28800 32.09200 35.22700
H  44.63900 33.14400 35.80600
H  44.93300 31.58300 35.32600
Mg 1.35800 42.50400 26.30800
C  3.45500 42.47100 29.04000
C  -1.34100 41.66700 28.42800
C  -0.60600 41.99800 23.52200
C  4.17000 42.91400 24.14600
N  1.07000 42.09600 28.44900
C  2.11300 42.23500 29.38500
C  1.51900 42.36600 30.78700
C  0.15100 41.71900 30.59200
C  -0.06400 41.89900 29.09700
C  -0.01000 40.27900 31.11000
C  1.64200 43.83200 31.31800
C  2.04100 43.99600 32.81900
H  1.78200 42.82100 33.87100
N  -0.70800 42.00400 26.01300
C  -1.58600 41.80400 27.05500
C  -2.90800 41.58500 26.39400
C  -2.73700 41.58500 24.97200
C  -1.28200 41.91300 24.76500
C  -4.01800 41.12300 27.21900
C  -3.63100 41.12600 23.84500
O  -3.31500 41.20300 22.67000
C  -4.89800 40.26600 24.12300
N  1.74200 42.44500 24.14900
C  0.77700 42.32000 23.22700
C  1.34400 42.09600 21.78900
C  2.75800 42.67000 21.93100
C  2.93800 42.70100 23.47600
C  1.25200 40.70600 21.09000
C  2.87600 44.05900 21.18200
C  4.28500 44.34500 20.68600
N  3.31400 42.74300 26.47400
C  4.30300 42.95400 25.57800
C  5.63000 42.97100 26.27600
C  5.33200 42.87200 27.64800
C  3.91000 42.66900 27.72700
C  7.03200 42.98600 25.63000
C  5.83400 42.92100 29.00900
O  6.98500 43.04700 29.45100
C  4.57400 42.72700 29.93900
C  4.86400 41.53200 30.70800
O  5.11600 40.34600 30.30500
O  4.73000 41.89700 32.06900
C  5.18600 40.83400 33.03400
H  -2.18300 41.37300 29.05700
H  -1.21700 41.80800 22.63700
H  5.00600 43.24100 23.52500
H  2.17100 41.67400 31.32000
H  -0.59100 42.39200 31.02200
H  -0.83500 40.34300 31.82000
H  0.92600 40.10000 31.63800
H  -0.17400 39.58600 30.28500
H  0.67900 44.31600 31.15500
H  2.36400 44.39900 30.73100
H  1.64300 44.94900 33.16900
H  3.12400 44.10700 32.86500
H  -3.93000 40.05500 27.41700
H  -4.98100 41.19400 26.71300
H  -4.16300 41.61200 28.18300
H  -4.81300 39.67100 25.03300
H  -5.07500 39.65000 23.24100
H  -5.75000 40.91300 24.33200
H  0.76200 42.82500 21.22500
H  3.47900 41.99600 21.46900
H  0.72100 40.04200 21.77100
H  2.16100 40.15300 20.85100
H  0.61000 40.86400 20.22400
H  2.58000 44.78900 21.93600
H  2.27700 44.10500 20.27200
H  4.36900 44.43800 19.60300
H  4.97200 43.54600 20.96300
H  4.62200 45.30800 21.07000
H  7.22600 42.15300 24.95300
H  7.75400 42.80400 26.42600
H  7.22800 43.94600 25.15300
H  4.49000 43.67900 30.46300
H  4.44900 40.09200 33.34100
H  5.45200 41.32100 33.97200
H  6.12800 40.38000 32.72600

