158

Mg 46.84300 24.51200 28.35600
C  47.54000 26.71500 30.93100
C  46.15800 22.06600 30.75600
C  46.79400 22.14400 25.99800
C  47.83000 26.95500 26.05900
N  46.87000 24.45400 30.54600
C  47.06700 25.47000 31.36800
C  46.85700 25.05200 32.85700
C  46.61100 23.54400 32.78300
C  46.56700 23.31200 31.27400
C  47.61100 22.67600 33.57700
C  45.72000 25.85300 33.53300
C  46.15800 26.61900 34.85700
H  45.05900 26.87600 35.94000
N  46.27100 22.39900 28.32900
C  45.95700 21.67400 29.40300
C  45.71400 20.30000 28.90700
C  45.92900 20.24500 27.53600
C  46.33500 21.60800 27.22500
C  45.49100 19.10200 29.80900
C  45.67000 19.07500 26.54800
O  45.97000 19.17800 25.37200
C  45.09200 17.89700 27.01100
N  47.30900 24.53700 26.35500
C  47.12000 23.51200 25.60500
C  47.61300 23.79700 24.16700
C  47.53700 25.33900 24.09400
C  47.61300 25.62200 25.59600
C  48.96400 23.24000 23.70600
C  46.24100 25.86300 23.49100
C  44.90200 25.99100 24.28400
N  47.53300 26.44600 28.39400
C  47.85600 27.37100 27.41400
C  48.19200 28.65600 27.96800
C  48.09000 28.36400 29.39200
C  47.72500 27.06400 29.54100
C  48.65700 29.88400 27.24800
C  48.24800 28.99700 30.70300
O  48.52800 30.18000 30.94000
C  47.91000 27.93700 31.72900
C  49.04300 27.72300 32.66700
O  50.04300 27.02400 32.40500
O  48.83000 28.35900 33.84100
C  49.61200 27.98400 35.02400
H  45.95300 21.21500 31.40900
H  46.99400 21.37800 25.24700
H  47.93400 27.70200 25.26900
H  47.84200 25.32300 33.23700
H  45.59500 23.33800 33.12200
H  48.21200 23.20900 34.31400
H  48.31600 22.15900 32.92500
H  47.06300 21.86900 34.06200
H  44.81700 25.25700 33.66000
H  45.31900 26.53600 32.78400
H  46.38800 27.63800 34.54400
H  47.08700 26.26200 35.30300
H  45.54600 19.14400 30.89700
H  46.13700 18.29800 29.45700
H  44.46800 18.74600 29.68000
H  44.83900 17.18100 26.22800
H  44.19800 18.17400 27.57000
H  45.81700 17.41400 27.66600
H  46.94300 23.26500 23.49100
H  48.34100 25.83300 23.54800
H  49.07500 22.35200 24.32800
H  49.73700 24.00600 23.65300
H  48.77200 22.91200 22.68400
H  45.99500 25.33400 22.57100
H  46.55100 26.84500 23.13200
H  44.08700 25.73900 23.60600
H  44.81700 26.97200 24.75100
H  44.92600 25.22600 25.05900
H  48.18600 30.04700 26.27900
H  49.69000 29.82600 26.90600
H  48.62900 30.78100 27.86700
H  47.09600 28.24300 32.38500
H  50.22900 27.08600 35.05000
H  48.86400 27.72600 35.77300
H  50.24000 28.84100 35.26700
Mg 9.04300 47.23000 26.61500
C  7.13700 47.26600 29.61000
C  11.86900 47.89500 28.53500
C  10.69200 48.04800 23.85900
C  5.98400 47.14300 24.82100
N  9.42300 47.57300 28.84300
C  8.49200 47.41100 29.85900
C  9.22900 47.49400 31.24300
C  10.76000 47.84500 30.81800
C  10.70500 47.74200 29.28800
C  11.20700 49.20200 31.36000
C  9.08200 46.27400 32.22600
C  10.15000 46.11500 33.27300
H  9.50400 45.58800 34.60600
N  11.00700 47.71200 26.21300
C  12.00300 47.90900 27.13800
C  13.27900 47.98200 26.40800
C  12.93300 47.88500 24.98900
C  11.48000 47.85500 25.00900
C  14.65800 48.01100 27.06500
C  13.82800 47.98200 23.77000
O  13.50500 47.75700 22.58600
C  15.20600 48.38600 24.02400
N  8.40800 47.63100 24.61500
C  9.33700 48.08700 23.69700
C  8.66000 48.40400 22.38100
C  7.21800 47.79300 22.57200
C  7.20800 47.51900 24.11500
C  8.59900 49.91500 22.02400
C  6.99400 46.48500 21.74000
C  6.22500 46.55200 20.36600
N  6.99400 47.14800 27.08700
C  5.88200 47.14900 26.20900
C  4.73100 47.12000 27.06700
C  5.13400 47.11000 28.41100
C  6.54500 47.08700 28.37000
C  3.27900 47.02700 26.63400
C  4.71100 47.13600 29.76400
O  3.59400 47.03400 30.30000
C  6.02300 47.14100 30.63200
C  6.11900 45.81900 31.34100
O  6.64000 44.81200 30.88000
O  5.44300 45.89700 32.55200
C  5.65600 44.78600 33.49200
H  12.71200 47.86900 29.22800
H  11.18400 48.52300 23.00800
H  5.12400 47.10900 24.14800
H  8.65200 48.32400 31.65200
H  11.51600 47.11900 31.11900
H  10.62900 49.44900 32.25000
H  10.92600 50.03600 30.71700
H  12.25600 49.18100 31.65500
H  8.99600 45.31600 31.71400
H  8.17300 46.57500 32.74700
H  10.53200 47.09700 33.55400
H  10.93800 45.43900 32.94200
H  15.06300 48.97600 26.76100
H  15.25000 47.12900 26.81700
H  14.50700 48.01900 28.14400
H  15.79500 48.45300 23.10900
H  15.70800 47.64300 24.64300
H  15.32000 49.32600 24.56500
H  9.31600 47.95800 21.63400
H  6.44400 48.50300 22.28000
H  7.60500 50.34400 22.14900
H  8.94500 50.03300 20.99700
H  9.38900 50.42400 22.57500
H  6.56800 45.72700 22.39800
H  7.96600 46.06600 21.48100
H  7.00600 46.57900 19.60600
H  5.55900 47.41200 20.43600
H  5.58400 45.68600 20.19800
H  3.30000 47.34500 25.59200
H  2.71000 47.80600 27.14300
H  2.79100 46.06400 26.78400
H  6.00900 47.94200 31.37000
H  4.66100 44.55600 33.87500
H  6.11100 45.15800 34.41000
H  6.10200 43.87600 33.09100

