158

Mg 47.17100 24.53500 28.05000
C  48.31100 26.79200 30.45700
C  46.79600 22.08600 30.49300
C  46.41900 22.36200 25.66300
C  47.99500 26.92100 25.59800
N  47.46200 24.44600 30.24100
C  47.84400 25.54900 31.00300
C  47.86700 25.15100 32.47100
C  47.38400 23.65400 32.51700
C  47.26400 23.34700 30.99900
C  48.39300 22.72400 33.34000
C  47.05700 26.15700 33.40700
C  46.57000 25.55700 34.70100
H  46.99900 26.29200 36.00900
N  46.58800 22.49800 28.02400
C  46.48100 21.67400 29.17200
C  46.07500 20.32300 28.68400
C  45.93200 20.38600 27.31000
C  46.32200 21.76100 26.92500
C  45.84000 19.19600 29.67000
C  45.60900 19.32200 26.33100
O  45.49300 19.54900 25.16100
C  45.34700 17.91900 26.74300
N  47.14200 24.62900 25.87300
C  46.79800 23.58300 25.12200
C  47.19100 23.84300 23.64100
C  47.31500 25.40900 23.70800
C  47.49200 25.69700 25.13700
C  48.48500 23.09400 23.21300
C  46.06800 26.14500 23.22800
C  46.25400 26.95700 21.93800
N  48.06900 26.41300 27.96000
C  48.30100 27.25800 26.90500
C  48.95300 28.53900 27.35800
C  48.90400 28.40100 28.77300
C  48.39700 27.07800 29.05400
C  49.43600 29.67700 26.56800
C  49.28000 28.99900 30.07800
O  49.78800 30.07700 30.32300
C  48.81200 27.98200 31.16000
C  49.94800 27.71000 32.09300
O  50.96700 27.09400 31.81800
O  49.67100 28.28900 33.30500
C  50.77600 28.38000 34.28000
H  46.63000 21.42400 31.34500
H  46.48000 21.70100 24.79600
H  48.22400 27.62400 24.79400
H  48.91000 25.27400 32.76200
H  46.39700 23.50700 32.95500
H  49.29300 23.12200 33.80700
H  48.69300 21.82900 32.79500
H  47.79400 22.42700 34.20100
H  46.34900 26.61200 32.71400
H  47.78200 26.90800 33.72100
H  46.77400 24.49700 34.85000
H  45.48100 25.55800 34.64400
H  46.67500 19.15500 30.37000
H  45.72100 18.22100 29.19800
H  44.90100 19.45200 30.16100
H  44.97900 17.29800 25.92600
H  44.46700 18.09500 27.36100
H  46.16800 17.47700 27.30800
H  46.34200 23.64100 22.98800
H  48.20100 25.69200 23.14000
H  49.37400 23.72200 23.25800
H  48.30400 22.65900 22.23000
H  48.59900 22.26800 23.91600
H  45.72400 26.91000 23.92400
H  45.20400 25.52000 23.00100
H  47.01900 26.59000 21.25300
H  46.54700 27.93500 22.31900
H  45.30400 27.16300 21.44500
H  49.26500 29.56900 25.49700
H  50.52200 29.75700 26.60900
H  49.02500 30.61900 26.93300
H  48.01900 28.56500 31.62700
H  50.69100 27.64100 35.07600
H  50.70400 29.34200 34.78700
H  51.75500 28.29100 33.80700
Mg 16.29100 51.82000 26.21900
C  18.02200 50.33400 29.02200
C  13.99600 52.92200 28.44800
C  14.81100 53.29800 23.68000
C  18.80900 50.55800 24.18500
N  16.01400 51.51100 28.48500
C  16.90500 51.09000 29.40900
C  16.46000 51.44400 30.89000
C  15.03300 51.99600 30.63700
C  15.00200 52.14300 29.10200
C  13.95600 50.98300 31.10400
C  17.46800 52.53900 31.41200
C  17.68600 52.43200 32.88600
H  16.82800 51.51700 33.73100
N  14.59700 53.02300 26.03800
C  13.79800 53.30700 27.05600
C  12.64700 54.16300 26.45300
C  12.77200 54.08000 25.02900
C  14.08600 53.45100 24.84600
C  11.66900 54.89000 27.30800
C  11.98200 54.72900 23.90000
O  12.38500 54.73700 22.73800
C  10.63200 55.37600 24.22600
N  16.71500 51.88200 24.18700
C  15.97600 52.62300 23.29500
C  16.50000 52.44300 21.83600
C  17.89200 51.76700 22.08100
C  17.79900 51.40500 23.58400
C  15.58700 51.63100 20.83400
C  19.05100 52.76000 21.73700
C  20.33800 52.14800 21.11900
N  17.93700 50.64600 26.47500
C  18.88800 50.22000 25.53900
C  19.89600 49.37300 26.15900
C  19.53300 49.43300 27.54300
C  18.40200 50.22000 27.67700
C  21.14000 48.86900 25.48200
C  19.98600 48.97700 28.77900
O  20.92200 48.30400 29.10700
C  19.10500 49.70800 29.81500
C  18.75700 48.71900 30.86500
O  18.14200 47.70100 30.57000
O  19.29400 49.06200 32.06400
C  19.11800 48.04800 33.15000
H  13.25500 53.35700 29.12100
H  14.44500 53.73300 22.74800
H  19.59900 50.26700 23.48900
H  16.39100 50.50100 31.43100
H  14.85000 52.96600 31.10000
H  13.37100 51.48600 31.87400
H  14.32600 50.02600 31.47200
H  13.29700 50.76400 30.26500
H  17.23200 53.59500 31.27600
H  18.38000 52.35500 30.84400
H  17.49200 53.41600 33.31300
H  18.74800 52.22900 33.02400
H  11.93900 55.94500 27.25100
H  11.67700 54.52200 28.33400
H  10.68400 54.68200 26.89100
H  9.97700 55.54000 23.37000
H  10.71200 56.30200 24.79600
H  10.16200 54.56200 24.77700
H  16.56000 53.39300 21.30500
H  18.08600 50.89900 21.45200
H  16.09100 51.54500 19.87100
H  14.63400 52.13100 20.66300
H  15.30000 50.67800 21.27900
H  19.40000 53.16200 22.68800
H  18.87100 53.59700 21.06300
H  20.34900 51.05800 21.08500
H  21.17500 52.55600 21.68600
H  20.43100 52.53000 20.10300
H  22.01000 49.51500 25.60400
H  20.93700 48.79500 24.41400
H  21.42500 47.90000 25.89300
H  19.72100 50.47600 30.28300
H  18.07300 48.01600 33.45900
H  19.78400 48.39800 33.93800
H  19.49200 47.05300 32.90600

