158

Mg 24.59100 -5.88600 45.54600
C  26.98100 -3.63300 44.16600
C  22.18600 -4.41800 43.55400
C  22.67800 -8.50200 46.18600
C  27.11000 -7.14800 47.65600
N  24.65000 -4.33000 43.88000
C  25.69100 -3.51300 43.55100
C  25.28400 -2.50000 42.51500
C  23.73400 -2.53000 42.67800
C  23.44600 -3.82800 43.46000
C  23.03000 -1.39600 43.41500
C  25.83700 -2.80200 41.06600
C  26.46600 -1.67500 40.22000
H  26.05900 -1.73500 38.78800
N  22.65500 -6.45000 44.96400
C  21.80700 -5.65200 44.23500
C  20.55100 -6.37300 44.04500
C  20.69800 -7.58400 44.72900
C  22.03400 -7.56900 45.29700
C  19.34600 -6.01100 43.14500
C  19.66700 -8.75000 44.81500
O  18.55500 -8.52400 44.36300
C  19.94900 -10.16300 45.39800
N  24.92100 -7.67900 46.61900
C  23.97800 -8.62100 46.76000
C  24.44500 -9.79600 47.56700
C  25.82500 -9.31400 48.16800
C  26.02600 -7.92800 47.49500
C  23.53600 -10.55900 48.50600
C  27.03400 -10.30800 48.04200
C  27.84800 -10.40400 49.34600
N  26.63700 -5.47600 45.91300
C  27.46800 -5.99700 46.83800
C  28.79300 -5.34100 46.74200
C  28.65100 -4.45700 45.65800
C  27.34000 -4.58400 45.16500
C  30.06100 -5.70700 47.51600
C  29.33800 -3.39900 44.90100
O  30.47300 -2.91900 45.07700
C  28.27000 -2.85900 43.90100
C  28.05900 -1.36800 44.08600
O  27.38200 -0.86400 44.96400
O  28.68400 -0.63300 43.13900
C  28.47700 0.84000 43.23100
H  21.47200 -3.89700 42.91300
H  22.08200 -9.36900 46.47800
H  27.86600 -7.42200 48.39500
H  25.65900 -1.52800 42.83500
H  23.35500 -2.59900 41.65900
H  22.59900 -1.78600 44.33700
H  22.31600 -0.80300 42.84300
H  23.76500 -0.63800 43.68900
H  24.94900 -3.04900 40.48300
H  26.52500 -3.63900 41.18900
H  27.50700 -1.93600 40.40800
H  26.20300 -0.74700 40.72800
H  18.38500 -6.29500 43.57300
H  19.39000 -6.58700 42.22100
H  19.34700 -4.92100 43.15200
H  19.17500 -10.79800 44.96600
H  19.95600 -10.23100 46.48500
H  20.98300 -10.45200 45.21000
H  24.68500 -10.64200 46.92200
H  25.62900 -9.13300 49.22500
H  24.08400 -10.84200 49.40500
H  23.15600 -11.41800 47.95200
H  22.68200 -9.95500 48.81300
H  27.71600 -10.08100 47.22300
H  26.83300 -11.35900 47.83400
H  28.91300 -10.40200 49.11400
H  27.66700 -11.35700 49.84300
H  27.52500 -9.64300 50.05600
H  30.63200 -6.45500 46.96500
H  29.93900 -6.15800 48.50100
H  30.69200 -4.85400 47.76500
H  28.49200 -3.07700 42.85600
H  29.46200 1.30300 43.28800
H  27.81200 1.25300 43.98900
H  28.00600 1.23500 42.33000
Mg 26.07700 1.06500 29.61200
C  28.19100 0.63600 32.30700
C  23.43700 1.18100 31.69800
C  24.22800 1.62100 26.95900
C  28.90800 0.45100 27.44700
N  25.83300 0.64000 31.86400
C  26.86200 0.66000 32.75200
C  26.22000 0.80700 34.22000
C  24.67000 0.84000 33.96600
C  24.60700 0.76200 32.42200
C  23.91200 -0.22700 34.84500
C  26.79000 1.93100 35.12300
C  25.92800 2.31900 36.41100
H  26.74800 2.03300 37.63900
N  24.09700 1.28800 29.34900
C  23.13800 1.28900 30.34600
C  21.82600 1.49400 29.77500
C  22.03700 1.63700 28.39000
C  23.46700 1.46000 28.17500
C  20.57900 1.62200 30.62000
C  20.93800 1.77300 27.28600
O  21.22900 1.79300 26.10800
C  19.43800 1.79500 27.66000
N  26.44800 0.81900 27.46100
C  25.53100 1.28900 26.61600
C  26.08000 1.39100 25.20300
C  27.63900 1.25100 25.41600
C  27.66700 0.81300 26.88000
C  25.35100 0.42200 24.21200
C  28.41900 2.67200 25.09500
C  28.00900 3.78700 26.07600
N  28.18600 0.62900 29.78900
C  29.19100 0.43000 28.83400
C  30.38600 0.04100 29.57200
C  30.08100 0.24700 30.89400
C  28.70600 0.58100 31.04000
C  31.62400 -0.47400 28.93900
C  30.59800 0.12700 32.20400
O  31.72600 -0.25400 32.48600
C  29.42200 0.48900 33.21700
C  29.39100 -0.64100 34.19000
O  28.75700 -1.65500 34.12200
O  30.18500 -0.33500 35.25900
C  29.95600 -1.17000 36.39700
H  22.65000 1.29900 32.44600
H  23.60500 1.97200 26.13400
H  29.74800 0.45400 26.74900
H  26.37300 -0.15100 34.71600
H  24.38000 1.84300 34.27800
H  24.56600 -1.05800 35.11100
H  23.16100 -0.78600 34.28600
H  23.42400 0.22400 35.70800
H  26.81100 2.82100 34.49400
H  27.79700 1.69500 35.46700
H  24.92300 1.90500 36.49800
H  25.79000 3.39800 36.47600
H  19.99200 2.53200 30.49500
H  20.84100 1.34100 31.64000
H  19.91500 0.84100 30.25000
H  19.20900 2.31100 28.59300
H  19.17800 0.74700 27.80300
H  18.73100 2.06000 26.87400
H  25.92900 2.39800 24.81400
H  28.12800 0.47400 24.82900
H  24.77400 -0.31900 24.76400
H  25.95100 -0.15300 23.50700
H  24.66900 1.05400 23.64300
H  28.19900 2.88300 24.04800
H  29.47300 2.50700 25.32100
H  27.56300 3.47300 27.01900
H  27.35500 4.40100 25.45600
H  28.89800 4.35300 26.35400
H  32.23200 -1.08500 29.60700
H  32.16800 0.43400 28.68000
H  31.41300 -1.07300 28.05300
H  29.72500 1.43600 33.66500
H  29.09800 -0.77700 36.94200
H  30.79700 -1.08500 37.08400
H  29.98100 -2.23200 36.15300

