158

Mg 7.84600 2.95200 26.81400
C  8.90200 1.54700 29.75300
C  6.16700 5.38500 28.68500
C  6.56700 4.39800 23.93300
C  9.05200 0.24300 24.98500
N  7.57200 3.41900 28.98600
C  8.13600 2.69900 29.97300
C  7.90700 3.38200 31.32700
C  6.80900 4.48000 30.94500
C  6.86700 4.47900 29.44900
C  5.38300 4.13500 31.47800
C  9.21800 3.94300 31.92700
C  9.78300 3.50100 33.26700
H  9.89900 4.67100 34.28200
N  6.49500 4.61300 26.32900
C  5.98700 5.48100 27.27800
C  5.25300 6.55000 26.62000
C  5.36800 6.25000 25.17600
C  6.18000 5.09200 25.07500
C  4.50700 7.61900 27.33200
C  4.71300 7.00600 24.03400
O  4.90600 6.62500 22.85000
C  3.77000 8.11800 24.31900
N  7.87500 2.39900 24.79900
C  7.29300 3.20300 23.79100
C  7.27000 2.41700 22.46600
C  8.25800 1.19700 22.75500
C  8.39300 1.23600 24.29800
C  5.75400 1.92000 22.07600
C  9.67600 1.33700 22.12300
C  10.08000 0.21000 21.19600
N  8.68300 1.17000 27.23800
C  9.21900 0.22000 26.39100
C  9.93400 -0.71900 27.15100
C  9.76200 -0.24500 28.47300
C  9.03800 0.91600 28.47200
C  10.79300 -1.85700 26.69100
C  10.17900 -0.48600 29.85400
O  10.85900 -1.34100 30.36900
C  9.64600 0.74300 30.70700
C  8.89000 0.15700 31.90900
O  7.83500 -0.42400 31.89700
O  9.64700 0.29700 33.03600
C  9.24800 -0.25700 34.36900
H  5.67200 6.16200 29.27200
H  6.24000 4.64000 22.92000
H  9.44800 -0.58400 24.39300
H  7.52900 2.72100 32.10700
H  7.01700 5.44900 31.39700
H  5.32300 3.33300 32.21400
H  4.73800 3.84100 30.65000
H  4.84300 4.97900 31.90700
H  9.05900 5.01400 32.05500
H  10.06000 3.71000 31.27600
H  10.66000 2.92400 32.97300
H  9.10300 2.77500 33.71100
H  3.48700 7.23500 27.31200
H  4.51100 8.65400 26.99000
H  4.77300 7.70800 28.38500
H  2.93800 7.65900 24.85200
H  3.34300 8.37400 23.34900
H  4.16900 9.02300 24.77700
H  7.78800 3.07100 21.76400
H  7.73900 0.27400 22.49800
H  5.09600 2.13900 22.91700
H  5.78400 0.86800 21.79000
H  5.43100 2.47400 21.19600
H  10.41400 1.48800 22.91100
H  9.67900 2.29900 21.61100
H  10.12100 0.73100 20.23900
H  9.31400 -0.54300 21.01200
H  11.08600 -0.12400 21.44900
H  11.30300 -2.28800 27.55200
H  11.44800 -1.45700 25.91700
H  10.26700 -2.64000 26.14400
H  10.52700 1.34800 30.92000
H  10.05200 -0.91500 34.69600
H  8.30500 -0.80300 34.40200
H  9.12100 0.57600 35.06100
Mg 1.23200 42.75800 24.91700
C  3.11200 42.43100 27.84300
C  -1.62600 42.05800 26.96600
C  -0.58300 42.36500 22.13000
C  4.24800 42.80600 23.01800
N  0.80900 42.46900 27.25400
C  1.74500 42.32100 28.16500
C  1.12700 42.09600 29.55100
C  -0.38000 41.90000 29.26500
C  -0.44500 42.08500 27.73400
C  -0.97000 40.56000 29.72800
C  1.50200 43.24100 30.50000
C  1.12300 43.07400 31.96100
H  0.87800 41.68600 32.62400
N  -0.77200 42.40100 24.61500
C  -1.78000 42.19100 25.56000
C  -3.05700 42.11700 24.84400
C  -2.74800 42.33400 23.47900
C  -1.32600 42.29100 23.36900
C  -4.42700 42.06500 25.59500
C  -3.72700 42.39900 22.39800
O  -3.45500 42.20800 21.22100
C  -5.23200 42.53500 22.58000
N  1.77900 42.50600 22.86500
C  0.81800 42.34400 21.94300
C  1.32300 42.38100 20.49900
C  2.86900 42.71500 20.77200
C  3.04200 42.74100 22.29500
C  1.05600 41.10200 19.71400
C  3.29200 44.03900 20.10200
C  2.86600 45.33400 20.74900
N  3.25900 42.74600 25.28200
C  4.34500 42.83500 24.42800
C  5.57200 42.86100 25.26300
C  5.12800 42.70200 26.53400
C  3.73400 42.64400 26.54300
C  6.93400 43.11500 24.84300
C  5.48600 42.53000 27.91300
O  6.59200 42.50600 28.38500
C  4.27200 42.40300 28.82100
C  4.22900 41.12700 29.63300
O  4.00500 40.01900 29.11200
O  4.46400 41.30300 30.95400
C  4.76500 40.05300 31.67000
H  -2.56600 41.93300 27.50700
H  -1.09000 42.30600 21.16500
H  5.12500 42.95600 22.38500
H  1.57500 41.19000 29.95800
H  -1.04600 42.65200 29.69000
H  -0.32600 40.03400 30.43400
H  -1.16700 39.95600 28.84300
H  -1.97100 40.67300 30.14300
H  0.93900 44.09000 30.11200
H  2.54700 43.53800 30.58600
H  0.25700 43.69100 32.19900
H  1.95400 43.60500 32.42400
H  -4.66000 43.10900 25.80400
H  -4.30500 41.52800 26.53600
H  -5.26800 41.62800 25.05700
H  -5.75200 41.62800 22.88800
H  -5.72300 42.98000 21.71400
H  -5.32800 43.25500 23.39200
H  0.81200 43.24000 20.06300
H  3.59800 41.96000 20.48000
H  0.16800 40.55900 20.03600
H  1.89400 40.40500 19.74100
H  0.92200 41.46600 18.69500
H  2.83700 43.93100 19.11800
H  4.37600 44.08400 19.99300
H  2.20200 45.08300 21.57600
H  2.37800 46.01300 20.05000
H  3.75100 45.82700 21.15200
H  7.61000 42.36400 25.25300
H  7.11100 44.10600 25.26200
H  7.09800 42.98400 23.77300
H  4.35000 43.24900 29.50300
H  5.51100 39.40300 31.21300
H  3.88000 39.41900 31.72400
H  5.17100 40.18700 32.67300

