158

Mg 24.82500 -7.86800 47.50500
C  26.95700 -5.23400 46.25900
C  22.46600 -6.94300 45.28000
C  23.24400 -10.70000 48.24400
C  27.75400 -9.06900 49.17900
N  24.84500 -6.36700 45.78000
C  25.71800 -5.31800 45.58800
C  25.16900 -4.25100 44.62200
C  23.66500 -4.75700 44.52200
C  23.64500 -6.09100 45.21500
C  22.74300 -3.68100 45.03500
C  26.02100 -4.17600 43.29600
C  26.58200 -2.76000 42.99000
H  26.28200 -2.26700 41.58700
N  23.05300 -8.67500 46.89900
C  22.17800 -8.09200 46.00200
C  20.98300 -8.83800 45.79000
C  21.15200 -9.93300 46.72600
C  22.48000 -9.81700 47.38200
C  19.86900 -8.47100 44.75700
C  20.05600 -11.04100 47.00900
O  19.03400 -11.02300 46.39600
C  20.42500 -12.04600 48.08400
N  25.46400 -9.66000 48.44100
C  24.53700 -10.61700 48.71300
C  25.15700 -11.67900 49.60400
C  26.52400 -11.09600 50.10300
C  26.61300 -9.87900 49.16400
C  24.27600 -12.28600 50.71000
C  27.79900 -12.04300 50.05100
C  28.76200 -12.16700 51.21000
N  26.88000 -7.25800 47.84000
C  27.93000 -7.82200 48.55000
C  29.05100 -6.96600 48.58800
C  28.72800 -5.90700 47.76100
C  27.41100 -6.20100 47.24500
C  30.29100 -7.28500 49.42700
C  29.12800 -4.62500 47.30100
O  30.16300 -3.95900 47.43800
C  28.03200 -4.21000 46.21300
C  27.56600 -2.81700 46.51600
O  26.58200 -2.45100 47.14500
O  28.37000 -1.89500 45.89400
C  27.90600 -0.53000 45.80700
H  21.74200 -6.54300 44.56700
H  22.78900 -11.64700 48.54100
H  28.41300 -9.46400 49.95400
H  25.15900 -3.27700 45.11100
H  23.31400 -4.90800 43.50100
H  23.28000 -2.79200 45.36600
H  22.12000 -4.04700 45.85100
H  22.07000 -3.45700 44.20700
H  25.47000 -4.49800 42.41300
H  26.90400 -4.81200 43.35700
H  27.65600 -2.93800 43.04100
H  26.34000 -1.91800 43.63800
H  20.15900 -8.66000 43.72400
H  19.51300 -7.44200 44.70900
H  18.93100 -9.00800 44.89600
H  21.19500 -12.69400 47.66700
H  19.57700 -12.70300 48.27900
H  20.71900 -11.47500 48.96500
H  25.43300 -12.53000 48.98100
H  26.52700 -10.74000 51.13300
H  23.31600 -11.80200 50.89100
H  24.85300 -12.18300 51.62900
H  24.10600 -13.34700 50.52600
H  28.44000 -11.74900 49.22000
H  27.31600 -12.99400 49.82600
H  29.75100 -12.20100 50.75400
H  28.53800 -13.05400 51.80300
H  28.73700 -11.21700 51.74400
H  29.98100 -7.52700 50.44400
H  30.89700 -6.37900 49.42200
H  30.75900 -8.20600 49.07700
H  28.46900 -4.14600 45.21700
H  26.83600 -0.59300 45.60700
H  28.45700 -0.07700 44.98300
H  28.03800 0.01000 46.74400
Mg 15.72400 52.34800 25.37600
C  17.95300 51.02700 27.93700
C  13.40700 52.87000 27.72600
C  13.85800 53.28800 22.91700
C  18.26000 51.28100 23.00800
N  15.80000 52.13700 27.58400
C  16.79800 51.60200 28.41800
C  16.35200 51.80900 29.83500
C  14.81900 52.05500 29.72100
C  14.62200 52.41100 28.26900
C  13.93200 50.80400 30.17500
C  17.10900 53.11900 30.36000
C  17.12100 53.44900 31.84300
H  16.14100 52.62200 32.74100
N  13.85900 53.00800 25.36700
C  13.00900 53.11800 26.41400
C  11.71200 53.66000 25.93400
C  11.94200 53.91700 24.55800
C  13.28200 53.40000 24.20400
C  10.48900 53.89300 26.81900
C  10.88500 54.45600 23.59300
O  11.11100 54.47300 22.36300
C  9.52900 54.89600 24.13400
N  16.08800 52.24800 23.27400
C  15.16100 52.85000 22.50000
C  15.54400 52.76200 21.01300
C  16.98000 52.24500 21.03300
C  17.15800 51.95200 22.52100
C  14.57000 52.05600 20.04800
C  18.05900 53.11200 20.35300
C  18.47500 52.65200 18.93300
N  17.69400 51.31100 25.42900
C  18.54300 50.95900 24.37400
C  19.66800 50.20300 24.91700
C  19.56500 50.26100 26.31300
C  18.33300 50.97000 26.59700
C  20.74800 49.59800 24.12800
C  20.09400 49.92300 27.60200
O  21.09300 49.35200 27.95500
C  19.09500 50.49900 28.70000
C  18.81200 49.58600 29.83500
O  18.53400 48.34600 29.75800
O  19.15200 50.23500 30.98000
C  19.06500 49.47900 32.26400
H  12.61500 53.05900 28.45300
H  13.17700 53.47300 22.08400
H  19.00000 50.99400 22.25800
H  16.43800 50.92300 30.46400
H  14.58400 53.00200 30.20700
H  14.49200 49.90500 30.43100
H  13.22300 50.54000 29.39000
H  13.25200 51.07400 30.98300
H  16.58800 53.97500 29.93300
H  18.10200 53.07400 29.91200
H  16.84500 54.48200 32.05500
H  18.13500 53.31400 32.22100
H  9.67900 53.21100 26.56200
H  10.21900 54.94100 26.94600
H  10.68400 53.57200 27.84200
H  8.98700 54.20100 24.77500
H  9.02200 54.84000 23.17100
H  9.75300 55.89000 24.52200
H  15.52100 53.81200 20.72300
H  16.90400 51.29500 20.50300
H  13.60800 51.74600 20.45500
H  14.92600 51.07600 19.73100
H  14.39500 52.61300 19.12800
H  18.91200 53.22400 21.02200
H  17.63800 54.11700 20.30700
H  17.99600 51.76600 18.51600
H  19.52400 52.42700 19.12600
H  18.47800 53.53800 18.29800
H  21.63200 50.18300 23.87600
H  20.22600 49.09500 23.31300
H  20.95200 48.74000 24.76800
H  19.65600 51.30200 29.17700
H  19.86700 48.74100 32.26200
H  18.12700 48.94300 32.41200
H  19.12800 50.17400 33.10100

