158

Mg 2.35000 -0.77300 44.38800
C  5.89200 -0.23700 44.06600
C  1.99700 2.08200 42.59900
C  -0.91700 -1.63800 43.98000
C  2.97700 -3.83500 45.86500
N  3.86800 0.58400 43.17300
C  5.23800 0.69200 43.35700
C  5.82000 2.01300 42.69300
C  4.49600 2.83500 42.36800
C  3.39200 1.78300 42.80700
C  4.45800 4.31600 42.90900
C  6.59100 1.72600 41.41200
C  7.66600 2.77300 40.96100
H  7.24300 3.49600 39.75400
N  0.76700 0.12800 43.42800
C  0.80900 1.34300 42.78200
C  -0.54200 1.68000 42.28400
C  -1.42000 0.65100 42.66900
C  -0.52900 -0.36300 43.36300
C  -0.77900 3.00300 41.50600
C  -2.90500 0.63200 42.41000
O  -3.42200 1.58100 41.82500
C  -3.76600 -0.43800 42.81800
N  1.21100 -2.62300 44.61200
C  -0.17000 -2.60600 44.58900
C  -0.69800 -3.95600 45.02100
C  0.53900 -4.58900 45.78700
C  1.72000 -3.64900 45.37300
C  -2.00700 -3.86700 45.87500
C  0.79000 -6.08000 45.48600
C  0.64000 -7.10200 46.65000
N  4.10900 -1.92000 44.88100
C  4.15000 -3.10700 45.54200
C  5.50400 -3.32900 45.87800
C  6.25400 -2.27900 45.30700
C  5.30500 -1.41600 44.70500
C  6.14200 -4.50200 46.59700
C  7.55200 -1.68000 45.20800
O  8.62500 -2.12000 45.66600
C  7.39500 -0.40400 44.27300
C  7.95900 0.81100 44.96600
O  7.71100 1.27600 46.06900
O  8.95300 1.32400 44.10700
C  9.51700 2.59600 44.57700
H  1.99500 3.09800 42.19900
H  -1.99000 -1.83800 43.95400
H  3.17200 -4.70000 46.50300
H  6.50300 2.49000 43.39600
H  4.39500 2.99000 41.29400
H  4.25700 5.15000 42.23600
H  5.38800 4.58500 43.41000
H  3.80400 4.21000 43.77500
H  5.94300 1.48400 40.57000
H  7.18600 0.81300 41.45200
H  8.68600 2.44600 40.75700
H  7.81800 3.52000 41.74000
H  0.11900 3.61500 41.42100
H  -1.52900 3.61800 42.00200
H  -1.07000 2.80200 40.47500
H  -4.80000 -0.23700 42.53600
H  -3.68300 -0.52300 43.90200
H  -3.43800 -1.32900 42.28200
H  -0.99600 -4.50100 44.12500
H  0.42900 -4.46500 46.86400
H  -2.62900 -4.75200 45.74300
H  -2.62500 -3.00400 45.62600
H  -1.77900 -3.84400 46.94100
H  1.77300 -6.11800 45.01500
H  0.09900 -6.40900 44.71000
H  1.52700 -7.72600 46.54100
H  -0.24900 -7.72300 46.54100
H  0.62700 -6.66100 47.64700
H  5.99500 -4.34400 47.66500
H  7.22900 -4.56200 46.53200
H  5.67700 -5.41600 46.22900
H  7.93700 -0.57000 43.34200
H  10.52500 2.75000 44.19200
H  9.63000 2.51100 45.65800
H  8.89900 3.48400 44.45300
Mg -4.17000 24.71700 26.84600
C  -2.83000 26.66300 29.28100
C  -5.72400 22.75300 29.23600
C  -5.43600 22.76100 24.37800
C  -2.40200 26.61200 24.37500
N  -4.27600 24.72200 28.99500
C  -3.74300 25.70300 29.74900
C  -4.39000 25.68900 31.11300
C  -5.05300 24.22500 31.15700
C  -5.00800 23.82000 29.72400
C  -4.30100 23.21000 32.13300
C  -5.31900 26.85500 31.50800
C  -5.15300 27.40000 32.85600
H  -4.96900 26.30000 33.93300
N  -5.42600 23.07300 26.81800
C  -6.00300 22.42600 27.92500
C  -6.72100 21.23200 27.45500
C  -6.67900 21.28100 26.02000
C  -5.83600 22.41000 25.68700
C  -7.26100 20.18200 28.44100
C  -7.31700 20.33000 24.98200
O  -7.18000 20.41600 23.75000
C  -8.20200 19.12000 25.41200
N  -4.07100 24.70600 24.60900
C  -4.65300 23.81500 23.78800
C  -4.49000 24.17100 22.31600
C  -3.63200 25.53900 22.44500
C  -3.33400 25.67100 23.94100
C  -3.86100 23.02000 21.53200
C  -4.42100 26.77700 21.87900
C  -3.54400 27.53600 20.77800
N  -2.90400 26.23500 26.74900
C  -2.27300 27.00700 25.72400
C  -1.43600 28.08200 26.26600
C  -1.71500 28.02600 27.61800
C  -2.50500 26.86100 27.87900
C  -0.56900 29.00300 25.50500
C  -1.48800 28.72500 28.87900
O  -0.85700 29.74900 29.14400
C  -2.20400 27.82300 29.99100
C  -1.33100 27.35800 31.14000
O  -0.27500 26.85700 30.99500
O  -1.78500 27.65900 32.41200
C  -0.99100 27.27600 33.53200
H  -6.17500 22.11500 29.99800
H  -5.61200 22.00700 23.60900
H  -1.97000 27.31600 23.66200
H  -3.63300 25.64000 31.89600
H  -6.10000 24.21400 31.46100
H  -3.61400 23.68200 32.83500
H  -3.83300 22.37400 31.61300
H  -5.13900 22.79500 32.69300
H  -6.37000 26.64400 31.31000
H  -5.16900 27.63900 30.76600
H  -6.04700 27.97800 33.09200
H  -4.25600 28.01600 32.78600
H  -7.16800 19.15800 28.07900
H  -8.32700 20.28100 28.64700
H  -6.65000 20.08400 29.33800
H  -9.11100 19.60100 25.77200
H  -7.77400 18.49600 26.19700
H  -8.46300 18.45700 24.58700
H  -5.49100 24.39000 21.94500
H  -2.61900 25.47200 22.04800
H  -3.86400 22.07100 22.06800
H  -2.86100 23.23000 21.15200
H  -4.52000 22.98200 20.66500
H  -4.54700 27.52000 22.66700
H  -5.38800 26.56900 21.42100
H  -2.73600 26.92000 20.38500
H  -3.26400 28.53000 21.12700
H  -4.08000 27.78100 19.86100
H  0.15500 29.36300 26.23700
H  -1.23500 29.77500 25.11800
H  -0.12500 28.37900 24.73000
H  -2.95900 28.39500 30.52900
H  -1.39500 27.97700 34.26300
H  0.09000 27.26600 33.39500
H  -1.33600 26.29000 33.84000

