158

Mg 8.15500 3.26900 27.42100
C  9.52900 1.72700 30.23100
C  6.64200 5.48200 29.46600
C  6.83500 4.55600 24.74300
C  9.70700 0.73800 25.39900
N  8.00900 3.38100 29.65800
C  8.70400 2.74800 30.59000
C  8.43100 3.35200 31.97100
C  7.43600 4.54600 31.67100
C  7.31600 4.50100 30.16700
C  6.04700 4.55700 32.43400
C  9.65200 3.80500 32.89700
C  9.29500 4.66500 34.07400
H  9.87900 4.48800 35.47300
N  6.71400 4.71100 27.12900
C  6.23600 5.52300 28.08600
C  5.31600 6.48300 27.48400
C  5.43300 6.28800 26.11700
C  6.31600 5.15200 25.89400
C  4.54400 7.44400 28.31600
C  4.74200 7.05100 24.98700
O  4.81800 6.78200 23.76400
C  3.92600 8.25300 25.39300
N  8.27800 2.75100 25.39600
C  7.69500 3.49800 24.43000
C  7.90900 2.96700 23.02600
C  9.08900 1.98700 23.26700
C  9.02600 1.80100 24.74500
C  6.59000 2.51600 22.38900
C  10.46300 2.39900 22.71600
C  11.46100 2.99100 23.70300
N  9.21500 1.45200 27.67700
C  9.79600 0.57800 26.81600
C  10.58700 -0.41600 27.52200
C  10.43900 0.00300 28.85000
C  9.61400 1.15400 28.89500
C  11.47100 -1.51800 26.85400
C  11.05200 -0.17400 30.13500
O  11.93500 -0.94900 30.53400
C  10.51400 0.97800 31.04100
C  9.90400 0.34700 32.27200
O  8.96000 -0.48400 32.19800
O  10.61600 0.62500 33.41700
C  10.26700 -0.00700 34.65100
H  6.27700 6.29700 30.09500
H  6.37000 5.04100 23.88200
H  10.34000 0.21300 24.68000
H  7.91800 2.59500 32.56400
H  7.91800 5.48900 31.92600
H  5.27600 4.83600 31.71700
H  6.15000 5.40900 33.10600
H  5.82200 3.65500 33.00200
H  10.44200 4.20300 32.26000
H  10.03800 2.90200 33.36900
H  8.22800 4.57500 34.27700
H  9.56500 5.68100 33.78700
H  4.80400 8.50000 28.23100
H  4.63000 7.22500 29.38000
H  3.48100 7.42200 28.07400
H  3.63000 8.70900 24.44800
H  4.62600 8.98400 25.79600
H  3.11200 8.03000 26.08300
H  8.23000 3.84200 22.46100
H  8.84600 1.06500 22.73800
H  5.65600 2.56800 22.94800
H  6.74900 1.44400 22.27200
H  6.54200 2.96700 21.39800
H  10.14100 2.91300 21.81000
H  10.98100 1.49400 22.39900
H  12.27400 2.35200 24.04900
H  10.88900 3.38500 24.54300
H  11.89500 3.89300 23.27200
H  12.52300 -1.35800 27.09100
H  11.38500 -1.55700 25.76800
H  11.14900 -2.46500 27.28600
H  11.41200 1.47900 31.40400
H  9.61200 0.68100 35.18600
H  11.17700 -0.04900 35.24900
H  9.84300 -1.00600 34.55100
Mg -10.51800 37.97700 40.98200
C  -9.30100 34.94200 40.28600
C  -7.57400 39.43700 39.72000
C  -12.09000 40.97800 40.84000
C  -13.44300 36.56300 41.96100
N  -8.77400 37.32300 39.96000
C  -8.45100 35.97100 39.87600
C  -7.05100 35.80700 39.17000
C  -6.45900 37.20600 39.30500
C  -7.68100 38.05100 39.62300
C  -5.31200 37.41600 40.41700
C  -7.16200 35.39500 37.65900
C  -6.08700 34.48900 37.17300
H  -5.83300 34.42400 35.65800
N  -9.92900 39.90500 40.32600
C  -8.68700 40.35700 39.90700
C  -8.73500 41.77700 39.85800
C  -10.08900 42.21200 40.04800
C  -10.75300 41.00500 40.48200
C  -7.48200 42.58600 39.56500
C  -10.57200 43.71400 39.79600
O  -9.76400 44.52500 39.35700
C  -12.01200 43.99200 39.66700
N  -12.48800 38.63800 41.11900
C  -12.86700 39.92700 41.10400
C  -14.24700 40.13600 41.75100
C  -14.76500 38.69900 41.77400
C  -13.47000 37.94000 41.69100
C  -14.12900 40.93000 43.12000
C  -15.74200 38.34500 40.65600
C  -17.17100 38.55400 40.87100
N  -11.19600 36.11200 41.37900
C  -12.37600 35.67700 41.84500
C  -12.33100 34.22100 41.99900
C  -11.16300 33.87400 41.29100
C  -10.49300 35.09200 40.97300
C  -13.40700 33.35200 42.61000
C  -10.33800 32.76200 40.79400
O  -10.48900 31.53200 40.89200
C  -9.11200 33.41500 40.04900
C  -7.83500 32.83200 40.60400
O  -7.22900 32.02200 39.97800
O  -7.49900 33.32600 41.84600
C  -6.23600 32.86100 42.46900
H  -6.58300 39.83100 39.48300
H  -12.52700 41.95600 41.05000
H  -14.42400 36.09500 42.06600
H  -6.38900 35.09400 39.66100
H  -6.02800 37.35800 38.31600
H  -5.08000 36.41800 40.78700
H  -5.63700 38.05600 41.23700
H  -4.45900 37.83400 39.88200
H  -7.23000 36.33700 37.11400
H  -8.05900 34.87900 37.31700
H  -6.41500 33.54000 37.59800
H  -5.10700 34.67800 37.61200
H  -7.54200 43.13200 38.62400
H  -6.53100 42.05500 39.61300
H  -7.43400 43.49100 40.17000
H  -12.45600 43.08100 39.26600
H  -12.21200 44.81200 38.97600
H  -12.26800 44.18800 40.70800
H  -14.70200 40.79700 41.01300
H  -15.20300 38.45700 42.74200
H  -13.17900 41.45900 43.04600
H  -13.99900 40.25000 43.96100
H  -14.93700 41.59900 43.41800
H  -15.49300 37.39500 40.18300
H  -15.59000 39.04500 39.83400
H  -17.61100 37.60800 41.18800
H  -17.76200 38.75700 39.97800
H  -17.30500 39.45700 41.46600
H  -13.58800 33.79900 43.58800
H  -12.99800 32.34400 42.66900
H  -14.35500 33.40700 42.07500
H  -9.27000 33.11900 39.01200
H  -5.61300 32.37800 41.71600
H  -6.33900 32.15700 43.29500
H  -5.56300 33.68000 42.72000

