158

Mg 50.84800 46.93000 41.24600
C  47.62800 47.47700 40.23200
C  50.44100 43.66600 40.09500
C  54.18000 46.44800 41.53700
C  51.13100 50.14800 42.36600
N  49.17400 45.75000 40.21300
C  47.99100 46.18600 39.83300
C  47.09600 45.12900 39.19900
C  47.96800 43.80400 39.46400
C  49.27100 44.41500 39.99600
C  47.35800 42.78200 40.41600
C  46.79800 45.41100 37.71900
C  45.37400 45.24200 37.32200
H  45.04100 44.15300 36.27700
N  52.06300 45.29000 40.92900
C  51.72000 43.99900 40.52500
C  52.85200 43.13900 40.58000
C  53.94000 43.85200 41.04000
C  53.41200 45.26400 41.26000
C  52.92200 41.66000 40.05000
C  55.27800 43.33600 41.21200
O  55.59100 42.18000 40.88200
C  56.35800 44.17700 41.70100
N  52.46000 48.15400 41.74300
C  53.72800 47.69800 41.87100
C  54.65300 48.87300 42.35000
C  53.62200 50.04100 42.59300
C  52.29700 49.39900 42.27100
C  55.59700 48.71700 43.55600
C  53.85400 51.35600 41.81900
C  53.98100 52.65400 42.71600
N  49.57800 48.54000 41.39600
C  49.82900 49.82500 41.86700
C  48.58900 50.64000 41.65700
C  47.72300 49.75700 41.01900
C  48.32700 48.50500 40.89900
C  48.44000 52.04200 41.86800
C  46.42500 49.59100 40.34400
O  45.67900 50.46500 40.01200
C  46.28200 48.18200 39.83400
C  45.02500 47.51900 40.30800
O  44.97500 46.78900 41.27700
O  43.91900 47.97300 39.58500
C  42.64600 47.28300 39.81200
H  50.34900 42.62400 39.77800
H  55.25600 46.26500 41.56900
H  51.23000 51.20800 42.60800
H  46.18100 45.08500 39.79000
H  48.14900 43.32900 38.50000
H  46.43000 43.21000 40.79600
H  48.06500 42.61600 41.22900
H  47.16600 41.86600 39.85800
H  47.40500 44.84600 37.01100
H  47.09700 46.44900 37.57300
H  44.86900 46.13800 36.96200
H  44.88600 45.03600 38.27500
H  53.23900 41.69800 39.00800
H  51.88000 41.34500 40.09700
H  53.56900 40.96700 40.58900
H  56.17000 44.82200 42.55900
H  56.66800 44.81600 40.87400
H  57.19400 43.56200 42.03500
H  55.18800 49.00400 41.41000
H  53.68700 50.18000 43.67200
H  55.38100 47.65900 43.70100
H  55.29500 49.29400 44.43000
H  56.61800 48.83700 43.19300
H  53.07400 51.54700 41.08100
H  54.75000 51.24000 41.20800
H  53.14600 53.30800 42.46500
H  54.92800 53.13100 42.46400
H  53.93100 52.35300 43.76200
H  49.33700 52.56500 42.20000
H  47.74400 52.23000 42.68700
H  48.07600 52.58600 40.99600
H  46.22700 48.16800 38.74500
H  41.94200 47.54000 39.02100
H  42.35700 47.60700 40.81100
H  42.82100 46.20800 39.86400
Mg 28.12600 56.72800 40.76500
C  25.56000 54.31200 40.09500
C  30.35900 54.32600 39.63500
C  30.25700 59.10700 40.41600
C  25.47500 58.96800 41.16500
N  27.92500 54.55200 39.95300
C  26.81200 53.84400 39.69300
C  27.12500 52.46100 39.01500
C  28.69500 52.41700 39.16900
C  29.05300 53.86500 39.64000
C  29.07500 51.30400 40.22100
C  26.58500 52.36500 37.59400
C  26.78500 53.66400 36.76200
H  27.03400 53.41500 35.26300
N  30.08200 56.72400 40.18400
C  30.83100 55.64400 39.74800
C  32.15200 56.19400 39.52000
C  32.14100 57.56700 39.78800
C  30.79800 57.83000 40.15700
C  33.26200 55.32800 39.12700
C  33.38700 58.38700 39.59600
O  34.41500 57.97500 39.07600
C  33.37700 59.88800 40.03200
N  27.89900 58.70000 40.86400
C  28.97600 59.52200 40.81000
C  28.55300 61.01600 41.09000
C  27.01300 60.89400 41.26600
C  26.74100 59.43600 41.12300
C  29.29000 61.58500 42.30800
C  26.32500 61.68300 40.09000
C  25.67500 62.99700 40.62000
N  26.02000 56.59600 41.06900
C  25.08900 57.59600 41.22100
C  23.78900 57.00100 41.48400
C  23.91900 55.68400 41.04200
C  25.28500 55.50700 40.72800
C  22.49300 57.65100 41.84900
C  23.15400 54.47200 40.66600
O  21.97000 54.15300 40.77400
C  24.23300 53.54600 40.06300
C  24.23800 52.27600 40.80100
O  24.05800 51.18000 40.21000
O  24.63000 52.43700 42.08000
C  25.25100 51.26300 42.66100
H  31.09400 53.68100 39.15000
H  30.90700 59.97600 40.28800
H  24.60100 59.58900 41.36900
H  26.67400 51.65000 39.58700
H  29.15700 52.21400 38.20300
H  29.77300 51.76600 40.91800
H  29.70200 50.53500 39.77000
H  28.24900 50.90500 40.81000
H  25.51800 52.14300 37.62100
H  27.07300 51.54200 37.07200
H  27.64400 54.20500 37.16000
H  25.93900 54.32600 36.94600
H  34.16500 55.36800 39.73600
H  33.46900 55.45600 38.06500
H  33.02400 54.26500 39.15000
H  32.87900 59.86800 41.00100
H  32.74000 60.37700 39.29500
H  34.41900 60.18400 40.15800
H  28.84400 61.56500 40.19400
H  26.73200 61.17000 42.28200
H  29.77600 62.52100 42.03200
H  30.03700 60.89300 42.69700
H  28.63500 61.75200 43.16300
H  25.55700 61.00100 39.72600
H  26.98400 61.99400 39.27800
H  25.73700 63.12900 41.70000
H  24.64700 63.05000 40.26200
H  26.20400 63.84000 40.17500
H  21.76400 56.84100 41.85700
H  22.15900 58.17300 40.95200
H  22.48400 58.29000 42.73200
H  24.01400 53.18000 39.06000
H  25.53000 51.47900 43.69200
H  26.16700 50.99600 42.13600
H  24.59900 50.39000 42.68200

