158

Mg 8.29500 2.52000 27.81300
C  9.68100 1.00300 30.49700
C  6.52700 4.50900 29.93100
C  6.64400 3.78500 25.10800
C  9.64900 0.11000 25.66400
N  8.27800 2.85200 29.94000
C  9.00500 2.14400 30.88900
C  8.79300 2.75300 32.29700
C  7.56700 3.72600 32.06000
C  7.51200 3.73000 30.53400
C  6.24200 3.15900 32.67000
C  10.07900 3.39500 32.95400
C  10.39700 2.95200 34.37900
H  10.32000 4.03800 35.42600
N  6.70300 3.97500 27.55200
C  6.14300 4.71200 28.53400
C  5.17400 5.65000 27.93300
C  5.19700 5.42800 26.54600
C  6.30400 4.39400 26.33000
C  4.30300 6.61900 28.76000
C  4.36800 6.08200 25.45800
O  4.38500 5.84400 24.23000
C  3.37800 7.04600 25.85700
N  8.11500 2.01900 25.66400
C  7.49000 2.76800 24.77300
C  7.74200 2.32700 23.32000
C  8.79400 1.15800 23.44700
C  8.85900 1.07400 24.99700
C  6.42300 2.02200 22.50800
C  10.13700 1.38000 22.80400
C  10.75000 0.09400 22.21500
N  9.28800 0.77900 27.93400
C  9.80900 -0.10600 27.00200
C  10.63100 -1.10800 27.60900
C  10.52600 -0.74400 28.99500
C  9.70600 0.43300 29.15300
C  11.39500 -2.29000 27.01600
C  10.92800 -1.15900 30.31700
O  11.55800 -2.11000 30.67500
C  10.48800 -0.05100 31.34300
C  9.76100 -0.65300 32.44400
O  8.86500 -1.44700 32.29700
O  10.27000 -0.25800 33.64400
C  9.73100 -0.89600 34.86300
H  5.93200 5.20300 30.52800
H  6.18200 4.32900 24.28200
H  10.17500 -0.56700 24.98800
H  8.48200 1.95700 32.97300
H  7.68400 4.72800 32.47200
H  5.71700 2.49600 31.98100
H  5.48100 3.90600 32.89800
H  6.41800 2.56800 33.56800
H  10.04400 4.46300 32.74000
H  10.91900 3.02100 32.36800
H  11.45000 2.68000 34.31200
H  9.75200 2.10200 34.60100
H  4.72300 6.62600 29.76600
H  3.26000 6.30500 28.75200
H  4.44400 7.63000 28.37800
H  3.77100 8.03600 26.09000
H  2.72700 6.69000 26.65600
H  2.71500 7.21400 25.00800
H  8.24000 3.12300 22.76500
H  8.43500 0.15600 23.21100
H  5.61600 2.12000 23.23300
H  6.55200 1.03400 22.06700
H  6.20000 2.82200 21.80200
H  10.81600 1.67900 23.60200
H  10.11600 2.17400 22.05600
H  10.87000 0.36200 21.16500
H  10.05300 -0.74400 22.20400
H  11.64600 -0.25300 22.73000
H  12.26700 -2.36000 27.66700
H  11.60800 -1.90800 26.01800
H  10.85200 -3.23000 26.91500
H  11.33500 0.32900 31.91300
H  9.16200 -0.10600 35.35300
H  10.56700 -1.17000 35.50600
H  9.05600 -1.73800 34.70800
Mg 7.97700 53.72800 40.51300
C  7.08200 50.38800 40.15000
C  11.14400 52.89600 39.27700
C  8.65000 56.97000 40.03900
C  4.55600 54.52900 40.92600
N  8.87200 51.90100 39.69100
C  8.36200 50.65200 39.71300
C  9.34500 49.60800 39.08500
C  10.68400 50.36300 39.31800
C  10.20800 51.85000 39.36300
C  11.44000 50.19700 40.65200
C  9.14300 49.18300 37.62100
C  8.09500 49.87100 36.70900
H  7.52600 48.98700 35.59600
N  9.71100 54.85800 39.85000
C  10.93000 54.27700 39.54600
C  11.93000 55.30600 39.56700
C  11.26600 56.51700 39.65100
C  9.83200 56.19500 39.84600
C  13.44600 55.02200 39.60100
C  11.92100 57.89700 39.67800
O  13.11500 57.99600 39.84300
C  11.10800 59.11400 39.62800
N  6.69300 55.44700 40.47900
C  7.25300 56.70900 40.29800
C  6.22200 57.84300 40.55600
C  4.86800 57.00300 40.85100
C  5.37200 55.57900 40.77800
C  6.63400 58.91100 41.59800
C  3.65100 57.33500 39.88200
C  2.28200 57.22300 40.55400
N  6.19800 52.73000 40.68500
C  4.91300 53.21400 41.02700
C  4.06500 52.09200 41.17300
C  4.91100 51.02000 40.96100
C  6.17300 51.42400 40.63200
C  2.66600 51.95600 41.66000
C  4.93900 49.56200 40.96700
O  4.10700 48.69900 41.21400
C  6.35900 49.03300 40.44700
C  6.21100 48.11200 39.25300
O  5.63300 48.51000 38.19500
O  6.49800 46.79600 39.47000
C  6.31600 45.85500 38.40500
H  12.15700 52.54500 39.07100
H  8.76400 58.04700 39.90000
H  3.49200 54.54700 41.17100
H  9.35400 48.66200 39.62800
H  11.45300 50.27200 38.55000
H  10.98800 49.25900 40.97300
H  11.29700 51.02300 41.35000
H  12.50800 50.05900 40.48600
H  9.00900 48.10400 37.53200
H  10.13200 49.35200 37.19500
H  8.48600 50.72300 36.15300
H  7.21600 50.16300 37.28400
H  13.88300 55.61600 38.79700
H  13.71100 53.98200 39.41300
H  13.92800 55.33600 40.52700
H  11.68100 60.02700 39.79200
H  10.31100 59.01500 40.36400
H  10.57100 59.18100 38.68200
H  6.14400 58.24000 39.54400
H  4.55600 57.11200 41.89000
H  6.46500 59.93500 41.26300
H  7.62600 58.67300 41.98100
H  5.87000 58.95300 42.37500
H  3.67300 56.58000 39.09600
H  3.75700 58.38000 39.59300
H  2.31000 57.34800 41.63600
H  1.86000 56.22000 40.49000
H  1.73600 57.97300 39.98100
H  2.27400 50.94600 41.54500
H  2.14500 52.82100 41.25000
H  2.70900 52.01600 42.74700
H  6.79500 48.46900 41.27200
H  6.70500 46.37100 37.52700
H  5.27200 45.54800 38.46800
H  6.90600 44.96000 38.60600

