158

Mg 41.12800 7.91600 28.75700
C  42.93900 9.20300 31.44300
C  38.74500 6.75100 31.02200
C  39.52000 6.39800 26.19300
C  43.75900 8.84700 26.68000
N  40.94800 7.86300 31.02200
C  41.78500 8.57100 31.92200
C  41.26200 8.50600 33.32000
C  39.94500 7.67600 33.21000
C  39.90900 7.33600 31.68400
C  39.82800 6.43200 34.16500
C  41.24500 9.89900 34.03400
C  40.45400 10.04300 35.32800
H  41.36400 10.00000 36.63900
N  39.31400 6.84100 28.59100
C  38.46600 6.49700 29.66500
C  37.35400 5.77800 29.09000
C  37.47500 5.72700 27.64900
C  38.86200 6.25200 27.40800
C  36.24300 5.20900 29.85900
C  36.46200 5.42200 26.55700
O  36.64000 5.61600 25.40600
C  35.03800 5.03600 26.93800
N  41.58100 7.66400 26.74300
C  40.81600 6.93500 25.89800
C  41.37200 6.95200 24.43800
C  42.58600 7.96800 24.60400
C  42.61200 8.28600 26.08300
C  41.69700 5.55600 23.91200
C  42.38200 9.29700 23.80700
C  40.99900 10.00200 23.80200
N  43.01300 8.77800 28.94000
C  43.94200 9.12900 28.05100
C  45.02700 9.77600 28.64100
C  44.60300 9.88800 29.94900
C  43.42800 9.23700 30.10800
C  46.10700 10.47800 27.81000
C  44.91500 10.54300 31.18200
O  45.78700 11.43600 31.33400
C  43.83200 10.07000 32.22100
C  44.52700 9.24300 33.31800
O  44.73400 8.04500 33.44100
O  44.87900 10.14700 34.33800
C  45.72900 9.61000 35.38400
H  37.99200 6.52300 31.77900
H  38.98100 6.01300 25.32500
H  44.42500 9.35100 25.97600
H  42.04900 7.87200 33.72700
H  39.13000 8.38300 33.36400
H  39.61600 5.50800 33.62800
H  38.87300 6.61100 34.65900
H  40.57800 6.36900 34.95400
H  41.04200 10.71200 33.33700
H  42.29100 10.00600 34.32400
H  39.87000 9.13800 35.49400
H  39.83900 10.94300 35.32100
H  36.29600 5.29300 30.94500
H  36.07800 4.18700 29.51800
H  35.32600 5.67900 29.50600
H  34.98700 4.30400 27.74400
H  34.49500 4.74500 26.03800
H  34.46000 5.83300 27.40500
H  40.50000 7.32800 23.90300
H  43.54200 7.53600 24.31100
H  41.75900 4.94900 24.81500
H  42.70600 5.62600 23.50500
H  40.84700 5.28000 23.28900
H  42.59100 9.06700 22.76300
H  43.11900 9.97300 24.24200
H  41.25900 10.97800 24.21000
H  40.26600 9.57600 24.48700
H  40.55000 10.13300 22.81700
H  46.88600 10.90200 28.44500
H  45.49200 11.27500 27.39300
H  46.61900 10.02700 26.96000
H  43.40600 10.94300 32.71500
H  45.05200 9.52700 36.23400
H  46.56100 10.22900 35.72000
H  46.14400 8.60800 35.28200
Mg -5.39400 24.69900 26.54600
C  -3.71200 26.46200 29.26100
C  -6.22000 22.36800 28.92500
C  -6.80900 22.85900 24.19200
C  -3.98400 26.90700 24.35400
N  -5.15900 24.55700 28.82000
C  -4.49700 25.35800 29.74700
C  -4.66500 24.95000 31.19500
C  -5.33900 23.57100 30.98600
C  -5.68100 23.51700 29.45200
C  -4.49500 22.28200 31.49800
C  -5.38100 26.06700 32.03900
C  -6.70900 25.84900 32.81700
H  -6.64800 25.28700 34.28700
N  -6.40700 22.88900 26.50300
C  -6.54600 22.06800 27.57900
C  -6.99400 20.80600 27.18300
C  -7.33800 20.97200 25.81000
C  -6.92300 22.33800 25.42100
C  -7.09600 19.68400 28.16200
C  -8.03500 20.01000 24.87800
O  -8.19400 20.28200 23.71000
C  -8.60900 18.72200 25.38800
N  -5.36800 24.77300 24.59100
C  -6.11000 24.02100 23.73000
C  -6.14300 24.56400 22.26800
C  -5.23600 25.85400 22.36300
C  -4.87400 25.92100 23.94300
C  -5.58400 23.56900 21.20400
C  -5.91200 27.14700 21.95700
C  -5.03300 27.86400 20.89200
N  -4.12500 26.38500 26.70800
C  -3.54900 27.19900 25.70200
C  -2.75800 28.25000 26.33800
C  -2.81000 27.96900 27.69200
C  -3.61200 26.78400 27.91100
C  -2.11400 29.34800 25.52400
C  -2.27000 28.38400 28.86600
O  -1.33400 29.18300 29.06500
C  -2.84200 27.45700 29.99900
C  -1.73200 26.83700 30.80700
O  -0.89900 26.03600 30.49200
O  -1.73400 27.41400 32.06200
C  -0.93000 26.78900 33.15900
H  -6.50400 21.61800 29.66600
H  -7.15900 22.28900 23.32900
H  -3.61200 27.66000 23.65700
H  -3.64600 24.76300 31.53400
H  -6.27600 23.50500 31.53900
H  -3.53000 22.57800 31.90800
H  -4.28100 21.67100 30.62100
H  -4.98700 21.61600 32.20600
H  -5.54700 26.91600 31.37600
H  -4.57000 26.37800 32.69600
H  -7.31400 25.24000 32.14500
H  -7.08300 26.87300 32.81800
H  -6.15000 19.70700 28.70200
H  -7.40500 18.70800 27.78800
H  -7.97200 19.86100 28.78700
H  -9.00100 18.28900 24.46800
H  -9.38800 19.06900 26.06800
H  -7.84000 18.09900 25.84500
H  -7.19400 24.78900 22.08600
H  -4.31800 25.66100 21.80900
H  -4.68700 23.04300 21.53400
H  -5.20200 23.93400 20.25100
H  -6.43400 22.91700 21.00500
H  -5.94000 27.83900 22.79800
H  -6.95000 26.90900 21.72500
H  -3.96500 27.79100 21.09700
H  -5.21000 28.90400 21.16500
H  -5.33400 27.75200 19.85100
H  -2.85000 29.93700 24.97700
H  -1.58300 28.85900 24.70700
H  -1.44800 29.92200 26.16800
H  -3.42200 28.07800 30.68100
H  -0.71700 27.52500 33.93400
H  0.04600 26.47900 32.78600
H  -1.46700 25.90600 33.50600

