158

Mg 48.87900 45.44400 44.34800
C  45.68200 45.98900 42.90300
C  48.99400 42.34000 43.04500
C  52.12000 45.47500 45.26400
C  48.78700 48.98800 45.32000
N  47.51600 44.43600 42.86900
C  46.20000 44.66600 42.69800
C  45.48500 43.48400 42.07000
C  46.46900 42.25100 42.45300
C  47.71800 43.06400 42.81800
C  46.12100 41.37300 43.70700
C  45.14100 43.63700 40.56000
C  43.69400 43.34000 40.23300
H  43.50600 42.14800 39.21700
N  50.29600 44.06800 44.19700
C  50.19400 42.85300 43.69500
C  51.46100 42.13500 43.80700
C  52.42800 43.00600 44.37100
C  51.66100 44.27700 44.61500
C  51.50700 40.65800 43.33600
C  53.84000 42.66300 44.71300
O  54.23800 41.47500 44.51600
C  54.83000 43.63100 45.27400
N  50.25600 47.05600 45.16500
C  51.53300 46.69300 45.57600
C  52.27100 47.90600 46.22400
C  51.09800 48.96200 46.37300
C  50.00200 48.30700 45.52600
C  53.00600 47.45400 47.51300
C  51.45900 50.41700 45.95700
C  51.11400 51.42600 47.06500
N  47.47600 47.16500 44.21900
C  47.53100 48.44300 44.71900
C  46.35700 49.12100 44.33000
C  45.60300 48.11400 43.61600
C  46.34000 47.02200 43.56300
C  45.91100 50.50400 44.70500
C  44.30700 47.86900 43.02000
O  43.40200 48.67500 42.94300
C  44.31900 46.50500 42.48200
C  43.16600 45.78300 43.03400
O  43.00000 45.40800 44.15400
O  42.32300 45.39300 42.00400
C  41.01900 44.78700 42.40800
H  48.87100 41.29900 42.74000
H  53.20100 45.50900 45.41600
H  48.85800 50.03700 45.61600
H  44.56900 43.36700 42.64800
H  46.50700 41.56100 41.61000
H  46.87700 41.36900 44.49300
H  46.11800 40.34000 43.35900
H  45.11800 41.49400 44.11500
H  45.85400 43.05500 39.97500
H  45.26800 44.69500 40.33000
H  43.06200 44.16400 39.90100
H  43.19200 42.99100 41.13500
H  51.20900 40.76100 42.29300
H  50.68000 40.10100 43.77700
H  52.48100 40.17100 43.35800
H  54.37900 44.09200 46.15300
H  54.96300 44.48700 44.61200
H  55.82400 43.21200 45.42900
H  53.02000 48.26000 45.51500
H  50.74400 48.96100 47.40400
H  54.08800 47.33300 47.46000
H  52.62800 46.47100 47.79400
H  52.71600 48.04600 48.38100
H  50.90700 50.74300 45.07600
H  52.54400 50.46500 45.86100
H  50.67800 52.29900 46.57900
H  52.04300 51.57000 47.61700
H  50.35400 50.99400 47.71500
H  44.93500 50.73500 44.27700
H  46.58400 51.27700 44.33500
H  45.89600 50.65600 45.78400
H  44.31500 46.42600 41.39500
H  40.59800 45.11600 43.35800
H  41.09200 43.71400 42.58500
H  40.22300 44.87600 41.66800
Mg 16.55500 51.21500 25.16700
C  18.45200 50.17300 27.87300
C  14.26100 52.37200 27.39200
C  15.09400 52.71700 22.61700
C  19.07900 49.96800 23.01400
N  16.30000 51.13600 27.35600
C  17.23200 50.74500 28.28800
C  16.85300 51.16800 29.68200
C  15.37400 51.50200 29.54900
C  15.21100 51.60100 28.03000
C  14.36800 50.54600 30.25100
C  17.76000 52.14900 30.41800
C  17.90800 51.88400 31.86400
H  17.01500 52.64300 32.83500
N  14.86300 52.29400 25.02000
C  14.11600 52.73600 26.03700
C  13.23000 53.77900 25.54800
C  13.33700 53.81600 24.12400
C  14.50800 52.97500 23.84300
C  12.17100 54.42900 26.41100
C  12.51600 54.55300 23.16000
O  12.71700 54.40500 21.96700
C  11.26500 55.36800 23.50600
N  16.94600 51.24600 23.09800
C  16.19500 51.98800 22.24400
C  16.80000 51.97400 20.76100
C  18.17800 51.19400 21.02000
C  18.04800 50.73500 22.48200
C  15.92000 51.06700 19.77600
C  19.31800 52.15600 20.62700
C  20.49800 51.52000 19.82400
N  18.36100 50.10200 25.31000
C  19.23800 49.68100 24.35900
C  20.45600 49.10900 25.05400
C  20.16700 49.32700 26.41800
C  18.88200 49.93200 26.54000
C  21.50300 48.52300 24.35000
C  20.65500 49.02300 27.77500
O  21.65900 48.47400 28.21600
C  19.63400 49.70500 28.70400
C  19.23900 48.78200 29.89000
O  18.84700 47.63000 29.81300
O  19.52600 49.37100 31.03600
C  19.58400 48.49000 32.19700
H  13.53600 52.71100 28.13600
H  14.66200 53.20700 21.74200
H  19.95000 49.71600 22.40600
H  16.99200 50.16900 30.09500
H  15.18500 52.51400 29.90700
H  14.77300 50.11500 31.16600
H  14.05900 49.78400 29.53600
H  13.47800 51.14000 30.45900
H  17.26200 53.11200 30.29900
H  18.75500 52.16200 29.97400
H  18.95600 51.83800 32.16300
H  17.60800 50.84200 31.97700
H  12.05600 55.49500 26.20900
H  12.36200 54.29600 27.47500
H  11.22300 53.94600 26.17300
H  10.54500 54.75000 24.04200
H  11.09200 55.72000 22.48900
H  11.39900 56.21800 24.17400
H  16.81700 53.01200 20.43100
H  18.21800 50.21600 20.54000
H  16.52400 50.76700 18.92000
H  15.11500 51.73700 19.47500
H  15.48100 50.15100 20.17100
H  19.75300 52.51800 21.55900
H  19.02300 53.08400 20.13800
H  21.42100 51.79500 20.33400
H  20.45100 52.02400 18.85900
H  20.49100 50.46100 19.56600
H  22.28300 49.28300 24.31700
H  21.11700 48.22900 23.37500
H  21.84400 47.59800 24.81500
H  20.06500 50.58900 29.17400
H  19.97500 48.89200 33.13200
H  20.23200 47.62800 32.04100
H  18.56800 48.13400 32.37000

