158

Mg 54.05700 24.59900 44.40800
C  51.46800 26.98500 44.02100
C  51.68800 22.20500 43.53100
C  56.56100 22.61100 43.54300
C  56.31100 27.30800 45.04000
N  51.87100 24.65100 43.73400
C  51.02700 25.70700 43.78500
C  49.62800 25.21100 43.38000
C  49.67800 23.77700 43.87300
C  51.15900 23.54400 43.69500
C  49.03100 23.57400 45.22300
C  49.29600 25.32300 41.80100
C  50.48000 25.51100 40.81000
H  51.22000 24.31300 40.47000
N  54.14200 22.61600 43.67800
C  53.06800 21.81700 43.43100
C  53.54600 20.47900 43.14300
C  54.95400 20.60200 43.09000
C  55.29900 21.97600 43.43100
C  52.60800 19.33700 42.75900
C  55.89500 19.45900 42.81500
O  55.46600 18.35900 42.50600
C  57.41900 19.58800 43.11200
N  56.10200 24.84100 44.51400
C  56.95000 23.82600 44.11300
C  58.36900 24.24900 44.38200
C  58.30400 25.77900 44.53600
C  56.80900 26.01300 44.75000
C  59.10500 23.44500 45.44600
C  58.80900 26.63100 43.44500
C  58.09800 26.53800 42.03300
N  53.89700 26.68200 44.69600
C  54.93100 27.67300 45.04400
C  54.34500 28.92600 45.14100
C  52.98500 28.67400 44.73400
C  52.77800 27.35200 44.41900
C  55.06000 30.14700 45.61700
C  51.76000 29.29800 44.51400
O  51.48600 30.46600 44.48200
C  50.71900 28.31200 43.90900
C  50.29700 28.73100 42.49400
O  51.07700 29.01400 41.60200
O  48.99900 28.66500 42.32900
C  48.47000 29.02600 41.03900
H  50.93000 21.42200 43.46600
H  57.53300 22.16600 43.31600
H  57.06100 28.09800 45.12200
H  48.88100 25.85000 43.85000
H  49.22600 23.11000 43.13900
H  48.20200 22.86700 45.23700
H  48.52800 24.48900 45.53300
H  49.77700 23.27100 45.95800
H  48.65400 26.18700 41.62800
H  48.68800 24.45900 41.53300
H  51.07500 26.34400 41.18200
H  50.13600 25.95500 39.87600
H  53.25500 18.45900 42.74400
H  52.13800 19.55800 41.80100
H  51.78200 19.21200 43.45900
H  57.98000 20.08800 42.32200
H  57.84600 18.58900 43.20600
H  57.68700 20.16300 43.99800
H  58.94900 23.93700 43.51300
H  58.77400 26.02500 45.48800
H  59.68200 22.66100 44.95800
H  58.37700 22.89700 46.04500
H  59.75000 24.06200 46.07200
H  59.83800 26.27700 43.38300
H  58.78500 27.69200 43.69500
H  57.79800 27.55600 41.78600
H  57.22800 25.88300 42.07000
H  58.66000 26.05000 41.23700
H  55.02400 30.16700 46.70600
H  54.44500 31.01200 45.36900
H  56.06100 30.15600 45.18600
H  49.86800 28.49600 44.56500
H  47.58900 29.66700 41.01900
H  48.22700 28.23400 40.33100
H  49.05000 29.79100 40.52200
Mg 27.12500 50.33100 27.29300
C  25.11100 51.58400 29.91300
C  29.60100 49.64300 29.61300
C  29.13000 49.73700 24.77800
C  24.63200 51.95000 25.02600
N  27.30200 50.65400 29.44200
C  26.28200 50.96200 30.29600
C  26.65400 50.68100 31.79000
C  28.16800 50.46400 31.58500
C  28.39800 50.13400 30.15400
C  29.00500 51.62900 32.09000
C  25.84700 49.48900 32.47500
C  25.15300 49.83100 33.80400
H  25.87200 50.41400 35.02800
N  28.94400 49.52800 27.19500
C  29.82800 49.33100 28.26900
C  31.04400 48.76900 27.65800
C  30.95000 48.84600 26.26600
C  29.59400 49.42900 25.98600
C  32.28400 48.33500 28.48300
C  32.03700 48.34500 25.25500
O  31.90100 48.45900 23.99300
C  33.29800 47.81600 25.70100
N  26.85200 50.82400 25.18100
C  27.86900 50.32100 24.33800
C  27.46200 50.50900 22.85200
C  26.01000 51.04600 22.94700
C  25.76600 51.26900 24.46700
C  28.38800 51.49300 22.04400
C  24.88300 50.14700 22.36800
C  24.69300 48.73000 22.94000
N  25.29200 51.56900 27.34300
C  24.48700 52.08500 26.39100
C  23.27400 52.65600 27.03200
C  23.49200 52.51200 28.42100
C  24.69000 51.83600 28.55600
C  22.04400 53.23600 26.41100
C  22.97300 52.76400 29.72400
O  21.94400 53.31700 29.99700
C  23.92600 52.18400 30.77000
C  24.41200 53.28900 31.63500
O  25.24000 54.16900 31.31600
O  23.79200 53.28400 32.87100
C  24.22600 54.29700 33.85300
H  30.36700 49.34100 30.33000
H  29.87100 49.55600 23.99700
H  23.86700 52.38100 24.37700
H  26.34700 51.58600 32.31600
H  28.51900 49.63200 32.19500
H  29.97100 51.75500 31.60100
H  29.21500 51.52800 33.15500
H  28.43800 52.55900 32.12900
H  26.57300 48.71700 32.73200
H  25.08100 49.01300 31.86300
H  24.58200 48.97600 34.16700
H  24.51200 50.68700 33.59600
H  32.49800 47.26700 28.43800
H  32.17800 48.72100 29.49600
H  33.24300 48.74600 28.16700
H  33.77200 47.45700 24.78800
H  33.30800 47.03100 26.45700
H  33.85100 48.71600 25.96800
H  27.43800 49.61100 22.23400
H  25.88900 52.01900 22.47000
H  29.26200 51.58500 22.68800
H  27.95300 52.49200 22.00500
H  28.68000 51.08200 21.07800
H  24.86400 50.10900 21.27800
H  23.93000 50.65600 22.51700
H  23.67200 48.50400 23.24600
H  25.45700 48.56400 23.70000
H  25.03900 48.04400 22.16700
H  21.78400 52.67300 25.51500
H  22.22300 54.24900 26.05000
H  21.20200 53.09700 27.08900
H  23.32700 51.54500 31.41800
H  24.22900 53.75700 34.80000
H  23.51900 55.12600 33.90400
H  25.17800 54.81600 33.73200

