158

Mg 47.85300 16.30100 28.99800
C  45.83100 16.33500 31.92100
C  50.13400 18.18500 30.70000
C  49.55700 16.70600 26.08800
C  45.06300 15.26600 27.14600
N  48.01600 17.11000 31.09300
C  47.05200 17.00500 32.08600
C  47.52600 17.72500 33.37800
C  48.74500 18.49800 32.88500
C  48.96300 17.91300 31.49400
C  48.69500 20.10700 32.95100
C  47.78700 16.73200 34.56600
C  47.38200 17.08700 36.01500
H  47.50600 18.52800 36.45400
N  49.70700 17.20700 28.47300
C  50.53700 17.80900 29.34400
C  51.72500 18.20300 28.68000
C  51.58700 17.77800 27.29900
C  50.27500 17.12000 27.23800
C  52.78600 19.04300 29.32500
C  52.61400 17.88400 26.14700
O  52.25100 17.51600 25.02300
C  53.98500 18.52500 26.29200
N  47.44300 15.89100 26.85100
C  48.33100 16.09900 25.89900
C  47.71100 15.81900 24.53400
C  46.19000 15.41400 24.88200
C  46.25100 15.57000 26.39400
C  47.72900 17.01400 23.44700
C  45.74800 14.02300 24.32300
C  44.67600 14.09100 23.28600
N  45.88800 15.68600 29.41500
C  44.88500 15.23600 28.55600
C  43.79000 14.76500 29.36900
C  44.11100 15.13200 30.73500
C  45.39200 15.75400 30.67100
C  42.54800 14.08600 28.89800
C  43.65300 15.12500 32.10300
O  42.67400 14.60400 32.59400
C  44.66500 16.00600 32.88900
C  44.04500 17.27200 33.39400
O  43.87300 18.29200 32.77900
O  43.77800 17.11000 34.68200
C  43.36200 18.28600 35.43300
H  50.86500 18.92100 31.04200
H  49.88100 16.90500 25.06400
H  44.18100 14.85500 26.65000
H  46.80300 18.42800 33.79100
H  49.59500 18.17400 33.48600
H  48.77300 20.52200 31.94600
H  49.57000 20.51000 33.46000
H  47.80200 20.35500 33.52500
H  48.78200 16.28800 34.52500
H  47.23400 15.80500 34.42000
H  48.01300 16.44000 36.62500
H  46.33400 16.79700 36.08700
H  53.82200 18.76400 29.13400
H  52.70600 18.86600 30.39800
H  52.63700 20.09400 29.07500
H  54.40800 18.85800 25.34500
H  54.55700 17.72000 26.75400
H  53.80000 19.42500 26.87800
H  48.21800 14.93700 24.14200
H  45.48800 16.17100 24.53100
H  48.19900 16.61900 22.54600
H  48.35400 17.83800 23.79000
H  46.76100 17.47200 23.24200
H  45.34700 13.43900 25.15100
H  46.53300 13.43200 23.85100
H  44.75300 13.26500 22.58000
H  44.73300 15.06800 22.80600
H  43.75700 13.93100 23.85000
H  42.39600 14.68400 28.00000
H  41.65100 14.14100 29.51500
H  42.77400 13.04600 28.66700
H  44.99000 15.43500 33.75800
H  42.28400 18.40900 35.33700
H  43.92900 19.15800 35.10700
H  43.65700 18.24100 36.48200
Mg -12.35900 16.01500 41.87000
C  -9.44600 14.10500 41.40500
C  -11.11200 18.65900 40.27900
C  -15.60100 17.18700 41.72600
C  -14.00600 12.75200 42.50400
N  -10.49000 16.32100 40.95100
C  -9.33900 15.50500 40.92600
C  -8.13400 16.25200 40.30900
C  -8.73800 17.64600 40.03400
C  -10.16800 17.61000 40.54000
C  -7.93100 18.93100 40.43700
C  -7.39300 15.62200 39.12000
C  -5.85900 15.54300 39.07000
H  -5.18500 16.36300 37.93700
N  -13.19500 17.76300 41.22600
C  -12.50500 18.73200 40.57100
C  -13.29900 19.88200 40.34300
C  -14.66200 19.43200 40.63600
C  -14.53900 18.07800 41.23000
C  -12.79900 21.31200 39.89300
C  -15.93800 20.17200 40.39800
O  -15.89700 21.25200 39.87500
C  -17.27500 19.65300 40.79800
N  -14.47700 15.06400 42.04400
C  -15.54500 15.88300 42.13800
C  -16.84800 15.12500 42.49800
C  -16.32900 13.61500 42.76200
C  -14.86100 13.80200 42.29200
C  -17.63000 15.65700 43.70400
C  -17.04000 12.42700 41.97600
C  -17.10000 12.45900 40.41500
N  -11.83200 13.87600 42.16300
C  -12.62000 12.75500 42.41900
C  -11.69400 11.57900 42.57700
C  -10.43000 12.10500 42.15300
C  -10.59800 13.46400 41.91400
C  -12.02100 10.18800 42.84700
C  -9.02800 11.74700 41.87000
O  -8.41100 10.75300 42.16000
C  -8.36100 13.03300 41.27500
C  -7.14500 13.28600 42.09400
O  -7.18400 13.55400 43.30000
O  -5.98400 13.17800 41.31700
C  -4.90000 13.66600 42.15400
H  -10.68100 19.56900 39.85700
H  -16.65500 17.45900 41.64400
H  -14.54800 11.81200 42.62500
H  -7.47800 16.37300 41.17100
H  -8.98100 17.80300 38.98300
H  -6.95000 18.49500 40.62700
H  -8.28000 19.27300 41.41100
H  -7.86000 19.79800 39.77900
H  -7.63700 16.09400 38.16900
H  -7.73200 14.58800 39.06300
H  -5.64400 14.48900 38.88900
H  -5.27300 15.68800 39.97800
H  -12.70700 21.35800 38.80700
H  -11.78300 21.42000 40.27300
H  -13.41600 22.10600 40.31300
H  -17.51100 18.76100 40.21700
H  -17.99900 20.41500 40.50800
H  -17.25500 19.47100 41.87200
H  -17.55400 15.08700 41.66900
H  -16.40700 13.31700 43.80800
H  -18.68400 15.58100 43.43800
H  -17.32100 16.68300 43.90700
H  -17.49700 15.05200 44.60000
H  -18.04000 12.32000 42.39700
H  -16.73900 11.39100 42.12800
H  -16.48300 13.31800 40.15000
H  -18.06000 12.68700 39.95100
H  -16.65700 11.53900 40.03200
H  -12.55300 9.75300 42.00100
H  -12.61100 10.29700 43.75800
H  -11.09400 9.61700 42.88300
H  -8.23500 12.90400 40.20000
H  -4.89400 14.70400 42.48900
H  -4.04200 13.59800 41.48500
H  -4.74400 13.08900 43.06500

