158

Mg -0.62800 6.76000 25.10600
C  0.09400 7.89600 28.27000
C  -0.97600 3.48700 26.37900
C  -0.83700 5.49600 21.95400
C  0.20800 9.92100 23.79900
N  -0.38900 5.75900 27.06400
C  -0.26000 6.55100 28.24400
C  -0.62100 5.63000 29.46500
C  -0.75200 4.20600 28.88300
C  -0.77400 4.45800 27.36900
C  0.43200 3.19000 29.18900
C  -1.83800 6.20500 30.27300
C  -1.80200 6.07700 31.81800
H  -1.08200 4.83100 32.48600
N  -0.99000 4.85100 24.28700
C  -1.14600 3.65100 24.98500
C  -1.59400 2.61000 24.09100
C  -1.45300 3.15600 22.78100
C  -1.09200 4.57200 22.92700
C  -1.95400 1.19100 24.52400
C  -1.43700 2.40600 21.40900
O  -1.25700 2.85400 20.29900
C  -1.84800 0.94500 21.37800
N  -0.19800 7.60900 23.07300
C  -0.49400 6.88600 21.97900
C  -0.41200 7.74200 20.74800
C  -0.41400 9.20700 21.36100
C  -0.18300 8.95000 22.88500
C  0.83100 7.38200 19.89900
C  -1.77000 9.99200 21.17000
C  -1.82000 10.99200 19.99400
N  0.16700 8.52300 25.87700
C  0.36100 9.80600 25.21400
C  0.72600 10.80100 26.21400
C  0.56600 10.11600 27.47900
C  0.23800 8.80100 27.18800
C  0.92200 12.26600 26.03300
C  0.56200 10.34700 28.89400
O  0.87700 11.27000 29.65300
C  0.28200 8.88100 29.42800
C  1.45000 8.43000 30.27300
O  2.52700 8.12300 29.79800
O  1.07700 8.45300 31.59400
C  2.18100 8.22500 32.61500
H  -1.07200 2.47900 26.78700
H  -0.93900 5.03300 20.97000
H  0.49300 10.84100 23.28400
H  0.25600 5.72200 30.10600
H  -1.67100 3.71000 29.19800
H  -0.03700 2.22300 29.37200
H  0.94800 3.41000 30.12400
H  1.15600 3.12500 28.37700
H  -2.72300 5.68600 29.90400
H  -2.05300 7.25900 30.09700
H  -2.79400 6.13900 32.26500
H  -1.27200 6.98400 32.11100
H  -1.06800 0.58100 24.34800
H  -2.75200 0.74700 23.92800
H  -2.21000 1.11000 25.58000
H  -1.93200 0.55100 20.36500
H  -2.87700 0.99100 21.73400
H  -1.15400 0.31900 21.93800
H  -1.27200 7.50800 20.12100
H  0.39500 9.75700 20.87900
H  0.77100 8.03600 19.02900
H  0.68600 6.33700 19.62300
H  1.78500 7.49200 20.41500
H  -1.83600 10.49400 22.13500
H  -2.68200 9.39500 21.16900
H  -1.78700 11.98400 20.44500
H  -2.71300 10.85800 19.38300
H  -0.96800 10.88500 19.32200
H  0.13400 12.72300 25.43400
H  1.89900 12.39700 25.56800
H  0.76500 12.74900 26.99800
H  -0.54100 8.99200 30.13400
H  3.12200 7.89600 32.17400
H  1.82500 7.58400 33.42200
H  2.43400 9.16400 33.10700
Mg 17.69700 53.19400 26.00900
C  19.61100 51.84500 28.59400
C  15.59400 54.26600 28.46100
C  15.51300 53.98200 23.60700
C  19.87700 51.87500 23.69200
N  17.70800 53.16400 28.33200
C  18.50100 52.45200 29.17900
C  18.10200 52.63600 30.68400
C  16.66100 53.21900 30.58400
C  16.60300 53.56800 29.05400
C  15.52400 52.19000 30.95400
C  19.01300 53.63600 31.41200
C  19.45900 53.45500 32.85900
H  18.48700 52.87100 33.89400
N  15.81500 54.07000 25.99500
C  15.19000 54.58900 27.09500
C  13.93000 55.19200 26.65700
C  13.77500 54.91500 25.28300
C  15.04100 54.29500 24.87700
C  13.02300 55.74300 27.65200
C  12.58900 55.08400 24.41900
O  12.51500 54.60800 23.33900
C  11.34700 55.87100 24.85100
N  17.68300 53.03500 23.95500
C  16.69100 53.47900 23.18500
C  17.08700 53.38300 21.64200
C  18.56700 52.73100 21.72000
C  18.79600 52.59000 23.22500
C  16.07800 52.64500 20.76700
C  19.66800 53.62300 21.03900
C  20.34100 52.97500 19.83900
N  19.36500 52.12600 26.04400
C  20.17600 51.62000 25.05900
C  21.30200 50.89600 25.62500
C  21.14600 51.13800 27.02300
C  19.95000 51.79400 27.21500
C  22.51300 50.34500 24.87400
C  21.70600 50.86300 28.39200
O  22.75200 50.39300 28.75600
C  20.64000 51.19100 29.38900
C  20.28800 49.94700 30.08100
O  19.61600 49.09500 29.62400
O  20.66400 49.94700 31.41900
C  20.14100 48.88900 32.25000
H  14.99000 54.75600 29.22700
H  14.82900 54.37400 22.85100
H  20.44200 51.33200 22.93100
H  18.12800 51.64500 31.13600
H  16.52700 54.14100 31.15100
H  15.70200 51.66700 31.89400
H  15.43300 51.49500 30.11900
H  14.58400 52.73100 31.06900
H  18.56800 54.63100 31.38500
H  19.91000 53.61800 30.79300
H  19.86300 54.40800 33.20100
H  20.36700 52.85400 32.90700
H  12.47200 56.60000 27.26700
H  13.42300 56.11500 28.59500
H  12.37900 54.95900 28.05200
H  10.84900 55.33800 25.66100
H  10.60100 55.90900 24.05700
H  11.61100 56.88900 25.13700
H  17.08500 54.37500 21.18900
H  18.44200 51.68200 21.45200
H  15.08900 52.69900 21.22200
H  16.24800 51.59000 20.55100
H  15.99500 53.12000 19.78900
H  20.39900 53.74400 21.83800
H  19.05500 54.47300 20.73600
H  21.35100 52.70700 20.14700
H  20.32400 53.67000 19.00000
H  19.83600 52.15400 19.32800
H  22.79600 49.29800 24.98500
H  23.43000 50.88200 25.11600
H  22.36200 50.51800 23.80800
H  21.07200 51.90800 30.08600
H  20.99500 48.58000 32.85300
H  19.77400 48.04600 31.66400
H  19.31700 49.26300 32.85700

