158

Mg 1.64800 -2.02000 43.97600
C  4.77800 -0.50200 43.78100
C  0.23600 0.91000 42.57800
C  -1.31700 -3.54500 44.04300
C  3.18700 -4.86400 45.18800
N  2.39900 -0.15800 43.06400
C  3.73700 0.27400 43.21500
C  3.96400 1.66700 42.48200
C  2.45100 2.17100 42.46600
C  1.63600 0.91500 42.67300
C  2.13200 3.31900 43.45100
C  4.69100 1.61800 41.14500
C  4.71400 2.88200 40.31200
H  4.03200 2.97800 38.95100
N  -0.24600 -1.41600 43.30000
C  -0.64600 -0.17800 42.81600
C  -2.05300 -0.22700 42.50100
C  -2.56100 -1.46300 43.07700
C  -1.36900 -2.18000 43.57700
C  -2.74800 0.96100 41.91400
C  -4.00700 -1.86800 43.07100
O  -4.75400 -1.15200 42.41500
C  -4.60300 -3.03000 43.67700
N  1.04300 -3.95500 44.40400
C  -0.23600 -4.27100 44.56200
C  -0.48100 -5.61300 45.24200
C  1.00300 -6.12500 45.37500
C  1.81500 -4.96500 44.93900
C  -1.30400 -5.39800 46.55300
C  1.38500 -7.29500 44.45500
C  2.13400 -8.46600 45.12200
N  3.61700 -2.60600 44.49000
C  4.00500 -3.72100 44.95800
C  5.49100 -3.71600 45.13600
C  5.86800 -2.42200 44.75300
C  4.66300 -1.75200 44.36500
C  6.35800 -4.88700 45.71800
C  6.90300 -1.50400 44.48800
O  8.14100 -1.52800 44.62500
C  6.27600 -0.18900 43.84300
C  6.52600 0.95700 44.73200
O  6.09700 1.13000 45.86500
O  7.50500 1.76400 44.21100
C  7.87000 2.87300 45.05800
H  -0.20200 1.85700 42.25700
H  -2.26600 -4.07900 44.12400
H  3.66400 -5.73700 45.64000
H  4.54300 2.32600 43.12900
H  2.21200 2.58900 41.48800
H  1.27000 3.95500 43.24900
H  2.97700 4.00700 43.42600
H  2.02200 2.88500 44.44500
H  4.31300 0.87400 40.44300
H  5.69100 1.28400 41.42200
H  5.73100 3.23800 40.15100
H  4.19300 3.65300 40.87900
H  -2.25600 1.85200 42.30400
H  -3.70600 1.09200 42.41700
H  -2.96500 0.95200 40.84600
H  -4.26400 -3.99100 43.29100
H  -5.66900 -3.09500 43.45700
H  -4.53100 -2.86800 44.75300
H  -1.12400 -6.23400 44.62000
H  1.24200 -6.46100 46.38400
H  -0.69800 -5.34200 47.45700
H  -2.11200 -6.12600 46.61300
H  -1.79100 -4.42300 46.52500
H  1.80600 -6.98500 43.49900
H  0.43800 -7.75000 44.16500
H  2.88000 -8.07400 45.81300
H  2.77900 -8.86800 44.34100
H  1.53400 -9.21300 45.64200
H  6.09900 -5.71100 45.05300
H  5.99400 -5.05100 46.73200
H  7.43100 -4.69300 45.73600
H  6.80300 0.02800 42.91400
H  8.92900 2.95800 45.30100
H  7.31600 3.00200 45.98800
H  7.62600 3.72000 44.41700
Mg -1.45300 33.81900 26.87800
C  -3.43800 32.27800 29.34100
C  -0.05600 35.83200 29.21000
C  0.38500 35.26300 24.45000
C  -3.19300 31.99500 24.33600
N  -1.98300 34.16400 29.02100
C  -2.67900 33.30800 29.85200
C  -2.37200 33.63600 31.31500
C  -1.43000 34.90700 31.29800
C  -1.12200 34.98300 29.72000
C  -2.01000 36.23600 31.86100
C  -1.72500 32.37200 32.07300
C  -2.36700 31.96100 33.43200
H  -1.44500 31.91700 34.71800
N  -0.10000 35.42000 26.81800
C  0.41800 36.05900 27.91500
C  1.57300 36.87500 27.43700
C  1.65500 36.79800 26.04600
C  0.62300 35.82300 25.70800
C  2.40200 37.70900 28.36500
C  2.59200 37.47300 25.10100
O  2.45600 37.31700 23.93500
C  3.70200 38.41500 25.42300
N  -1.56800 33.84200 24.64900
C  -0.59900 34.48600 23.88500
C  -0.79800 34.12700 22.37700
C  -1.89100 33.02400 22.42800
C  -2.24700 32.97100 23.90100
C  -1.19300 35.49100 21.54800
C  -1.35600 31.67300 21.89000
C  -0.95400 30.62300 22.93200
N  -3.07800 32.55200 26.79700
C  -3.58300 31.90300 25.71500
C  -4.61300 31.06800 26.20200
C  -4.56400 31.06300 27.58400
C  -3.60800 32.00700 27.90600
C  -5.56400 30.20600 25.35600
C  -5.15700 30.54800 28.82200
O  -6.07800 29.75500 29.01400
C  -4.34000 31.23100 30.02400
C  -5.38900 31.85500 30.87800
O  -5.94200 32.90900 30.65000
O  -5.64300 31.01200 31.88300
C  -6.54800 31.60600 32.84700
H  0.31900 36.34200 30.09900
H  1.07100 35.59400 23.66700
H  -3.62500 31.26800 23.64500
H  -3.35500 33.89500 31.70700
H  -0.56500 34.62100 31.89700
H  -1.91700 36.97100 31.06200
H  -1.27800 36.50000 32.62400
H  -3.01200 36.22000 32.28900
H  -0.66400 32.53700 32.26200
H  -1.86600 31.58900 31.32900
H  -2.82600 30.99100 33.23800
H  -3.19500 32.61200 33.71400
H  2.49800 37.01500 29.20000
H  1.81300 38.60300 28.56900
H  3.40500 37.86200 27.96500
H  3.38000 39.28300 25.99800
H  4.14100 38.69800 24.46600
H  4.45900 37.86800 25.98600
H  0.10800 33.69800 21.95000
H  -2.82400 33.30300 21.93900
H  -0.60800 35.67900 20.64800
H  -1.07000 36.28400 22.28500
H  -2.18600 35.17100 21.23000
H  -0.54400 31.77300 21.17000
H  -2.19500 31.18700 21.39200
H  -0.77300 31.13500 23.87700
H  0.02100 30.27700 22.58800
H  -1.74100 29.87200 23.00700
H  -4.91900 29.35500 25.13700
H  -5.86900 30.73700 24.45400
H  -6.40900 29.77800 25.89400
H  -3.81800 30.59900 30.74200
H  -6.04200 32.48800 33.24100
H  -6.83200 30.93000 33.65300
H  -7.45400 31.92400 32.33200

