158

Mg -2.01900 34.44800 27.13700
C  -3.39700 32.61600 29.87400
C  -0.48500 36.57400 29.30800
C  -1.05500 36.30800 24.34200
C  -3.88700 32.40800 25.05800
N  -2.06200 34.60800 29.34500
C  -2.63400 33.75300 30.29900
C  -2.20200 34.16600 31.71400
C  -1.34500 35.46900 31.47900
C  -1.24600 35.58300 29.92300
C  -1.87900 36.75700 32.22100
C  -1.56900 33.03300 32.49800
C  -2.33300 32.58000 33.77600
H  -1.64700 32.28900 35.05600
N  -0.70000 36.11100 26.84400
C  -0.22000 36.86400 27.89200
C  0.57500 37.92700 27.27900
C  0.32900 37.90500 25.88200
C  -0.49000 36.70600 25.62300
C  1.37000 38.92600 28.19400
C  0.82300 38.75700 24.77700
O  0.60400 38.66300 23.59600
C  1.70600 39.86400 25.15600
N  -2.42300 34.41500 25.01100
C  -1.85100 35.16200 24.06000
C  -2.46600 34.87900 22.69600
C  -2.99200 33.44800 22.94700
C  -3.07600 33.33800 24.42300
C  -3.60700 35.92400 22.29500
C  -2.02100 32.29300 22.44900
C  -0.62400 32.10900 23.01200
N  -3.27100 32.80300 27.33000
C  -4.00800 32.12600 26.37800
C  -4.69900 31.06800 26.96100
C  -4.52400 31.22400 28.33900
C  -3.65900 32.27100 28.51700
C  -5.70000 30.03200 26.37900
C  -4.85100 30.72900 29.57800
O  -5.58400 29.78600 29.84800
C  -4.12500 31.56100 30.69700
C  -5.22000 32.08000 31.61500
O  -6.06500 32.92200 31.25900
O  -5.21700 31.45900 32.84300
C  -6.07900 32.14000 33.82600
H  0.02600 37.23100 30.01400
H  -0.88800 36.87300 23.42300
H  -4.31300 31.74700 24.30100
H  -3.10200 34.50200 32.22800
H  -0.34800 35.30000 31.88500
H  -2.38200 36.40900 33.12300
H  -2.70100 37.18200 31.64400
H  -1.07000 37.42000 32.52800
H  -0.54000 33.27700 32.76500
H  -1.56500 32.12500 31.89500
H  -2.90000 31.69100 33.49800
H  -3.03200 33.37000 34.05200
H  0.87800 39.88900 28.06100
H  2.39600 38.87600 27.82700
H  1.35600 38.59400 29.23200
H  1.25000 40.36900 26.00800
H  1.71500 40.67700 24.43000
H  2.74900 39.62800 25.36600
H  -1.67000 34.91400 21.95200
H  -3.93900 33.33600 22.41900
H  -3.65000 36.64800 23.10800
H  -4.60000 35.48800 22.18700
H  -3.31400 36.44800 21.38500
H  -2.00200 32.47500 21.37500
H  -2.48200 31.31700 22.60400
H  -0.17000 33.01900 23.40400
H  -0.05300 31.71000 22.17400
H  -0.66700 31.46500 23.89000
H  -5.43400 28.97600 26.43800
H  -5.97800 30.24500 25.34700
H  -6.54900 30.23300 27.03300
H  -3.45700 30.93300 31.28700
H  -5.98300 31.60900 34.77300
H  -7.08100 32.09500 33.39900
H  -5.76100 33.17400 33.95900
Mg -10.09600 17.35300 42.49600
C  -6.71100 16.31100 42.18300
C  -9.08400 20.60900 41.85000
C  -13.33200 18.06600 42.21300
C  -10.92400 13.90500 42.60900
N  -8.07900 18.31700 42.03200
C  -6.83500 17.66700 41.97200
C  -5.67900 18.74100 41.73400
C  -6.54600 20.10900 41.90900
C  -7.96800 19.74200 41.95900
C  -6.17600 21.09000 43.09300
C  -4.86400 18.62200 40.39800
C  -5.60200 17.84900 39.26000
H  -5.05800 18.06500 37.82200
N  -11.08000 19.09400 42.11400
C  -10.47200 20.33600 41.83500
C  -11.42600 21.34600 41.64600
C  -12.69100 20.69000 41.91900
C  -12.44200 19.20000 42.11800
C  -11.10400 22.80500 41.27600
C  -14.05600 21.43700 41.97400
O  -14.08700 22.66300 41.81900
C  -15.34900 20.70700 42.21400
N  -11.87900 16.20200 42.35400
C  -13.10500 16.74600 42.28500
C  -14.23100 15.70500 42.30300
C  -13.47600 14.38300 42.58800
C  -12.02000 14.85200 42.41300
C  -15.37700 16.06500 43.35800
C  -13.94400 13.13500 41.83300
C  -15.19900 12.36300 42.32400
N  -9.09900 15.50900 42.49800
C  -9.62000 14.23900 42.63200
C  -8.53700 13.28200 42.81900
C  -7.39700 14.05100 42.59200
C  -7.79400 15.36900 42.40900
C  -8.70600 11.76400 42.89600
C  -5.97600 13.96400 42.49300
O  -5.27100 12.96900 42.46200
C  -5.46400 15.42200 42.28900
C  -4.44800 15.92100 43.35300
O  -3.31000 16.31200 43.06800
O  -4.99000 15.95200 44.63100
C  -4.38100 16.96300 45.52800
H  -8.87500 21.67000 41.69500
H  -14.37600 18.38100 42.25800
H  -11.14400 12.84400 42.74100
H  -5.01700 18.60500 42.58900
H  -6.50300 20.64500 40.96100
H  -7.02500 21.19300 43.76900
H  -6.01000 22.02900 42.56500
H  -5.33300 20.69600 43.66100
H  -3.93600 18.12800 40.68600
H  -4.68200 19.59200 39.93700
H  -6.61000 18.25800 39.32200
H  -5.61000 16.79100 39.52200
H  -10.34400 22.90500 40.50200
H  -10.68000 23.32600 42.13400
H  -11.96400 23.40200 40.97300
H  -15.49900 19.89000 41.50800
H  -16.23100 21.31800 42.02300
H  -15.53700 20.36200 43.23100
H  -14.69900 15.72200 41.31900
H  -13.51700 14.15100 43.65200
H  -15.03400 16.95700 43.88300
H  -15.41700 15.25400 44.08400
H  -16.32900 16.24800 42.86000
H  -13.11700 12.45400 41.63300
H  -14.15800 13.58300 40.86200
H  -16.07600 12.33800 41.67800
H  -15.64900 12.75600 43.23600
H  -14.88500 11.33600 42.51100
H  -7.81000 11.16800 43.06900
H  -9.12600 11.55700 41.91200
H  -9.37200 11.49900 43.71700
H  -4.89700 15.35000 41.36200
H  -4.00700 16.33700 46.33900
H  -5.14100 17.65500 45.89000
H  -3.60600 17.51700 44.99800

