158

Mg -2.05800 17.41700 26.25000
C  -2.28700 15.36100 29.03300
C  -2.79900 20.17200 28.22500
C  -2.07700 19.43700 23.49400
C  -2.07500 14.56100 24.28600
N  -2.52600 17.71000 28.36800
C  -2.37500 16.75500 29.34600
C  -2.51800 17.42000 30.79300
C  -3.05200 18.89800 30.42000
C  -2.70300 18.96700 28.87400
C  -4.52700 19.30300 30.62100
C  -1.21800 17.42700 31.68300
C  -1.35400 18.06900 33.09600
H  -1.31100 17.16900 34.37800
N  -2.32200 19.51700 25.95900
C  -2.57200 20.48700 26.87200
C  -2.62900 21.74400 26.33100
C  -2.26100 21.55700 24.97800
C  -2.27700 20.07800 24.75200
C  -2.65800 23.09700 27.04100
C  -1.89500 22.58800 23.89500
O  -1.80700 22.28500 22.75200
C  -1.82600 24.00400 24.22200
N  -2.30100 17.03200 24.12600
C  -2.10900 18.02400 23.24900
C  -1.99800 17.38100 21.88300
C  -1.86100 15.85800 22.11000
C  -2.02600 15.80100 23.64500
C  -3.25000 17.73500 20.97400
C  -0.51700 15.14400 21.59900
C  0.80700 15.75300 22.11000
N  -2.07600 15.37300 26.57400
C  -2.12800 14.33300 25.65000
C  -2.17800 13.09900 26.31100
C  -2.29200 13.41800 27.71300
C  -2.11400 14.82500 27.77500
C  -2.25500 11.69900 25.72500
C  -2.44400 12.97200 29.13400
O  -2.57700 11.85100 29.61800
C  -2.45300 14.19600 29.94200
C  -1.42600 14.05500 30.93300
O  -0.22700 14.27500 30.79500
O  -2.04000 13.47400 32.03000
C  -1.25000 13.00100 33.21700
H  -3.20000 21.05200 28.73200
H  -1.99900 20.02000 22.57400
H  -2.04700 13.65100 23.68100
H  -3.40100 16.93900 31.21200
H  -2.56000 19.64800 31.03900
H  -4.87800 19.80000 29.71600
H  -4.62200 20.02100 31.43600
H  -5.12000 18.42800 30.88600
H  -0.36600 17.85000 31.14900
H  -0.91600 16.40100 31.89500
H  -2.35700 18.44200 33.30600
H  -0.67600 18.91600 33.20100
H  -2.70500 23.07700 28.13000
H  -3.46400 23.74000 26.69100
H  -1.73300 23.63100 26.82300
H  -2.66600 24.41100 24.78500
H  -1.87500 24.50500 23.25600
H  -0.91100 24.13200 24.80100
H  -1.19200 17.87900 21.34500
H  -2.65200 15.25900 21.65700
H  -3.89400 18.31400 21.63600
H  -3.84800 16.88200 20.65200
H  -3.00600 18.38500 20.13400
H  -0.42100 15.12800 20.51400
H  -0.47600 14.10600 21.92800
H  1.38000 15.01200 22.66700
H  0.57600 16.55900 22.80600
H  1.40500 16.07100 21.25500
H  -3.18700 11.19800 25.98900
H  -1.42100 11.15900 26.17400
H  -1.95800 11.68300 24.67600
H  -3.44400 14.26600 30.38900
H  -0.24300 13.36700 33.01700
H  -1.20500 11.91200 33.22200
H  -1.61800 13.35400 34.18100
Mg -0.27900 44.05600 24.99200
C  1.74200 43.81000 27.73800
C  -3.03600 43.26400 27.02000
C  -2.30200 43.94900 22.24400
C  2.49100 44.46800 22.94900
N  -0.58300 43.63000 27.14500
C  0.38900 43.60900 28.14700
C  -0.22200 43.34800 29.50500
C  -1.72800 42.96300 29.13800
C  -1.74200 43.33900 27.66500
C  -2.23000 41.48100 29.47200
C  0.05600 44.47200 30.52500
C  0.36500 44.01500 31.98000
H  -0.18400 42.72600 32.46800
N  -2.37900 43.76700 24.69200
C  -3.34500 43.46400 25.64100
C  -4.69100 43.47300 24.98100
C  -4.48800 43.74400 23.57300
C  -2.98400 43.84100 23.43200
C  -5.96100 43.23200 25.80300
C  -5.50500 43.95300 22.54800
O  -5.23900 44.19000 21.37700
C  -7.04200 43.88700 22.92700
N  0.02500 44.35000 22.86200
C  -0.94800 44.06300 21.97800
C  -0.37000 43.94500 20.59300
C  1.12400 44.42600 20.78200
C  1.29100 44.48300 22.29500
C  -0.51900 42.43000 20.17100
C  1.41500 45.75800 20.04400
C  0.95200 46.99500 20.88500
N  1.66800 44.08400 25.21000
C  2.68100 44.27200 24.30500
C  3.97000 44.10200 24.99800
C  3.63200 43.91100 26.32200
C  2.20500 43.98800 26.39800
C  5.31500 44.04200 24.36500
C  4.23100 43.71600 27.59300
O  5.38900 43.54500 28.02400
C  3.01700 43.71600 28.54200
C  3.14900 42.51900 29.37400
O  2.82900 41.36700 29.07000
O  3.57500 42.89300 30.63000
C  3.70200 41.97500 31.74900
H  -3.80700 42.97800 27.73900
H  -2.91500 43.90400 21.34200
H  3.33000 44.55700 22.25600
H  0.31100 42.47500 29.88200
H  -2.46100 43.53300 29.71000
H  -2.73600 41.09800 28.58600
H  -2.82000 41.40300 30.38600
H  -1.40400 40.85300 29.80300
H  -0.82900 45.10800 30.56600
H  0.87900 45.11100 30.20500
H  0.05900 44.88500 32.56100
H  1.45400 44.04200 32.01200
H  -6.36200 42.27600 25.46800
H  -6.60200 44.10000 25.65500
H  -5.77500 43.21300 26.87700
H  -7.27800 44.72300 23.58600
H  -7.35100 42.96600 23.42000
H  -7.67900 44.02800 22.05400
H  -0.86700 44.56400 19.84600
H  1.84000 43.75900 20.30200
H  0.46800 41.97600 20.07800
H  -0.94900 42.23200 19.18900
H  -1.16500 41.83000 20.81100
H  0.87100 45.74700 19.10000
H  2.47700 45.81800 19.80400
H  0.37700 46.72600 21.77100
H  0.30100 47.60000 20.25300
H  1.71100 47.74900 21.09200
H  5.27900 43.51000 23.41500
H  6.01400 43.52600 25.02200
H  5.72900 45.04900 24.31400
H  3.11800 44.61000 29.15700
H  4.72200 41.92900 32.12900
H  3.23600 41.03700 31.44400
H  3.15600 42.38700 32.59800

