158

Mg 47.32600 15.67800 29.17800
C  44.98500 14.84000 31.83700
C  48.74800 17.85900 31.39000
C  49.17800 16.59800 26.62900
C  45.01600 13.96400 26.97600
N  46.84800 16.30100 31.41700
C  46.03600 15.60100 32.24600
C  46.28800 16.09800 33.72300
C  47.20600 17.34700 33.53000
C  47.69100 17.15500 32.04200
C  46.53800 18.67900 33.78900
C  46.84800 14.93600 34.66200
C  46.34000 14.89500 36.09300
H  47.47900 14.90600 37.16200
N  48.86500 17.01800 29.05600
C  49.27700 17.86300 30.02200
C  50.39500 18.64100 29.45200
C  50.56000 18.32700 28.14700
C  49.56500 17.29000 27.86900
C  51.10900 19.67000 30.40800
C  51.54300 18.81900 27.12600
O  51.58500 18.38100 25.97200
C  52.51900 19.93000 27.51700
N  47.11600 15.33500 27.14400
C  48.06100 15.82100 26.23100
C  47.62800 15.51100 24.78900
C  46.46500 14.51200 24.98700
C  46.17500 14.58400 26.47700
C  47.33400 16.59200 23.81100
C  46.59100 13.12600 24.39300
C  47.56900 12.09900 25.08400
N  45.37600 14.58100 29.32000
C  44.64400 13.87600 28.33500
C  43.51100 13.28000 28.97400
C  43.61200 13.67500 30.31100
C  44.73400 14.45300 30.48400
C  42.58000 12.40200 28.23600
C  42.91900 13.59500 31.59900
O  41.90200 12.99300 31.94400
C  43.77000 14.34100 32.62900
C  42.91000 15.45500 33.14000
O  42.69700 16.51300 32.63200
O  42.48700 15.12900 34.42800
C  41.82400 16.07400 35.24600
H  49.15300 18.55800 32.12500
H  49.82500 16.85200 25.78700
H  44.29700 13.66800 26.20800
H  45.24700 16.33700 33.94200
H  48.10800 17.28800 34.13900
H  46.56400 18.81300 34.87100
H  45.51500 18.79100 33.42900
H  47.10000 19.47100 33.29500
H  47.93300 15.01800 34.72600
H  46.59800 13.99100 34.18100
H  45.75700 13.98600 36.24100
H  45.70600 15.77500 36.20300
H  50.61300 19.69200 31.37900
H  51.12000 20.63400 29.89900
H  52.11000 19.30900 30.64600
H  53.25800 20.15800 26.74800
H  52.99900 19.63300 28.44900
H  51.95300 20.85400 27.63400
H  48.47500 15.00000 24.32900
H  45.57600 14.92600 24.51000
H  47.67500 17.54500 24.21500
H  46.27100 16.74700 23.62500
H  47.84300 16.51700 22.85000
H  46.96800 13.19900 23.37200
H  45.59300 12.68900 24.37300
H  47.14600 11.17300 25.47400
H  48.09000 12.60100 25.89900
H  48.36800 11.76900 24.42100
H  41.84000 11.99800 28.92700
H  43.12800 11.55100 27.83100
H  42.13400 12.96200 27.41400
H  44.08500 13.77400 33.50500
H  41.81400 15.58400 36.22000
H  40.82200 16.28200 34.87000
H  42.53700 16.89500 35.30900
Mg -9.54400 42.46400 42.48500
C  -8.32100 39.12600 41.72800
C  -6.51100 43.51700 40.94400
C  -10.78200 45.43300 42.24700
C  -12.53900 40.96400 43.48000
N  -7.51900 41.38200 41.56400
C  -7.30100 40.06000 41.40000
C  -6.02300 39.76100 40.62600
C  -5.32900 41.23800 40.63700
C  -6.53300 42.14700 41.10500
C  -4.04600 41.36500 41.41100
C  -6.23600 39.16000 39.21800
C  -5.39200 37.92200 38.82700
H  -4.32700 38.29200 37.76500
N  -8.69200 44.19600 41.72800
C  -7.47800 44.43800 41.12200
C  -7.35100 45.88700 40.93100
C  -8.56700 46.48400 41.32100
C  -9.41000 45.35100 41.81200
C  -6.21000 46.55500 40.21600
C  -8.86800 48.01500 41.28500
O  -7.98100 48.78000 40.90100
C  -10.23300 48.58600 41.57200
N  -11.44300 43.07900 42.77700
C  -11.71200 44.43800 42.73100
C  -13.05700 44.70800 43.54500
C  -13.57400 43.25000 43.98200
C  -12.46500 42.36100 43.37700
C  -12.78200 45.63900 44.80000
C  -15.04300 42.89400 43.55700
C  -16.07900 42.96000 44.68900
N  -10.26500 40.49200 42.72800
C  -11.51400 40.07900 43.07700
C  -11.59700 38.65000 42.99300
C  -10.41800 38.25000 42.44900
C  -9.60300 39.39800 42.25000
C  -12.79400 37.86000 43.31000
C  -9.69500 37.03500 42.03400
O  -10.00200 35.82500 42.09200
C  -8.30100 37.61200 41.56500
C  -7.27600 36.73300 42.21100
O  -6.91100 36.73200 43.40500
O  -6.62000 35.97500 41.23400
C  -5.74200 34.99900 41.82200
H  -5.52900 43.87000 40.62100
H  -11.09000 46.46500 42.42800
H  -13.38900 40.39600 43.86400
H  -5.37300 39.05600 41.14500
H  -5.18400 41.61800 39.62600
H  -3.42000 40.49000 41.23800
H  -4.43400 41.46700 42.42400
H  -3.66000 42.31500 41.03900
H  -5.95800 40.00600 38.58900
H  -7.29200 38.93700 39.06200
H  -6.06100 37.18900 38.37700
H  -4.88700 37.48500 39.68800
H  -5.69600 47.32900 40.78600
H  -6.67100 47.02400 39.34700
H  -5.52700 45.81400 39.80200
H  -10.28900 48.50400 42.65700
H  -10.93200 47.99000 40.98500
H  -10.42800 49.63500 41.34700
H  -13.83800 45.27500 43.03700
H  -13.49100 43.18000 45.06600
H  -11.85500 46.17200 44.59000
H  -12.70200 45.06000 45.72000
H  -13.54700 46.41500 44.78800
H  -15.08000 41.95000 43.01400
H  -15.35200 43.70600 42.89900
H  -16.70000 43.84400 44.54600
H  -15.61800 43.06500 45.67100
H  -16.81500 42.15600 44.67200
H  -12.42200 36.90000 43.66700
H  -13.41600 37.77400 42.41900
H  -13.27700 38.33400 44.16400
H  -8.27400 37.41900 40.49300
H  -4.96800 35.53800 42.36700
H  -5.21300 34.52500 40.99500
H  -6.27700 34.19400 42.32700

