158

Mg 1.79300 8.98900 26.98100
C  2.32600 10.79000 29.93100
C  1.55800 6.16100 28.96900
C  1.45000 7.23400 24.25000
C  2.15700 11.80900 25.20100
N  2.11000 8.50900 29.34300
C  2.05200 9.48600 30.30000
C  1.74200 8.86800 31.69300
C  1.83300 7.32900 31.30300
C  1.75100 7.27500 29.79800
C  3.08400 6.65900 32.02000
C  0.42200 9.35500 32.24400
C  0.16100 9.29100 33.73300
H  1.26400 8.85200 34.62900
N  1.67100 6.89600 26.62200
C  1.50400 5.94900 27.52700
C  1.29600 4.68400 26.79700
C  1.33500 4.96100 25.39400
C  1.50700 6.39700 25.36800
C  1.06500 3.37300 27.52800
C  1.22000 4.05400 24.23100
O  1.28200 4.33800 23.01400
C  1.33300 2.56000 24.56700
N  1.70900 9.46700 24.92400
C  1.50900 8.60200 23.99000
C  1.42600 9.22500 22.58300
C  1.37400 10.73900 23.02500
C  1.80700 10.71000 24.44800
C  2.63500 8.90400 21.63000
C  0.02600 11.50000 22.92700
C  -0.64600 11.78300 21.58600
N  2.09700 10.90300 27.39300
C  2.26400 11.99800 26.59200
C  2.52900 13.18400 27.37600
C  2.59300 12.70600 28.68500
C  2.32200 11.29900 28.61600
C  2.78600 14.58400 26.88900
C  2.81800 13.21900 30.00700
O  3.10500 14.29800 30.45600
C  2.51800 11.97000 30.89900
C  3.60500 11.84900 31.86500
O  4.75500 11.80000 31.57100
O  3.03400 11.96800 33.12600
C  4.01600 12.17400 34.18100
H  1.50100 5.23700 29.54700
H  1.32200 6.65100 23.33500
H  2.43200 12.68900 24.61700
H  2.54900 9.36000 32.23700
H  0.89500 6.93300 31.69300
H  3.11100 6.88400 33.08700
H  3.98900 7.10000 31.60100
H  3.15200 5.59600 31.79000
H  -0.42100 8.83200 31.79200
H  0.27900 10.38700 31.92200
H  -0.66000 8.58000 33.82500
H  -0.12000 10.29000 34.06600
H  2.04200 3.07200 27.90500
H  0.57100 2.57000 26.98200
H  0.54400 3.57000 28.46500
H  2.04500 2.34900 25.36500
H  1.49700 2.04900 23.61800
H  0.31600 2.30800 24.86400
H  0.47300 8.92100 22.14900
H  2.18900 11.27300 22.53600
H  3.41300 8.62600 22.34100
H  2.96100 9.76900 21.05200
H  2.31500 8.09100 20.97800
H  0.19700 12.49900 23.32800
H  -0.60800 10.89300 23.57300
H  -0.58600 12.83500 21.30500
H  -1.68800 11.46500 21.61600
H  -0.11300 11.29400 20.77100
H  3.31500 14.58200 25.93600
H  3.24300 15.16900 27.68700
H  1.79000 15.00200 26.73900
H  1.57800 12.28000 31.35600
H  4.81400 12.83500 33.84100
H  4.50700 11.22700 34.40700
H  3.43100 12.49100 35.04300
Mg 25.92800 49.69600 26.46900
C  24.21000 51.08900 29.09200
C  28.37700 48.74100 28.88000
C  27.93100 48.60700 23.99400
C  24.08900 51.56600 24.13600
N  26.35700 50.02800 28.77600
C  25.27600 50.41200 29.61200
C  25.67100 50.18300 31.09900
C  27.15500 49.60200 30.97000
C  27.37100 49.48100 29.48000
C  28.27200 50.38100 31.75600
C  24.63300 49.20800 31.82500
C  23.99700 49.69400 33.22400
H  24.96900 50.04500 34.35600
N  27.79300 48.59700 26.51100
C  28.60900 48.26900 27.56200
C  29.64900 47.46600 27.07800
C  29.56300 47.47500 25.60600
C  28.34200 48.22300 25.27600
C  30.72100 46.78600 27.94400
C  30.49300 46.82500 24.63400
O  30.45100 46.98200 23.40700
C  31.69100 45.96900 25.04500
N  26.00000 50.02900 24.33600
C  26.93000 49.42900 23.56900
C  26.70400 49.66000 22.03500
C  25.18300 50.35400 22.09100
C  25.12200 50.77100 23.57400
C  27.79200 50.58400 21.39200
C  23.95100 49.46900 21.60200
C  23.43900 49.81800 20.19200
N  24.48000 51.02800 26.54600
C  23.74400 51.60500 25.51600
C  22.65600 52.30000 26.00500
C  22.74500 52.10700 27.40300
C  23.94500 51.38400 27.71000
C  21.60000 53.18400 25.29400
C  22.18100 52.39700 28.66800
O  21.19800 53.12100 28.91000
C  23.01100 51.70700 29.82800
C  23.35400 52.77000 30.84100
O  24.11800 53.67500 30.60500
O  22.61200 52.54100 31.98700
C  23.15600 53.40400 33.08900
H  29.19500 48.33700 29.48100
H  28.43000 48.00500 23.23100
H  23.35000 52.06300 23.50500
H  25.73600 51.15600 31.58700
H  27.21700 48.62500 31.44900
H  28.56600 49.92200 32.70000
H  27.91400 51.35500 32.08900
H  29.15400 50.68300 31.19100
H  25.01100 48.18800 31.89800
H  23.77900 49.22000 31.14800
H  23.37400 48.91500 33.66300
H  23.44700 50.63300 33.15800
H  30.80700 45.71800 27.74300
H  30.60200 46.97300 29.01100
H  31.59800 47.31200 27.56700
H  32.27200 46.61600 25.70300
H  32.23500 45.60700 24.17300
H  31.38100 45.04200 25.52700
H  26.72800 48.63700 21.65900
H  25.30500 51.27800 21.52700
H  27.37100 51.36500 20.75900
H  28.38200 50.00900 20.67800
H  28.37300 51.04200 22.19200
H  23.14000 49.67600 22.29900
H  24.19500 48.40700 21.56000
H  23.43600 48.90400 19.59900
H  24.17500 50.48600 19.74500
H  22.42400 50.18900 20.33200
H  21.10900 52.71100 24.44300
H  22.04300 54.13200 24.99000
H  20.77700 53.39400 25.97700
H  22.44800 50.87000 30.24100
H  24.21400 53.22800 33.28500
H  22.63500 53.41400 34.04600
H  23.02600 54.44800 32.80400

