158

Mg 47.40400 16.57500 28.58300
C  45.32700 15.97100 31.37300
C  49.70000 17.89300 30.82100
C  49.31500 17.30700 25.97000
C  44.83600 15.55800 26.51700
N  47.49700 16.92900 30.82700
C  46.51900 16.56900 31.70100
C  46.89100 16.96000 33.16100
C  48.17700 17.80400 32.95300
C  48.49500 17.51000 31.45800
C  48.03300 19.35400 33.29800
C  47.08600 15.76500 34.19800
C  46.15400 15.69300 35.41100
H  45.59300 16.96900 35.92500
N  49.28900 17.40700 28.44100
C  50.10800 17.78400 29.49000
C  51.39800 18.16300 28.93100
C  51.30200 18.04300 27.51400
C  49.94400 17.49100 27.23400
C  52.52800 18.55000 29.84700
C  52.30100 18.35400 26.46700
O  52.12800 18.11700 25.23200
C  53.72900 18.84900 26.79200
N  47.04700 16.53100 26.59100
C  47.99600 16.99200 25.70400
C  47.50300 16.87100 24.28300
C  46.18500 16.12400 24.43600
C  45.99000 16.02900 25.89700
C  47.38100 18.23900 23.57500
C  46.04400 14.69300 23.75100
C  46.61800 13.45100 24.40900
N  45.57100 15.74800 28.84700
C  44.61800 15.42600 27.91900
C  43.45000 14.87400 28.62300
C  43.78000 14.92000 29.95600
C  45.03800 15.60000 30.02900
C  42.16400 14.30200 28.11500
C  43.24200 14.77800 31.26800
O  42.13900 14.32900 31.51300
C  44.20600 15.44600 32.26200
C  43.39500 16.47200 32.94100
O  43.17500 17.63400 32.56400
O  42.80500 15.88000 33.95500
C  41.68400 16.65300 34.50300
H  50.41500 18.33700 31.51700
H  49.91600 17.44500 25.06900
H  44.00900 15.26800 25.86600
H  46.01300 17.52700 33.47000
H  49.02100 17.46000 33.55200
H  47.09100 19.57400 33.80000
H  48.18300 19.97100 32.41100
H  48.87900 19.60500 33.93800
H  48.13000 15.78700 34.51100
H  47.04500 14.85100 33.60600
H  46.70700 15.26400 36.24700
H  45.38600 14.99400 35.07800
H  52.28500 19.07600 30.77000
H  53.33500 19.11800 29.38300
H  53.00700 17.59500 30.06800
H  53.70500 19.84200 27.24100
H  54.40400 18.84600 25.93600
H  54.02100 18.11600 27.54500
H  48.12400 16.10400 23.82100
H  45.40400 16.77900 24.05000
H  46.39100 18.34600 23.13000
H  48.04700 18.08800 22.72600
H  47.75900 19.09600 24.13200
H  46.56300 14.81200 22.80000
H  44.98400 14.49600 23.59100
H  47.38600 13.71700 25.13500
H  47.13800 12.79400 23.71100
H  45.88100 12.86500 24.95800
H  42.40300 13.32600 27.69400
H  41.74300 14.88200 27.29300
H  41.43200 14.03200 28.87600
H  44.52700 14.61100 32.88500
H  42.05800 17.57900 34.94000
H  41.17500 15.93800 35.14900
H  41.02700 16.84500 33.65500
Mg 29.61300 57.18600 40.20200
C  26.77900 55.24000 39.73900
C  31.59500 54.44100 39.62600
C  32.23500 59.26000 39.34400
C  27.56800 60.02200 40.43700
N  29.16900 55.06000 39.71400
C  27.95400 54.50600 39.52300
C  28.19100 52.94000 39.35500
C  29.69900 52.70800 39.71500
C  30.24900 54.14100 39.70300
C  30.10400 51.92000 40.97900
C  27.64900 52.35800 37.98900
C  28.20400 53.08700 36.77500
H  27.14900 53.70000 35.72600
N  31.60000 56.85800 39.42300
C  32.20800 55.64400 39.46900
C  33.56700 55.74100 38.99700
C  33.83400 57.21000 38.88000
C  32.50600 57.87500 39.18700
C  34.55600 54.61900 38.98200
C  35.15700 57.91400 38.45200
O  36.17500 57.26600 38.28400
C  35.20900 59.43300 38.21000
N  29.79800 59.32500 39.69700
C  30.97700 59.87600 39.65000
C  30.92900 61.40600 39.84400
C  29.41100 61.61500 40.12600
C  28.92400 60.24000 40.10700
C  31.82700 61.94000 41.03800
C  28.73600 62.56400 39.04400
C  28.47500 64.03600 39.34300
N  27.53500 57.58300 40.25500
C  26.82900 58.76700 40.48400
C  25.44200 58.45000 40.52700
C  25.35200 57.09900 40.15900
C  26.64100 56.59700 39.99300
C  24.25000 59.46000 40.80300
C  24.40500 56.04900 39.95800
O  23.13400 56.04900 40.00300
C  25.32000 54.77500 39.58900
C  24.90200 53.67000 40.40800
O  25.30900 53.48300 41.56100
O  24.08600 52.93600 39.61600
C  23.19800 51.97800 40.31200
H  32.18400 53.52200 39.59900
H  33.03400 59.99300 39.47400
H  27.07100 60.95900 40.69800
H  27.69000 52.37100 40.13800
H  30.23700 52.32300 38.84800
H  29.26100 51.40500 41.44100
H  30.41300 52.57800 41.79200
H  30.91600 51.27200 40.65100
H  26.55900 52.33600 38.01700
H  27.96100 51.32200 37.85200
H  28.86700 52.38300 36.27300
H  28.87200 53.90200 37.05500
H  35.55500 55.05300 38.94100
H  34.37000 54.00100 38.10400
H  34.40600 53.98800 39.85800
H  35.44300 60.05200 39.07700
H  34.27200 59.59800 37.67800
H  35.90600 59.38800 37.37300
H  31.30200 61.77700 38.89000
H  29.14700 61.92000 41.13900
H  32.59600 62.56000 40.57700
H  32.46500 61.25200 41.59200
H  31.19300 62.51400 41.71500
H  27.76900 62.09600 38.86100
H  29.32900 62.56100 38.12800
H  29.32800 64.53300 38.88200
H  28.39000 64.27700 40.40300
H  27.60800 64.25700 38.72200
H  23.63100 59.05700 41.60500
H  23.73600 59.59700 39.85200
H  24.62600 60.44700 41.07300
H  25.19000 54.62800 38.51700
H  23.43900 51.95400 41.37400
H  23.11200 50.98300 39.87300
H  22.17900 52.35600 40.22300

