158

Mg 1.22900 8.66400 27.11300
C  1.85700 10.75400 29.82000
C  1.47900 5.95500 29.47700
C  1.28800 6.47000 24.60800
C  1.62600 11.22600 25.01000
N  1.51700 8.43900 29.31000
C  1.64400 9.42100 30.24900
C  1.69500 8.93800 31.67100
C  1.90500 7.44200 31.52200
C  1.53700 7.23200 30.03200
C  3.33000 6.82500 31.90400
C  0.33200 9.27500 32.41200
C  0.14500 8.97800 33.91900
H  1.38800 8.51000 34.65800
N  1.23600 6.49600 27.05400
C  1.35000 5.55500 28.10300
C  1.39500 4.23300 27.53500
C  1.55700 4.41000 26.11500
C  1.32800 5.82400 25.84400
C  1.42400 3.00700 28.41600
C  1.82400 3.38000 25.04400
O  1.99200 3.64100 23.84800
C  1.94300 1.91300 25.49400
N  1.23700 8.82800 25.24700
C  1.22700 7.84000 24.32000
C  1.12900 8.35900 22.91300
C  0.93000 9.85300 23.09800
C  1.33100 9.98900 24.52800
C  2.12300 7.83200 21.84800
C  -0.45700 10.49300 22.83300
C  -0.52200 11.53800 21.72700
N  1.54100 10.69300 27.31400
C  1.67300 11.66300 26.36300
C  2.14000 12.86300 27.06700
C  2.15500 12.60100 28.40800
C  1.75300 11.29600 28.55300
C  2.41100 14.16600 26.38000
C  2.32800 13.17500 29.70800
O  2.59800 14.31600 30.08000
C  2.11700 11.97100 30.66500
C  3.32400 11.84200 31.47500
O  4.40000 11.32800 31.14700
O  3.09800 12.32600 32.74000
C  4.23900 12.26600 33.73100
H  1.69000 5.20300 30.24000
H  1.57000 5.84600 23.75700
H  1.66800 12.10100 24.35800
H  2.54000 9.43900 32.14300
H  1.20000 6.90500 32.15600
H  3.27500 5.98500 32.59700
H  3.83800 7.64500 32.41100
H  3.73300 6.50200 30.94400
H  -0.31500 8.59200 31.86300
H  0.03900 10.29700 32.16900
H  -0.59500 8.18400 34.02100
H  -0.25500 9.83400 34.46200
H  0.56100 2.43600 28.07200
H  1.26600 3.29100 29.45700
H  2.33200 2.47300 28.13700
H  2.46900 1.33200 24.73600
H  1.02300 1.36200 25.69100
H  2.68300 1.67300 26.25800
H  0.11600 8.05500 22.65000
H  1.68300 10.36500 22.49900
H  2.63900 8.71900 21.48000
H  1.55700 7.31800 21.07100
H  2.85800 7.12300 22.22900
H  -0.79100 10.98700 23.74500
H  -1.16800 9.70600 22.58200
H  -0.05200 12.45400 22.08400
H  -1.53400 11.79200 21.41100
H  -0.04000 11.26800 20.78700
H  1.60800 14.42500 25.69000
H  3.41300 14.22900 25.95500
H  2.34700 14.90100 27.18200
H  1.30400 12.11900 31.37600
H  5.03500 12.96600 33.47500
H  4.78100 11.32200 33.78000
H  3.82000 12.43400 34.72300
Mg 9.17500 4.42100 28.15500
C  10.46200 2.66200 30.90700
C  7.04600 6.03400 30.13100
C  8.05700 6.02100 25.42900
C  10.83000 2.10700 26.05800
N  8.72400 4.22900 30.26600
C  9.56000 3.69300 31.21500
C  9.13600 4.07100 32.67300
C  7.90300 4.99300 32.40600
C  7.88700 5.10200 30.81300
C  6.48200 4.58700 32.90500
C  10.27700 4.70100 33.45800
C  10.01500 4.99000 34.98300
H  11.29700 4.82800 35.87200
N  7.79300 5.87500 27.84200
C  6.98200 6.39500 28.80800
C  6.22100 7.56300 28.20500
C  6.61900 7.56600 26.85000
C  7.55300 6.47800 26.63000
C  5.36100 8.44900 29.00600
C  6.18800 8.50600 25.79600
O  6.62300 8.44000 24.65400
C  5.13000 9.52600 26.06300
N  9.27400 4.01200 26.00300
C  8.78100 4.86800 25.03300
C  9.21700 4.54900 23.55300
C  9.97900 3.18800 23.79800
C  10.07800 3.10700 25.36600
C  8.03700 4.45900 22.53000
C  11.35200 3.16200 23.02000
C  11.51700 1.98500 22.01700
N  10.44900 2.81300 28.35500
C  11.05200 1.94800 27.42100
C  11.75700 0.95500 28.10100
C  11.65200 1.19200 29.43300
C  10.84500 2.34600 29.54400
C  12.44900 -0.25100 27.43200
C  12.06900 0.83200 30.76200
O  12.83500 -0.03400 31.11500
C  11.46200 1.91200 31.73600
C  10.89100 1.14200 32.86600
O  9.97900 0.30900 32.82700
O  11.62300 1.39700 34.03100
C  11.23000 0.69600 35.25100
H  6.44800 6.70400 30.75300
H  8.00500 6.64600 24.53500
H  11.34700 1.38700 25.42100
H  8.76200 3.18100 33.18000
H  8.09200 6.01800 32.72300
H  5.67600 4.69400 32.17900
H  6.21400 5.18700 33.77400
H  6.50800 3.54200 33.21300
H  10.66900 5.60700 32.99700
H  11.11800 4.01500 33.35600
H  9.41700 4.20700 35.44900
H  9.57600 5.95700 35.23000
H  4.99700 8.09900 29.97200
H  4.43600 8.60200 28.45100
H  5.80200 9.42000 29.23300
H  5.19600 10.16500 26.94300
H  4.21800 8.97200 26.28700
H  4.89000 10.15200 25.20400
H  9.86700 5.39900 23.34500
H  9.38900 2.29500 23.59100
H  7.10200 4.81500 22.96400
H  7.95300 3.44500 22.13900
H  8.17900 5.15400 21.70200
H  12.11900 3.07900 23.79000
H  11.55600 4.06600 22.44700
H  10.62400 1.71000 21.45700
H  11.84100 1.07300 22.51800
H  12.32700 2.21500 21.32500
H  13.46600 -0.04600 27.09700
H  11.90400 -0.66900 26.58600
H  12.41600 -0.98200 28.24000
H  12.22000 2.60400 32.10400
H  12.02000 0.03300 35.60500
H  10.38600 0.00900 35.18000
H  10.96400 1.47200 35.96900

