158

Mg 41.10700 9.49200 29.47000
C  43.27800 10.30700 32.04600
C  38.71400 8.54400 31.78500
C  39.42200 7.94900 26.94200
C  43.58500 10.44200 27.23300
N  41.08900 9.22800 31.57700
C  42.07700 9.68900 32.44100
C  41.40300 9.77400 33.89700
C  40.10200 9.06000 33.70500
C  39.92400 8.96600 32.24500
C  40.16000 7.62100 34.22300
C  41.25400 11.29700 34.40900
C  42.06000 11.75200 35.69400
H  41.32000 12.36200 36.84800
N  39.30300 8.45900 29.34000
C  38.46000 8.26500 30.43500
C  37.23500 7.62400 29.89600
C  37.39900 7.48000 28.55100
C  38.76200 7.91300 28.21300
C  36.08300 7.13700 30.68400
C  36.36500 7.01400 27.54400
O  36.64100 6.76100 26.40300
C  34.87000 7.15800 27.89100
N  41.54200 9.20300 27.43900
C  40.69200 8.49800 26.65800
C  41.11900 8.57200 25.16000
C  42.50100 9.26000 25.31800
C  42.49000 9.71700 26.76600
C  41.16900 7.24800 24.45700
C  42.70100 10.42500 24.34600
C  44.07100 10.42300 23.55000
N  43.02600 10.24800 29.56800
C  43.89400 10.59400 28.54000
C  45.11000 11.12500 29.14200
C  44.95200 10.98900 30.48200
C  43.64200 10.47500 30.70400
C  46.17200 11.74600 28.38500
C  45.51200 11.28600 31.80100
O  46.64300 11.65300 32.14400
C  44.42300 10.86100 32.85200
C  44.92600 9.92700 33.89900
O  45.16400 8.72800 33.72100
O  45.20500 10.58200 35.06100
C  45.76900 9.71000 36.17000
H  37.87500 8.32900 32.45000
H  38.94200 7.36900 26.15200
H  44.30500 10.84700 26.51900
H  41.98000 9.13300 34.56400
H  39.18700 9.41600 34.17800
H  40.90000 7.52700 35.01800
H  40.23100 6.85500 33.45100
H  39.23500 7.33100 34.72200
H  40.18600 11.51300 34.39800
H  41.52800 12.09400 33.71700
H  42.75500 12.53100 35.37900
H  42.74000 10.97500 36.04200
H  36.39200 7.03200 31.72400
H  35.64000 6.22100 30.29400
H  35.29600 7.88700 30.76400
H  34.30500 7.19500 26.96000
H  34.68100 8.13100 28.34500
H  34.52300 6.34600 28.53100
H  40.36100 9.16200 24.64600
H  43.23900 8.46200 25.24300
H  40.61900 6.58300 25.12300
H  42.19200 6.90100 24.30900
H  40.63500 7.37000 23.51500
H  42.65700 11.33700 24.94200
H  41.89000 10.47100 23.61900
H  44.50000 11.42200 23.62100
H  43.91100 10.20400 22.49400
H  44.72600 9.67700 24.00000
H  45.84000 12.38500 27.56700
H  46.89200 11.09600 27.88700
H  46.68900 12.43900 29.05000
H  43.94800 11.68500 33.38500
H  46.36100 8.84900 35.86000
H  44.88500 9.34000 36.69000
H  46.31400 10.33100 36.88100
Mg -10.16900 17.63100 40.72700
C  -6.62200 17.23900 40.54400
C  -9.72400 20.99200 39.83100
C  -13.43900 17.88900 40.05000
C  -10.35200 14.12000 40.65800
N  -8.38600 18.85700 40.11600
C  -7.03600 18.53200 40.24900
C  -6.19100 19.74200 39.90600
C  -7.14900 20.89900 40.09900
C  -8.49500 20.25800 40.02200
C  -6.83300 21.91800 41.27200
C  -5.87300 19.59500 38.36200
C  -4.45400 19.52200 37.91100
H  -4.23500 18.57900 36.79300
N  -11.42700 19.23500 40.10400
C  -10.99900 20.53400 39.81800
C  -12.14100 21.28700 39.52400
C  -13.26500 20.43100 39.91100
C  -12.74500 19.11500 40.07600
C  -12.24700 22.80900 39.13100
C  -14.76200 20.93000 39.94500
O  -15.03500 22.10700 39.69000
C  -15.96600 20.09300 40.40400
N  -11.57200 16.17800 40.10400
C  -12.92800 16.56800 40.04500
C  -13.85600 15.40300 40.06700
C  -12.89800 14.17900 40.12300
C  -11.50400 14.83200 40.29900
C  -14.97000 15.52500 41.14800
C  -12.98700 13.13900 39.00200
C  -13.58300 11.80400 39.42500
N  -8.85300 16.01200 40.90100
C  -9.04200 14.64300 40.82900
C  -7.80600 13.94800 40.91700
C  -6.79500 14.93000 40.84400
C  -7.50800 16.17700 40.79900
C  -7.52100 12.50500 40.99100
C  -5.40400 15.16000 40.62700
O  -4.42500 14.40600 40.53200
C  -5.26100 16.68900 40.63400
C  -4.37200 17.12900 41.68300
O  -3.49300 17.96300 41.56600
O  -4.61600 16.48000 42.84100
C  -3.54300 16.62300 43.88200
H  -9.55600 22.07000 39.76700
H  -14.52200 17.94400 39.92200
H  -10.49900 13.03900 40.71300
H  -5.26700 19.70100 40.48300
H  -7.19700 21.51000 39.19700
H  -6.36200 22.82800 40.90200
H  -6.17300 21.37800 41.95100
H  -7.74300 22.10000 41.84300
H  -6.29700 20.38700 37.74400
H  -6.28100 18.69700 37.89800
H  -3.83400 19.06600 38.68200
H  -4.07000 20.50200 37.62600
H  -11.35900 23.11900 38.58200
H  -12.42100 23.34700 40.06300
H  -13.01500 23.09600 38.41300
H  -16.43600 19.49800 39.62100
H  -16.66700 20.64700 41.02900
H  -15.64300 19.31400 41.09500
H  -14.35800 15.40500 39.09900
H  -13.01700 13.71300 41.10100
H  -14.80700 16.41200 41.76000
H  -14.78500 14.78400 41.92600
H  -15.98000 15.51500 40.73800
H  -11.98900 12.97100 38.59700
H  -13.70500 13.44700 38.24200
H  -13.74900 11.70100 40.49700
H  -12.92400 11.06800 38.96300
H  -14.58100 11.79500 38.98700
H  -6.73100 12.26100 40.28100
H  -8.35700 11.88200 40.67400
H  -7.29200 12.15300 41.99700
H  -4.67400 16.84100 39.72800
H  -3.78400 15.85000 44.61200
H  -3.55000 17.62400 44.31300
H  -2.59400 16.46200 43.37000

