158

Mg 48.01900 15.69900 28.33500
C  46.12500 15.55700 31.28500
C  50.27400 17.79700 30.00800
C  49.63700 16.18000 25.50300
C  45.24900 14.34300 26.61800
N  48.11600 16.61700 30.32800
C  47.40300 16.21900 31.36500
C  47.96300 16.72900 32.71100
C  49.11500 17.69600 32.31500
C  49.21800 17.28100 30.81000
C  48.79000 19.21400 32.47500
C  48.40100 15.60400 33.59600
C  48.34700 15.76200 35.10400
H  48.39300 17.11400 35.82200
N  49.73900 16.78500 27.84900
C  50.55200 17.58900 28.62100
C  51.69600 18.04900 27.89000
C  51.61900 17.37600 26.66300
C  50.29500 16.74400 26.63800
C  52.75600 18.99000 28.54100
C  52.53300 17.45100 25.46400
O  52.33600 16.82300 24.51800
C  53.78700 18.32100 25.48600
N  47.45100 15.37300 26.35900
C  48.38600 15.51100 25.41100
C  47.88400 15.01800 24.08800
C  46.69400 14.19000 24.52600
C  46.45500 14.59400 25.91900
C  47.49000 16.21900 23.18900
C  46.77700 12.70100 24.33000
C  45.75000 12.01300 23.44400
N  46.03600 15.06500 28.80200
C  45.01500 14.49900 28.04700
C  43.82200 14.31100 28.82700
C  44.25500 14.64300 30.10100
C  45.58500 15.06000 30.05800
C  42.47800 13.83400 28.37800
C  43.80100 14.81000 31.54300
O  42.73500 14.55800 32.00800
C  45.04700 15.24400 32.34900
C  44.56700 16.41600 33.13000
O  44.27200 17.50200 32.67000
O  44.24100 16.07700 34.39700
C  43.31600 16.97300 35.14300
H  51.04600 18.39200 30.50100
H  50.15200 16.10700 24.54300
H  44.36000 14.00000 26.08500
H  47.15200 17.18600 33.27800
H  50.02200 17.53200 32.89700
H  48.94300 19.73900 31.53100
H  49.63300 19.46300 33.12000
H  47.88900 19.52100 33.00600
H  49.45600 15.38000 33.43600
H  47.87000 14.70800 33.27400
H  49.17500 15.18500 35.51600
H  47.44800 15.18400 35.32100
H  53.35600 19.57600 27.84500
H  53.46100 18.25600 28.93100
H  52.35800 19.63300 29.32600
H  54.28800 18.00300 26.40000
H  53.51600 19.37700 25.48600
H  54.49600 18.21400 24.66500
H  48.60200 14.44700 23.49900
H  45.78500 14.53700 24.03400
H  47.68700 17.08700 23.81800
H  46.44200 16.39200 22.94300
H  48.07900 16.22400 22.27200
H  46.61400 12.20900 25.28900
H  47.74000 12.39000 23.92600
H  46.30900 11.66500 22.57500
H  44.95100 12.73200 23.26300
H  45.36000 11.11400 23.92200
H  42.33000 14.30000 27.40400
H  41.85900 14.27100 29.16200
H  42.31500 12.75800 28.32700
H  45.29800 14.41200 33.00700
H  42.45100 17.29600 34.56500
H  43.90500 17.76000 35.61500
H  42.95200 16.40900 36.00200
Mg 8.96000 48.79200 25.88600
C  6.78100 48.84700 28.55100
C  11.47000 50.13400 27.79700
C  10.90900 48.39100 23.27200
C  6.18300 47.90400 23.80800
N  9.11500 49.39000 27.92600
C  8.12500 49.14800 28.89600
C  8.62100 49.69300 30.33200
C  9.98700 50.48000 29.95900
C  10.21400 50.04400 28.45900
C  10.00400 52.03000 30.11700
C  8.77700 48.62700 31.45000
C  8.23800 49.04600 32.82900
H  8.27500 48.04600 34.01600
N  10.97200 49.12700 25.60400
C  11.88800 49.64900 26.52000
C  13.18300 49.54200 25.93000
C  13.08700 48.98900 24.59200
C  11.58200 48.88300 24.37900
C  14.44000 49.73800 26.85900
C  14.16900 48.59200 23.62400
O  13.99900 48.16300 22.49000
C  15.51500 48.82100 23.99500
N  8.57100 48.49700 23.76300
C  9.61800 48.29500 22.91900
C  9.14200 47.80700 21.55300
C  7.61600 47.82900 21.70000
C  7.44800 48.02100 23.21400
C  9.70300 48.36500 20.20200
C  6.85200 46.56600 21.15600
C  5.45800 46.77000 20.40900
N  6.84500 48.53400 26.09400
C  5.87700 48.26000 25.14800
C  4.52700 48.19200 25.91200
C  4.81700 48.44600 27.27600
C  6.22200 48.60200 27.30600
C  3.13700 47.97100 25.26400
C  4.30900 48.47300 28.57700
O  3.20300 48.29700 29.08900
C  5.48400 48.91700 29.46900
C  5.37600 47.91900 30.55900
O  5.77400 46.74900 30.47500
O  4.72400 48.40100 31.67800
C  4.57300 47.48600 32.78800
H  12.26500 50.60500 28.37900
H  11.48500 47.99400 22.43400
H  5.34200 47.50700 23.23600
H  7.87500 50.36100 30.76400
H  10.86600 50.20000 30.53900
H  10.29500 52.30700 31.13000
H  9.03600 52.45800 29.85400
H  10.69800 52.52500 29.43700
H  9.83600 48.38700 31.54400
H  8.19600 47.79600 31.04900
H  7.15800 49.14500 32.72100
H  8.72600 49.98600 33.08700
H  14.26500 49.88900 27.92500
H  14.99700 50.57200 26.43400
H  14.98200 48.81300 26.66000
H  15.88500 48.11800 24.74100
H  15.58600 49.88600 24.21600
H  16.23700 48.71200 23.18600
H  9.55600 46.80000 21.51000
H  7.19100 48.75900 21.32200
H  10.09000 47.54600 19.59600
H  10.59900 48.95400 20.39700
H  8.96600 48.87600 19.58200
H  6.57100 45.85400 21.93200
H  7.54100 46.01100 20.51900
H  4.75700 46.04200 20.81900
H  5.69700 46.58700 19.36200
H  5.13600 47.79500 20.59200
H  2.75600 48.88200 24.80300
H  2.45500 47.40900 25.90100
H  3.55400 47.23000 24.58100
H  5.30800 49.95900 29.73900
H  4.02000 48.08200 33.51400
H  5.55300 47.19000 33.16100
H  3.95600 46.62100 32.54200

