158

Mg 8.78500 4.49700 27.31600
C  10.28600 2.99500 29.98400
C  6.82100 6.29600 29.35300
C  7.12200 5.66100 24.43400
C  10.76400 2.62400 25.12300
N  8.62900 4.74900 29.48100
C  9.33900 3.96800 30.36600
C  9.02000 4.44800 31.77800
C  7.80500 5.44200 31.62500
C  7.71900 5.48200 30.04300
C  6.50100 5.16400 32.45500
C  10.27800 5.05900 32.55200
C  9.98100 5.58700 33.95700
H  11.05900 5.38200 35.04400
N  7.20400 5.74900 26.90500
C  6.66100 6.46700 27.90300
C  5.64600 7.31700 27.35200
C  5.85700 7.42300 25.96300
C  6.66900 6.12600 25.72100
C  4.70600 8.21000 28.31100
C  5.43200 8.49100 24.92400
O  5.77200 8.37200 23.71700
C  4.61700 9.70900 25.34400
N  8.75500 3.95300 24.99200
C  8.00800 4.62400 24.04800
C  8.63100 4.53200 22.65800
C  9.96900 3.69900 22.92400
C  9.79500 3.36400 24.39600
C  7.60000 3.83200 21.71100
C  11.27000 4.42900 22.47900
C  11.98500 5.33900 23.53600
N  10.17600 3.00100 27.42900
C  10.87800 2.28500 26.45200
C  11.66200 1.25900 27.13200
C  11.37200 1.42400 28.52500
C  10.57600 2.57800 28.65600
C  12.56300 0.24200 26.49100
C  11.72900 1.01300 29.91900
O  12.45300 0.12600 30.32400
C  11.02500 2.00200 30.84400
C  10.10400 1.37400 31.77800
O  8.99500 0.87800 31.50100
O  10.65300 1.26200 33.04600
C  9.84500 0.60000 34.11500
H  6.28400 6.99800 29.99400
H  6.74000 6.21000 23.57100
H  11.40800 2.08700 24.42400
H  8.65200 3.56300 32.29700
H  8.07900 6.41600 32.02900
H  5.62500 5.15300 31.80600
H  6.28900 5.92100 33.21000
H  6.65200 4.26600 33.05500
H  10.65700 5.86600 31.92500
H  11.02400 4.30500 32.80100
H  8.99000 5.25600 34.26700
H  10.02100 6.66900 33.83100
H  3.72700 8.27900 27.83600
H  5.05600 9.23300 28.45300
H  4.50500 7.74700 29.27700
H  3.69000 9.37600 25.81200
H  4.46700 10.42100 24.53300
H  5.05900 10.29000 26.15300
H  8.88000 5.56100 22.39800
H  9.85200 2.67100 22.58100
H  7.59700 4.30700 20.73000
H  6.59300 3.87600 22.12600
H  7.86000 2.78600 21.55100
H  11.06900 5.04000 21.59900
H  11.90300 3.58700 22.19700
H  11.65300 5.13400 24.55400
H  11.92700 6.40700 23.32900
H  13.06300 5.17600 23.52000
H  12.04900 -0.71900 26.46000
H  13.46000 0.16900 27.10500
H  12.92600 0.60000 25.52800
H  11.72800 2.53200 31.48700
H  9.03600 1.31500 34.25900
H  10.37100 0.37600 35.04300
H  9.51100 -0.35400 33.70700
Mg 49.35600 15.34100 29.21500
C  47.28900 15.57100 32.10600
C  51.73400 17.12800 31.09400
C  51.29300 15.79000 26.48200
C  46.81700 14.10500 27.43300
N  49.50100 16.15000 31.36600
C  48.55400 16.08000 32.32600
C  49.02700 16.56000 33.70100
C  50.30100 17.33900 33.23200
C  50.54100 16.86600 31.84500
C  50.16700 18.84700 33.55300
C  49.30200 15.32300 34.73300
C  48.55100 15.37400 36.14100
H  48.73600 16.65700 37.05400
N  51.29300 16.23600 28.87800
C  52.09400 16.82600 29.76000
C  53.37800 17.20400 29.18700
C  53.31500 16.80200 27.83900
C  51.95900 16.23000 27.68200
C  54.48300 17.82500 29.97500
C  54.20900 17.07800 26.66100
O  53.90800 16.94900 25.46700
C  55.60800 17.53600 26.85500
N  49.06600 15.14800 27.23200
C  49.98600 15.32200 26.32000
C  49.46400 14.93900 24.92500
C  48.25100 13.99900 25.27400
C  47.98800 14.46900 26.71600
C  49.20400 16.16900 23.98800
C  48.46800 12.47500 25.16200
C  47.31800 11.54000 24.93100
N  47.46800 14.89800 29.60100
C  46.48500 14.41900 28.66900
C  45.31000 14.10300 29.50700
C  45.62600 14.53500 30.86000
C  46.87600 15.04700 30.83000
C  44.06400 13.45900 28.93000
C  45.04000 14.59000 32.21300
O  43.92200 14.15500 32.58900
C  46.12300 15.32000 33.04600
C  45.54300 16.59700 33.52000
O  45.44300 17.67000 32.92800
O  45.05600 16.41700 34.74900
C  44.50100 17.49600 35.51000
H  52.42800 17.76500 31.64600
H  51.82000 15.75800 25.52600
H  45.99200 13.69400 26.84700
H  48.26200 17.24000 34.07700
H  51.15100 16.99500 33.82100
H  50.80900 19.47400 32.93400
H  50.66500 19.01900 34.50800
H  49.11200 19.12000 33.56300
H  50.35300 15.05100 34.83200
H  48.99100 14.35000 34.35300
H  48.87200 14.41800 36.55300
H  47.47400 15.28300 36.00300
H  54.12900 18.74800 30.43400
H  55.35400 18.03500 29.35500
H  54.76300 17.12600 30.76300
H  56.18000 17.49900 25.92900
H  56.14200 16.93500 27.59100
H  55.55900 18.55400 27.24200
H  50.10700 14.29500 24.32500
H  47.40100 14.26200 24.64400
H  49.13100 17.05600 24.61700
H  48.34300 15.99300 23.34300
H  50.05400 16.19900 23.30600
H  49.04000 12.18800 26.04400
H  49.15000 12.30700 24.32900
H  47.66300 10.63200 24.43700
H  46.60700 12.13000 24.35300
H  46.79700 11.27500 25.85100
H  43.67300 14.05100 28.10200
H  43.28800 13.40300 29.69300
H  44.21400 12.48900 28.45700
H  46.37100 14.65000 33.87000
H  45.04000 18.43400 35.37800
H  44.40300 17.22600 36.56100
H  43.44000 17.50500 35.26200

