158

Mg -1.93400 17.11600 26.80400
C  -2.38200 14.95500 29.57900
C  -2.17300 19.73100 28.96400
C  -1.90900 19.23500 24.13600
C  -2.01300 14.35500 24.63300
N  -2.11200 17.34200 29.03400
C  -2.26200 16.29200 29.93200
C  -2.42800 16.85600 31.28700
C  -2.65900 18.37800 31.07100
C  -2.32100 18.52900 29.59800
C  -3.96500 19.12500 31.58500
C  -1.18200 16.60000 32.22800
C  -1.49800 16.37700 33.72200
H  -0.42900 16.54600 34.76200
N  -1.84700 19.17900 26.60600
C  -1.92500 20.06700 27.66300
C  -1.90100 21.40300 27.10400
C  -1.83200 21.31100 25.65400
C  -1.88900 19.81800 25.40100
C  -1.74200 22.67600 27.91700
C  -1.66800 22.42000 24.58100
O  -1.51100 22.10800 23.37800
C  -1.59100 23.85300 25.08400
N  -2.08800 16.77700 24.65300
C  -1.91100 17.84700 23.77900
C  -1.77600 17.23800 22.35300
C  -1.48000 15.74700 22.55100
C  -1.88400 15.60400 24.02400
C  -2.92500 17.62300 21.39300
C  0.00600 15.34100 22.29000
C  1.03800 15.82000 23.35000
N  -2.23600 15.05200 26.97900
C  -2.17300 14.06000 26.02700
C  -2.29700 12.80500 26.71700
C  -2.35700 13.09600 28.07900
C  -2.32400 14.49200 28.21300
C  -2.30000 11.39400 26.12600
C  -2.52800 12.52100 29.35700
O  -2.60500 11.29000 29.67300
C  -2.40300 13.64700 30.42600
C  -1.19100 13.35900 31.19400
O  -0.03400 13.64500 30.93900
O  -1.57100 12.72500 32.35400
C  -0.54500 12.58000 33.43000
H  -2.28500 20.60000 29.61600
H  -1.97900 19.84100 23.23000
H  -1.82800 13.51700 23.95700
H  -3.26600 16.34800 31.76500
H  -1.97900 18.93800 31.71300
H  -4.24800 19.86500 30.83600
H  -3.72800 19.76500 32.43400
H  -4.73600 18.38400 31.80000
H  -0.49000 17.42500 32.05600
H  -0.60800 15.77700 31.80100
H  -1.81900 15.33700 33.78000
H  -2.31900 17.07000 33.90600
H  -1.78700 22.42100 28.97600
H  -2.52400 23.32700 27.52700
H  -0.74800 23.08700 27.74300
H  -1.46500 24.50800 24.22200
H  -0.65800 23.81600 25.64700
H  -2.50300 24.10300 25.62400
H  -0.86800 17.72100 21.99300
H  -2.19800 15.11900 22.02400
H  -3.82400 17.81800 21.97700
H  -3.13400 16.71700 20.82300
H  -2.66700 18.50400 20.80400
H  0.30500 15.81500 21.35500
H  -0.02200 14.25600 22.19600
H  0.60900 16.40500 24.16300
H  1.73500 16.45400 22.80200
H  1.59400 14.96500 23.73600
H  -1.98700 11.47600 25.08500
H  -3.27900 10.91400 26.13100
H  -1.63000 10.72600 26.66600
H  -3.30900 13.77900 31.01800
H  0.43300 12.99100 33.17900
H  -0.34400 11.54600 33.71100
H  -0.94500 13.03800 34.33500
Mg 24.83300 1.43500 29.54700
C  26.84900 0.97200 32.38200
C  22.08600 1.13500 31.58500
C  22.78400 1.50300 26.84200
C  27.63400 1.28900 27.57800
N  24.51000 0.81700 31.74900
C  25.47200 0.89900 32.73900
C  24.83400 0.95000 34.08100
C  23.30600 0.59300 33.80800
C  23.23200 0.97100 32.26800
C  22.90700 -0.84100 34.10400
C  25.04600 2.27300 34.85400
C  25.66300 2.04900 36.21800
H  25.68900 3.25200 37.22300
N  22.74900 1.34800 29.25400
C  21.78800 1.19200 30.23400
C  20.48800 1.18600 29.68300
C  20.71700 1.13800 28.29100
C  22.10200 1.30900 28.04100
C  19.22800 0.97100 30.53500
C  19.70300 0.86500 27.19500
O  20.08600 0.77400 26.06100
C  18.20600 0.59400 27.39200
N  25.17700 1.35400 27.51400
C  24.17000 1.55000 26.55200
C  24.78000 1.58400 25.08900
C  26.25400 1.86400 25.44800
C  26.39600 1.51200 26.91900
C  24.56200 0.25400 24.33500
C  26.78100 3.27400 24.99800
C  26.49000 4.44200 25.88200
N  26.85500 1.09300 29.87600
C  27.83900 1.04900 28.93000
C  29.13500 0.90900 29.64600
C  28.74300 0.89400 31.04100
C  27.36900 0.97900 31.07400
C  30.48500 0.91100 29.07800
C  29.30200 0.87400 32.35000
O  30.47800 0.84700 32.66400
C  28.09100 1.08600 33.28800
C  28.11300 0.17000 34.39800
O  27.61000 -0.97600 34.42600
O  28.94000 0.64800 35.39200
C  28.93600 -0.21100 36.60400
H  21.25400 1.20900 32.28800
H  22.14800 1.63100 25.96300
H  28.40800 1.37700 26.81300
H  25.13300 0.10900 34.70800
H  22.63400 1.28600 34.31400
H  22.72500 -1.35600 33.16000
H  21.95700 -0.74000 34.62800
H  23.53400 -1.50800 34.69500
H  24.09600 2.80500 34.90700
H  25.71400 2.89800 34.26200
H  26.63500 1.56000 36.28100
H  24.93000 1.35700 36.63100
H  18.39000 1.60000 30.23600
H  19.33300 1.09200 31.61400
H  18.84900 -0.03700 30.37400
H  18.08900 -0.41900 27.00500
H  17.59300 1.13800 26.67300
H  17.84900 0.69700 28.41600
H  24.42900 2.42300 24.48900
H  26.83300 1.06800 24.98000
H  23.95500 0.47900 23.45800
H  24.15900 -0.41400 25.09600
H  25.51700 -0.16300 24.01200
H  26.34000 3.49500 24.02600
H  27.85400 3.23800 24.80900
H  25.73900 5.09100 25.43200
H  27.42800 4.93200 26.14500
H  26.19700 4.07800 26.86700
H  30.72600 -0.12200 28.82600
H  31.27100 1.28900 29.73200
H  30.50000 1.48600 28.15300
H  28.08400 2.12700 33.61100
H  29.18900 -1.26600 36.49400
H  27.98700 -0.15500 37.13800
H  29.77400 0.19100 37.17400

