158

Mg 45.83600 5.34400 48.24700
C  43.45400 7.90800 47.29700
C  43.28700 3.07800 47.14400
C  48.09400 3.07900 48.11700
C  48.17000 7.86800 48.66700
N  43.52600 5.49700 47.38600
C  42.93900 6.62600 46.97900
C  41.62500 6.33800 46.25700
C  41.39600 4.82600 46.65200
C  42.83300 4.40000 47.06000
C  40.34200 4.66600 47.80700
C  41.60500 6.66300 44.75400
C  40.41300 7.56400 44.28500
H  39.57800 7.04400 43.10000
N  45.72900 3.31000 47.87100
C  44.60400 2.60300 47.47200
C  45.02700 1.17100 47.44700
C  46.44000 1.10300 47.54900
C  46.82700 2.51800 47.82400
C  44.06800 0.05500 47.17800
C  47.25900 -0.13300 47.47600
O  46.73200 -1.22800 47.22300
C  48.86900 -0.18900 47.58800
N  47.83800 5.51100 48.29200
C  48.58700 4.35300 48.34900
C  50.03500 4.59000 48.73100
C  50.00800 6.12400 48.94600
C  48.59600 6.52800 48.63600
C  50.61500 3.73600 49.84700
C  51.01400 6.94100 48.09900
C  52.00800 7.98700 48.79800
N  45.82700 7.46700 48.26700
C  46.89800 8.32500 48.41900
C  46.41600 9.66400 48.08100
C  45.07600 9.55900 47.73900
C  44.74400 8.17900 47.83000
C  47.34400 10.84600 48.07600
C  43.84900 10.27300 47.36000
O  43.73600 11.49500 47.06600
C  42.76000 9.24200 47.12700
C  41.78800 9.50500 48.29400
O  41.87600 8.85700 49.32300
O  40.87200 10.44900 47.98200
C  39.80000 10.66600 48.96200
H  42.55100 2.31800 46.87400
H  48.92900 2.39300 48.27300
H  48.91100 8.63700 48.89500
H  40.88400 6.90800 46.81600
H  41.00300 4.30300 45.78000
H  39.80900 5.55300 48.14900
H  40.78100 4.27800 48.72600
H  39.58300 3.91200 47.60000
H  41.68700 5.73000 44.19600
H  42.47300 7.27600 44.51100
H  40.87300 8.50000 43.96900
H  39.80000 7.84100 45.14300
H  43.07200 0.44700 46.97000
H  43.84900 -0.52900 48.07200
H  44.42200 -0.57400 46.36100
H  49.25700 -1.20700 47.55400
H  49.13600 0.10400 48.60300
H  49.41100 0.48500 46.92400
H  50.69100 4.33300 47.90000
H  50.24800 6.35400 49.98400
H  51.41300 4.18900 50.43400
H  50.93200 2.82000 49.34800
H  49.83900 3.29600 50.47400
H  50.41400 7.57000 47.44100
H  51.62800 6.28500 47.48300
H  51.80200 8.96300 48.35900
H  53.02000 7.68800 48.52500
H  52.05400 7.98500 49.88700
H  47.87900 10.86800 47.12700
H  47.98800 10.88600 48.95500
H  46.67200 11.70100 48.15200
H  42.20400 9.34500 46.19500
H  39.52700 9.76600 49.51300
H  38.93000 10.94900 48.36900
H  40.03700 11.50000 49.62400
Mg -12.02400 16.16200 42.52600
C  -8.86000 14.69700 41.86900
C  -10.63100 19.11300 41.50300
C  -15.14800 17.42600 42.42200
C  -13.22800 12.98700 43.37800
N  -9.94200 16.78100 41.57700
C  -8.83000 16.04300 41.53200
C  -7.61100 16.85100 41.24700
C  -8.20200 18.25100 41.54500
C  -9.66400 18.07900 41.51900
C  -7.63000 18.73600 42.97300
C  -7.08500 16.76300 39.79600
C  -5.60700 16.32100 39.60900
H  -5.31700 15.16700 38.60300
N  -12.76700 17.99100 41.98300
C  -12.00900 19.10500 41.58300
C  -12.86700 20.14600 41.27700
C  -14.22400 19.82400 41.66300
C  -14.09800 18.38300 42.05100
C  -12.42100 21.39000 40.54900
C  -15.47600 20.74800 41.62800
O  -15.40800 21.92700 41.26600
C  -16.76200 20.25300 42.11000
N  -13.98700 15.32500 42.93800
C  -15.11400 16.06100 42.76500
C  -16.29700 15.20700 42.94700
C  -15.75700 13.72100 43.24100
C  -14.21200 14.00400 43.20400
C  -17.26800 15.65300 44.11800
C  -16.27900 12.70900 42.18000
C  -17.59400 12.12900 42.54800
N  -11.23900 14.20000 42.66100
C  -11.81100 13.03000 43.07600
C  -10.79400 11.96300 43.18000
C  -9.64200 12.57100 42.64300
C  -9.91600 13.92000 42.40900
C  -10.96100 10.53700 43.66300
C  -8.25500 12.31500 42.26200
O  -7.62900 11.29400 42.34500
C  -7.72600 13.66800 41.78700
C  -6.69500 14.03100 42.83400
O  -6.99100 14.11700 44.06200
O  -5.47600 14.25200 42.26400
C  -4.38000 14.78800 43.14000
H  -10.20600 20.11500 41.41500
H  -16.20200 17.71300 42.43500
H  -13.68900 12.04100 43.67100
H  -6.82700 16.61300 41.96600
H  -7.96100 18.99700 40.78800
H  -8.44600 18.47700 43.64800
H  -7.48600 19.81600 42.95300
H  -6.73600 18.24000 43.35100
H  -7.12200 17.69100 39.22500
H  -7.71400 16.06200 39.24900
H  -5.09200 16.12200 40.54900
H  -5.00900 17.19600 39.35400
H  -12.93000 21.47700 39.58900
H  -11.34400 21.55400 40.50500
H  -12.62800 22.25300 41.18200
H  -17.23600 19.53300 41.44300
H  -17.47100 21.08000 42.11300
H  -16.46300 19.87800 43.08900
H  -16.87900 15.36000 42.03800
H  -15.99200 13.35100 44.24000
H  -18.03600 16.33100 43.74400
H  -16.72000 16.17800 44.90000
H  -17.72800 14.78400 44.58800
H  -15.48700 11.98200 42.00300
H  -16.43900 13.28700 41.26900
H  -17.52200 11.44600 43.39400
H  -18.01800 11.55900 41.72200
H  -18.31300 12.93000 42.72100
H  -11.26700 10.47600 44.70700
H  -10.01800 10.06200 43.39300
H  -11.68800 9.91400 43.14100
H  -7.23500 13.74000 40.81600
H  -3.55900 14.07100 43.15200
H  -4.73300 14.96200 44.15700
H  -3.93700 15.74500 42.86600

