158

Mg 0.72700 7.75400 26.84600
C  1.54200 9.71100 29.66000
C  0.65100 5.05900 28.84500
C  0.46900 5.93100 24.09300
C  1.38300 10.58900 24.75700
N  1.04800 7.45700 29.01500
C  1.31700 8.35200 30.02800
C  1.22800 7.75200 31.44700
C  1.27600 6.18900 31.09400
C  0.99600 6.25300 29.50400
C  2.69500 5.51300 31.25300
C  -0.15600 8.27100 31.96400
C  -0.37200 8.60600 33.48000
H  0.67500 8.23300 34.51200
N  0.55000 5.86300 26.51300
C  0.51500 4.85800 27.46700
C  0.15200 3.55400 26.88000
C  0.22200 3.80600 25.49600
C  0.39600 5.21600 25.29100
C  -0.25600 2.32700 27.71000
C  -0.23100 2.84100 24.41700
O  -0.48100 3.11300 23.23700
C  -0.41300 1.34800 24.76500
N  0.77100 8.20900 24.74100
C  0.63900 7.27000 23.79400
C  0.76200 7.80600 22.37300
C  0.67600 9.36600 22.68200
C  0.98100 9.38200 24.16800
C  2.03900 7.36300 21.63000
C  -0.73000 9.95400 22.38100
C  -0.87100 11.44800 22.10800
N  1.32200 9.77500 27.12600
C  1.58000 10.80700 26.17700
C  1.94900 12.05300 26.85600
C  2.01600 11.65300 28.24200
C  1.54900 10.32400 28.34900
C  2.05100 13.48500 26.23000
C  2.18700 12.14400 29.66600
O  2.45200 13.26500 30.10100
C  1.84100 10.91900 30.54800
C  2.77200 10.84100 31.77100
O  3.86800 10.23400 31.75000
O  2.29200 11.48700 32.85800
C  3.26600 11.85300 33.92700
H  0.60800 4.21500 29.53600
H  0.62000 5.34100 23.18700
H  1.59400 11.39200 24.04600
H  2.11600 8.01200 32.02400
H  0.58100 5.57500 31.66700
H  2.73600 5.03300 32.23000
H  3.32800 6.39900 31.29200
H  3.00700 4.83700 30.45700
H  -0.83600 7.42600 31.86100
H  -0.52100 9.07600 31.32600
H  -1.32300 8.17600 33.79500
H  -0.34000 9.69500 33.49400
H  -0.96800 1.62500 27.27600
H  -0.79100 2.84200 28.50800
H  0.72300 1.92600 27.97400
H  0.40300 1.00600 25.40200
H  -0.36200 0.80000 23.82400
H  -1.39300 1.18500 25.21200
H  -0.08000 7.57900 21.71900
H  1.46100 9.87200 22.12100
H  2.47800 8.13500 20.99600
H  1.81700 6.52600 20.96800
H  2.75000 6.94100 22.34000
H  -1.39200 9.73400 23.21800
H  -1.08800 9.37900 21.52800
H  -0.88500 11.63800 21.03400
H  0.04300 11.79500 22.58900
H  -1.79500 11.90800 22.46000
H  1.94200 13.58800 25.15000
H  2.91900 14.00000 26.64100
H  1.16900 13.93700 26.68500
H  0.81100 11.12300 30.84200
H  4.32100 11.64000 33.75300
H  2.93400 11.48100 34.89600
H  3.26300 12.93800 34.02500
Mg 26.65600 49.43300 26.02900
C  24.89000 50.87600 28.77000
C  29.21400 48.87200 28.38700
C  28.65000 48.65700 23.49500
C  24.34100 50.83500 23.88800
N  26.99700 49.90000 28.23600
C  26.07200 50.33400 29.23500
C  26.62200 50.19400 30.67400
C  28.10000 49.95100 30.42200
C  28.12700 49.50700 28.89800
C  28.92900 51.25600 30.68200
C  25.97700 49.04200 31.42900
C  25.30800 49.34100 32.76500
H  26.20800 49.79800 33.94000
N  28.55400 48.69500 25.96100
C  29.43100 48.45800 27.03600
C  30.65000 47.87100 26.47800
C  30.60300 47.97900 25.05000
C  29.22700 48.45700 24.81800
C  31.84000 47.43200 27.29300
C  31.61500 47.81300 23.98500
O  31.47200 48.18800 22.83900
C  32.99600 47.46600 24.46200
N  26.56900 49.84000 24.00600
C  27.45600 49.28800 23.13400
C  26.98900 49.35300 21.63800
C  25.55200 50.00200 21.81800
C  25.44300 50.23600 23.31600
C  27.80900 50.26900 20.76700
C  24.37900 48.93300 21.44100
C  23.03800 49.57800 20.93900
N  24.94700 50.62100 26.28000
C  24.07000 51.03300 25.29300
C  23.00300 51.79900 25.88000
C  23.24200 51.71500 27.25300
C  24.42100 50.97100 27.42600
C  21.90600 52.57000 25.22900
C  22.71300 52.04700 28.57200
O  21.67800 52.56900 28.91900
C  23.79200 51.56600 29.58700
C  24.34400 52.66200 30.34200
O  25.01000 53.53500 29.82900
O  23.96700 52.56400 31.65100
C  24.64300 53.29600 32.66900
H  30.02000 48.68800 29.09900
H  29.15400 48.21000 22.63600
H  23.67500 51.29400 23.15400
H  26.41500 51.12500 31.20100
H  28.57900 49.26100 31.11600
H  29.51100 51.44600 29.78000
H  29.64000 50.97400 31.45900
H  28.37700 52.10800 31.07900
H  26.67600 48.22400 31.60500
H  25.20300 48.63200 30.77900
H  24.74200 48.46900 33.09300
H  24.68000 50.18200 32.47000
H  32.65800 48.14600 27.19300
H  32.04800 46.39800 27.01900
H  31.59200 47.63100 28.33600
H  32.93600 46.55800 25.06100
H  33.45900 48.29100 25.00400
H  33.57900 47.24600 23.56800
H  26.81800 48.36500 21.21100
H  25.34800 50.91700 21.26200
H  28.83000 50.30000 21.14700
H  27.37400 51.26400 20.67500
H  27.77800 49.65900 19.86400
H  24.36200 48.38000 22.37900
H  24.77500 48.27800 20.66500
H  22.30500 49.59800 21.74500
H  22.53800 49.03300 20.13900
H  23.15500 50.53000 20.42100
H  22.23100 53.59900 25.38400
H  20.98600 52.53300 25.81300
H  21.77600 52.29400 24.18300
H  23.36700 50.79700 30.23200
H  23.88900 53.99300 33.03300
H  25.55400 53.77400 32.30900
H  24.85400 52.59400 33.47700

