158

Mg 44.61800 4.94200 47.70900
C  42.40200 7.69800 47.33900
C  41.88500 2.99300 46.83900
C  46.70500 2.48300 47.23100
C  47.19900 7.23100 47.90100
N  42.35900 5.34200 47.03400
C  41.68900 6.51000 47.18400
C  40.18700 6.33000 47.09400
C  39.99200 4.75200 46.99000
C  41.51800 4.32300 47.04700
C  39.12600 4.11300 48.09900
C  39.49400 7.10100 45.93000
C  40.31200 7.21600 44.62200
H  39.71500 6.82200 43.25700
N  44.31300 2.94400 47.23700
C  43.13600 2.30100 46.97600
C  43.41000 0.93200 46.69200
C  44.83100 0.77500 46.72400
C  45.39000 2.08900 47.09400
C  42.45100 -0.10000 46.20800
C  45.52000 -0.57400 46.43200
O  44.84200 -1.60300 46.26500
C  47.06900 -0.77600 46.32300
N  46.66200 4.92300 47.53200
C  47.33600 3.71000 47.48600
C  48.81400 3.99500 47.55600
C  48.97700 5.50400 47.96700
C  47.50700 5.91400 47.95400
C  49.52800 3.09200 48.56400
C  49.94400 6.20900 47.05100
C  50.84000 7.12900 47.85900
N  44.80700 7.04300 47.67400
C  45.96800 7.83000 47.72900
C  45.60000 9.24300 47.75600
C  44.19400 9.22500 47.57400
C  43.75700 7.91000 47.49100
C  46.57400 10.42100 47.95000
C  43.04500 10.03800 47.47400
O  42.93100 11.23200 47.63900
C  41.80000 9.07300 47.33200
C  40.83900 9.33700 48.44700
O  40.81700 8.69500 49.52000
O  40.10900 10.40600 48.10400
C  39.23600 10.98600 49.10500
H  41.00600 2.43600 46.50900
H  47.45700 1.72400 47.00600
H  47.94100 8.02600 48.00100
H  39.64500 6.78600 47.92300
H  39.56400 4.44100 46.03700
H  38.39700 4.83900 48.45900
H  39.71200 3.72000 48.93000
H  38.51200 3.36800 47.59300
H  39.30600 8.12800 46.24500
H  38.59100 6.52200 45.73900
H  41.14000 6.51900 44.75000
H  40.53600 8.27300 44.47800
H  41.46100 0.34700 46.12000
H  42.31700 -0.86200 46.97600
H  42.79500 -0.66400 45.34100
H  47.73300 -0.36500 47.08300
H  47.38500 -0.33500 45.37800
H  47.28100 -1.84300 46.39600
H  49.14600 3.62500 46.58600
H  49.28200 5.63900 49.00400
H  50.28900 3.67700 49.08000
H  50.16500 2.42400 47.98400
H  48.92800 2.61800 49.34100
H  49.36700 6.76500 46.31200
H  50.51000 5.42600 46.54600
H  50.96400 6.86300 48.90900
H  50.44200 8.14400 47.85100
H  51.75600 7.17300 47.27000
H  47.49600 10.10700 48.44000
H  46.07600 11.20600 48.51900
H  46.78400 10.79800 46.94900
H  41.41100 9.32400 46.34500
H  39.87500 11.72800 49.58300
H  38.84700 10.38600 49.92800
H  38.39300 11.49300 48.63600
Mg 36.12600 49.25000 25.48300
C  35.96700 47.41500 28.53900
C  35.38300 52.08100 27.33500
C  35.98600 50.93200 22.59300
C  36.33000 46.22600 23.73000
N  35.77400 49.70700 27.71900
C  35.73600 48.78600 28.75300
C  35.64300 49.56600 30.15300
C  35.20400 50.99400 29.60600
C  35.46900 50.95900 28.14500
C  33.72000 51.35500 29.83900
C  36.89900 49.42500 31.05200
C  36.64300 48.95500 32.50900
H  35.24300 49.29200 33.14400
N  35.83500 51.25600 25.06600
C  35.56600 52.26200 25.93700
C  35.54200 53.54000 25.16600
C  35.79700 53.23100 23.80000
C  35.92300 51.78400 23.76700
C  35.41700 54.85700 25.83400
C  36.00400 54.17200 22.61700
O  36.33700 53.83300 21.49300
C  35.64500 55.55400 22.72700
N  35.85600 48.65100 23.48900
C  35.84800 49.58900 22.53600
C  35.92500 48.86400 21.16100
C  36.38000 47.38200 21.53100
C  36.09900 47.40700 23.00900
C  34.59900 48.98900 20.43000
C  37.97800 47.16400 21.33700
C  38.26300 46.29800 20.11900
N  36.08100 47.28900 25.97200
C  36.22500 46.16300 25.14300
C  36.27600 44.97700 25.94500
C  36.12000 45.42100 27.28800
C  36.13300 46.82400 27.27300
C  36.31000 43.54200 25.43600
C  36.08000 45.04200 28.68600
O  36.15100 43.91400 29.21800
C  35.99900 46.30700 29.56000
C  34.69100 46.14200 30.33200
O  33.56500 46.25400 29.84200
O  34.89600 45.80500 31.63300
C  33.56600 45.54100 32.30200
H  35.15200 52.96200 27.93700
H  36.00100 51.38900 21.60200
H  36.45200 45.31400 23.14200
H  34.79900 49.12300 30.68200
H  35.82800 51.74400 30.09200
H  33.28200 50.68300 30.57800
H  33.00900 51.30900 29.01500
H  33.67900 52.38100 30.20500
H  37.45700 50.36100 31.08700
H  37.51400 48.68700 30.53800
H  37.39700 49.50200 33.07500
H  36.79800 47.89600 32.71600
H  36.31500 55.45400 25.67200
H  35.54300 54.77800 26.91300
H  34.50500 55.35000 25.49900
H  34.56300 55.61300 22.84000
H  35.86900 56.08900 21.80300
H  36.13500 56.04200 23.56900
H  36.68000 49.31500 20.51800
H  35.71000 46.76000 20.93700
H  34.24900 48.00900 20.10500
H  34.63400 49.74200 19.64300
H  33.82600 49.21700 21.16500
H  38.50800 46.73400 22.18700
H  38.47000 48.11600 21.13900
H  38.81200 45.38100 20.33400
H  38.82700 46.89800 19.40400
H  37.35000 45.98500 19.61300
H  37.17400 43.51800 24.77100
H  35.44100 43.33400 24.81200
H  36.37300 42.82600 26.25500
H  36.88800 46.35200 30.18900
H  32.80300 46.29000 32.09300
H  33.80200 45.47800 33.36500
H  33.27700 44.51800 32.06000

