158

Mg 47.29900 15.91800 29.07800
C  45.36100 15.27400 31.93900
C  49.50600 17.53200 31.04500
C  48.81000 16.90100 26.16900
C  44.64800 14.71000 27.08600
N  47.28200 16.38900 31.22100
C  46.52900 15.92800 32.26500
C  47.03700 16.38500 33.62200
C  48.16900 17.35500 33.22300
C  48.30900 17.04900 31.74900
C  48.00400 18.85300 33.42500
C  47.49700 15.20900 34.51800
C  48.18900 15.43400 35.90100
H  47.82600 16.64600 36.72900
N  48.94000 16.91800 28.71400
C  49.82100 17.44100 29.65300
C  51.03800 17.92400 28.98300
C  50.73200 17.91400 27.62900
C  49.41900 17.23600 27.42300
C  52.18800 18.49200 29.78400
C  51.63700 18.41000 26.51500
O  51.34800 18.25300 25.29500
C  52.90900 19.19200 26.84800
N  46.78800 15.82700 26.86300
C  47.57400 16.33000 25.89300
C  46.88100 16.09100 24.46400
C  45.54500 15.33900 24.85100
C  45.68900 15.24300 26.32200
C  46.73000 17.42900 23.66000
C  45.35300 13.98200 24.12500
C  46.31700 12.79700 24.36100
N  45.41300 15.08600 29.38900
C  44.43800 14.61700 28.53200
C  43.36300 14.03600 29.35400
C  43.65800 14.28800 30.73200
C  44.92500 14.91400 30.60300
C  42.29000 13.18600 28.69300
C  43.26900 14.05600 32.06900
O  42.29700 13.46500 32.57100
C  44.33100 14.73800 32.96400
C  43.56600 15.75200 33.76800
O  42.88200 16.65900 33.38800
O  43.88500 15.56700 35.12700
C  43.16300 16.47600 36.07700
H  50.15900 18.03400 31.76200
H  49.42600 17.27600 25.34900
H  43.77100 14.40700 26.51000
H  46.17100 16.80800 34.13100
H  49.05000 17.08800 33.80700
H  47.70800 19.12000 34.43900
H  47.24200 19.07800 32.67800
H  48.71600 19.65100 33.21200
H  48.22500 14.64500 33.93400
H  46.68000 14.52100 34.73300
H  49.26500 15.56400 35.78300
H  48.02500 14.58200 36.56100
H  52.42900 19.50200 29.45500
H  53.00900 17.83400 29.49800
H  52.08300 18.60200 30.86400
H  53.48800 18.45600 27.40600
H  52.66500 20.01300 27.52200
H  53.31000 19.56000 25.90300
H  47.48200 15.36300 23.92000
H  44.69400 15.92300 24.50200
H  47.10400 18.33300 24.14100
H  45.70800 17.70200 23.39700
H  47.33900 17.36900 22.75800
H  45.33200 14.28200 23.07700
H  44.40000 13.63100 24.52100
H  46.73700 12.39000 23.44100
H  45.89400 11.89500 24.80300
H  47.10400 13.20200 24.99900
H  41.30700 13.49400 29.04900
H  42.53000 12.12400 28.75600
H  42.28200 13.50200 27.65000
H  44.74200 14.03300 33.68700
H  42.55500 15.92800 36.79700
H  42.76100 17.41400 35.69500
H  44.02700 16.60500 36.73000
Mg -10.25100 39.87000 39.45200
C  -9.26000 36.48800 38.54600
C  -7.13000 40.89300 38.23600
C  -11.49300 43.02400 39.17400
C  -13.42400 38.66900 39.92000
N  -8.41500 38.76600 38.46700
C  -8.26200 37.43600 38.22800
C  -6.90500 37.21200 37.55000
C  -6.10800 38.54200 37.79000
C  -7.24300 39.44000 38.28500
C  -4.79600 38.49600 38.65600
C  -7.02600 36.68900 36.11300
C  -7.42200 37.74200 35.01100
H  -8.53000 37.61400 34.02900
N  -9.38800 41.73900 38.88700
C  -8.08700 41.85500 38.48900
C  -7.93600 43.32100 38.29500
C  -9.08700 44.01200 38.79600
C  -10.09300 42.94800 38.97000
C  -6.69100 43.93400 37.74200
C  -9.32500 45.52900 38.91800
O  -8.42500 46.33700 38.67000
C  -10.69800 46.18100 39.30400
N  -12.16000 40.67500 39.37000
C  -12.47200 42.03800 39.41700
C  -13.95100 42.38300 39.73500
C  -14.41300 40.92900 40.09700
C  -13.32200 40.01200 39.71200
C  -14.22900 43.49000 40.79400
C  -15.80600 40.56400 39.39700
C  -15.83700 39.96900 37.98000
N  -11.14500 37.92400 39.51100
C  -12.43900 37.66300 39.76400
C  -12.63100 36.27400 39.83700
C  -11.40100 35.72500 39.34400
C  -10.51700 36.82700 39.13500
C  -13.85400 35.59400 40.34300
C  -10.74800 34.52400 38.97300
O  -11.01100 33.34300 38.98900
C  -9.33700 35.00900 38.45200
C  -8.28900 34.28100 39.17700
O  -8.09100 34.34100 40.35700
O  -7.50700 33.59900 38.26300
C  -6.29800 33.01300 38.70800
H  -6.12300 41.19600 37.94100
H  -11.90100 44.03400 39.24800
H  -14.40100 38.25700 40.18200
H  -6.39900 36.50400 38.20600
H  -5.80200 39.02900 36.86400
H  -4.67300 37.47700 39.02100
H  -4.82700 39.11400 39.55400
H  -3.91100 38.73300 38.06600
H  -7.63900 35.78800 36.08200
H  -6.03900 36.33600 35.81200
H  -6.54700 37.67000 34.36500
H  -7.47500 38.72800 35.47200
H  -5.91100 43.95600 38.50400
H  -6.88000 44.96400 37.44200
H  -6.35000 43.27300 36.94500
H  -11.08900 45.60300 40.14100
H  -11.33900 45.92900 38.45900
H  -10.60200 47.26200 39.40800
H  -14.49400 42.66900 38.83500
H  -14.63500 41.00100 41.16200
H  -13.18300 43.64600 41.05900
H  -14.89000 43.26000 41.63000
H  -14.69400 44.29600 40.22600
H  -16.32900 41.51900 39.35400
H  -16.29700 39.93300 40.13800
H  -15.92700 38.88200 37.96900
H  -14.86500 40.11600 37.51000
H  -16.59700 40.45900 37.37200
H  -13.72000 34.56300 40.67000
H  -14.58700 35.64500 39.53800
H  -14.21400 36.21900 41.16000
H  -9.25100 34.70900 37.40800
H  -6.48100 32.00400 39.07600
H  -5.72600 33.60000 39.42700
H  -5.68900 33.12700 37.81200

