158

Mg 26.08200 0.93600 28.92200
C  27.95500 0.02400 31.76800
C  23.27100 0.97500 31.04400
C  24.27900 1.35900 26.28500
C  28.85600 0.23700 26.96800
N  25.73100 0.47100 31.16200
C  26.62000 0.21300 32.12400
C  26.10300 0.53700 33.59900
C  24.56100 0.65500 33.26000
C  24.50600 0.76900 31.74500
C  23.74400 -0.55600 33.65800
C  26.90500 1.67700 34.36900
C  27.72200 1.17500 35.53800
H  27.41400 1.91700 36.84200
N  24.08600 1.18100 28.70300
C  23.09300 1.10400 29.66900
C  21.82200 1.33700 29.05500
C  22.04500 1.48900 27.66600
C  23.52300 1.33800 27.46400
C  20.46200 1.27600 29.83500
C  21.09400 1.51600 26.53200
O  21.40200 1.68400 25.34600
C  19.58000 1.46900 26.80100
N  26.49000 0.52500 26.85900
C  25.53800 0.93600 25.98300
C  26.08400 0.93300 24.54400
C  27.61000 0.55000 24.73900
C  27.69600 0.51500 26.30100
C  25.42600 -0.11600 23.51900
C  28.63000 1.64100 24.17700
C  29.90300 1.07300 23.48400
N  28.07700 0.34900 29.26600
C  29.07900 0.11000 28.38300
C  30.32500 -0.13900 29.06300
C  29.95800 -0.21200 30.40500
C  28.58500 0.09600 30.52200
C  31.66600 -0.47100 28.51000
C  30.39100 -0.45800 31.77200
O  31.51800 -0.76300 32.13800
C  29.13900 -0.35500 32.68900
C  29.05900 -1.63000 33.40900
O  28.54500 -2.64200 32.98600
O  29.60000 -1.41900 34.63800
C  29.34900 -2.37100 35.71400
H  22.41500 0.96900 31.72300
H  23.78900 1.59600 25.33800
H  29.77300 0.17500 26.37900
H  26.28300 -0.39600 34.13400
H  24.09600 1.57200 33.62100
H  23.06800 -0.85000 32.85600
H  23.15500 -0.29400 34.53800
H  24.46300 -1.33600 33.90900
H  26.10400 2.26100 34.82200
H  27.54900 2.23900 33.69200
H  28.76500 1.43600 35.35700
H  27.61900 0.10100 35.69200
H  20.14500 0.23600 29.76100
H  19.82000 2.01200 29.34900
H  20.54300 1.60800 30.87000
H  18.95200 1.55200 25.91400
H  19.17000 2.26400 27.42400
H  19.36300 0.52000 27.29100
H  25.84000 1.89700 24.09800
H  27.96500 -0.42500 24.40600
H  24.91500 -0.81200 24.18500
H  26.11900 -0.74400 22.96000
H  24.74400 0.33100 22.79600
H  28.88400 2.37500 24.94200
H  28.03600 2.15300 23.42000
H  30.71700 1.79100 23.38400
H  29.54600 0.70500 22.52200
H  30.18100 0.20900 24.08700
H  31.38500 -1.37300 27.96600
H  32.44700 -0.55000 29.26600
H  31.91600 0.33300 27.81800
H  29.41400 0.52500 33.27100
H  28.57200 -1.89300 36.31000
H  30.20900 -2.62700 36.33300
H  28.84700 -3.27500 35.37000
Mg 47.52100 24.76900 27.97500
C  48.41100 27.05900 30.60400
C  47.03900 22.36000 30.50500
C  46.91300 22.49300 25.56400
C  48.66100 26.96900 25.81700
N  47.64500 24.77200 30.28900
C  47.81200 25.89100 31.11200
C  47.82700 25.53400 32.64700
C  47.54800 23.97800 32.52300
C  47.36400 23.65500 31.01400
C  48.68400 23.16900 33.25500
C  46.76900 26.27400 33.51200
C  47.06700 26.25700 34.99900
H  45.89500 26.41800 35.96700
N  46.94500 22.76700 28.07900
C  46.85600 21.92300 29.15200
C  46.32900 20.61400 28.76700
C  46.34000 20.62800 27.27900
C  46.72800 22.03000 26.91600
C  45.99700 19.53400 29.69900
C  46.10600 19.55200 26.27500
O  46.39600 19.66600 25.09200
C  45.65400 18.20300 26.79100
N  48.04400 24.57800 25.91500
C  47.49300 23.66700 25.07200
C  47.45100 24.12400 23.60700
C  48.01400 25.59900 23.71900
C  48.18900 25.76100 25.26100
C  48.27200 23.17500 22.67400
C  47.15100 26.74700 23.13800
C  47.75800 27.55300 21.96200
N  48.29600 26.73600 28.15100
C  48.72200 27.45200 27.09600
C  49.20800 28.68300 27.50000
C  49.15100 28.61800 28.94600
C  48.58100 27.34200 29.26700
C  49.94000 29.70900 26.70600
C  49.46300 29.27000 30.21400
O  50.11600 30.31300 30.49100
C  48.79000 28.40200 31.23300
C  49.61800 28.38200 32.52100
O  50.72300 27.81900 32.61100
O  48.99000 29.01100 33.52100
C  49.60000 29.16500 34.85700
H  46.81300 21.62000 31.27500
H  46.48500 21.89300 24.75900
H  48.91800 27.66800 25.01800
H  48.79200 25.75300 33.10600
H  46.58600 23.68400 32.94300
H  49.26600 23.81400 33.91400
H  49.45200 22.76900 32.59300
H  48.24900 22.37500 33.86200
H  45.84800 25.69500 33.44100
H  46.68400 27.26000 33.05400
H  47.79800 27.04700 35.16800
H  47.39200 25.23300 35.18400
H  45.00600 19.09000 29.60900
H  46.12800 19.76400 30.75600
H  46.80900 18.82500 29.53500
H  46.46600 17.79900 27.39600
H  45.54100 17.48400 25.97900
H  44.67300 18.27900 27.26000
H  46.45300 24.23900 23.18500
H  49.01900 25.62900 23.29700
H  48.57200 22.23400 23.13500
H  49.18000 23.75000 22.49300
H  47.79800 23.06100 21.69900
H  47.03700 27.51400 23.90400
H  46.16700 26.38200 22.84300
H  48.67500 27.10500 21.57700
H  47.82400 28.63700 22.05000
H  46.96200 27.59600 21.21800
H  49.78900 29.57200 25.63500
H  51.02600 29.70400 26.80600
H  49.50800 30.67700 26.95900
H  47.83700 28.88800 31.44200
H  50.53100 28.60200 34.92900
H  48.98100 28.76300 35.65900
H  49.72800 30.21200 35.13000

