158

Mg 25.81700 1.26400 29.21100
C  27.75700 0.76300 32.10400
C  23.07200 1.82500 31.18200
C  23.82500 1.10800 26.38400
C  28.59800 0.40300 27.37300
N  25.37400 1.09200 31.41800
C  26.37200 1.06200 32.35300
C  25.70300 1.36800 33.79200
C  24.20700 1.67100 33.52100
C  24.25000 1.57700 31.91900
C  23.20900 0.72000 34.09900
C  26.44600 2.45700 34.59300
C  26.87400 2.17800 36.05400
H  26.58500 3.26000 37.10200
N  23.74700 1.57300 28.78800
C  22.80600 1.75900 29.76600
C  21.49200 1.99700 29.09900
C  21.73600 1.80600 27.69100
C  23.14800 1.48400 27.56300
C  20.18600 2.24500 29.76900
C  20.76500 1.99600 26.54800
O  21.09500 1.95000 25.34700
C  19.37900 2.26100 26.81200
N  26.18300 0.76000 27.16800
C  25.17700 0.74400 26.23800
C  25.73400 0.50400 24.85700
C  27.30900 0.55400 25.07600
C  27.43700 0.61400 26.62800
C  25.11700 -0.67900 24.09000
C  27.99700 1.75200 24.28500
C  28.67200 1.46600 22.97400
N  27.76600 0.63200 29.61900
C  28.84100 0.36300 28.73300
C  29.97900 0.05000 29.53500
C  29.60300 0.20100 30.89200
C  28.24400 0.55400 30.85500
C  31.28200 -0.18500 28.92900
C  30.05700 0.13700 32.24200
O  31.07100 -0.26900 32.75600
C  28.87600 0.58100 33.13500
C  28.61900 -0.40700 34.23500
O  27.96700 -1.40200 34.15700
O  29.30100 0.00100 35.38900
C  28.98900 -0.74200 36.56400
H  22.20900 2.16600 31.75800
H  23.30900 1.31100 25.44300
H  29.44200 0.20800 26.70800
H  25.82400 0.40700 34.29200
H  23.92900 2.72100 33.61100
H  22.33000 1.35600 34.20100
H  23.53500 0.23200 35.01700
H  22.83200 -0.06100 33.43900
H  25.94100 3.42000 34.66900
H  27.37500 2.65000 34.05700
H  27.92700 1.91500 36.14800
H  26.32100 1.27600 36.31700
H  19.90300 3.26000 29.49000
H  20.38500 2.25100 30.84100
H  19.34500 1.60400 29.50600
H  18.85800 1.38700 27.20300
H  18.94000 2.52700 25.85100
H  19.11400 3.11700 27.43200
H  25.40700 1.40800 24.34300
H  27.81200 -0.36100 24.76100
H  25.85500 -1.45200 23.87000
H  24.79200 -0.43500 23.07900
H  24.27100 -1.23500 24.49400
H  28.79200 2.06500 24.96200
H  27.33700 2.59700 24.08800
H  28.41700 0.50100 22.53400
H  29.73100 1.62800 23.17700
H  28.26800 2.15100 22.22900
H  31.50300 0.39300 28.03100
H  31.40000 -1.22700 28.63000
H  32.03500 0.07200 29.67300
H  29.21100 1.49500 33.62600
H  29.54000 -0.30800 37.39800
H  29.16400 -1.81600 36.49400
H  27.94900 -0.68800 36.88700
Mg 44.93800 4.51200 48.30700
C  43.04900 7.15500 47.27600
C  42.43900 2.43800 47.62700
C  47.05600 1.83800 48.85600
C  47.75600 6.56800 48.31100
N  43.04200 4.81200 47.43700
C  42.35600 5.94900 47.14800
C  40.90300 5.71000 46.59500
C  40.67300 4.24100 47.12200
C  42.14700 3.80200 47.49600
C  39.49700 4.08600 48.16000
C  40.82200 5.84000 45.03500
C  40.01400 7.01300 44.39100
H  39.05500 6.71900 43.27800
N  44.75200 2.44400 48.06000
C  43.64900 1.76100 47.82900
C  43.89500 0.39900 47.78500
C  45.24200 0.16900 48.18000
C  45.79000 1.48400 48.35900
C  42.73800 -0.60800 47.66900
C  45.87300 -1.15000 48.48600
O  45.31500 -2.18900 48.12400
C  47.23300 -1.38400 49.01500
N  47.16700 4.19000 48.42700
C  47.75400 3.06000 48.93200
C  49.15800 3.15000 49.24000
C  49.32900 4.69300 49.07200
C  48.02700 5.21600 48.44800
C  49.59600 2.59800 50.59500
C  50.56600 5.16300 48.24000
C  51.43900 6.20300 48.87600
N  45.34100 6.50100 47.99300
C  46.54500 7.19300 47.99900
C  46.23100 8.62300 47.77700
C  44.86100 8.63500 47.55900
C  44.42400 7.36800 47.59700
C  47.08200 9.79900 47.79300
C  43.74500 9.61700 47.27100
O  43.63900 10.81800 47.15000
C  42.49600 8.54300 47.08600
C  41.44700 8.84700 48.19300
O  41.15800 8.09300 49.11400
O  40.89100 10.05400 47.89700
C  39.82700 10.44800 48.83200
H  41.49600 1.88900 47.59800
H  47.77800 1.03100 49.00200
H  48.61100 7.23400 48.45000
H  40.26700 6.47600 47.03900
H  40.30000 3.67900 46.26600
H  39.20100 5.06900 48.52600
H  39.91000 3.57700 49.03100
H  38.57400 3.71100 47.71800
H  40.42800 4.87100 44.72900
H  41.84400 5.91900 44.66300
H  40.71000 7.76900 44.02800
H  39.55500 7.50100 45.25200
H  42.92500 -1.29400 46.84300
H  41.79600 -0.11800 47.42500
H  42.58500 -1.25500 48.53400
H  47.41100 -2.44600 49.18200
H  47.38700 -0.74500 49.88400
H  47.78800 -1.08300 48.12700
H  49.69300 2.59900 48.46700
H  49.38200 5.08700 50.08700
H  48.68800 2.47900 51.18700
H  50.33300 3.21300 51.11200
H  50.09100 1.64300 50.41800
H  50.36800 5.60900 47.26500
H  51.28900 4.35100 48.15400
H  51.56200 6.02200 49.94300
H  50.84000 7.10700 48.76700
H  52.41200 6.32800 48.40100
H  46.70100 10.49300 48.54200
H  47.03600 10.22700 46.79200
H  48.07300 9.38800 47.98200
H  41.93600 8.62200 46.15500
H  38.95500 10.96300 48.43000
H  40.15800 10.91800 49.75800
H  39.27700 9.61100 49.26100

