158

Mg 53.59000 24.41500 45.23900
C  51.34300 26.86000 44.20500
C  51.57700 22.01000 43.77700
C  56.17500 22.13500 45.22600
C  55.71400 26.87900 46.26500
N  51.66000 24.42800 44.18300
C  50.95800 25.52200 43.79400
C  49.74800 25.20500 42.97300
C  49.62600 23.66800 43.21100
C  51.08000 23.33200 43.74300
C  48.37500 23.22200 44.03600
C  49.89300 25.57500 41.46300
C  51.36700 25.85400 41.02500
H  52.36500 24.64800 41.06800
N  53.80200 22.23500 44.65700
C  52.83000 21.45400 44.13600
C  53.25300 20.10800 43.95700
C  54.52700 20.08100 44.56600
C  54.92000 21.48500 44.79300
C  52.43600 18.98500 43.31800
C  55.42400 18.92100 44.73100
O  54.91300 17.80600 44.63800
C  56.80200 19.03700 45.18200
N  55.67500 24.52200 45.36400
C  56.45500 23.43600 45.55500
C  57.88500 23.78500 46.03500
C  57.75500 25.34500 46.35000
C  56.28300 25.61200 45.91500
C  58.27500 22.93500 47.25600
C  58.82200 26.19300 45.47200
C  59.53200 27.27700 46.41600
N  53.52900 26.45800 45.38800
C  54.41300 27.33900 46.00800
C  53.78700 28.62400 46.09800
C  52.63200 28.52600 45.27100
C  52.46800 27.15800 44.95600
C  54.49300 29.83300 46.80200
C  51.55400 29.23400 44.72400
O  51.25700 30.39800 44.81200
C  50.57800 28.14200 44.11000
C  50.20500 28.52400 42.72700
O  50.98000 28.82400 41.80100
O  48.83800 28.66300 42.66700
C  48.38100 29.11800 41.34100
H  50.89800 21.27100 43.34700
H  57.09200 21.55400 45.35100
H  56.35400 27.58800 46.79300
H  48.82700 25.63300 43.37000
H  49.65300 23.25400 42.20300
H  47.67500 23.12600 43.20600
H  47.94200 24.03500 44.61900
H  48.58800 22.30200 44.58000
H  49.33400 26.50200 41.33700
H  49.43400 24.84200 40.79900
H  51.94000 26.57800 41.60500
H  51.25800 26.19300 39.99400
H  53.05100 18.27300 42.76600
H  51.85200 19.51600 42.56700
H  51.93500 18.58400 44.19900
H  57.40900 18.14100 45.05600
H  56.96900 19.25000 46.23800
H  57.22500 19.82300 44.55700
H  58.56800 23.56400 45.21400
H  57.91300 25.52100 47.41400
H  57.51800 22.17200 47.43600
H  58.34900 23.61300 48.10700
H  59.23400 22.43900 47.10500
H  58.41800 26.72000 44.60700
H  59.56500 25.45700 45.16600
H  59.27800 27.19500 47.47300
H  59.42700 28.27600 45.99300
H  60.60700 27.14200 46.30300
H  54.94500 29.38900 47.68800
H  53.74900 30.59600 47.03200
H  55.26800 30.37100 46.25600
H  49.67300 28.15400 44.71800
H  47.33100 28.82700 41.37600
H  48.77900 28.72400 40.40600
H  48.30300 30.20500 41.33200
Mg 1.64000 41.14600 24.87300
C  3.92800 41.62400 27.71500
C  -0.61100 39.97300 27.04300
C  -0.19200 40.48700 22.22500
C  4.35800 42.04400 22.78100
N  1.67700 40.84900 27.19700
C  2.64300 41.24400 28.12200
C  2.23200 41.07200 29.54600
C  0.75700 40.32000 29.28400
C  0.58100 40.40400 27.76400
C  0.63300 38.88600 29.84100
C  2.15700 42.49300 30.27000
C  1.93000 42.45900 31.76200
H  1.65600 41.09800 32.42900
N  -0.15100 40.34600 24.67000
C  -0.99900 39.97600 25.67100
C  -2.20900 39.45800 25.01400
C  -2.04700 39.51700 23.61000
C  -0.74100 40.17800 23.45700
C  -3.26600 38.94600 25.88800
C  -2.97300 38.95100 22.48600
O  -2.57400 38.90900 21.33100
C  -4.33600 38.35100 22.88700
N  1.99900 41.30500 22.81700
C  1.06600 41.00000 21.90800
C  1.52800 41.29000 20.51800
C  2.85600 42.17500 20.74400
C  3.15200 41.77600 22.19100
C  1.61000 40.11000 19.47100
C  2.73500 43.68300 20.66500
C  3.19500 44.40400 19.36900
N  3.74200 41.67300 25.12400
C  4.73200 41.93600 24.19100
C  6.02500 42.13300 24.86000
C  5.74900 42.04500 26.21800
C  4.37200 41.75200 26.35100
C  7.28800 42.34100 24.17100
C  6.36800 42.14000 27.51100
O  7.51100 42.30700 27.90800
C  5.15900 41.96300 28.53700
C  5.41000 40.89900 29.61700
O  5.44700 39.72500 29.46100
O  5.48800 41.47500 30.91000
C  5.50800 40.53400 32.03600
H  -1.33900 39.63800 27.78400
H  -0.88700 40.49900 21.38300
H  5.12000 42.36800 22.07000
H  2.92500 40.42100 30.08000
H  -0.00600 40.96500 29.72000
H  1.61000 38.49900 30.12900
H  0.20300 38.24200 29.07300
H  -0.03800 38.87300 30.70000
H  1.40800 43.06100 29.71800
H  3.10800 43.01300 30.15600
H  1.07600 43.07000 32.05300
H  2.82700 42.81800 32.26500
H  -2.95300 37.94400 26.18300
H  -4.29000 38.94100 25.51400
H  -3.37900 39.55800 26.78200
H  -4.88900 39.05600 23.50700
H  -4.15200 37.40200 23.39000
H  -5.00100 38.21100 22.03400
H  0.72500 41.98400 20.27000
H  3.61000 41.77000 20.06900
H  0.99900 40.47900 18.64700
H  1.25800 39.21700 19.98800
H  2.67600 40.01600 19.26500
H  3.39800 44.07000 21.43800
H  1.71600 43.95900 20.93500
H  2.29400 44.86100 18.95800
H  3.65800 43.69400 18.68300
H  3.92500 45.12700 19.73200
H  7.98400 41.54700 24.44300
H  7.66900 43.32600 24.44200
H  7.11500 42.14400 23.11300
H  4.96100 42.93300 28.99400
H  6.55800 40.38500 32.28600
H  5.03500 39.59800 31.73800
H  4.86200 40.85700 32.85300

