158

Mg 1.43200 -1.71900 43.38000
C  4.73500 -0.91800 42.75600
C  0.40200 0.78600 41.41700
C  -1.77100 -3.02900 43.61000
C  2.60000 -4.72900 44.90900
N  2.44700 -0.29100 42.12900
C  3.85800 -0.08800 42.12200
C  4.22300 1.32900 41.56500
C  2.81100 1.96100 41.47500
C  1.80000 0.76900 41.65500
C  2.50100 3.34400 42.20500
C  5.01400 1.20900 40.15600
C  6.22200 2.14100 39.84700
H  6.19800 2.98700 38.59300
N  -0.43800 -1.11400 42.66600
C  -0.60600 -0.02600 41.95300
C  -2.02200 0.19400 41.80300
C  -2.74800 -0.96500 42.32800
C  -1.66800 -1.78700 42.88100
C  -2.56600 1.47600 41.20400
C  -4.22400 -1.19100 42.30500
O  -4.97000 -0.40400 41.75800
C  -4.81600 -2.34600 42.96200
N  0.54700 -3.66100 44.12100
C  -0.81500 -3.86500 44.10800
C  -1.12500 -5.17400 44.80800
C  0.26700 -5.62000 45.35000
C  1.24400 -4.61100 44.72800
C  -2.21900 -5.16300 45.92000
C  0.66300 -7.12500 45.02700
C  0.70600 -8.00100 46.29500
N  3.27800 -2.63400 43.78700
C  3.61000 -3.81300 44.48300
C  5.01600 -3.94400 44.55100
C  5.53000 -2.82000 43.93000
C  4.41300 -2.08000 43.45200
C  5.77500 -5.00100 45.28600
C  6.67700 -2.10100 43.58300
O  7.90300 -2.32900 43.86400
C  6.26900 -0.88900 42.80800
C  6.82100 0.36900 43.46400
O  6.86500 0.62000 44.72300
O  7.42200 1.18100 42.48700
C  8.32300 2.30500 42.97000
H  0.07600 1.65900 40.84800
H  -2.76000 -3.48900 43.64400
H  2.81100 -5.60800 45.52200
H  4.79200 1.81700 42.35600
H  2.68300 2.37000 40.47200
H  1.49400 3.35600 42.62300
H  2.57200 4.21400 41.55200
H  3.28700 3.42500 42.95600
H  4.36600 1.38900 39.29700
H  5.33800 0.17400 40.04200
H  7.14300 1.57800 39.69500
H  6.34600 2.82000 40.69000
H  -2.91800 1.14900 40.22500
H  -1.83700 2.28600 41.17200
H  -3.28600 1.89400 41.90800
H  -5.85800 -2.06300 42.81000
H  -4.64300 -2.32800 44.03800
H  -4.54800 -3.31900 42.55000
H  -1.51200 -5.81100 44.01300
H  0.30300 -5.46400 46.42800
H  -2.71200 -4.19100 45.90900
H  -1.76500 -5.52000 46.84400
H  -2.94400 -5.96600 45.79000
H  1.61200 -7.19600 44.49600
H  -0.13900 -7.48700 44.38400
H  -0.26800 -8.44600 46.50300
H  1.10900 -7.42300 47.12600
H  1.47500 -8.74300 46.08200
H  5.54100 -5.81900 44.60500
H  5.30600 -5.33900 46.21000
H  6.82200 -4.70500 45.35300
H  6.58800 -0.98000 41.77000
H  9.24700 2.14200 42.41500
H  8.58900 2.22100 44.02300
H  8.01200 3.29900 42.64900
Mg 16.38200 -0.71200 27.84300
C  15.59000 1.36400 30.52400
C  18.27300 -2.61100 30.00400
C  17.73700 -2.37300 25.10300
C  14.84800 1.52400 25.75500
N  16.92200 -0.57100 29.96600
C  16.41700 0.35000 30.87400
C  16.80000 -0.13400 32.29700
C  17.98200 -1.07600 32.03300
C  17.71100 -1.52800 30.56500
C  19.43300 -0.72200 32.33100
C  15.56000 -0.70200 33.08400
C  15.30600 0.09500 34.45100
H  16.53700 0.46600 35.34700
N  17.71500 -2.33600 27.65400
C  18.33900 -3.03100 28.66200
C  19.05400 -4.18300 28.13100
C  18.97600 -4.14000 26.69000
C  18.13100 -2.94700 26.43500
C  19.64000 -5.27300 29.01800
C  19.56700 -5.03200 25.61200
O  19.47300 -4.79400 24.40700
C  20.54100 -6.26700 25.91200
N  16.39300 -0.43600 25.71000
C  17.01200 -1.24400 24.77400
C  16.82500 -0.65900 23.39800
C  15.81300 0.43900 23.59600
C  15.64900 0.50700 25.04500
C  18.16500 -0.19200 22.71600
C  14.50700 0.27600 22.79300
C  13.28400 -0.22100 23.49300
N  15.32600 0.99300 28.05100
C  14.72100 1.79700 27.12300
C  14.04500 2.96100 27.76500
C  14.38300 2.76900 29.11600
C  15.17100 1.60000 29.23300
C  13.33500 4.08400 26.98400
C  14.16600 3.41700 30.44800
O  13.46800 4.36800 30.76400
C  14.97100 2.46300 31.44300
C  15.99000 3.29500 32.21700
O  17.09600 3.61200 31.86200
O  15.44200 3.69400 33.37600
C  16.21900 4.66200 34.21800
H  18.67500 -3.31200 30.73900
H  18.02500 -2.90400 24.19400
H  14.41300 2.21000 25.02500
H  17.25700 0.71600 32.80300
H  17.84000 -2.00300 32.59000
H  20.04700 -0.87300 31.44300
H  19.74400 -1.32900 33.18100
H  19.58700 0.31200 32.64000
H  15.72700 -1.73500 33.38800
H  14.66100 -0.57500 32.48000
H  14.59200 -0.44700 35.07000
H  14.92100 1.09000 34.22800
H  19.98800 -6.14200 28.45900
H  18.87400 -5.49900 29.75900
H  20.56700 -4.93300 29.47900
H  20.03900 -7.13900 26.33000
H  21.23000 -5.70000 26.53900
H  20.99800 -6.57900 24.97300
H  16.46800 -1.31000 22.60000
H  16.23200 1.40800 23.32400
H  19.06500 -0.70200 23.05900
H  18.37500 0.85700 22.92900
H  18.13300 -0.26400 21.62900
H  14.66100 -0.38500 21.94000
H  14.21600 1.24700 22.39200
H  12.75200 0.64100 23.89500
H  13.59500 -0.86300 24.31800
H  12.69300 -0.86000 22.83700
H  13.23600 4.94000 27.65100
H  12.38400 3.58800 26.79200
H  13.85300 4.34900 26.06200
H  14.22700 2.02300 32.10700
H  15.97600 4.40800 35.25000
H  16.01300 5.69100 33.92300
H  17.30900 4.65800 34.23300

