158

Mg 36.12600 49.12900 24.98800
C  36.43100 47.57600 28.02900
C  35.20800 52.08200 26.64300
C  35.65100 50.65300 22.09900
C  37.25200 46.19500 23.42200
N  35.96100 49.77200 27.09500
C  36.12100 48.94800 28.16400
C  36.21700 49.82200 29.45800
C  35.71500 51.22600 29.00600
C  35.63600 51.01600 27.46600
C  34.35100 51.63400 29.67500
C  37.56000 49.77300 30.16900
C  37.39400 49.31500 31.63500
H  36.03200 49.43000 32.51100
N  35.51700 51.08300 24.48700
C  35.11900 52.13000 25.27800
C  34.75000 53.30000 24.42600
C  34.80400 52.87400 23.11000
C  35.34000 51.47500 23.16600
C  34.51600 54.64100 25.01600
C  34.51700 53.69200 21.85200
O  34.62100 53.25200 20.72200
C  33.94200 55.00600 22.00400
N  36.33400 48.52300 23.08500
C  36.14600 49.35500 22.00900
C  36.61600 48.80300 20.68500
C  37.23900 47.46000 21.08700
C  36.96500 47.34300 22.65600
C  35.52100 48.59800 19.57100
C  38.72000 47.20500 20.86800
C  38.99900 45.98200 19.95700
N  36.60800 47.25500 25.51600
C  37.02500 46.12700 24.83000
C  37.20900 45.00200 25.67600
C  37.05600 45.59400 26.98400
C  36.64400 46.93100 26.83700
C  37.56500 43.65700 25.20800
C  37.13700 45.26000 28.39900
O  37.47000 44.17900 28.90500
C  36.83200 46.56800 29.17600
C  35.67600 46.31400 30.08400
O  34.52700 46.10100 29.66600
O  35.99800 46.00600 31.37900
C  35.08600 45.25400 32.22900
H  34.81900 52.96300 27.15800
H  35.60700 51.13100 21.11900
H  37.77300 45.35500 22.95800
H  35.48800 49.30300 30.08100
H  36.42800 52.03000 29.18800
H  33.40900 51.35700 29.20100
H  34.27300 52.70300 29.87000
H  34.40200 51.18000 30.66400
H  38.02500 50.75800 30.17500
H  38.27500 49.18300 29.59600
H  38.20500 49.87200 32.10300
H  37.54800 48.23600 31.67100
H  33.45700 54.89800 24.99200
H  35.11200 55.34000 24.42900
H  34.89300 54.72400 26.03500
H  33.00500 54.89500 22.55100
H  33.67200 55.43500 21.04000
H  34.70600 55.65800 22.42800
H  37.31300 49.59600 20.41500
H  36.60500 46.67600 20.67400
H  34.59600 48.22700 20.01200
H  35.84100 47.82000 18.87700
H  35.42200 49.54700 19.04300
H  39.21300 47.10700 21.83500
H  39.09200 48.12000 20.40600
H  39.76600 45.39400 20.46100
H  39.33500 46.54400 19.08600
H  38.10700 45.44200 19.64100
H  38.60500 43.51000 24.91600
H  36.93500 43.26700 24.40900
H  37.31700 43.06500 26.08900
H  37.71000 46.92000 29.71800
H  34.85600 44.34800 31.66800
H  34.20200 45.87600 32.37000
H  35.60400 45.00900 33.15600
Mg -10.61300 16.87600 41.09300
C  -7.97600 14.55400 40.97700
C  -8.77700 18.95500 39.09600
C  -13.33000 18.62200 40.50000
C  -12.60400 14.23000 42.40600
N  -8.62000 16.76600 40.29200
C  -7.69400 15.78700 40.39500
C  -6.44900 16.16400 39.50100
C  -6.64000 17.63000 39.28600
C  -8.09200 17.85300 39.61900
C  -5.71700 18.52100 40.18400
C  -6.34900 15.42700 38.16600
C  -5.34600 14.22800 38.11800
H  -4.19500 14.09400 37.00300
N  -10.93500 18.62400 40.07100
C  -10.05200 19.35500 39.36800
C  -10.70500 20.54000 38.88800
C  -12.07900 20.47300 39.33500
C  -12.14800 19.20800 40.05000
C  -9.99100 21.67900 38.22000
C  -13.18600 21.63900 39.03600
O  -12.86100 22.62800 38.36700
C  -14.62600 21.46800 39.47900
N  -12.67300 16.52100 41.47300
C  -13.61000 17.43100 41.17600
C  -15.11600 16.93800 41.61900
C  -14.77100 15.56900 42.37500
C  -13.30200 15.39400 41.99400
C  -15.89700 17.93400 42.59900
C  -15.67700 14.40100 41.99200
C  -16.80100 13.92900 43.01500
N  -10.38900 14.87400 41.85300
C  -11.23100 13.91900 42.31400
C  -10.56600 12.76300 42.64600
C  -9.27400 12.98800 42.20100
C  -9.23600 14.30300 41.63300
C  -11.03900 11.52300 43.24000
C  -7.90500 12.41000 42.11000
O  -7.42900 11.30300 42.44800
C  -7.04300 13.35900 41.32600
C  -5.84000 13.74300 42.16500
O  -5.89300 13.91400 43.37800
O  -4.66000 13.94300 41.39700
C  -3.61400 14.71900 42.13000
H  -8.08700 19.63100 38.58600
H  -14.27600 19.08300 40.20800
H  -13.20300 13.48100 42.92800
H  -5.63900 15.84100 40.15600
H  -6.40500 17.87700 38.25100
H  -6.36300 19.02200 40.90400
H  -5.13600 19.18800 39.54600
H  -5.03200 17.93400 40.79600
H  -6.14000 16.05800 37.30200
H  -7.33200 15.02900 37.91900
H  -5.91200 13.29800 38.06400
H  -4.84700 14.17200 39.08500
H  -9.60400 21.36700 37.25100
H  -9.15600 21.97000 38.85700
H  -10.61100 22.57500 38.18300
H  -15.10200 22.44700 39.53000
H  -14.59500 21.13900 40.51700
H  -15.20800 20.85500 38.79100
H  -15.72100 16.85800 40.71600
H  -14.75900 15.65600 43.46100
H  -16.41700 17.32400 43.33800
H  -16.69300 18.35600 41.98500
H  -15.28200 18.76500 42.94400
H  -15.07900 13.53100 41.72000
H  -16.28500 14.64600 41.12200
H  -16.91400 14.59900 43.86700
H  -16.59900 12.89700 43.30000
H  -17.75800 13.89500 42.49300
H  -10.18000 10.97600 43.63000
H  -11.51000 10.91400 42.46800
H  -11.75700 11.88000 43.97800
H  -6.79800 12.70600 40.48900
H  -3.32000 14.21200 43.04900
H  -3.99000 15.74100 42.09200
H  -2.80600 14.66600 41.40000

