158

Mg 49.87700 35.33900 27.32800
C  47.75800 34.11300 29.70000
C  49.98400 38.47000 29.10200
C  51.62200 36.69900 24.79700
C  48.88100 32.77500 25.17100
N  49.10400 36.10500 29.23200
C  48.33300 35.35600 30.07300
C  48.25700 36.10800 31.46500
C  48.55800 37.58200 31.11500
C  49.30900 37.39900 29.77200
C  47.34800 38.55900 31.13400
C  49.27700 35.44500 32.49600
C  48.65600 34.92300 33.76800
H  49.10000 35.74400 35.04400
N  50.87400 37.26500 27.08700
C  50.79300 38.32000 27.89500
C  51.52700 39.45700 27.23500
C  52.14800 38.91900 26.05500
C  51.56800 37.56700 25.91800
C  51.64600 40.85100 27.88900
C  53.13400 39.57600 25.13400
O  53.65800 38.90200 24.24000
C  53.50300 40.94500 25.43400
N  49.97900 34.96000 25.13700
C  50.94200 35.59600 24.42400
C  51.26300 34.85100 23.10400
C  50.47900 33.49400 23.29000
C  49.73100 33.75800 24.64700
C  50.95700 35.68700 21.88100
C  51.27000 32.19200 23.45300
C  51.76900 31.65000 22.01800
N  48.69900 33.62100 27.40500
C  48.32000 32.75200 26.44800
C  47.28700 31.82400 26.99300
C  47.04200 32.31000 28.27300
C  47.94900 33.43900 28.49600
C  46.72700 30.67200 26.17600
C  46.25700 32.15000 29.50500
O  45.47400 31.29400 29.90800
C  46.66200 33.41200 30.42100
C  46.99700 32.79400 31.72200
O  48.07400 32.21700 31.97200
O  45.88500 32.93300 32.51400
C  45.93000 32.28200 33.84100
H  50.05000 39.46900 29.53800
H  52.26000 37.01500 23.96900
H  48.69200 31.81300 24.69000
H  47.26400 35.91500 31.87200
H  49.27100 38.07100 31.78000
H  46.39400 38.09300 31.38200
H  47.13400 38.96200 30.14400
H  47.61300 39.34500 31.84000
H  50.01500 36.20400 32.75600
H  49.74300 34.61300 31.96800
H  49.10000 33.93400 33.88200
H  47.57400 34.79100 33.77600
H  52.49800 40.93900 28.56400
H  50.72700 40.99600 28.45700
H  51.58700 41.58300 27.08300
H  54.43700 40.94900 24.87300
H  53.79300 40.92400 26.48400
H  52.65500 41.53000 25.07500
H  52.32500 34.71900 23.31400
H  49.79000 33.22500 22.48900
H  51.79200 35.99300 21.25000
H  50.32000 36.55100 22.07500
H  50.41100 34.99500 21.24000
H  50.71100 31.42300 23.98500
H  52.06000 32.29700 24.19700
H  51.34600 30.66200 21.83700
H  52.85700 31.58500 21.98900
H  51.38600 32.30300 21.23400
H  46.08500 31.08600 25.39900
H  46.08200 30.00100 26.74500
H  47.54000 30.01900 25.85900
H  45.79300 34.06100 30.52500
H  45.65500 33.07400 34.53800
H  46.92100 31.93700 34.13600
H  45.20400 31.49100 33.65000
Mg 36.30000 49.33300 25.20400
C  36.56500 47.60600 28.28200
C  34.92900 51.79700 26.72500
C  35.92000 50.66000 22.22000
C  37.43800 46.36600 23.60100
N  35.63000 49.56800 27.29300
C  35.87000 48.85800 28.37700
C  35.60300 49.63500 29.68600
C  34.79600 50.82600 29.05700
C  35.14500 50.78200 27.63900
C  33.24900 50.83100 29.23300
C  36.86600 50.04300 30.54000
C  36.83900 49.84700 32.09900
H  35.54800 49.97400 32.90000
N  35.55200 51.07700 24.53900
C  34.96900 51.98400 25.36800
C  34.48700 53.14000 24.60200
C  35.00900 52.89100 23.27000
C  35.53000 51.45900 23.26000
C  33.81000 54.40800 25.16100
C  34.97700 53.76100 22.07500
O  35.40300 53.35400 20.98800
C  34.52600 55.25300 22.20700
N  36.61000 48.59200 23.12300
C  36.31900 49.33600 22.09000
C  36.55000 48.60100 20.80400
C  37.21800 47.23500 21.21600
C  36.98300 47.36700 22.71600
C  35.36900 48.46400 19.79500
C  38.68500 47.07300 20.93500
C  39.05200 47.23900 19.43500
N  36.84000 47.38500 25.78500
C  37.33100 46.32800 25.02500
C  37.63700 45.15500 25.89300
C  37.35700 45.65000 27.18900
C  36.79400 46.96200 27.05700
C  38.25800 43.81300 25.49100
C  37.35300 45.30300 28.50800
O  37.58300 44.25100 29.06800
C  36.85400 46.52400 29.32300
C  35.67000 46.04900 30.01500
O  34.64100 45.90700 29.42100
O  35.71800 46.17700 31.34600
C  34.48400 46.11300 32.14800
H  34.52400 52.65000 27.27300
H  35.70700 51.14500 21.26500
H  37.81800 45.40800 23.24100
H  34.95000 48.97600 30.25800
H  35.12500 51.74300 29.54700
H  32.98200 50.06100 29.95600
H  32.63700 50.99700 28.34600
H  32.98700 51.73000 29.79200
H  37.22600 51.05800 30.37000
H  37.66400 49.39400 30.17800
H  37.60400 50.52700 32.47500
H  37.20500 48.82500 32.19200
H  33.59900 54.32500 26.22700
H  32.77600 54.57300 24.85600
H  34.47700 55.26400 25.06600
H  34.56200 55.88800 21.32200
H  35.25200 55.69600 22.88900
H  33.52800 55.29500 22.64200
H  37.33500 49.14700 20.28200
H  36.70400 46.37700 20.78300
H  34.58800 49.11200 20.19500
H  35.05400 47.43400 19.96000
H  35.47200 48.77000 18.75400
H  39.13500 46.15300 21.30700
H  39.01900 47.89500 21.56700
H  38.16200 46.95700 18.87200
H  39.88400 46.56900 19.22200
H  39.51300 48.18000 19.13500
H  38.65600 43.84500 24.47700
H  37.52200 43.02400 25.64900
H  39.08400 43.68800 26.19100
H  37.60200 46.78300 30.07200
H  34.20800 45.07200 32.31300
H  33.65800 46.74100 31.81500
H  34.79800 46.48500 33.12400

