158

Mg 35.69700 48.81700 25.15100
C  35.92900 46.78300 28.15500
C  34.36700 51.19100 27.13800
C  35.33000 50.38400 22.49800
C  36.43300 45.83800 23.46100
N  35.27500 48.98200 27.41300
C  35.52600 48.12500 28.42400
C  35.08100 48.69800 29.76800
C  34.48400 50.15000 29.40600
C  34.75200 50.09700 27.91900
C  33.01100 50.37700 29.83400
C  36.32400 48.83400 30.70500
C  35.98300 48.55200 32.21400
H  34.57800 48.56100 32.84100
N  35.00500 50.56500 24.87000
C  34.48000 51.41200 25.71400
C  34.15300 52.65000 25.07700
C  34.43000 52.47500 23.64900
C  34.99200 51.05600 23.62500
C  33.52400 53.91900 25.80600
C  34.27600 53.40500 22.45000
O  34.63300 53.15000 21.27200
C  33.53200 54.69900 22.58800
N  36.05800 48.21100 23.17200
C  35.72000 49.08500 22.20600
C  35.95800 48.46300 20.85300
C  36.43800 47.01000 21.19900
C  36.27700 46.98700 22.71500
C  34.69000 48.67400 19.94000
C  38.06000 46.70400 20.85800
C  38.41300 45.33500 20.26200
N  36.09700 46.71300 25.63600
C  36.35600 45.62700 24.85500
C  36.52400 44.44100 25.63600
C  36.39000 44.84200 26.97100
C  36.13400 46.22300 26.91300
C  36.77200 43.07100 25.10600
C  36.39600 44.34300 28.30500
O  36.59500 43.18500 28.82100
C  36.10300 45.60500 29.20000
C  34.90400 45.29500 29.98900
O  33.73400 45.58300 29.65700
O  35.28100 44.68100 31.11300
C  34.20100 44.33000 32.12600
H  33.85600 51.90200 27.79100
H  35.21100 50.87100 21.52800
H  36.49500 44.94700 22.83200
H  34.33200 48.03900 30.20500
H  35.14700 50.96100 29.70800
H  32.21400 50.22100 29.10700
H  32.89200 51.33300 30.34300
H  32.80900 49.65300 30.62400
H  36.81200 49.78500 30.49400
H  37.03800 48.07000 30.39800
H  36.58800 49.28000 32.75500
H  36.41200 47.56700 32.39600
H  32.45800 54.04300 25.61600
H  34.06700 54.78400 25.42400
H  33.50500 53.97100 26.89400
H  32.59600 54.64900 23.14400
H  33.22200 55.13100 21.63600
H  34.14000 55.39600 23.16300
H  36.82300 48.95300 20.40500
H  35.76900 46.29700 20.71700
H  33.91600 49.29500 20.38900
H  34.17700 47.71900 19.82300
H  35.00100 49.19600 19.03500
H  38.66900 46.85300 21.75000
H  38.44000 47.44600 20.15500
H  39.46300 45.18400 20.51500
H  38.09200 45.22300 19.22600
H  37.84700 44.51700 20.70900
H  37.15200 43.30500 24.11100
H  35.85100 42.49100 25.05200
H  37.49300 42.52400 25.71300
H  36.93000 45.95200 29.82000
H  33.42400 45.09400 32.15000
H  34.54300 44.11100 33.13700
H  33.82200 43.42300 31.65700
Mg -5.50100 25.77500 25.65600
C  -4.10100 27.38900 28.39200
C  -7.15800 23.70800 27.69200
C  -6.43500 24.02500 22.96700
C  -3.55800 27.82800 23.63800
N  -5.57900 25.58600 27.81200
C  -5.00700 26.36300 28.79300
C  -5.55900 26.08800 30.21400
C  -6.37800 24.81800 29.92700
C  -6.29800 24.68600 28.37600
C  -6.03100 23.61800 30.76700
C  -6.34200 27.32100 30.83700
C  -5.89600 27.72800 32.19800
H  -5.32800 26.64800 33.09400
N  -6.68400 24.12900 25.35100
C  -7.36900 23.41500 26.36000
C  -8.13100 22.31600 25.90500
C  -7.89700 22.40100 24.43500
C  -6.88100 23.53400 24.19300
C  -8.87400 21.25400 26.73900
C  -8.56800 21.53800 23.34100
O  -8.33500 21.70800 22.17600
C  -9.70600 20.74400 23.74000
N  -5.15600 26.06100 23.48100
C  -5.60900 25.09700 22.58300
C  -5.05100 25.42800 21.14200
C  -4.14800 26.68700 21.39200
C  -4.25300 26.86700 22.93000
C  -4.32300 24.14100 20.66400
C  -4.56500 27.94800 20.54700
C  -4.66900 27.73900 18.98600
N  -4.16600 27.39400 25.85300
C  -3.51500 28.15100 25.01100
C  -2.69500 29.13300 25.71900
C  -2.90600 28.90800 27.07200
C  -3.82300 27.84200 27.12000
C  -1.75500 30.13900 25.11500
C  -2.47700 29.31500 28.42300
O  -1.74600 30.17400 28.85900
C  -3.28000 28.28000 29.28000
C  -2.30400 27.42700 30.10400
O  -1.74200 26.39300 29.67500
O  -2.23500 27.85500 31.42300
C  -1.22900 27.08600 32.28200
H  -7.75900 23.18000 28.43500
H  -6.65000 23.40200 22.09600
H  -2.97000 28.38900 22.90800
H  -4.69400 25.77900 30.80000
H  -7.42800 24.98700 30.16500
H  -6.90200 23.44500 31.39900
H  -5.11700 23.67200 31.35800
H  -5.93600 22.82800 30.02200
H  -7.38700 27.10900 31.06200
H  -6.23700 28.22800 30.24100
H  -6.81400 28.08900 32.66000
H  -5.19700 28.55400 32.06700
H  -8.57800 21.38600 27.78000
H  -8.69600 20.23600 26.39200
H  -9.95200 21.41500 26.73100
H  -10.37400 21.28700 24.40900
H  -9.28200 19.82700 24.14900
H  -10.32000 20.54700 22.86100
H  -5.97600 25.63900 20.60600
H  -3.09700 26.55200 21.13700
H  -4.77300 23.25800 21.11900
H  -3.24400 24.06000 20.80000
H  -4.53000 24.12700 19.59400
H  -3.79100 28.69700 20.71300
H  -5.55500 28.25900 20.88100
H  -4.25300 26.75700 18.76000
H  -4.04800 28.44200 18.43000
H  -5.66500 27.87500 18.56400
H  -1.56200 30.05900 24.04500
H  -0.77900 30.11400 25.60000
H  -2.11400 31.16300 25.22100
H  -3.90200 28.81400 29.99900
H  -0.27700 27.27700 31.78700
H  -1.45700 26.02200 32.34400
H  -1.15600 27.45500 33.30500

