158

Mg 16.76000 52.00800 26.46300
C  18.98800 50.62200 28.76700
C  14.78900 53.09500 29.15000
C  14.75700 53.44800 24.17000
C  18.81700 50.94000 23.87500
N  16.92700 51.90400 28.67800
C  17.97000 51.41100 29.37000
C  17.70300 51.52000 30.88600
C  16.19100 51.93000 31.04100
C  15.94900 52.40300 29.52400
C  15.26500 50.69500 31.24800
C  18.71300 52.32000 31.60700
C  18.70400 52.11000 33.12700
H  17.55700 51.33500 33.81300
N  15.04900 53.13600 26.63100
C  14.42900 53.51000 27.82100
C  13.21600 54.23700 27.48600
C  13.14300 54.26600 26.00500
C  14.31400 53.60200 25.52200
C  12.25900 54.80100 28.55300
C  12.13200 55.04500 25.08700
O  12.21500 55.08700 23.85000
C  10.96800 55.62600 25.69100
N  16.86100 52.28500 24.31400
C  15.85600 52.87300 23.58800
C  16.15700 52.91700 22.10200
C  17.46700 52.01800 21.99100
C  17.79500 51.76700 23.45900
C  15.08300 52.29600 21.19800
C  18.66900 52.38200 21.07100
C  19.34300 53.73700 21.34500
N  18.35300 50.81000 26.28800
C  19.12900 50.47700 25.19800
C  20.26200 49.60600 25.60700
C  20.21900 49.59100 27.02900
C  19.07300 50.42400 27.40000
C  21.21300 48.87100 24.74200
C  20.90100 49.18300 28.23500
O  21.83800 48.45400 28.35100
C  20.17100 49.91500 29.43700
C  19.73900 48.77600 30.28800
O  18.80000 48.00300 30.08300
O  20.40600 48.89600 31.48500
C  19.99800 48.00000 32.60400
H  14.08200 53.29500 29.95800
H  14.20300 53.90900 23.35000
H  19.48900 50.53600 23.11500
H  17.87400 50.52100 31.28700
H  16.03300 52.81700 31.65400
H  14.82800 50.46100 30.27700
H  14.52300 50.95000 32.00500
H  15.89600 49.85500 31.53800
H  18.53000 53.31800 31.20900
H  19.64800 51.83800 31.31900
H  18.81400 53.05600 33.65800
H  19.60900 51.57000 33.40600
H  12.56100 54.62000 29.58500
H  11.26500 54.37100 28.43100
H  12.16000 55.88600 28.50800
H  11.43800 56.50000 26.14000
H  10.79000 54.91600 26.49800
H  10.15400 55.60800 24.96700
H  16.41200 53.88200 21.66300
H  17.24200 51.01500 21.62800
H  14.37100 51.75900 21.82500
H  15.35700 51.52900 20.47400
H  14.55800 53.15300 20.77600
H  18.06000 52.43600 20.16900
H  19.35300 51.54400 20.93700
H  20.30200 53.68800 21.86200
H  18.65100 54.37300 21.89700
H  19.51700 54.20600 20.37700
H  20.60200 48.39000 23.97800
H  21.80800 48.23100 25.39300
H  21.86600 49.57500 24.22500
H  20.86000 50.59600 29.93700
H  19.26500 48.54600 33.19800
H  20.93200 47.86000 33.14700
H  19.58500 47.12600 32.09900
Mg -1.38400 34.90900 28.06500
C  -3.13500 33.05400 30.35500
C  0.24300 36.54800 30.84900
C  -0.16300 37.02800 25.94600
C  -3.31900 33.35500 25.51400
N  -1.60400 34.91100 30.36400
C  -2.32900 33.99000 31.06100
C  -1.88500 33.91400 32.51200
C  -1.04500 35.21200 32.70000
C  -0.74900 35.58500 31.22100
C  -1.79100 36.33300 33.45700
C  -1.18300 32.55400 32.82700
C  -1.79400 31.56000 33.90400
H  -1.13700 31.44800 35.25200
N  -0.01200 36.46000 28.35500
C  0.57400 36.92600 29.50800
C  1.51000 37.95400 29.13100
C  1.36200 38.20500 27.68600
C  0.30900 37.26100 27.26600
C  2.53500 38.54000 30.11200
C  2.04300 39.22200 26.76800
O  1.77100 39.36100 25.59500
C  3.14900 40.10500 27.31500
N  -1.82100 35.26800 26.06800
C  -1.16900 36.20400 25.43600
C  -1.58900 36.20800 23.91200
C  -2.32700 34.92500 23.66800
C  -2.54100 34.51900 25.16400
C  -2.29800 37.43200 23.41100
C  -1.58300 33.82000 22.82300
C  -1.22600 34.25900 21.41200
N  -2.82000 33.46500 27.90500
C  -3.50800 32.88900 26.80000
C  -4.29600 31.76000 27.17800
C  -4.14400 31.83100 28.55800
C  -3.32000 32.86700 28.94700
C  -5.09400 30.84900 26.29800
C  -4.61800 31.15500 29.77400
O  -5.42700 30.22900 29.96600
C  -4.07400 32.00400 30.95500
C  -5.32200 32.40100 31.68500
O  -6.25900 33.09700 31.22400
O  -5.23000 31.98600 32.95500
C  -6.31100 32.42100 33.95400
H  0.79300 36.93600 31.70900
H  0.26500 37.55800 25.09300
H  -3.89000 32.83200 24.74400
H  -2.82700 33.98000 33.05600
H  -0.06900 35.03800 33.15400
H  -1.69400 36.21600 34.53600
H  -2.86200 36.29600 33.26000
H  -1.42900 37.30900 33.13300
H  -0.14900 32.66500 33.15400
H  -1.04300 31.99000 31.90500
H  -1.83800 30.53800 33.52600
H  -2.85000 31.74900 34.09600
H  3.52900 38.42800 29.67700
H  2.45700 38.10400 31.10800
H  2.46500 39.62300 30.21300
H  2.83000 40.74400 28.13800
H  3.55300 40.66900 26.47400
H  3.96400 39.52900 27.75400
H  -0.69300 36.06400 23.30900
H  -3.29500 35.02200 23.17700
H  -2.08600 38.32900 23.99200
H  -3.36100 37.28200 23.22400
H  -1.93500 37.71100 22.42200
H  -1.89800 32.78200 22.92700
H  -0.63900 33.74000 23.36400
H  -1.98100 33.68100 20.87900
H  -0.20600 34.03700 21.09800
H  -1.49300 35.31500 21.37900
H  -6.02400 31.23100 25.87600
H  -5.32100 29.89700 26.77800
H  -4.50700 30.67300 25.39600
H  -3.56400 31.25500 31.56000
H  -5.75900 32.89600 34.76500
H  -6.79200 31.46300 34.15300
H  -7.07000 33.07200 33.52000

