158

Mg -2.59700 17.13000 26.40000
C  -2.98500 14.73000 28.99000
C  -2.83600 19.56700 28.72600
C  -2.52300 19.43200 23.93900
C  -2.45200 14.52500 24.17300
N  -2.80600 17.08000 28.53400
C  -2.96200 16.02300 29.42800
C  -3.19900 16.55400 30.89700
C  -3.44900 18.15000 30.76300
C  -2.97300 18.30400 29.24500
C  -4.91300 18.58900 31.12200
C  -1.97700 16.29700 31.79700
C  -1.88700 16.94700 33.17600
H  -1.26600 16.21000 34.38000
N  -2.46700 19.17000 26.34500
C  -2.64000 20.04700 27.40100
C  -2.65600 21.41900 26.91800
C  -2.35800 21.41300 25.56500
C  -2.44500 19.95800 25.19900
C  -2.95200 22.61900 27.76200
C  -2.09300 22.53200 24.57600
O  -1.92200 22.30800 23.36200
C  -1.91800 23.88300 25.06500
N  -2.36900 17.00800 24.42000
C  -2.38700 18.08300 23.55700
C  -2.28200 17.60900 22.04800
C  -2.03100 16.02500 22.23900
C  -2.27700 15.80800 23.69000
C  -3.64700 17.96500 21.40400
C  -0.59000 15.63200 21.74300
C  0.51200 15.64400 22.78900
N  -2.73700 15.05400 26.43300
C  -2.58000 14.14500 25.48100
C  -2.73600 12.78400 26.04300
C  -2.96500 12.94400 27.38200
C  -2.87200 14.39800 27.60200
C  -2.32200 11.58000 25.31100
C  -3.18500 12.23700 28.66400
O  -3.35900 11.07200 28.87600
C  -3.10100 13.36400 29.71400
C  -1.94500 13.09500 30.58300
O  -0.82500 13.48000 30.44600
O  -2.39300 12.37800 31.70600
C  -1.51700 11.96600 32.84400
H  -3.07600 20.24900 29.54400
H  -2.60600 20.14500 23.11600
H  -2.37800 13.78600 23.37200
H  -4.10400 16.10400 31.30600
H  -2.68200 18.65600 31.34900
H  -5.59300 17.80300 31.45200
H  -5.31000 18.76000 30.12100
H  -4.90000 19.47900 31.75100
H  -1.11000 16.59700 31.20800
H  -2.08900 15.28700 32.19100
H  -2.96400 17.09500 33.25900
H  -1.30500 17.85000 32.99300
H  -3.37800 22.42300 28.74700
H  -3.74300 23.11400 27.19900
H  -2.10200 23.29900 27.79400
H  -2.84400 24.20700 25.53900
H  -1.80200 24.60800 24.25900
H  -1.09000 23.87600 25.77400
H  -1.48800 18.16100 21.54400
H  -2.65300 15.40700 21.59200
H  -4.34800 17.13000 21.39100
H  -3.55100 18.16700 20.33700
H  -4.09800 18.83800 21.87600
H  -0.31600 16.20700 20.85800
H  -0.62500 14.57600 21.47500
H  1.04200 14.69200 22.75700
H  0.15000 15.94700 23.77100
H  1.26700 16.31400 22.37700
H  -2.08000 10.79100 26.02300
H  -1.41100 11.75500 24.73900
H  -3.10600 11.24100 24.63300
H  -3.89300 13.38200 30.46300
H  -1.77800 10.91700 32.98400
H  -1.91700 12.50100 33.70500
H  -0.44200 12.13200 32.77100
Mg 46.64700 25.10000 28.84600
C  47.55700 27.34400 31.49200
C  45.52400 23.00600 31.30100
C  46.02900 22.85900 26.45500
C  47.97700 27.34300 26.64900
N  46.71400 25.10500 31.04600
C  46.97700 26.16700 31.84600
C  46.87500 25.83300 33.31700
C  46.51900 24.25500 33.29500
C  46.15800 24.10500 31.78000
C  47.69800 23.35100 33.87400
C  45.82400 26.76800 34.06500
C  46.29200 27.47700 35.34300
H  45.52900 27.30400 36.58300
N  45.80100 23.20400 28.84700
C  45.38800 22.55100 29.92000
C  44.73300 21.38400 29.45500
C  44.81000 21.28100 28.07100
C  45.58900 22.47300 27.73200
C  44.14700 20.32400 30.46600
C  44.56300 20.11600 27.08800
O  44.80900 20.14600 25.92600
C  43.90000 18.90100 27.61900
N  47.21900 24.95600 26.90000
C  46.76300 23.96700 26.08800
C  47.08700 24.32800 24.67600
C  47.30000 25.85800 24.69000
C  47.46100 26.08400 26.13400
C  48.21000 23.44800 23.95900
C  46.00500 26.61200 24.16900
C  44.61300 26.18900 24.60900
N  47.53300 26.98600 28.97600
C  48.14300 27.71500 27.99600
C  48.71200 28.92100 28.54400
C  48.46100 28.89500 29.96100
C  47.88400 27.60900 30.17400
C  49.56600 29.92400 27.74700
C  48.67400 29.53200 31.26900
O  49.17000 30.59900 31.57300
C  48.14500 28.49800 32.39000
C  49.34600 28.20000 33.16100
O  50.15300 27.29700 32.84600
O  49.36400 28.90000 34.39400
C  50.39500 28.42200 35.32400
H  45.12600 22.35900 32.08500
H  45.85600 22.25200 25.56400
H  48.39900 27.97300 25.86300
H  47.86500 25.86400 33.77300
H  45.66500 24.10800 33.95600
H  47.83500 22.40500 33.35000
H  47.47900 23.28500 34.94000
H  48.63300 23.90700 33.80500
H  45.00000 26.10300 34.32100
H  45.55600 27.49900 33.30200
H  46.31900 28.54700 35.13900
H  47.28400 27.08200 35.56400
H  44.43700 19.31600 30.16900
H  43.06000 20.34500 30.53700
H  44.48700 20.41500 31.49800
H  44.45800 18.24300 28.28500
H  43.52900 18.31000 26.78200
H  42.99800 19.17000 28.17000
H  46.12800 24.10600 24.20700
H  48.24000 26.14700 24.22000
H  48.58200 22.68000 24.63700
H  49.06600 24.00600 23.57900
H  47.87700 22.89800 23.07900
H  45.92300 26.74800 23.09100
H  46.19300 27.60600 24.57500
H  44.48700 25.41600 25.36700
H  43.86400 26.15000 23.81900
H  44.26400 26.97700 25.27700
H  49.84000 29.55400 26.75900
H  50.52600 30.12500 28.22000
H  49.10300 30.90400 27.63100
H  47.37600 29.00200 32.97500
H  51.36900 28.23300 34.87200
H  50.08300 27.48100 35.77800
H  50.50300 29.25500 36.01800

