158

Mg -2.59100 16.63400 26.88800
C  -3.11600 14.34500 29.61000
C  -3.04500 19.20100 29.12000
C  -2.58800 18.74200 24.36200
C  -2.77700 13.94900 24.63900
N  -3.04300 16.75000 29.11600
C  -3.25100 15.71000 30.01800
C  -3.52500 16.28500 31.48000
C  -3.40900 17.86100 31.30100
C  -3.20800 17.93800 29.75300
C  -4.54200 18.74900 31.91200
C  -2.54500 15.65500 32.55100
C  -2.14600 16.46000 33.77200
H  -2.03200 15.94300 35.20200
N  -2.74300 18.66700 26.72500
C  -2.83300 19.56400 27.76000
C  -2.68000 20.87500 27.31600
C  -2.49800 20.79200 25.94800
C  -2.61100 19.32100 25.60500
C  -2.60800 22.09000 28.29800
C  -2.25900 21.85600 24.94200
O  -2.00600 21.66000 23.74300
C  -2.11300 23.28200 25.40900
N  -2.88400 16.40200 24.78900
C  -2.61700 17.38200 23.93300
C  -2.56000 16.88100 22.47800
C  -2.60200 15.34300 22.61800
C  -2.79500 15.21400 24.13100
C  -3.63400 17.40500 21.47800
C  -1.31500 14.62100 22.11600
C  -0.08300 14.75100 23.08800
N  -2.84600 14.62100 27.06800
C  -2.95700 13.65400 26.05500
C  -2.91100 12.34200 26.69000
C  -2.95700 12.58000 28.05200
C  -2.96200 13.95900 28.22700
C  -2.97100 10.99500 25.98400
C  -3.15000 11.93600 29.34700
O  -3.14000 10.79800 29.68800
C  -3.22600 13.12500 30.38900
C  -2.06800 12.93500 31.31300
O  -0.94400 13.20500 31.10800
O  -2.62100 12.39500 32.45700
C  -1.63700 12.09200 33.51800
H  -3.00100 19.96000 29.90500
H  -2.24900 19.42100 23.57600
H  -2.63900 13.15500 23.90300
H  -4.52900 15.89100 31.63600
H  -2.43900 18.14800 31.70800
H  -5.17400 18.16200 32.57800
H  -5.12500 19.14200 31.07900
H  -4.06100 19.56800 32.44600
H  -1.63600 15.39000 32.01100
H  -3.09700 14.80200 32.94600
H  -2.65000 17.42600 33.74500
H  -1.09100 16.66700 33.59200
H  -3.32800 22.82900 27.94700
H  -1.55300 22.28700 28.10700
H  -2.84300 21.96600 29.35500
H  -3.08000 23.56600 25.82300
H  -1.87900 23.90600 24.54600
H  -1.39100 23.26900 26.22500
H  -1.54600 17.07100 22.12500
H  -3.42000 14.82300 22.12200
H  -4.32800 18.14900 21.87000
H  -4.30300 16.63200 21.10000
H  -2.96600 17.78900 20.70700
H  -1.20800 14.95700 21.08400
H  -1.53200 13.55500 22.05800
H  -0.42200 15.16500 24.03800
H  0.61400 15.39900 22.55700
H  0.48600 13.83200 23.23100
H  -2.70200 11.10300 24.93300
H  -3.91500 10.45500 25.90800
H  -2.19300 10.37600 26.43000
H  -4.18500 13.20100 30.90000
H  -1.85700 11.09200 33.89100
H  -1.82100 12.67200 34.42300
H  -0.56100 12.17700 33.37000
Mg 48.83900 35.37000 28.37200
C  46.70700 33.93500 30.75500
C  49.12300 38.11600 30.54900
C  50.56000 37.03100 26.06200
C  47.92800 32.92600 26.17400
N  48.01800 35.95800 30.38200
C  47.36500 35.04800 31.22100
C  47.30000 35.61000 32.66100
C  47.47500 37.10300 32.35200
C  48.25600 37.09600 31.05300
C  46.05000 37.79300 32.30500
C  48.41100 34.80500 33.39600
C  49.32600 35.52900 34.45900
H  48.69900 36.19200 35.68500
N  49.88500 37.34900 28.35800
C  49.81700 38.31600 29.36900
C  50.69100 39.34600 28.90200
C  51.12200 39.07800 27.53400
C  50.49800 37.79300 27.24100
C  51.12200 40.51800 29.92500
C  51.96300 39.84400 26.68300
O  52.08400 39.56600 25.49800
C  52.54300 41.19100 27.11200
N  49.04600 35.07900 26.37400
C  50.00600 35.81300 25.67200
C  50.54100 34.99500 24.40400
C  49.64200 33.79900 24.41000
C  48.86100 33.85200 25.73900
C  50.49500 35.77500 23.07300
C  50.34700 32.47400 24.28700
C  50.71300 32.15300 22.84400
N  47.60300 33.63000 28.43600
C  47.27800 32.67800 27.41700
C  46.45000 31.69900 27.97600
C  46.14800 32.14100 29.29400
C  46.85800 33.32600 29.54700
C  45.95800 30.49700 27.35900
C  45.37600 31.82800 30.50800
O  44.68200 30.83300 30.79300
C  45.57400 33.13900 31.39300
C  45.69000 32.73300 32.79500
O  46.43800 31.95000 33.30600
O  44.74000 33.38800 33.55100
C  44.77000 33.07200 34.96700
H  49.33600 38.87100 31.30900
H  51.20300 37.44800 25.28400
H  47.70300 32.19300 25.39700
H  46.29900 35.32200 32.98100
H  48.03200 37.61300 33.13800
H  45.24000 37.08200 32.46100
H  45.79400 38.42800 31.45700
H  46.02600 38.49500 33.13900
H  49.17200 34.30300 32.79900
H  47.91500 34.07200 34.03300
H  49.84400 36.32600 33.92500
H  50.13800 34.87600 34.77700
H  52.20100 40.59400 30.05800
H  50.92000 40.25100 30.96200
H  50.64600 41.49200 29.81200
H  51.75200 41.92400 27.27400
H  53.21700 41.44400 26.29300
H  53.29900 40.96300 27.86300
H  51.56700 34.72800 24.65600
H  48.89700 33.86600 23.61700
H  51.51600 36.00800 22.77000
H  50.03000 36.72400 23.34100
H  49.86500 35.29200 22.32600
H  49.71500 31.71400 24.74600
H  51.26300 32.25400 24.83500
H  50.36400 32.85200 22.08400
H  50.54900 31.09900 22.62000
H  51.80200 32.19000 22.81500
H  46.70000 29.70800 27.47700
H  45.62400 30.82900 26.37600
H  45.06700 30.23500 27.92900
H  44.65000 33.71500 31.37100
H  44.72200 32.01600 35.23600
H  44.10800 33.69200 35.57000
H  45.75000 33.39500 35.32000

