158

Mg 41.70400 9.36200 29.98600
C  43.43500 10.61000 32.81700
C  39.36300 8.16300 32.03900
C  40.27000 8.25500 27.27200
C  44.54900 10.24800 28.00900
N  41.50600 9.30800 32.19300
C  42.27100 9.93300 33.17100
C  41.66000 9.78800 34.56800
C  40.44700 8.78700 34.33700
C  40.42600 8.63300 32.77900
C  40.61100 7.42300 35.13100
C  41.31100 11.19500 35.27100
C  40.43700 11.10300 36.44000
H  40.78200 11.95800 37.60900
N  39.98400 8.33000 29.68400
C  39.12100 7.96700 30.60600
C  37.95200 7.46500 29.91200
C  38.17400 7.41300 28.50200
C  39.51500 8.00400 28.40900
C  36.71400 7.03000 30.65800
C  37.33600 6.97600 27.35900
O  37.69400 7.13500 26.17900
C  35.99000 6.50000 27.55300
N  42.37900 9.03500 27.99700
C  41.55600 8.62500 27.04900
C  42.14500 8.77000 25.66300
C  43.49600 9.32100 25.91100
C  43.53300 9.51900 27.42900
C  42.19100 7.39300 24.84600
C  43.83800 10.57400 25.13600
C  43.24300 11.92900 25.59200
N  43.58500 10.24400 30.26100
C  44.62100 10.54800 29.36000
C  45.58800 11.29900 30.00800
C  45.22600 11.25700 31.35900
C  44.00000 10.61800 31.48700
C  46.80400 11.88200 29.39300
C  45.58900 11.77700 32.62500
O  46.61600 12.30800 32.94900
C  44.43800 11.39500 33.63400
C  45.10900 10.79300 34.80600
O  45.81700 9.79700 34.73100
O  44.52800 11.23200 36.04100
C  44.88100 10.44400 37.30100
H  38.51900 7.96600 32.70400
H  39.62000 8.15800 26.39900
H  45.37000 10.65600 27.41700
H  42.44400 9.34400 35.18100
H  39.47100 9.18800 34.60900
H  41.59700 7.40900 35.59500
H  40.48900 6.62600 34.39800
H  39.86000 7.25400 35.90200
H  40.97000 11.95900 34.57300
H  42.22400 11.62700 35.68100
H  40.35600 10.06400 36.75700
H  39.43700 11.35900 36.09100
H  36.82900 7.11900 31.73800
H  36.56300 5.99800 30.34100
H  35.82900 7.52900 30.26600
H  35.45600 6.55000 26.60400
H  35.42400 7.12300 28.24600
H  35.90500 5.47400 27.91400
H  41.52800 9.50700 25.14800
H  44.28400 8.60000 25.69100
H  41.63400 6.61800 25.37300
H  43.21000 7.04100 24.68800
H  41.61100 7.61800 23.95100
H  43.95900 10.34300 24.07700
H  44.91500 10.71500 25.22300
H  42.21400 11.94100 25.95100
H  43.26700 12.58600 24.72200
H  43.79600 12.28100 26.46200
H  46.49800 12.66300 28.69700
H  47.40100 11.07500 28.97000
H  47.34800 12.35300 30.21200
H  44.01800 12.34400 33.96800
H  44.40800 10.80100 38.21600
H  45.95300 10.55900 37.46200
H  44.61600 9.39500 37.17000
Mg 35.67900 48.44200 24.75600
C  36.00800 46.76500 27.91400
C  34.40500 51.13400 26.47100
C  35.14300 49.87900 21.78100
C  36.67500 45.45400 23.14600
N  35.14100 48.81000 27.01700
C  35.38600 48.04400 28.05200
C  34.99600 48.76200 29.38700
C  34.24200 50.06400 28.85600
C  34.53400 50.00200 27.30900
C  32.64500 50.08300 29.06300
C  36.16500 49.06200 30.44300
C  35.90100 48.74200 31.87000
H  34.55500 49.04000 32.48200
N  35.07200 50.37000 24.16400
C  34.62900 51.34700 25.06000
C  34.55800 52.56800 24.25400
C  34.78600 52.20900 22.88600
C  34.89000 50.75600 22.89600
C  34.37600 53.85600 24.91600
C  34.84300 52.99800 21.68100
O  35.15900 52.56300 20.58500
C  34.33900 54.37200 21.67500
N  35.99900 47.76200 22.77700
C  35.65800 48.55900 21.70900
C  35.98200 47.81400 20.40300
C  36.59500 46.44100 20.86300
C  36.34400 46.53300 22.36800
C  34.84700 47.67800 19.47000
C  38.11800 46.30700 20.59700
C  39.01900 47.38200 21.23500
N  36.24400 46.49300 25.31000
C  36.64900 45.38500 24.57900
C  37.06800 44.30500 25.42300
C  36.81900 44.84100 26.74800
C  36.32800 46.16300 26.65500
C  37.60800 43.08300 24.89700
C  37.00100 44.51300 28.19500
O  37.40500 43.50800 28.79100
C  36.53500 45.86600 29.00400
C  35.43200 45.37200 29.89200
O  34.20700 45.43500 29.58900
O  35.88300 45.06000 31.12700
C  34.84600 44.58300 32.02200
H  34.05000 52.04500 26.95700
H  35.03700 50.35500 20.80400
H  36.98900 44.53700 22.64400
H  34.32800 48.07000 29.90000
H  34.66200 50.94800 29.33600
H  32.08500 50.12400 28.12800
H  32.58200 50.90800 29.77300
H  32.34400 49.17400 29.58300
H  36.32000 50.14000 30.48600
H  37.07200 48.69400 29.96400
H  36.60600 49.36800 32.41700
H  36.11900 47.67900 31.97200
H  35.02300 54.52900 24.35300
H  34.75900 53.73300 25.92900
H  33.36500 54.24500 24.79500
H  34.08500 54.67600 20.65900
H  35.17200 55.00100 21.99000
H  33.35300 54.55300 22.10200
H  36.72100 48.52400 20.03100
H  35.99800 45.64700 20.41400
H  33.85900 47.80000 19.91400
H  34.76700 46.69300 19.01100
H  34.90000 48.42600 18.67800
H  38.17900 46.51200 19.52800
H  38.41100 45.28800 20.85100
H  39.88900 46.88100 21.66000
H  38.67600 48.06000 22.01600
H  39.21600 48.09000 20.43000
H  36.87400 42.75000 24.16300
H  37.69700 42.38300 25.72800
H  38.60200 43.22600 24.47100
H  37.37100 46.29000 29.56100
H  35.14100 44.20800 33.00200
H  34.27200 43.76600 31.58500
H  34.15000 45.38100 32.28000

