158

Mg 2.15200 -1.21700 43.54000
C  5.62200 -0.49600 43.19500
C  1.41900 1.37700 41.46800
C  -0.91900 -2.59900 43.26200
C  3.27600 -4.13500 45.31000
N  3.46900 0.23900 42.50600
C  4.80300 0.35600 42.41800
C  5.31000 1.57600 41.50700
C  3.93500 2.14500 41.13000
C  2.83900 1.25000 41.76200
C  3.65500 3.57600 41.54400
C  6.15300 1.04600 40.35100
C  7.06200 2.08500 39.67700
H  6.62900 2.53700 38.31400
N  0.48000 -0.67200 42.51300
C  0.34000 0.41100 41.73000
C  -0.98600 0.57600 41.31200
C  -1.67300 -0.58700 41.75600
C  -0.70000 -1.41100 42.53800
C  -1.34900 1.78700 40.39700
C  -3.10400 -1.03300 41.28200
O  -3.91200 -0.19800 40.77100
C  -3.53100 -2.39600 41.38700
N  1.33100 -3.06200 44.04300
C  -0.00100 -3.33600 44.02400
C  -0.44900 -4.51100 44.90600
C  0.93900 -5.21000 45.11600
C  1.98000 -4.09800 44.83300
C  -1.25600 -3.96400 46.11400
C  1.20500 -6.53400 44.28400
C  1.20700 -7.84400 45.08100
N  4.06200 -2.10800 44.33000
C  4.29400 -3.31600 45.01100
C  5.73400 -3.46600 45.16900
C  6.25900 -2.33700 44.54600
C  5.21700 -1.53800 44.01100
C  6.54800 -4.64600 45.74700
C  7.53300 -1.71800 44.21800
O  8.67900 -1.92200 44.49500
C  7.16200 -0.51300 43.27600
C  7.76100 0.77400 43.73300
O  8.36900 1.45100 42.91500
O  7.48900 1.22700 45.00700
C  8.04800 2.55200 45.40000
H  1.09100 2.21300 40.84800
H  -1.89300 -3.08900 43.31600
H  3.49000 -5.07700 45.81900
H  5.94600 2.21600 42.11800
H  3.83900 2.20700 40.04600
H  3.37100 4.17200 40.67700
H  4.55400 4.00800 41.98300
H  2.88600 3.47200 42.31000
H  5.59300 0.60800 39.52500
H  6.87200 0.28900 40.66600
H  8.09900 1.75400 39.71500
H  7.16500 3.01400 40.23900
H  -0.72300 1.83600 39.50600
H  -1.25000 2.63600 41.07300
H  -2.40500 1.72500 40.13500
H  -4.33900 -2.51200 40.66500
H  -3.83700 -2.60000 42.41300
H  -2.65500 -2.93600 41.02800
H  -1.01500 -5.27700 44.37700
H  1.10700 -5.45800 46.16400
H  -2.27700 -4.31600 46.26600
H  -1.26600 -2.87500 46.14100
H  -0.75600 -4.19200 47.05600
H  2.19100 -6.47100 43.82500
H  0.46000 -6.69200 43.50500
H  0.45100 -8.55600 44.74800
H  0.81000 -7.81600 46.09500
H  2.14400 -8.40000 45.11000
H  5.94300 -4.95800 46.59700
H  7.46000 -4.18300 46.12500
H  6.76400 -5.36000 44.95300
H  7.61800 -0.84300 42.34200
H  7.42000 3.11600 46.09000
H  8.39800 3.21100 44.60500
H  8.92700 2.28900 45.98800
Mg -5.71300 25.61900 26.16300
C  -4.78800 27.20800 29.22400
C  -7.67800 23.61900 27.96600
C  -6.44700 24.11000 23.37600
C  -3.35400 27.64000 24.55300
N  -6.11200 25.45200 28.29900
C  -5.69100 26.17800 29.37600
C  -6.37400 25.73900 30.65900
C  -7.05600 24.34300 30.32600
C  -6.92600 24.40700 28.71900
C  -6.41600 23.12300 30.93600
C  -7.35800 26.68700 31.34700
C  -7.09800 26.97800 32.84200
H  -6.49000 25.92200 33.74900
N  -6.90700 24.05300 25.71300
C  -7.76300 23.43200 26.58400
C  -8.74400 22.56100 25.87900
C  -8.28100 22.68700 24.53900
C  -7.17400 23.63200 24.48200
C  -10.06400 21.96500 26.42500
C  -8.81500 21.99800 23.31700
O  -8.36700 22.23800 22.16900
C  -10.06500 21.13400 23.40300
N  -4.92400 25.79400 24.30200
C  -5.42600 25.08800 23.26700
C  -4.68200 25.30600 21.96900
C  -3.58200 26.43700 22.30000
C  -3.92100 26.63000 23.83600
C  -4.12000 24.03600 21.37600
C  -3.79600 27.69700 21.34800
C  -3.13300 27.46900 19.96900
N  -4.32900 27.14000 26.64600
C  -3.44400 27.94100 25.88900
C  -2.92700 28.97500 26.73900
C  -3.39200 28.77300 28.08300
C  -4.23600 27.61900 28.02000
C  -1.98000 30.12400 26.30100
C  -3.29000 29.14200 29.51500
O  -2.54800 29.99300 30.02400
C  -4.25800 28.25500 30.26300
C  -3.41200 27.65800 31.37400
O  -2.48300 26.87000 31.19200
O  -3.85100 28.10900 32.60000
C  -2.91700 27.75700 33.68400
H  -8.33500 22.92800 28.49800
H  -6.63400 23.74400 22.36400
H  -2.67100 28.38900 24.14700
H  -5.55800 25.69100 31.38000
H  -8.10000 24.22000 30.61300
H  -6.28700 22.46800 30.07400
H  -7.13100 22.80100 31.69300
H  -5.42700 23.26100 31.37300
H  -8.36700 26.28900 31.23700
H  -7.27900 27.56500 30.70600
H  -8.04200 27.27800 33.29800
H  -6.43700 27.83300 32.98300
H  -10.96900 22.35400 25.95800
H  -10.31900 22.21400 27.45500
H  -9.99700 20.87800 26.44800
H  -9.82400 20.43700 24.20600
H  -10.21600 20.64500 22.44100
H  -11.02600 21.52500 23.73500
H  -5.43400 25.84200 21.39000
H  -2.61600 25.93400 22.25000
H  -3.07400 24.26000 21.16400
H  -4.61600 23.74400 20.45000
H  -4.19500 23.19100 22.05900
H  -3.44300 28.57600 21.88600
H  -4.86000 27.89200 21.21500
H  -3.36500 28.38800 19.43000
H  -3.69600 26.64000 19.54200
H  -2.04900 27.37500 19.89800
H  -2.12600 30.32100 25.23900
H  -1.00000 29.65000 26.34900
H  -2.02700 30.99700 26.95200
H  -5.06000 28.91600 30.59400
H  -2.39900 26.80000 33.62000
H  -3.45300 27.91500 34.62000
H  -2.12500 28.50500 33.66000

