158

Mg 8.18400 2.94300 27.65600
C  9.32800 1.26600 30.50100
C  6.27300 4.92200 29.66900
C  6.87700 4.16200 25.01500
C  9.73000 0.38200 25.63700
N  7.76800 3.06000 29.83100
C  8.45700 2.38900 30.83400
C  8.04900 2.85500 32.23200
C  6.98500 3.98200 31.89100
C  6.90400 3.94300 30.35400
C  5.56300 3.84900 32.57700
C  9.24400 3.26900 33.12800
C  8.83900 4.16500 34.31600
H  9.77000 4.03500 35.61900
N  6.91400 4.48200 27.35300
C  6.23500 5.16700 28.25400
C  5.46600 6.18400 27.55600
C  5.76700 6.13200 26.19100
C  6.56300 4.90800 26.14700
C  4.65700 7.14200 28.25900
C  5.25100 6.91800 24.95500
O  5.66500 6.68200 23.84200
C  4.20100 7.94800 25.26800
N  8.17600 2.24400 25.58800
C  7.58900 3.04500 24.75800
C  7.78900 2.56200 23.25900
C  8.75100 1.31700 23.40500
C  8.98600 1.36200 24.95100
C  6.53900 2.22800 22.45900
C  10.06000 1.44400 22.69600
C  10.11100 0.48400 21.51900
N  9.19300 1.08700 27.96500
C  9.83000 0.28200 27.04400
C  10.61800 -0.67700 27.86300
C  10.43500 -0.30900 29.19300
C  9.60600 0.80400 29.19600
C  11.55300 -1.72100 27.38100
C  10.78200 -0.63600 30.51500
O  11.41900 -1.57500 30.97900
C  10.09900 0.37200 31.43300
C  9.14200 -0.37400 32.37100
O  8.04500 -0.90200 32.03100
O  9.64700 -0.29000 33.65600
C  8.66900 -0.90400 34.59100
H  5.59200 5.60100 30.18600
H  6.50000 4.61700 24.09800
H  10.44400 -0.15500 25.01000
H  7.59600 1.93200 32.59200
H  7.41500 4.95500 32.12600
H  4.78900 4.15600 31.87500
H  5.48500 4.70300 33.24900
H  5.49200 2.84300 32.99300
H  9.99700 3.63600 32.43000
H  9.80700 2.40600 33.48300
H  7.81400 3.98200 34.64000
H  8.81100 5.19500 33.96000
H  4.86400 8.18100 28.00000
H  4.70300 7.16600 29.34700
H  3.62900 6.93600 27.95800
H  4.66100 8.67800 25.93500
H  3.32600 7.41800 25.64200
H  3.82600 8.39800 24.34800
H  8.29400 3.35400 22.70600
H  8.16400 0.40300 23.30600
H  5.62400 2.42100 23.01800
H  6.57100 1.27200 21.93700
H  6.35000 3.01400 21.72900
H  10.92200 1.32000 23.35200
H  10.23200 2.46100 22.34600
H  10.77500 0.86100 20.74100
H  9.13500 0.26500 21.08700
H  10.51900 -0.47900 21.82700
H  12.34600 -1.62900 28.12400
H  11.89200 -1.44300 26.38300
H  11.08500 -2.70500 27.39600
H  10.95600 0.76600 31.98100
H  7.99000 -1.67800 34.23300
H  8.10000 -0.01900 34.87600
H  9.17900 -1.36100 35.43800
Mg -5.43100 25.58200 26.51600
C  -3.78000 26.77900 29.51700
C  -7.03700 23.22500 28.48500
C  -6.54900 24.08400 23.73900
C  -3.08500 27.18500 24.72800
N  -5.34400 25.11900 28.71300
C  -4.77800 25.84900 29.78100
C  -5.39200 25.37900 31.12500
C  -6.04500 24.05000 30.71700
C  -6.22300 24.16600 29.18300
C  -5.31800 22.76900 31.18000
C  -6.37100 26.43300 31.69300
C  -6.39300 26.63200 33.25500
H  -5.80000 25.54700 34.13700
N  -6.75400 23.94700 26.15800
C  -7.35400 23.14600 27.09600
C  -8.22900 22.15100 26.38300
C  -8.09800 22.38000 24.95600
C  -7.17000 23.58000 24.92400
C  -9.10800 21.16400 27.17400
C  -8.74300 21.61600 23.79400
O  -8.57600 21.81400 22.58800
C  -9.59700 20.43500 24.04700
N  -4.77000 25.50700 24.54800
C  -5.45600 24.87500 23.58500
C  -4.95100 25.19600 22.16100
C  -3.94200 26.35700 22.47300
C  -3.92000 26.38400 23.99500
C  -4.43900 23.95700 21.36600
C  -4.16900 27.78800 21.91300
C  -3.12300 28.48500 21.03100
N  -3.83900 26.85900 26.97000
C  -3.04900 27.44800 26.11400
C  -2.11700 28.31400 26.79200
C  -2.44900 28.13300 28.14200
C  -3.42000 27.18600 28.20200
C  -1.08800 29.23600 26.18500
C  -2.10200 28.52900 29.50300
O  -1.29200 29.39600 29.83200
C  -3.08900 27.80700 30.43400
C  -2.25200 27.08900 31.48200
O  -1.17900 26.54900 31.33800
O  -2.86400 27.15800 32.69400
C  -2.02000 26.79000 33.83900
H  -7.54600 22.53800 29.16400
H  -6.90900 23.65100 22.80400
H  -2.33400 27.81200 24.24300
H  -4.62100 25.05200 31.82200
H  -7.02400 24.00900 31.19500
H  -4.92000 22.24600 30.31000
H  -5.92300 22.13100 31.82300
H  -4.38900 22.93600 31.72600
H  -7.39800 26.27300 31.36700
H  -6.13600 27.40800 31.26700
H  -7.46100 26.63300 33.46900
H  -5.98700 27.59500 33.56900
H  -9.04500 20.14200 26.79900
H  -10.15700 21.45600 27.11600
H  -8.82500 21.04100 28.21900
H  -10.30500 20.63800 24.85200
H  -8.88000 19.68000 24.36900
H  -10.15100 20.20700 23.13600
H  -5.76100 25.61800 21.56700
H  -2.96000 26.00800 22.15300
H  -4.43300 23.04800 21.96900
H  -3.49000 24.16900 20.87300
H  -4.93900 23.89600 20.39900
H  -4.32200 28.45300 22.76400
H  -5.03900 27.65400 21.27100
H  -3.06300 29.55600 21.22200
H  -3.29600 28.41600 19.95700
H  -2.11400 28.09300 21.16500
H  -0.34800 28.62200 25.67200
H  -0.59700 29.82700 26.95800
H  -1.57400 29.90300 25.47200
H  -3.87800 28.34900 30.95500
H  -0.98700 27.12900 33.75400
H  -2.04300 25.71900 34.04200
H  -2.39100 27.43400 34.63600

