158

Mg 0.79700 6.87100 26.60900
C  1.35200 9.27000 29.06200
C  0.80200 4.47000 28.88500
C  0.10400 4.76500 24.01100
C  1.34900 9.41600 24.19100
N  0.97000 6.91100 28.70900
C  1.12100 8.00900 29.54700
C  1.05000 7.59200 31.04300
C  1.20500 6.04500 30.94200
C  0.99800 5.77500 29.40800
C  2.58200 5.59400 31.43700
C  -0.19900 7.97100 31.85100
C  0.06700 8.16100 33.38700
H  1.26200 7.61400 34.06100
N  0.58500 4.83900 26.50600
C  0.61400 3.98700 27.54400
C  0.40000 2.63500 27.08700
C  0.14100 2.74100 25.71700
C  0.26000 4.17300 25.34700
C  0.46900 1.46300 28.08400
C  -0.30400 1.59900 24.77000
O  -0.47200 1.73200 23.55900
C  -0.29600 0.21800 25.25500
N  0.78200 7.12800 24.39500
C  0.38400 6.08100 23.59400
C  0.31300 6.53000 22.09100
C  0.88900 8.00700 22.16000
C  1.02000 8.18700 23.65200
C  0.96200 5.49300 21.13900
C  0.03000 9.05900 21.33900
C  0.69300 10.09800 20.39800
N  1.30400 8.91400 26.58400
C  1.53400 9.81700 25.48800
C  2.01400 11.05500 25.98700
C  1.87300 10.92000 27.42000
C  1.44800 9.56600 27.69500
C  2.34100 12.25300 25.13100
C  2.04000 11.60000 28.66500
O  2.37500 12.74600 28.91600
C  1.55900 10.54200 29.79800
C  2.66100 10.59300 30.80300
O  3.81800 10.22800 30.58800
O  2.20500 10.95000 31.99800
C  3.19800 11.08700 33.08300
H  0.78200 3.68700 29.64600
H  -0.34500 4.05800 23.31000
H  1.52000 10.18400 23.43400
H  1.93800 7.98900 31.53400
H  0.37000 5.63400 31.50800
H  3.00700 4.76100 30.87700
H  2.56200 5.12100 32.41900
H  3.22400 6.47500 31.41700
H  -0.87000 7.11700 31.93300
H  -0.68500 8.80700 31.34800
H  -0.79700 7.75100 33.91100
H  0.13100 9.23000 33.59000
H  0.90500 0.61400 27.55900
H  -0.46600 1.12200 28.52800
H  1.13700 1.78300 28.88400
H  -0.61900 -0.42300 24.43500
H  -0.98500 0.19200 26.09900
H  0.73000 -0.08100 25.47200
H  -0.73700 6.48400 21.80100
H  1.92200 8.09700 21.82500
H  1.82300 5.96500 20.66400
H  0.28700 5.29200 20.30700
H  1.22300 4.48700 21.46800
H  -0.51700 9.63900 22.08300
H  -0.71600 8.58200 20.70400
H  0.28700 11.08900 20.60100
H  0.62200 9.70400 19.38400
H  1.76700 10.11100 20.58300
H  3.05600 12.86900 25.67500
H  1.48100 12.84100 24.81100
H  2.89100 11.93700 24.24400
H  0.65600 10.99700 30.20700
H  2.90100 11.66700 33.95700
H  4.01400 11.68100 32.67000
H  3.45000 10.05100 33.30900
Mg 35.45400 1.61000 28.85300
C  33.39400 2.78900 31.35700
C  38.09300 1.28500 31.06100
C  37.59300 0.70900 26.23600
C  32.86000 2.01300 26.56400
N  35.71300 2.01500 30.90900
C  34.69100 2.45300 31.76400
C  35.20200 2.45700 33.18200
C  36.70500 2.17700 33.06000
C  36.89700 1.81200 31.56300
C  37.52900 3.42500 33.32200
C  34.48000 1.41400 34.05500
C  34.20600 1.86400 35.49200
H  34.81200 3.14800 36.02400
N  37.47400 0.85500 28.70100
C  38.38600 0.85500 29.69700
C  39.61500 0.43000 29.14700
C  39.55700 0.30100 27.75700
C  38.14000 0.60200 27.48000
C  40.78700 0.13400 29.96100
C  40.71500 -0.06300 26.73400
O  40.46900 -0.11600 25.51800
C  42.12300 -0.12600 27.12300
N  35.28000 1.35400 26.71500
C  36.29200 1.11700 25.86700
C  35.83400 1.30200 24.43900
C  34.22700 1.29100 24.60100
C  34.05400 1.57300 26.06900
C  36.34200 2.68100 23.82100
C  33.41100 0.01800 24.08200
C  32.85000 -0.98200 25.06600
N  33.51300 2.26000 28.91100
C  32.55200 2.37600 27.88300
C  31.26400 2.86800 28.42800
C  31.55300 3.05300 29.83400
C  32.92400 2.64400 30.02800
C  30.00000 3.05200 27.70400
C  30.99300 3.41700 31.10100
O  29.83200 3.75700 31.33400
C  32.22200 3.25400 32.19700
C  32.32700 4.65600 32.73800
O  32.94800 5.58600 32.19000
O  31.48700 4.76800 33.81200
C  31.50800 6.02900 34.56100
H  39.00800 1.27200 31.65700
H  38.31500 0.56300 25.43000
H  31.98200 2.09100 25.91800
H  35.10300 3.50800 33.45500
H  37.08200 1.51400 33.83900
H  37.05400 4.36100 33.02500
H  38.45700 3.46600 32.75200
H  37.70500 3.60900 34.38200
H  34.98500 0.44800 34.07200
H  33.50000 1.16500 33.64900
H  34.55200 1.05600 36.13600
H  33.15000 1.83100 35.76000
H  40.53200 -0.22700 30.95700
H  41.40500 1.03200 29.94800
H  41.36600 -0.62400 29.43400
H  42.43800 -1.05400 27.60100
H  42.23200 0.75600 27.75300
H  42.68700 0.10200 26.21900
H  36.12200 0.48500 23.77800
H  33.79600 2.15700 24.09800
H  36.89900 2.36400 22.93900
H  37.05900 3.09500 24.53000
H  35.64100 3.48700 23.60300
H  34.06700 -0.52100 23.39900
H  32.70900 0.41500 23.34900
H  32.79700 -0.48100 26.03300
H  33.32700 -1.93600 25.29000
H  31.83500 -1.25200 24.77600
H  29.14500 2.42700 27.96100
H  30.09300 2.95900 26.62200
H  29.65000 4.05200 27.95900
H  31.80200 2.61700 32.97500
H  32.35800 6.68300 34.36400
H  31.50100 5.99600 35.65000
H  30.66300 6.62900 34.22400

