158

Mg 30.15100 58.60100 41.67600
C  27.39200 56.68600 40.69600
C  32.20300 56.30800 40.11100
C  32.82900 60.65400 42.08100
C  28.00500 61.10800 42.66600
N  29.85700 56.71800 40.59000
C  28.62500 56.16200 40.24700
C  28.80300 54.96700 39.33800
C  30.34700 54.79700 39.38100
C  30.83600 55.95900 40.12100
C  30.94400 53.39200 39.80900
C  28.16100 55.17900 37.94600
C  27.26700 54.04500 37.41600
H  27.41900 53.68700 35.94200
N  32.21800 58.49400 41.23400
C  32.84600 57.39800 40.71200
C  34.20900 57.63100 40.58600
C  34.50600 58.84100 41.26600
C  33.18600 59.37800 41.54600
C  35.21400 56.57100 40.07300
C  35.82900 59.36200 41.71100
O  36.88300 58.81700 41.41900
C  35.90000 60.49600 42.59200
N  30.45400 60.63200 42.30400
C  31.60200 61.29100 42.34500
C  31.39900 62.65400 42.78700
C  29.95200 62.85600 43.11800
C  29.36800 61.44300 42.63100
C  32.37400 63.21600 43.86900
C  29.28100 64.12300 42.42900
C  28.91000 64.01700 40.99100
N  28.07300 58.88300 41.67000
C  27.36900 59.99300 42.15100
C  25.96300 59.66700 41.90800
C  25.91900 58.39000 41.37600
C  27.22600 57.93200 41.29600
C  24.78300 60.68900 42.09100
C  25.04600 57.39000 40.82900
O  23.81300 57.43300 40.68500
C  25.97700 56.23900 40.32100
C  25.55800 55.06800 40.99800
O  25.66700 54.88800 42.19800
O  24.97800 54.22500 40.12800
C  24.21100 53.20500 40.77600
H  32.88500 55.55600 39.71000
H  33.68700 61.31900 42.20700
H  27.32600 61.90600 42.97300
H  28.27600 54.17100 39.86300
H  30.82100 54.86400 38.40100
H  30.17100 52.64000 39.64700
H  31.25700 53.44400 40.85200
H  31.78800 53.15100 39.16300
H  28.92000 55.47200 37.22000
H  27.62700 56.13000 37.95800
H  26.31900 54.58300 37.46000
H  27.24600 53.13000 38.00700
H  36.09400 57.11300 39.72600
H  34.81400 55.90200 39.31200
H  35.41300 55.86000 40.87500
H  35.93400 61.47300 42.11000
H  36.86200 60.43300 43.10000
H  35.13100 60.33500 43.34700
H  31.65900 63.27000 41.92600
H  29.78900 62.92900 44.19400
H  32.76000 62.34600 44.40000
H  31.73700 63.84200 44.49600
H  33.15700 63.86200 43.47200
H  30.00500 64.93600 42.45700
H  28.43400 64.37400 43.06700
H  27.87300 64.33100 40.86600
H  29.11800 63.04100 40.55200
H  29.49400 64.75000 40.43600
H  24.92800 61.55000 41.43900
H  24.89400 61.24400 43.02300
H  23.82900 60.18100 41.94900
H  25.81900 56.16600 39.24500
H  23.67700 53.72500 41.57200
H  24.90300 52.46300 41.17300
H  23.51500 52.79500 40.04500
Mg 0.84100 43.00300 24.82400
C  2.98200 42.39400 27.65700
C  -1.89300 42.24200 26.92300
C  -1.26800 42.90500 22.21200
C  3.57400 43.21500 22.88500
N  0.67400 42.40500 27.05300
C  1.61500 42.40000 28.02200
C  0.93600 42.25500 29.43700
C  -0.56500 42.04100 29.09400
C  -0.62900 42.28000 27.55400
C  -1.05200 40.57800 29.45500
C  1.28400 43.46400 30.39400
C  1.82700 43.07200 31.84300
H  0.84600 43.03800 33.01600
N  -1.33500 42.81400 24.65200
C  -2.18500 42.35900 25.59100
C  -3.47900 42.01600 24.95000
C  -3.36800 42.36700 23.59100
C  -1.96300 42.71600 23.44700
C  -4.58400 41.39400 25.71900
C  -4.44200 42.22200 22.50300
O  -4.23800 42.46900 21.32200
C  -5.87700 41.82600 22.86700
N  1.09200 43.07700 22.83700
C  0.13100 43.08200 21.92900
C  0.75100 43.11600 20.49400
C  2.19300 43.58800 20.79900
C  2.31700 43.28600 22.27400
C  0.63300 41.87700 19.57200
C  2.56000 44.99200 20.36600
C  2.85100 45.10400 18.90900
N  2.82800 42.82800 25.14500
C  3.84800 42.97200 24.26700
C  5.20300 42.80000 24.90000
C  4.87600 42.57100 26.27600
C  3.48700 42.62400 26.34800
C  6.45100 42.77900 24.19400
C  5.52800 42.27800 27.58500
O  6.69900 42.28100 27.94900
C  4.25000 42.15200 28.57200
C  4.25200 40.98500 29.39300
O  3.85000 39.93500 28.96000
O  4.57100 41.23200 30.73400
C  4.36800 40.00500 31.58500
H  -2.79200 42.19900 27.54100
H  -1.87000 42.71000 21.32100
H  4.41500 43.38100 22.20900
H  1.37800 41.35000 29.85400
H  -1.21800 42.74100 29.61500
H  -1.36000 39.97800 28.59900
H  -1.98000 40.66000 30.02000
H  -0.26100 40.06300 30.00100
H  0.35900 44.01600 30.55900
H  1.86900 44.19600 29.83700
H  2.44200 43.91600 32.15400
H  2.42200 42.15900 31.80700
H  -4.25400 41.05800 26.70200
H  -5.07800 40.50800 25.32200
H  -5.36600 42.12800 25.91500
H  -5.86000 40.78200 23.18000
H  -6.48800 41.94300 21.97200
H  -6.32900 42.50800 23.58700
H  0.32900 43.98300 19.98600
H  2.83800 42.93300 20.21300
H  -0.39500 41.61600 19.31700
H  1.04600 41.01800 20.09900
H  1.20900 42.08800 18.67100
H  3.45600 45.17000 20.96000
H  1.75300 45.67800 20.62500
H  3.86800 45.33600 18.59300
H  2.18200 45.91200 18.61100
H  2.48300 44.30500 18.26500
H  7.28800 43.20600 24.74600
H  6.37300 43.36900 23.28100
H  6.66600 41.75600 23.88500
H  4.30800 43.02700 29.22000
H  4.53100 40.39000 32.59200
H  5.10100 39.25400 31.29100
H  3.31100 39.75800 31.48500

