158

Mg 47.93000 15.75300 28.26100
C  46.14400 15.63000 31.16400
C  50.54300 17.23500 30.00800
C  49.51900 15.82100 25.44900
C  45.23100 14.24300 26.59600
N  48.16100 16.61600 30.32800
C  47.35800 16.28800 31.40000
C  47.97800 16.78400 32.70100
C  49.19100 17.66900 32.25000
C  49.38700 17.14700 30.78900
C  49.16200 19.27400 32.43100
C  48.32100 15.69200 33.69700
C  47.70000 15.82700 35.06600
H  47.51500 17.24800 35.77500
N  49.76900 16.53500 27.76300
C  50.72100 16.99000 28.59000
C  52.02000 17.11700 27.85200
C  51.72300 16.63400 26.53400
C  50.31700 16.34500 26.48500
C  53.30800 17.73900 28.40400
C  52.61400 16.55300 25.27700
O  52.20400 16.26800 24.13900
C  54.07000 16.77400 25.50200
N  47.31100 15.30400 26.21400
C  48.28000 15.30000 25.25800
C  47.80200 14.77300 23.86200
C  46.52200 13.90800 24.45800
C  46.28500 14.54400 25.85000
C  47.54200 15.79700 22.76400
C  46.86200 12.39900 24.56300
C  46.51400 11.53900 23.34800
N  45.98000 15.08900 28.72100
C  44.93100 14.55400 27.96900
C  43.87600 14.14300 28.82700
C  44.22700 14.49700 30.09200
C  45.48900 15.17700 29.97400
C  42.62100 13.43100 28.40700
C  43.91700 14.51900 31.49800
O  42.98500 14.08900 32.20700
C  45.12100 15.23900 32.19300
C  44.46200 16.46600 32.75900
O  44.54100 17.59200 32.32400
O  43.88500 16.06100 33.98100
C  43.17100 17.06900 34.71400
H  51.39200 17.63200 30.56900
H  50.09700 15.70800 24.52900
H  44.47900 13.64800 26.07500
H  47.28600 17.50000 33.14400
H  50.08000 17.44400 32.83900
H  49.18300 19.70600 31.43000
H  50.12900 19.61800 32.79800
H  48.31900 19.60400 33.03800
H  49.40100 15.66700 33.83800
H  47.81600 14.76900 33.41000
H  48.35600 15.23100 35.70100
H  46.78600 15.23400 35.03400
H  54.04600 16.99400 28.70100
H  53.18100 18.41000 29.25400
H  53.92200 18.38500 27.77800
H  54.27800 17.83900 25.40600
H  54.53600 16.30000 24.63900
H  54.47000 16.25800 26.37500
H  48.58600 14.22200 23.34300
H  45.68200 14.02400 23.77300
H  47.70500 16.82800 23.07800
H  46.48400 15.79600 22.50100
H  47.98400 15.53200 21.80400
H  46.23500 11.96800 25.34400
H  47.92500 12.29000 24.77600
H  45.59600 11.82800 22.83600
H  46.53700 10.48500 23.62300
H  47.24400 11.61800 22.54100
H  42.84000 12.71900 27.61100
H  41.94300 14.12600 27.91200
H  42.14700 13.01400 29.29500
H  45.41200 14.53300 32.97000
H  43.60500 18.06700 34.65100
H  43.22800 16.82500 35.77500
H  42.11700 17.04500 34.43900
Mg -4.99200 25.89300 25.67100
C  -3.82400 27.41200 28.66400
C  -6.76700 23.70000 27.62100
C  -5.75200 24.31100 22.88400
C  -2.60700 27.93800 23.90700
N  -5.23500 25.66400 27.90200
C  -4.74300 26.39400 28.97300
C  -5.29400 25.88800 30.31000
C  -6.07800 24.59600 29.90200
C  -5.96100 24.56500 28.36000
C  -5.64000 23.31700 30.59400
C  -6.22700 26.96600 31.05900
C  -5.86300 27.34500 32.57400
H  -5.35300 26.13300 33.41100
N  -6.08100 24.27800 25.31400
C  -6.81900 23.53600 26.24100
C  -7.63400 22.63000 25.49800
C  -7.45700 22.76200 24.09500
C  -6.40800 23.86600 24.00700
C  -8.58200 21.61900 26.17900
C  -8.16700 22.11100 22.92800
O  -7.79000 22.22400 21.74800
C  -9.52600 21.40000 23.14100
N  -4.20900 26.12200 23.68100
C  -4.72700 25.32600 22.70100
C  -4.01700 25.65700 21.33200
C  -3.27900 27.02000 21.62400
C  -3.37900 27.04800 23.14300
C  -3.13800 24.50300 20.84000
C  -3.94700 28.19500 20.90400
C  -2.97400 28.82500 19.89000
N  -3.54300 27.43300 26.16300
C  -2.69200 28.13000 25.36400
C  -1.89100 29.03300 26.14800
C  -2.35000 28.81800 27.42600
C  -3.35700 27.80200 27.40300
C  -0.83900 30.13400 25.70400
C  -2.15800 29.24300 28.75600
O  -1.44900 30.05500 29.24200
C  -3.12200 28.36900 29.59800
C  -2.29600 27.64200 30.56800
O  -1.49900 26.77400 30.36300
O  -2.60500 28.09300 31.91000
C  -1.62800 27.61300 32.87600
H  -7.29600 23.02400 28.29600
H  -5.98400 23.88600 21.90600
H  -1.89600 28.65100 23.48400
H  -4.40900 25.65200 30.90100
H  -7.12900 24.73600 30.15300
H  -6.49400 22.84600 31.08200
H  -4.85300 23.54300 31.31400
H  -5.21500 22.69200 29.80900
H  -7.24600 26.58000 31.09300
H  -6.29200 27.90000 30.50100
H  -6.83600 27.71400 32.89800
H  -5.13400 28.13900 32.41100
H  -9.55800 22.10400 26.20700
H  -8.24500 21.30300 27.16600
H  -8.66300 20.68100 25.63000
H  -9.28300 20.35200 23.31500
H  -9.99100 21.46700 22.15700
H  -10.16900 21.94400 23.83300
H  -4.78200 25.75800 20.56300
H  -2.24200 26.88000 21.31700
H  -2.09700 24.81800 20.90400
H  -3.47700 24.22400 19.84200
H  -3.27500 23.71800 21.58400
H  -4.26100 28.89900 21.67500
H  -4.81800 27.85400 20.34400
H  -3.31000 28.48200 18.91100
H  -1.92100 28.55400 19.96000
H  -3.00300 29.91100 19.98200
H  -0.19700 30.51500 26.49800
H  -1.31900 30.94000 25.14900
H  -0.15700 29.67400 24.99000
H  -3.83400 28.98000 30.15200
H  -2.02200 26.68700 33.29500
H  -1.65800 28.29800 33.72300
H  -0.57600 27.49700 32.61400

