158

Mg 0.42600 7.59000 25.81300
C  1.42400 9.63700 28.57700
C  0.31300 4.93900 28.04500
C  0.05700 5.60500 23.16800
C  0.93500 10.33600 23.77400
N  0.90700 7.32100 28.03400
C  1.19000 8.29800 28.94600
C  1.21400 7.83700 30.35200
C  1.14300 6.22400 30.08800
C  0.62800 6.12600 28.65300
C  2.46900 5.42600 30.39200
C  -0.01200 8.45200 31.15300
C  0.29000 9.02200 32.55700
H  1.30200 8.25900 33.40400
N  0.08700 5.51500 25.62900
C  0.04600 4.59200 26.66400
C  -0.29600 3.27900 26.09800
C  -0.33800 3.43800 24.67100
C  -0.01500 4.86500 24.40100
C  -0.36600 2.07900 26.99400
C  -0.49700 2.39100 23.49000
O  -0.46500 2.70200 22.32800
C  -0.76400 0.91800 23.88200
N  0.48500 7.89700 23.79600
C  0.13700 6.97600 22.88200
C  0.05100 7.55900 21.46200
C  0.32600 9.04700 21.69100
C  0.62700 9.14300 23.19000
C  0.94800 6.91700 20.47600
C  -0.73600 10.18000 21.20200
C  -0.22800 11.23900 20.18800
N  1.09800 9.56200 26.01300
C  1.16900 10.60100 25.12200
C  1.51400 11.92200 25.78300
C  1.57900 11.48400 27.12300
C  1.33800 10.13300 27.25800
C  1.67000 13.33800 25.18400
C  1.90400 11.98300 28.42400
O  2.26000 13.14400 28.71200
C  1.76400 10.83000 29.43400
C  2.93800 10.71800 30.34800
O  3.97500 10.13000 30.18300
O  2.63900 11.55000 31.37800
C  3.79100 11.74200 32.33800
H  0.19300 4.13400 28.77400
H  -0.06500 5.06800 22.22500
H  0.94600 11.17300 23.07300
H  2.16000 8.07200 30.84000
H  0.42600 5.91100 30.84800
H  2.72600 4.76900 29.56200
H  2.23900 4.69200 31.16500
H  3.27400 6.06900 30.75000
H  -0.78200 7.68800 31.25400
H  -0.56900 9.11700 30.49300
H  -0.68100 8.91700 33.04200
H  0.62900 10.05700 32.51400
H  -1.37000 1.85400 27.35500
H  0.26900 2.37100 27.83000
H  0.07300 1.26400 26.41800
H  -0.86700 0.37600 22.94200
H  -1.72000 0.90100 24.40500
H  0.12900 0.57200 24.40400
H  -0.93800 7.32800 21.06500
H  1.27800 9.28200 21.21500
H  1.89900 6.56200 20.87400
H  1.32000 7.56900 19.68500
H  0.36500 6.21300 19.88200
H  -1.01800 10.89100 21.97800
H  -1.55400 9.58300 20.79800
H  -0.49000 10.82200 19.21600
H  0.85800 11.17200 20.25500
H  -0.44700 12.26300 20.49200
H  1.54200 13.41500 24.10400
H  2.64600 13.74600 25.44800
H  0.89900 13.98100 25.60800
H  0.89400 11.12700 30.02100
H  4.69400 11.39700 31.83400
H  3.68500 11.12600 33.23100
H  3.91900 12.79400 32.59200
Mg 25.81100 0.23800 29.19200
C  27.59700 0.12300 32.24200
C  22.81900 0.24700 30.85900
C  24.22800 0.37500 26.23500
C  28.81500 -0.61800 27.58900
N  25.29700 0.20500 31.33700
C  26.22500 0.34700 32.39900
C  25.42900 0.51200 33.74800
C  23.97700 0.53500 33.22100
C  24.00500 0.33600 31.62100
C  23.02200 -0.51200 33.93100
C  25.92800 1.83100 34.46400
C  26.70200 1.68400 35.77900
H  26.12500 2.72300 36.74300
N  23.79000 0.20200 28.65300
C  22.68400 0.10700 29.46800
C  21.48600 0.19600 28.72400
C  21.87100 0.42100 27.34900
C  23.37000 0.29700 27.38000
C  20.05600 0.07700 29.34200
C  20.99400 0.73800 26.10100
O  21.50100 0.94400 24.99900
C  19.52500 0.76400 26.22500
N  26.46400 -0.10900 27.14800
C  25.65700 0.15500 26.14700
C  26.43700 0.24700 24.77600
C  27.87300 -0.01800 25.24600
C  27.74200 -0.27600 26.74800
C  25.93200 -0.74400 23.66800
C  28.94100 1.08300 24.90400
C  29.97200 0.58900 23.85600
N  27.75300 -0.19100 29.74800
C  28.86100 -0.55100 29.00800
C  30.08800 -0.74800 29.87700
C  29.62300 -0.46300 31.18300
C  28.23500 -0.15700 31.01300
C  31.32500 -1.31700 29.37900
C  30.03700 -0.34800 32.57500
O  31.11400 -0.46900 33.12900
C  28.69400 0.17400 33.34600
C  28.50900 -0.88500 34.38900
O  27.93900 -1.96500 34.21300
O  28.97600 -0.45600 35.59500
C  28.51700 -1.14500 36.82500
H  21.90400 0.43800 31.42300
H  23.73300 0.48900 25.26800
H  29.77200 -0.83100 27.10800
H  25.48000 -0.35600 34.40600
H  23.43000 1.47700 33.24700
H  22.73000 -1.32700 33.27000
H  22.12900 -0.04900 34.35100
H  23.28100 -1.07200 34.82900
H  24.99000 2.36400 34.61600
H  26.59800 2.29300 33.73900
H  27.70500 2.03400 35.53900
H  26.60300 0.64100 36.08000
H  20.04100 -0.01100 30.42800
H  19.37700 -0.58600 28.80300
H  19.52300 0.99500 29.09400
H  19.18800 0.65500 25.19500
H  19.23700 1.72400 26.65500
H  19.00400 -0.03700 26.75000
H  26.25000 1.22000 24.32200
H  28.29500 -0.95600 24.88400
H  25.25900 -1.35800 24.26500
H  26.71000 -1.37200 23.23400
H  25.40600 -0.17800 22.90000
H  29.55400 1.38700 25.75200
H  28.35700 1.90100 24.48300
H  29.81000 1.30400 23.05000
H  29.76200 -0.37000 23.38100
H  31.01500 0.60100 24.17200
H  31.69900 -0.66700 28.58800
H  31.09500 -2.32400 29.03200
H  32.04100 -1.28800 30.19900
H  28.87300 1.15200 33.79400
H  28.14300 -0.42200 37.54900
H  29.31300 -1.53600 37.45900
H  27.79700 -1.95700 36.72000

