158

Mg 35.96400 2.25200 29.60800
C  33.67000 3.15100 32.14200
C  38.37700 2.24600 32.02700
C  38.18200 1.76800 27.19300
C  33.49800 2.73600 27.20100
N  35.92300 2.60700 31.95200
C  34.93100 2.96400 32.75600
C  35.29300 2.88200 34.18600
C  36.87000 2.81400 34.07700
C  37.05800 2.52000 32.57100
C  37.50300 4.18200 34.59800
C  34.58800 1.66100 34.91200
C  34.64600 1.61700 36.44000
H  34.91900 2.96600 37.14400
N  38.00200 2.16500 29.57900
C  38.81700 2.07300 30.70600
C  40.20300 1.76500 30.24500
C  40.14200 1.62200 28.82400
C  38.74800 1.88900 28.45600
C  41.36100 1.59600 31.15900
C  41.25100 1.27200 27.80500
O  41.07800 1.24800 26.56100
C  42.60900 1.07000 28.29300
N  35.75500 2.05700 27.50200
C  36.87700 1.86900 26.67700
C  36.57200 1.96700 25.18700
C  34.99000 1.88300 25.24400
C  34.64400 2.21400 26.73800
C  37.05300 3.28700 24.53300
C  34.31800 0.51400 24.81100
C  33.14600 0.56300 23.82000
N  34.00800 2.71300 29.66100
C  33.11800 2.93000 28.55400
C  31.82400 3.21500 29.07700
C  32.03300 3.34800 30.42900
C  33.37500 3.09600 30.75400
C  30.49900 3.40600 28.37600
C  31.30700 3.61200 31.70300
O  30.09400 3.73600 31.92700
C  32.41800 3.61400 32.83100
C  32.43700 4.88600 33.45400
O  32.93200 5.87500 33.02500
O  31.59400 4.84500 34.53300
C  31.64900 5.87600 35.59600
H  39.19800 2.31600 32.74300
H  38.82300 1.61800 26.32200
H  32.68100 2.88700 26.49200
H  34.92800 3.77100 34.69900
H  37.29500 1.94800 34.58300
H  37.99300 4.79100 33.83800
H  38.25200 3.96000 35.35800
H  36.71300 4.81400 35.00100
H  35.17300 0.83200 34.51500
H  33.57200 1.47100 34.56500
H  35.47500 0.93700 36.63200
H  33.64600 1.26200 36.68800
H  42.32800 1.69300 30.66600
H  41.36600 0.60800 31.62100
H  41.29200 2.35300 31.94000
H  42.87600 2.03600 28.71900
H  43.27900 0.85200 27.46100
H  42.54000 0.27900 29.04000
H  37.19400 1.14000 24.84400
H  34.54300 2.63400 24.59200
H  36.24300 3.95000 24.23000
H  37.58700 3.11600 23.59800
H  37.65400 3.78000 25.29700
H  34.03100 -0.01900 25.71700
H  35.04800 -0.19100 24.41500
H  32.95300 1.51800 23.33100
H  32.23300 0.28500 24.34600
H  33.42100 -0.17600 23.06700
H  30.27000 2.52000 27.78400
H  30.69600 4.24800 27.71100
H  29.78700 3.67700 29.15500
H  32.03400 2.95000 33.60500
H  31.96800 5.41900 36.53300
H  30.62500 6.14400 35.85700
H  32.24000 6.77900 35.43800
Mg 47.47500 17.04100 28.83200
C  45.61200 15.64900 31.68800
C  49.33400 18.70000 30.93600
C  49.10600 17.95200 26.07900
C  45.03600 15.47500 26.82100
N  47.38400 17.21900 31.12100
C  46.68400 16.55300 32.09600
C  47.14100 16.97200 33.52300
C  48.16300 18.13600 33.18100
C  48.26500 18.03000 31.65000
C  47.99400 19.57500 33.77100
C  47.87200 15.84600 34.39200
C  48.45300 16.21800 35.71500
H  48.04200 17.40500 36.50300
N  49.09100 18.10200 28.53400
C  49.71900 18.73400 29.55800
C  50.96200 19.26500 29.03500
C  50.96000 18.93200 27.62900
C  49.68800 18.37700 27.31300
C  52.01400 19.97900 29.93000
C  52.05500 19.06400 26.61000
O  51.88200 18.90300 25.35800
C  53.27500 19.56200 27.17400
N  47.02000 16.87900 26.76800
C  47.91200 17.37500 25.83200
C  47.37400 17.09600 24.34500
C  46.08300 16.29200 24.60000
C  45.98500 16.23100 26.13500
C  47.15400 18.38400 23.46100
C  46.13900 14.79600 24.09600
C  45.12700 14.42400 23.01100
N  45.73800 15.82500 29.16900
C  44.96900 15.20000 28.21400
C  43.91700 14.45000 28.82500
C  44.16200 14.61500 30.25000
C  45.30400 15.42600 30.33100
C  42.76100 13.71200 28.19400
C  43.59100 14.29900 31.47400
O  42.59500 13.69100 31.73200
C  44.47500 15.06300 32.50600
C  43.64100 16.05700 33.15300
O  42.83300 16.75500 32.64900
O  43.93500 15.99000 34.45900
C  43.34200 16.90800 35.47500
H  49.94000 19.24300 31.66500
H  49.65200 18.23600 25.17700
H  44.31200 15.06800 26.11200
H  46.29800 17.32000 34.12000
H  49.18200 17.86100 33.45300
H  47.90600 20.42800 33.09900
H  48.71500 19.74100 34.57200
H  46.98700 19.35200 34.12300
H  48.52500 15.24300 33.76100
H  47.06800 15.14200 34.60600
H  49.52100 16.28600 35.51000
H  48.16300 15.30900 36.24300
H  51.74600 20.08800 30.98100
H  52.31200 20.89800 29.42500
H  52.88200 19.33100 30.05700
H  53.16100 20.61800 27.41700
H  54.01200 19.52400 26.37200
H  53.52600 18.78700 27.89900
H  48.17600 16.56000 23.83700
H  45.18200 16.82900 24.30400
H  47.66400 18.22700 22.51000
H  47.71800 19.23900 23.83500
H  46.12900 18.75000 23.40700
H  46.07700 14.06400 24.90200
H  47.06500 14.55700 23.57300
H  45.66100 13.63100 22.48700
H  44.77400 15.27500 22.42800
H  44.20800 14.07400 23.48000
H  42.75000 13.82600 27.11000
H  41.81300 14.14800 28.51100
H  42.83700 12.66200 28.47900
H  44.74800 14.30500 33.24000
H  42.85800 16.22900 36.17800
H  42.62800 17.58600 35.00800
H  44.21900 17.36700 35.93200

