158

Mg 36.44300 2.56500 30.27700
C  33.91300 3.36800 32.52400
C  38.72100 2.68300 32.81800
C  38.88800 2.05700 27.92700
C  34.04900 2.89800 27.59900
N  36.30900 2.93700 32.39700
C  35.18600 3.24200 33.11300
C  35.53900 3.27600 34.62900
C  37.14100 3.32500 34.61900
C  37.42200 2.95400 33.18500
C  37.68600 4.68100 35.00700
C  34.87900 2.11100 35.45300
C  34.40200 2.48100 36.85100
H  34.81100 3.76300 37.60100
N  38.49900 2.21700 30.41400
C  39.30500 2.41900 31.55200
C  40.60400 2.07700 31.26100
C  40.68600 1.99800 29.81900
C  39.33100 2.07900 29.31000
C  41.56200 1.75000 32.36800
C  41.90400 1.67800 28.95900
O  41.73000 1.65200 27.73300
C  43.20100 1.43800 29.58400
N  36.53700 2.71700 28.13500
C  37.62500 2.25200 27.39700
C  37.35800 2.35000 25.89900
C  35.81300 2.28500 25.92400
C  35.38200 2.67900 27.32700
C  37.94500 3.62900 25.32300
C  35.20200 0.94100 25.39100
C  35.41500 -0.36500 26.29700
N  34.43200 3.00200 30.07900
C  33.60700 3.04900 28.94700
C  32.21200 3.30600 29.40300
C  32.30100 3.46300 30.77300
C  33.66100 3.20400 31.14200
C  31.07200 3.22500 28.48100
C  31.57000 3.75700 32.03000
O  30.37600 4.05000 32.16600
C  32.57200 3.67900 33.18700
C  32.48700 5.04400 33.77500
O  32.97000 5.99100 33.24800
O  31.96400 5.00600 35.02500
C  32.16400 6.14400 35.85100
H  39.49600 2.83100 33.57400
H  39.62100 2.05900 27.11700
H  33.23000 2.94300 26.87900
H  35.11900 4.18400 35.06100
H  37.61000 2.54100 35.21300
H  38.39100 5.00400 34.24100
H  38.17100 4.45200 35.95500
H  36.98500 5.48200 35.24300
H  35.62700 1.32000 35.39500
H  33.98800 1.72500 34.95800
H  34.63900 1.55700 37.37900
H  33.32400 2.63700 36.79900
H  41.77100 2.58800 33.03400
H  42.56800 1.37100 32.18700
H  41.19500 0.99500 33.06300
H  44.03500 1.48600 28.88500
H  43.04900 0.49600 30.11100
H  43.33200 2.23400 30.31700
H  37.83700 1.49100 25.43000
H  35.52300 3.09000 25.24900
H  38.04100 3.46800 24.25000
H  38.79600 3.97800 25.90700
H  37.24700 4.46100 25.41500
H  35.67400 0.65100 24.45200
H  34.13600 1.08300 25.21000
H  36.21500 -0.21300 27.02200
H  35.53500 -1.31500 25.77700
H  34.44900 -0.46100 26.79300
H  31.17000 2.31400 27.89100
H  30.95500 4.03900 27.76600
H  30.13200 3.26300 29.03000
H  32.29000 2.95600 33.95300
H  31.27000 6.76400 35.78600
H  32.96900 6.76000 35.45000
H  32.32100 5.78700 36.86900
Mg 26.72400 51.16300 26.43900
C  24.96700 52.33200 29.17300
C  29.16700 50.08600 28.67700
C  28.57100 50.17200 23.75400
C  24.63500 52.98900 24.35600
N  26.94200 51.23900 28.70600
C  26.05900 51.60200 29.65500
C  26.42200 51.18500 31.05200
C  27.86800 50.63000 30.85200
C  27.98100 50.66100 29.30700
C  29.00800 51.40100 31.51900
C  25.35500 50.23400 31.72300
C  24.81400 50.71700 33.08000
H  25.86800 51.19000 34.10800
N  28.41800 50.02100 26.24100
C  29.29300 49.66500 27.31000
C  30.38800 48.87900 26.66600
C  30.08500 48.69400 25.31400
C  28.97000 49.66700 25.02400
C  31.40800 48.12800 27.50800
C  30.71400 47.87600 24.22300
O  30.22900 47.76800 23.07500
C  31.95500 47.16500 24.49900
N  26.67800 51.58200 24.33500
C  27.55900 51.03400 23.42700
C  27.15600 51.43100 21.98000
C  25.75200 52.22500 22.21300
C  25.68100 52.24600 23.75000
C  28.28300 52.28900 21.29800
C  24.39700 51.66100 21.59200
C  24.18400 51.97300 20.15100
N  25.14200 52.41100 26.69300
C  24.36500 53.06700 25.75900
C  23.21200 53.64300 26.36700
C  23.46300 53.45700 27.72400
C  24.64200 52.68500 27.89300
C  22.22500 54.42400 25.65500
C  22.94300 53.77800 29.01900
O  21.96600 54.45700 29.37400
C  23.88100 53.03700 30.00000
C  24.40600 54.14600 30.97500
O  25.22100 55.04300 30.74100
O  23.68100 54.03500 32.15900
C  23.83800 55.03900 33.20600
H  29.83300 49.70000 29.45200
H  29.29400 50.00500 22.95400
H  23.94900 53.40800 23.61700
H  26.41200 52.06300 31.69700
H  27.92300 49.64900 31.32400
H  29.81700 50.73800 31.82700
H  28.65500 51.80400 32.46800
H  29.37400 52.07400 30.74400
H  25.77600 49.23500 31.84200
H  24.56600 50.14200 30.97600
H  24.22200 49.96400 33.59800
H  24.20900 51.57600 32.78800
H  31.24300 47.05900 27.37300
H  31.43700 48.52200 28.52400
H  32.30300 48.43100 26.96500
H  32.76500 47.77000 24.90700
H  32.32700 46.66600 23.60400
H  31.74300 46.40100 25.24700
H  27.02700 50.54600 21.35700
H  25.98200 53.22800 21.85300
H  28.72000 53.04200 21.95500
H  27.88400 52.86000 20.46000
H  28.95600 51.63000 20.74900
H  23.49900 51.93900 22.14300
H  24.48000 50.57400 21.62600
H  24.29900 51.08900 19.52400
H  24.82400 52.81100 19.87500
H  23.17500 52.33200 19.94900
H  22.73800 55.38100 25.55900
H  21.24400 54.45400 26.13000
H  22.02700 54.08000 24.64000
H  23.29000 52.29600 30.53800
H  24.04700 56.05500 32.87300
H  24.50400 54.63500 33.96800
H  22.87100 55.18000 33.68800

