158

Mg 0.70700 7.87600 25.23100
C  1.55900 9.86600 28.17600
C  1.04800 5.07900 27.17700
C  0.00000 6.32000 22.56900
C  0.88000 10.97100 23.41200
N  1.14200 7.51200 27.44000
C  1.54100 8.51200 28.42800
C  1.71400 7.77300 29.82200
C  1.76700 6.24300 29.37200
C  1.36300 6.28500 27.89100
C  3.22900 5.56800 29.60100
C  0.39600 8.07400 30.74000
C  0.65800 8.46900 32.18000
H  1.80000 7.74700 32.88100
N  0.61600 5.99100 24.85300
C  0.70600 4.91600 25.77700
C  0.36000 3.73000 25.08000
C  0.04600 4.01900 23.71600
C  0.15200 5.52200 23.62200
C  0.28400 2.39800 25.92500
C  -0.24500 3.04100 22.57900
O  -0.44700 3.34900 21.44200
C  -0.02900 1.61600 22.84800
N  0.35300 8.56800 23.32400
C  0.06000 7.74200 22.36000
C  -0.37100 8.46800 21.05100
C  -0.19700 9.97700 21.42600
C  0.39600 9.83400 22.78700
C  0.42500 8.05600 19.76100
C  -1.61100 10.74300 21.45300
C  -1.71600 12.08900 20.79500
N  1.07200 10.02100 25.64100
C  1.08800 11.10000 24.77800
C  1.38800 12.32000 25.51500
C  1.52800 11.86900 26.86000
C  1.31700 10.43300 26.88200
C  1.42200 13.61100 24.86900
C  1.81700 12.25000 28.17300
O  2.02000 13.34500 28.62200
C  1.81800 11.01600 29.12000
C  3.16500 10.86600 29.62400
O  4.27200 10.90100 29.07500
O  2.97700 10.93900 30.97200
C  4.17900 11.19700 31.86400
H  0.92900 4.15100 27.73900
H  -0.34600 5.75200 21.70200
H  0.78100 11.87100 22.80200
H  2.68900 7.96300 30.27000
H  1.05000 5.54300 29.80100
H  3.84500 6.21100 30.23000
H  3.74700 5.27400 28.68800
H  3.05100 4.61900 30.10700
H  -0.33600 7.28100 30.58800
H  -0.05400 8.93300 30.24100
H  -0.28400 8.32200 32.70800
H  0.85000 9.53900 32.25700
H  1.04200 1.67600 25.62500
H  -0.63200 1.82400 25.78800
H  0.47400 2.62400 26.97400
H  -0.13300 1.14500 21.87000
H  -0.76200 1.28400 23.58300
H  1.00200 1.34600 23.07700
H  -1.38500 8.29900 20.68600
H  0.48500 10.53600 20.78500
H  1.09400 7.25200 20.06700
H  0.96300 8.90700 19.34400
H  -0.18300 7.66700 18.94500
H  -1.96900 10.87200 22.47500
H  -2.41400 10.13800 21.03200
H  -2.56300 12.13700 20.11100
H  -0.78000 12.13800 20.23900
H  -1.65900 12.97000 21.43400
H  1.17300 14.33200 25.64800
H  0.73600 13.71600 24.02800
H  2.45100 13.79700 24.56300
H  1.03800 11.21100 29.85600
H  4.59500 12.20400 31.83700
H  4.96600 10.47200 31.65700
H  3.85200 10.95200 32.87400
Mg 9.10200 48.21100 26.28000
C  6.80000 48.78500 29.06700
C  11.59300 49.02400 28.40500
C  11.07600 48.25200 23.58900
C  6.20900 47.73000 24.25600
N  9.11600 48.77500 28.54600
C  8.11100 48.90300 29.46800
C  8.68700 49.06100 30.89200
C  10.18200 49.21400 30.59800
C  10.38500 49.07900 29.08100
C  10.83500 50.57400 31.05700
C  8.31800 47.91000 31.86700
C  9.06200 48.01300 33.20200
H  8.37300 47.45100 34.46900
N  11.11400 48.44300 25.97600
C  11.96100 48.85400 27.02900
C  13.30300 48.93200 26.46600
C  13.12400 48.73600 25.05900
C  11.75200 48.41600 24.79000
C  14.51100 49.31500 27.29100
C  14.26700 48.65700 23.93400
O  13.95600 48.38800 22.80400
C  15.72000 48.77000 24.19600
N  8.66100 48.00000 24.18000
C  9.71700 48.01000 23.31200
C  9.27000 47.67200 21.90500
C  7.69300 47.68300 22.09300
C  7.47000 47.72400 23.64100
C  9.72000 48.61000 20.74000
C  7.06300 46.45300 21.36600
C  7.05000 46.53200 19.85600
N  6.99000 48.34800 26.51300
C  5.94400 48.15400 25.58700
C  4.69300 48.30800 26.23800
C  4.91700 48.68100 27.53000
C  6.40100 48.63000 27.71000
C  3.35800 48.15400 25.58400
C  4.32400 49.19900 28.73300
O  3.19100 49.59000 28.92100
C  5.46800 49.08700 29.81000
C  5.16800 47.84800 30.60100
O  5.45700 46.71600 30.22700
O  4.52800 48.09200 31.82200
C  4.33500 46.90200 32.68000
H  12.47100 49.08800 29.05100
H  11.77800 48.18400 22.75600
H  5.32100 47.48700 23.66900
H  8.19500 49.98800 31.18500
H  10.90600 48.57400 31.10100
H  10.09100 51.18600 31.56700
H  11.24400 51.07900 30.18200
H  11.79900 50.43500 31.54700
H  8.68100 46.99900 31.39100
H  7.26000 47.80400 32.10800
H  9.25100 49.02800 33.55100
H  10.05900 47.59000 33.08400
H  15.28400 48.59600 27.02100
H  14.24700 49.36500 28.34800
H  14.87100 50.29500 26.98000
H  15.92700 49.55300 24.92500
H  16.15900 49.10400 23.25600
H  16.09600 47.76100 24.36600
H  9.52700 46.63500 21.68700
H  7.31400 48.66800 21.82100
H  8.91200 49.27100 20.42800
H  10.05600 48.02300 19.88500
H  10.34400 49.41700 21.12400
H  6.12500 46.23500 21.87700
H  7.60700 45.55300 21.65600
H  7.93000 47.06300 19.49300
H  6.13700 47.06500 19.59100
H  7.07200 45.51600 19.45900
H  2.56600 48.67800 26.11900
H  3.10900 47.09300 25.60400
H  3.37500 48.33900 24.51000
H  5.72600 49.99200 30.36000
H  3.58300 46.23000 32.26800
H  3.73500 47.15800 33.55300
H  5.23800 46.32100 32.86500

