158

Mg 23.73800 -4.92900 45.55700
C  26.33900 -2.80500 44.02100
C  21.64600 -3.92300 42.97600
C  21.90300 -7.58400 46.09600
C  26.40200 -6.25700 47.33400
N  23.97300 -3.51900 43.78200
C  25.08700 -2.79600 43.37400
C  24.78200 -2.04800 42.04100
C  23.25300 -2.40600 41.79000
C  22.91900 -3.29500 42.97800
C  22.33400 -1.24900 41.66800
C  25.66600 -2.49100 40.83600
C  26.55400 -1.47100 40.05000
H  26.10500 -1.48400 38.54800
N  21.89800 -5.66200 44.74500
C  21.20200 -4.99100 43.77300
C  19.84700 -5.61300 43.74700
C  19.91100 -6.78300 44.53800
C  21.24500 -6.75000 45.17200
C  18.75400 -5.09400 42.82500
C  18.80800 -7.75800 44.73200
O  17.68300 -7.50000 44.26100
C  18.85700 -9.01600 45.58200
N  24.16000 -6.73300 46.38800
C  23.16000 -7.65700 46.61700
C  23.69900 -8.88600 47.33200
C  25.01900 -8.32600 47.96200
C  25.22800 -7.05200 47.21500
C  22.68200 -9.61500 48.33100
C  26.30200 -9.31500 48.03100
C  26.11500 -10.92700 47.76200
N  25.82300 -4.43200 45.94100
C  26.75300 -5.05800 46.68800
C  28.02300 -4.52500 46.58500
C  27.87000 -3.56800 45.61600
C  26.55100 -3.62600 45.20500
C  29.27200 -4.98800 47.18700
C  28.64500 -2.62800 44.81100
O  29.83800 -2.35800 44.81300
C  27.66200 -2.09700 43.73900
C  27.61700 -0.58500 43.77300
O  27.17100 0.05400 44.66200
O  28.08400 0.04000 42.64300
C  28.23200 1.46900 42.65600
H  20.91400 -3.57600 42.24400
H  21.27300 -8.43200 46.37000
H  27.16500 -6.68400 47.98800
H  24.93700 -0.99300 42.26900
H  23.08000 -3.01700 40.90500
H  21.51100 -1.35700 42.37500
H  21.82700 -1.36400 40.71000
H  22.81800 -0.27200 41.66200
H  25.16200 -3.06000 40.05400
H  26.30300 -3.25200 41.28700
H  27.63900 -1.56900 40.06300
H  26.43000 -0.52000 40.56900
H  18.57400 -5.87000 42.08200
H  19.02800 -4.25600 42.18300
H  17.80600 -4.98700 43.35100
H  17.97400 -9.65200 45.51700
H  19.09500 -8.72900 46.60600
H  19.63700 -9.67100 45.19200
H  23.97700 -9.54100 46.50600
H  24.94800 -8.04700 49.01300
H  21.84200 -8.99600 48.64400
H  23.23700 -9.91600 49.22000
H  22.29200 -10.54900 47.92700
H  26.72000 -9.23000 49.03400
H  27.03600 -9.02100 47.28100
H  26.51700 -11.31500 46.82600
H  25.10400 -11.33200 47.81300
H  26.71200 -11.36100 48.56500
H  29.03600 -5.49100 48.12500
H  29.92000 -4.13000 47.36400
H  29.86500 -5.64100 46.54700
H  27.96000 -2.43000 42.74500
H  29.06400 1.73500 43.30800
H  27.40800 1.94500 43.18700
H  28.35800 1.97400 41.69800
Mg 47.50200 25.33900 28.20100
C  48.38200 27.58300 30.82400
C  46.77200 23.01300 30.65300
C  46.89200 23.11800 25.83300
C  48.62400 27.60300 25.91700
N  47.61800 25.31300 30.54500
C  47.87700 26.37100 31.36800
C  47.65000 26.04900 32.90100
C  47.36900 24.47100 32.80700
C  47.25200 24.20100 31.25100
C  48.53000 23.63200 33.37200
C  46.53900 26.92800 33.55800
C  45.81600 26.35900 34.76200
H  45.45600 27.35900 35.92000
N  46.79200 23.38400 28.26400
C  46.50700 22.59200 29.33400
C  46.09000 21.29300 28.92500
C  46.01300 21.35600 27.42400
C  46.50400 22.69300 27.10600
C  45.67900 20.22900 29.91100
C  45.47400 20.41200 26.40100
O  45.30300 20.74900 25.23900
C  45.16100 19.00400 26.86100
N  47.70200 25.39500 26.13700
C  47.49300 24.27400 25.34800
C  47.99200 24.45000 23.90500
C  48.40500 25.95500 23.86100
C  48.20000 26.36500 25.37000
C  49.04800 23.43400 23.55300
C  47.50300 26.84000 22.92700
C  48.13800 27.74800 21.92800
N  48.21300 27.29100 28.27500
C  48.63900 28.11700 27.24400
C  49.18200 29.37900 27.77300
C  49.04900 29.22100 29.18300
C  48.55000 27.91800 29.40000
C  49.73200 30.54900 26.94700
C  49.27500 29.87000 30.46900
O  49.68400 30.99800 30.68800
C  48.86300 28.80600 31.53500
C  50.04800 28.49900 32.46300
O  51.05800 27.93100 32.16500
O  49.69400 28.86700 33.75400
C  50.54900 28.26100 34.76400
H  46.52800 22.26900 31.41400
H  46.81800 22.41700 24.99900
H  48.98900 28.23400 25.10400
H  48.60200 26.21900 33.40300
H  46.35000 24.27000 33.13800
H  49.02300 23.04600 32.59600
H  48.05700 22.91500 34.04200
H  49.18200 24.35300 33.86500
H  45.84700 27.09100 32.73200
H  47.01900 27.85600 33.86700
H  46.24700 25.45000 35.18200
H  44.92400 25.85400 34.39200
H  46.42200 19.44000 30.02000
H  44.76800 19.78200 29.51300
H  45.48600 20.56700 30.92900
H  44.83100 18.46000 25.97700
H  44.43100 18.91900 27.66500
H  46.06400 18.57900 27.30100
H  47.08700 24.27800 23.32300
H  49.43400 26.19600 23.59700
H  49.97800 23.96000 23.76900
H  49.07300 23.32600 22.46800
H  49.00800 22.43400 23.98400
H  46.94200 27.53300 23.55400
H  46.64100 26.36400 22.45900
H  47.67800 27.66400 20.94300
H  49.21000 27.57800 21.82000
H  47.98300 28.76300 22.29300
H  49.51500 30.45200 25.88300
H  50.79700 30.65300 27.15700
H  49.27400 31.43400 27.38900
H  47.94200 29.02500 32.07500
H  51.39300 28.88500 35.06100
H  50.90800 27.25100 34.56800
H  49.88500 28.13200 35.61900

