158

Mg 1.76400 -0.96300 45.67500
C  5.14600 0.01900 45.00500
C  0.74600 1.59600 43.61300
C  -1.23800 -2.46700 45.74500
C  3.15100 -4.20800 46.60000
N  2.89700 0.58100 44.34800
C  4.27100 0.80800 44.29800
C  4.58900 2.01600 43.37800
C  3.14200 2.47600 42.95000
C  2.12700 1.54800 43.72600
C  2.90300 3.97600 43.13100
C  5.56100 1.57400 42.23500
C  6.55200 2.67000 41.84500
H  7.32900 2.31400 40.54600
N  -0.01500 -0.42200 44.92400
C  -0.26200 0.74200 44.09700
C  -1.68000 0.77900 43.93800
C  -2.34600 -0.28200 44.67800
C  -1.16700 -1.07800 45.22600
C  -2.30000 1.90600 43.20700
C  -3.84100 -0.59400 44.86700
O  -4.64600 0.07400 44.18200
C  -4.39100 -1.52700 45.98200
N  1.05700 -3.07500 46.10500
C  -0.26500 -3.30000 46.21400
C  -0.50100 -4.71800 46.69500
C  0.88300 -5.32600 46.73200
C  1.80600 -4.14000 46.46500
C  -1.28500 -4.80400 48.05200
C  1.23300 -6.45400 45.77300
C  2.04800 -7.66700 46.16200
N  3.71900 -1.89400 45.89800
C  4.07600 -3.19000 46.32100
C  5.49300 -3.24200 46.53400
C  5.91900 -1.91800 46.17300
C  4.84300 -1.15500 45.65400
C  6.28300 -4.36100 47.22200
C  7.10700 -1.02900 46.11900
O  8.26700 -1.25300 46.46300
C  6.60700 0.30500 45.39900
C  6.68400 1.45300 46.31700
O  5.99500 1.57400 47.32100
O  7.58500 2.35800 45.72900
C  7.58700 3.67700 46.47100
H  0.46000 2.48700 43.05000
H  -2.20600 -2.89800 46.00800
H  3.58400 -5.14000 46.96700
H  5.12900 2.74200 43.98700
H  3.02400 2.29100 41.88200
H  3.74900 4.52200 43.55100
H  1.99100 4.19400 43.68700
H  2.70400 4.24300 42.09400
H  5.12800 1.28700 41.27700
H  6.10400 0.66100 42.48000
H  7.31100 2.82100 42.61300
H  6.07400 3.64600 41.76500
H  -3.27400 1.77100 42.73400
H  -1.57000 2.45000 42.60800
H  -2.36200 2.62600 44.02300
H  -3.84200 -1.29500 46.89500
H  -4.32600 -2.54100 45.58700
H  -5.45500 -1.29300 46.00000
H  -1.15500 -5.16900 45.94900
H  1.08700 -5.57800 47.77300
H  -1.04700 -5.69500 48.63200
H  -2.32800 -4.89800 47.75100
H  -1.19100 -3.89200 48.64300
H  1.82200 -5.93400 45.01800
H  0.26000 -6.65600 45.32500
H  2.90600 -7.65600 45.48900
H  1.40200 -8.52900 45.99400
H  2.41500 -7.71900 47.18600
H  5.83700 -4.63100 48.18000
H  7.33200 -4.14400 47.42200
H  6.21900 -5.19400 46.52200
H  7.23600 0.57600 44.55100
H  7.07100 3.69800 47.43100
H  7.33800 4.57700 45.90900
H  8.61500 3.88900 46.76500
Mg 27.16900 49.59900 26.08300
C  25.01800 50.67700 28.69700
C  29.51300 48.81200 28.42000
C  29.46300 49.12500 23.50700
C  24.91800 50.92200 23.79100
N  27.30400 49.90800 28.27700
C  26.28700 50.17900 29.19300
C  26.59300 49.79000 30.62100
C  28.15100 49.54000 30.46500
C  28.35000 49.34000 28.92400
C  29.20700 50.48000 31.17900
C  25.72000 48.53900 31.04900
C  25.45900 48.25700 32.61300
H  25.91700 49.27300 33.68900
N  29.11800 48.90600 26.02700
C  29.89800 48.65900 27.09000
C  31.16900 48.22600 26.68400
C  31.29300 48.47900 25.26000
C  29.94600 48.86800 24.87400
C  32.20000 47.69300 27.61000
C  32.53800 48.37400 24.42900
O  32.54800 48.58200 23.22200
C  33.79900 47.87800 24.97700
N  27.14100 49.79300 23.92900
C  28.14900 49.55000 23.08100
C  27.73900 49.75200 21.64800
C  26.29800 50.27000 21.72200
C  26.09700 50.37700 23.24800
C  28.72300 50.65100 20.77400
C  25.26900 49.34500 21.04300
C  24.21300 50.08800 20.26000
N  25.29200 50.64200 26.13200
C  24.53600 51.12100 25.11700
C  23.33700 51.60100 25.72000
C  23.44600 51.43100 27.13200
C  24.69900 50.90700 27.33700
C  22.18900 52.26900 24.99000
C  22.81600 51.74600 28.39700
O  21.69000 52.20500 28.64600
C  23.81200 51.15900 29.45900
C  24.16800 52.17400 30.51300
O  25.08700 52.96400 30.47700
O  23.18200 52.17200 31.51500
C  23.40400 53.06700 32.67600
H  30.11400 48.28900 29.16700
H  30.19500 49.00200 22.70600
H  24.18800 51.22700 23.03800
H  26.33100 50.63000 31.26400
H  28.37800 48.59300 30.95500
H  28.58300 51.20700 31.70000
H  29.72600 51.08200 30.43300
H  29.90600 50.01300 31.87200
H  26.30500 47.75000 30.57700
H  24.72600 48.69100 30.62900
H  25.86600 47.29500 32.92400
H  24.38000 48.10400 32.56500
H  32.76100 46.87300 27.16100
H  31.66400 47.28300 28.46600
H  32.86700 48.53100 27.81500
H  34.61400 47.92800 24.25500
H  33.86800 46.87500 25.39900
H  34.09000 48.55300 25.78200
H  27.70700 48.72500 21.28400
H  26.24800 51.24100 21.23000
H  29.11600 51.38200 21.48000
H  28.17300 51.16900 19.98900
H  29.60700 50.15800 20.37000
H  24.87800 48.61100 21.74800
H  25.73600 48.69400 20.30400
H  23.32900 49.45400 20.33200
H  24.51700 50.39100 19.25800
H  23.91300 50.94400 20.86500
H  22.46800 53.23500 24.57000
H  21.30500 52.35200 25.62300
H  22.04700 51.67000 24.09100
H  23.20200 50.30400 29.75100
H  24.31200 52.60900 33.06800
H  22.55800 52.94700 33.35300
H  23.52600 54.13800 32.51900

