158

Mg 7.93200 3.06000 27.95800
C  9.25900 1.65800 30.89600
C  6.35400 5.32100 29.81000
C  6.29800 4.15300 25.17100
C  9.44500 0.55300 26.12400
N  7.71700 3.22900 30.14500
C  8.47400 2.77300 31.17500
C  8.39500 3.55700 32.43000
C  7.24000 4.51200 32.06600
C  7.12000 4.39200 30.54000
C  5.83600 4.25200 32.82000
C  9.76500 4.26700 32.62300
C  10.53100 3.96500 33.94100
H  10.13500 4.88800 35.10300
N  6.50800 4.51000 27.55400
C  5.99700 5.34900 28.48800
C  5.16800 6.36200 27.79800
C  5.11700 5.97700 26.44400
C  6.03200 4.83600 26.35900
C  4.64600 7.60200 28.47500
C  4.43300 6.67800 25.33300
O  4.38500 6.21400 24.22500
C  3.77100 8.07400 25.61400
N  7.87600 2.41900 25.97300
C  7.20000 3.06600 24.96100
C  7.40100 2.48500 23.59500
C  8.42700 1.29500 23.94100
C  8.59800 1.44200 25.48900
C  6.13900 2.13400 22.81800
C  9.76200 1.38500 23.24700
C  10.18400 0.09400 22.58700
N  9.23900 1.48000 28.39600
C  9.74200 0.51700 27.51600
C  10.56600 -0.41700 28.30100
C  10.42900 0.04600 29.61200
C  9.55500 1.11700 29.65400
C  11.31500 -1.58900 27.94200
C  10.88500 -0.16200 30.98900
O  11.68100 -0.92200 31.45500
C  10.03900 0.82600 31.85500
C  9.20300 0.04000 32.87200
O  8.35400 -0.78400 32.55300
O  9.54700 0.28100 34.24200
C  9.04600 -0.52500 35.35900
H  5.99400 6.19900 30.35000
H  5.77600 4.47300 24.26700
H  9.95800 -0.25500 25.59800
H  8.07900 2.83400 33.18200
H  7.52800 5.51300 32.38500
H  5.05900 4.02200 32.09100
H  5.54700 5.14300 33.37700
H  5.93600 3.32900 33.39200
H  9.63900 5.34100 32.76000
H  10.48100 4.14700 31.80900
H  11.60300 4.06100 33.76900
H  10.31400 2.92400 34.18000
H  5.00600 8.51600 28.00300
H  4.93700 7.64800 29.52400
H  3.56100 7.71300 28.45600
H  3.01500 7.89700 26.37900
H  3.22000 8.39900 24.73200
H  4.62400 8.70000 25.87800
H  7.87600 3.23800 22.96700
H  7.90900 0.38100 23.65000
H  5.23100 2.32700 23.39000
H  6.10600 1.10300 22.46600
H  6.15600 2.68500 21.87800
H  10.49700 1.81900 23.92700
H  9.64100 2.11600 22.44800
H  9.38900 -0.58200 22.27000
H  10.85300 -0.49100 23.21700
H  10.67800 0.27200 21.63200
H  11.11200 -1.77500 26.88700
H  10.90800 -2.30500 28.65600
H  12.36800 -1.42700 28.17300
H  10.85900 1.33400 32.36300
H  9.82600 -0.86900 36.03900
H  8.45700 -1.38100 35.02900
H  8.32900 0.01700 35.97500
Mg 53.77000 24.15200 44.64100
C  51.14800 26.39300 44.01700
C  51.98700 21.67200 43.00500
C  56.41800 22.30500 44.92200
C  55.72500 26.95700 45.69200
N  51.85800 24.10700 43.53900
C  51.04200 25.16600 43.30500
C  49.89500 24.77400 42.32100
C  50.13100 23.25100 42.22800
C  51.33700 22.97400 42.98000
C  48.94700 22.35500 42.48500
C  49.88400 25.55800 40.89200
C  51.26000 26.18200 40.53400
H  52.09400 25.48000 39.49600
N  54.16000 22.21900 43.99400
C  53.23800 21.30900 43.50100
C  53.90400 20.08700 43.38100
C  55.11300 20.16900 44.08600
C  55.32600 21.58900 44.27800
C  53.31700 18.88000 42.71000
C  56.09100 18.97100 44.50000
O  55.75300 17.82400 44.27200
C  57.43800 19.17400 45.17100
N  55.85200 24.62900 45.03300
C  56.71900 23.63800 45.18500
C  58.10200 24.02900 45.78300
C  57.88800 25.54900 45.98500
C  56.38400 25.74200 45.56400
C  58.68100 23.13300 46.97900
C  58.83700 26.45600 45.15600
C  60.25400 26.38400 45.52800
N  53.56000 26.19700 44.82100
C  54.37800 27.17500 45.48600
C  53.61100 28.36100 45.68500
C  52.34000 28.08700 45.30300
C  52.40100 26.75000 44.71500
C  54.02700 29.66200 46.49400
C  50.96000 28.55500 45.24000
O  50.44700 29.59700 45.57700
C  50.18600 27.51600 44.30300
C  49.72700 28.21600 43.05200
O  50.40700 28.83300 42.22600
O  48.33800 28.20500 43.01500
C  47.77300 28.88500 41.86200
H  51.33100 20.93100 42.54500
H  57.20300 21.63000 45.26900
H  56.25800 27.75400 46.21500
H  48.97600 24.96700 42.87500
H  50.27600 22.98000 41.18300
H  49.20400 21.65600 43.28000
H  48.80000 21.69500 41.63000
H  48.12700 22.92700 42.92000
H  49.22700 26.41800 41.02000
H  49.56300 24.94200 40.05200
H  51.96500 26.39900 41.33700
H  50.98000 27.15200 40.12300
H  52.53300 19.15900 42.00600
H  52.76600 18.21000 43.36900
H  53.99200 18.13000 42.29800
H  57.87400 18.18900 45.33300
H  57.11600 19.66400 46.09000
H  58.01500 19.83300 44.52200
H  58.84000 23.93500 44.98700
H  57.90600 25.80900 47.04300
H  59.21400 22.24200 46.64500
H  57.80200 22.91300 47.58400
H  59.34800 23.79100 47.53600
H  58.46100 27.47300 45.04700
H  58.81500 25.99000 44.17000
H  60.17600 25.94500 46.52300
H  60.80600 27.32200 45.47600
H  60.87200 25.65400 45.00500
H  53.68700 30.50200 45.88700
H  55.11500 29.72800 46.48200
H  53.66600 29.56300 47.51800
H  49.28400 27.19400 44.82500
H  48.31300 28.67900 40.93700
H  47.77200 29.96700 42.00000
H  46.72200 28.62600 41.73700

