158

Mg 45.77900 16.66100 28.29700
C  44.10900 16.21800 31.29500
C  47.97700 18.79200 30.13900
C  47.17700 17.77300 25.45400
C  43.17700 15.20000 26.48100
N  46.04300 17.30100 30.49400
C  45.29900 16.90700 31.55700
C  45.99300 17.23900 32.89200
C  47.10100 18.32300 32.45400
C  47.10600 18.04700 30.88000
C  46.81300 19.74600 32.84900
C  46.67100 15.99500 33.68700
C  46.48700 15.98100 35.27200
H  46.43600 17.33400 35.97000
N  47.40300 17.96500 27.88000
C  48.09600 18.78700 28.71600
C  48.99900 19.59000 27.99600
C  48.79000 19.38900 26.63400
C  47.76500 18.32100 26.60300
C  50.02600 20.51400 28.70500
C  49.39000 19.99400 25.50600
O  49.31800 19.53700 24.38300
C  50.34500 21.17600 25.58700
N  45.31300 16.37500 26.25100
C  46.11500 16.86600 25.26400
C  45.56800 16.41100 23.84800
C  44.28400 15.63400 24.20700
C  44.27200 15.65100 25.74800
C  45.31300 17.59400 22.81700
C  44.18600 14.21600 23.56000
C  44.62000 12.99700 24.32200
N  44.05100 15.79500 28.76600
C  43.03600 15.23500 27.93100
C  42.04000 14.66600 28.75900
C  42.46000 14.93600 30.05900
C  43.60800 15.74200 30.02200
C  41.00900 13.78500 28.36500
C  42.09600 14.77500 31.50300
O  40.99000 14.31400 31.88700
C  43.19300 15.50100 32.31400
C  42.59100 16.52800 33.18400
O  41.86400 17.43100 32.84500
O  42.81500 16.23300 34.50800
C  42.21300 17.19500 35.52500
H  48.64800 19.50100 30.62800
H  47.61400 17.93200 24.46500
H  42.33900 14.80400 25.90400
H  45.26800 17.66800 33.58400
H  48.07800 17.98600 32.79800
H  46.35300 20.26300 32.00800
H  47.75400 20.28300 32.96500
H  46.30600 19.88200 33.80400
H  47.69300 15.74800 33.40000
H  46.06000 15.14700 33.37700
H  47.41600 15.48000 35.54400
H  45.60200 15.36400 35.43100
H  50.92800 20.77700 28.15200
H  50.32400 20.12200 29.67700
H  49.52900 21.48400 28.73800
H  49.97000 22.04900 26.12200
H  50.63500 21.43700 24.56900
H  51.34800 20.93700 25.94100
H  46.41700 15.76600 23.62300
H  43.38800 16.22500 24.01700
H  45.87800 17.24900 21.95100
H  45.68900 18.56300 23.14300
H  44.27100 17.73700 22.52800
H  44.72100 14.18700 22.61100
H  43.13300 14.14500 23.28800
H  43.77700 12.61400 24.89700
H  45.41900 13.25400 25.01800
H  45.04800 12.26200 23.64100
H  41.40000 12.95400 27.77700
H  40.29600 14.33800 27.75500
H  40.51300 13.49500 29.29200
H  43.75100 14.79500 32.92900
H  41.14600 17.14200 35.30600
H  42.59800 18.18400 35.27500
H  42.42800 16.86900 36.54200
Mg -12.22400 36.72000 42.31100
C  -9.61500 34.42700 42.00000
C  -10.21300 39.10700 40.76300
C  -14.84600 38.85500 42.13200
C  -14.27400 34.06600 43.05600
N  -10.12500 36.69700 41.39400
C  -9.28000 35.63400 41.35800
C  -7.98600 36.03500 40.71800
C  -8.00700 37.61000 40.78600
C  -9.54000 37.84900 41.00500
C  -7.11100 38.22000 41.84100
C  -7.91700 35.43800 39.31500
C  -6.52600 34.77000 39.01000
H  -5.60900 35.50000 38.05700
N  -12.48400 38.66600 41.65400
C  -11.48500 39.44800 41.13500
C  -12.02300 40.76000 40.94600
C  -13.36500 40.83700 41.37900
C  -13.63800 39.43000 41.71100
C  -11.13600 41.96200 40.38500
C  -14.34700 42.08800 41.50500
O  -13.86700 43.15100 41.11400
C  -15.71100 42.04600 41.94200
N  -14.23100 36.53100 42.63200
C  -15.19800 37.54800 42.48300
C  -16.63400 37.05100 42.83700
C  -16.35800 35.50900 43.07000
C  -14.86600 35.33900 42.90800
C  -17.32100 37.69500 44.09600
C  -17.33600 34.53500 42.15700
C  -17.90100 33.33200 42.92100
N  -11.99200 34.74500 42.60200
C  -12.92200 33.79400 42.91600
C  -12.24300 32.53500 43.20000
C  -10.96800 32.75300 42.83500
C  -10.84700 34.12000 42.42400
C  -12.71400 31.29100 43.76300
C  -9.73800 32.09000 42.69000
O  -9.37300 30.93100 42.83700
C  -8.79200 33.18700 42.12100
C  -7.66600 33.36400 43.03100
O  -6.51700 32.98700 42.92000
O  -8.05200 33.95600 44.20700
C  -7.09100 33.86600 45.34800
H  -9.44200 39.85200 40.55600
H  -15.74000 39.47900 42.06000
H  -15.02000 33.29900 43.27500
H  -7.21600 35.56600 41.33000
H  -7.60700 38.01800 39.85800
H  -6.24500 37.59200 42.05100
H  -7.65000 38.39600 42.77100
H  -6.78100 39.21400 41.53900
H  -7.95900 36.23200 38.56900
H  -8.72900 34.74300 39.09900
H  -6.68100 33.74000 38.68700
H  -5.96000 34.68100 39.93700
H  -10.74000 42.46000 41.27000
H  -11.68700 42.70800 39.81300
H  -10.30600 41.58600 39.78700
H  -15.97000 43.09900 42.05900
H  -15.68300 41.65800 42.96000
H  -16.36700 41.46400 41.29600
H  -17.13300 37.20600 41.88000
H  -16.60200 35.18800 44.08300
H  -17.78200 38.66900 43.93500
H  -16.61500 37.84300 44.91300
H  -18.07000 37.00800 44.49100
H  -16.67200 34.05600 41.43800
H  -18.11700 35.16800 41.73600
H  -18.97200 33.51200 42.82400
H  -17.62300 33.27800 43.97300
H  -17.54100 32.39400 42.49800
H  -12.04300 31.03100 44.58200
H  -12.67300 30.51400 42.99900
H  -13.72300 31.44100 44.14700
H  -8.39100 32.91500 41.14500
H  -6.66500 32.86500 45.41600
H  -7.51500 34.03100 46.33800
H  -6.35600 34.64400 45.14100

