158

Mg 17.61800 -1.91300 27.09200
C  16.64600 0.11900 29.73500
C  19.30200 -3.83900 29.28500
C  18.67700 -3.62500 24.50800
C  16.01300 0.30000 24.85900
N  18.27900 -1.52500 29.30700
C  17.42200 -0.95100 30.18000
C  17.85600 -1.32400 31.68100
C  18.95700 -2.40400 31.45000
C  18.92800 -2.58300 29.91900
C  20.45500 -2.13200 31.95200
C  16.62900 -1.57400 32.58200
C  16.46300 -0.70500 33.80300
H  17.77300 -0.49500 34.55000
N  18.78900 -3.55800 26.94500
C  19.36600 -4.27500 27.93900
C  19.97800 -5.46500 27.46000
C  19.76300 -5.47800 26.07500
C  19.09400 -4.16500 25.77300
C  20.64900 -6.49800 28.33400
C  19.98000 -6.55500 25.01100
O  19.45400 -6.55800 23.90800
C  20.72800 -7.80700 25.21100
N  17.36400 -1.67800 24.96400
C  17.92000 -2.53300 24.11800
C  17.79300 -2.06900 22.58300
C  16.73600 -0.88200 22.76800
C  16.67100 -0.75600 24.26800
C  19.18700 -1.71900 22.03500
C  15.30900 -0.83700 22.10100
C  15.18800 0.25600 21.05900
N  16.54100 -0.11200 27.21800
C  15.95400 0.66500 26.22600
C  15.15400 1.67500 26.82400
C  15.41200 1.54200 28.21400
C  16.32900 0.49400 28.37600
C  14.17700 2.67500 26.12800
C  15.07500 2.04000 29.45300
O  14.44800 3.02700 29.76600
C  15.94100 1.17400 30.55600
C  16.83900 2.00900 31.45400
O  17.99200 2.29900 31.16400
O  16.14400 2.51500 32.57100
C  17.06800 3.23100 33.45500
H  19.76200 -4.63100 29.87900
H  19.02000 -4.19200 23.64100
H  15.62600 0.97200 24.09000
H  18.35900 -0.46600 32.12600
H  18.65400 -3.29900 31.99300
H  20.48100 -1.14400 32.41100
H  21.18700 -2.06600 31.14700
H  20.78200 -2.87000 32.68500
H  16.70900 -2.60100 32.93800
H  15.74600 -1.43700 31.95600
H  15.72300 -1.18200 34.44500
H  16.04100 0.29000 33.66100
H  21.19500 -7.23200 27.74100
H  19.85800 -6.99100 28.89800
H  21.32400 -6.12700 29.10500
H  21.64700 -7.65600 25.77800
H  21.08400 -8.16100 24.24400
H  20.05800 -8.46200 25.76800
H  17.36400 -2.91100 22.03900
H  17.27100 0.03500 22.52000
H  19.23300 -0.69300 21.67000
H  19.43500 -2.29500 21.14300
H  20.00000 -1.86800 22.74600
H  14.51400 -0.57100 22.79700
H  15.11200 -1.79200 21.61300
H  16.09400 0.83500 20.87300
H  14.35300 0.94000 21.21200
H  15.07300 -0.24700 20.09800
H  14.61000 3.04100 25.19700
H  13.73400 3.40900 26.80100
H  13.34000 2.04500 25.82600
H  15.18400 0.67300 31.15900
H  17.65600 3.95000 32.88500
H  17.85000 2.56900 33.82800
H  16.60000 3.70600 34.31700
Mg 35.59600 1.43400 29.62100
C  33.11600 2.04100 32.06500
C  37.81900 1.00100 32.06800
C  37.90400 1.00600 27.21500
C  33.13500 2.03200 27.18900
N  35.42300 1.43000 31.85400
C  34.36800 1.73000 32.63900
C  34.75100 1.76300 34.15200
C  36.33300 1.49700 34.08300
C  36.55200 1.20100 32.62300
C  37.25600 2.68600 34.61000
C  34.00700 0.83000 35.12300
C  33.35900 1.37700 36.35800
H  34.24400 2.41900 37.15200
N  37.56800 1.02700 29.59700
C  38.31500 0.92400 30.70600
C  39.65600 0.52700 30.31500
C  39.66900 0.40200 28.93700
C  38.35400 0.88100 28.50000
C  40.66300 0.21800 31.31600
C  40.79300 -0.11900 28.01300
O  40.57000 -0.33300 26.80200
C  42.11600 -0.46400 28.52800
N  35.50800 1.32900 27.56000
C  36.61200 1.26500 26.75200
C  36.25000 1.19200 25.27400
C  34.68600 1.37600 25.27800
C  34.36300 1.51600 26.73500
C  37.06100 2.26700 24.44200
C  33.93800 0.18200 24.62300
C  33.99400 -1.12100 25.35700
N  33.54600 1.98300 29.52300
C  32.72000 2.25600 28.44500
C  31.35200 2.60500 28.94200
C  31.48600 2.53800 30.32800
C  32.83700 2.10300 30.67500
C  30.31000 2.91100 27.97500
C  30.77300 2.72000 31.59800
O  29.60200 3.12400 31.78700
C  31.73100 2.38200 32.70300
C  31.76600 3.71000 33.52100
O  32.23500 4.72000 33.10200
O  31.02700 3.61500 34.67000
C  30.80700 4.72000 35.52800
H  38.53500 0.83800 32.87600
H  38.62700 1.12300 26.40600
H  32.50200 2.30700 26.34200
H  34.58200 2.79800 34.45000
H  36.66800 0.64600 34.67700
H  36.65200 3.53900 34.91800
H  37.90000 3.17500 33.87900
H  37.89400 2.30300 35.40600
H  34.66200 0.03500 35.48100
H  33.19200 0.43700 34.51500
H  33.11000 0.62400 37.10500
H  32.46200 1.82900 35.93400
H  41.62700 -0.16900 30.98500
H  40.28800 -0.51300 32.03200
H  40.80700 1.12300 31.90700
H  42.55200 0.37300 29.07400
H  42.84500 -0.70700 27.75400
H  42.06600 -1.32500 29.19500
H  36.45400 0.16800 24.96300
H  34.37900 2.28600 24.76400
H  36.39200 2.78500 23.75500
H  37.81900 1.76300 23.84200
H  37.48500 3.03400 25.09000
H  34.44300 0.03500 23.66900
H  32.87900 0.37900 24.45600
H  34.33000 -1.82200 24.59200
H  32.97800 -1.30100 25.70700
H  34.74000 -1.16200 26.15100
H  29.48500 3.37500 28.51500
H  30.15200 1.95800 27.47000
H  30.71400 3.67800 27.31400
H  31.44100 1.52600 33.31200
H  31.42400 4.39200 36.36400
H  29.78700 4.66600 35.91000
H  31.11300 5.73100 35.26000

