158

Mg 0.28700 43.96800 26.47100
C  2.63600 43.60200 29.13700
C  -1.94800 42.34500 28.41200
C  -1.73200 43.81800 23.75000
C  2.99300 45.12500 24.41800
N  0.42300 43.09400 28.52300
C  1.30000 43.28300 29.48800
C  0.69900 43.08600 30.91400
C  -0.69700 42.47000 30.61600
C  -0.81100 42.67200 29.11000
C  -0.99400 41.05500 31.11900
C  0.62500 44.37700 31.77700
C  1.00100 44.23000 33.33900
H  0.68100 42.94900 34.08900
N  -1.55700 43.00300 26.09000
C  -2.31000 42.35100 27.01600
C  -3.52400 41.90900 26.41200
C  -3.58500 42.45000 25.06600
C  -2.23100 43.16200 24.89000
C  -4.56500 41.00900 27.19600
C  -4.62200 42.29000 24.02300
O  -4.51700 42.78900 22.90800
C  -5.75800 41.37600 24.25000
N  0.56500 44.39900 24.36600
C  -0.47900 44.43900 23.52000
C  -0.16400 45.32800 22.34500
C  1.30000 45.81400 22.60800
C  1.68000 45.10000 23.86500
C  -0.27100 44.70300 20.93500
C  1.28300 47.33800 22.96800
C  2.06500 48.32700 22.08600
N  2.37000 44.43300 26.66000
C  3.35200 44.75400 25.73200
C  4.67200 44.63200 26.35400
C  4.38000 44.24300 27.66600
C  3.00700 44.12700 27.84200
C  6.02500 44.86000 25.74900
C  4.99800 43.92300 28.98000
O  6.19400 43.86300 29.24900
C  3.79800 43.70100 29.94500
C  4.03500 42.45500 30.72100
O  4.33500 41.33100 30.29300
O  3.90300 42.78200 32.03900
C  4.35800 41.69000 32.97700
H  -2.78800 42.05200 29.04600
H  -2.45200 43.91000 22.93400
H  3.78500 45.68800 23.91900
H  1.26200 42.30200 31.42000
H  -1.45000 43.04600 31.15400
H  -1.12700 40.36100 30.29000
H  -1.85600 40.98200 31.78300
H  -0.23500 40.73100 31.83000
H  -0.40000 44.71900 31.92100
H  1.24200 45.17500 31.36400
H  0.39900 45.02200 33.78400
H  2.08300 44.30600 33.45100
H  -4.48000 39.97400 26.86300
H  -5.55100 41.35400 26.88700
H  -4.34000 41.08800 28.25900
H  -6.50700 41.85400 24.88100
H  -5.40600 40.42700 24.65600
H  -6.17700 41.13400 23.27300
H  -0.96600 46.06400 22.29300
H  1.95600 45.57500 21.77000
H  0.62200 44.94500 20.35800
H  -1.23800 44.96700 20.50800
H  -0.26000 43.61300 20.97500
H  1.46400 47.40900 24.04100
H  0.29600 47.75600 22.76600
H  1.42300 49.00900 21.52900
H  2.66300 47.70400 21.42000
H  2.81700 48.85600 22.67100
H  6.56000 43.94300 25.99700
H  6.44300 45.77600 26.16500
H  5.93100 44.99900 24.67200
H  3.65800 44.51000 30.66200
H  3.63800 40.87500 32.89800
H  4.25100 42.20900 33.93000
H  5.39400 41.44900 32.74000
Mg -5.26800 25.21700 25.96100
C  -3.67600 26.53300 28.85200
C  -6.90300 23.02700 28.06200
C  -6.42300 23.68600 23.20200
C  -3.09200 27.12200 23.98300
N  -5.23600 24.78000 28.17300
C  -4.79000 25.71800 29.11200
C  -5.46900 25.53300 30.47800
C  -6.03900 24.04400 30.23300
C  -6.10200 23.91200 28.72400
C  -5.23600 22.92500 30.97400
C  -6.34300 26.74800 31.02100
C  -5.85500 27.33200 32.37600
H  -5.60000 26.29600 33.52300
N  -6.63100 23.64500 25.66000
C  -7.21300 22.86400 26.67200
C  -8.17900 21.96000 26.00000
C  -7.96400 22.08000 24.65400
C  -7.01700 23.14600 24.46800
C  -9.01900 20.96300 26.74100
C  -8.76700 21.40400 23.50400
O  -8.73300 21.80600 22.35400
C  -9.78200 20.36000 23.78300
N  -4.76900 25.34800 23.92900
C  -5.46200 24.67800 23.01200
C  -5.04600 25.12500 21.67800
C  -4.35000 26.49700 21.91000
C  -4.07600 26.29200 23.37000
C  -4.29200 24.04600 20.88700
C  -5.18100 27.70200 21.57800
C  -4.77200 28.45300 20.31800
N  -3.65000 26.55000 26.27900
C  -2.90100 27.31300 25.42500
C  -1.98300 28.12100 26.14900
C  -2.24100 27.88300 27.50900
C  -3.24000 26.87000 27.53800
C  -0.93500 28.99700 25.53500
C  -1.91300 28.23300 28.90500
O  -1.03300 28.96700 29.27100
C  -2.91400 27.41200 29.82800
C  -1.98200 26.55100 30.65300
O  -1.09600 25.73100 30.27500
O  -2.08000 27.02600 31.94700
C  -1.11200 26.48200 32.89300
H  -7.31600 22.27200 28.73400
H  -6.75400 23.18900 22.28800
H  -2.55700 27.73800 23.25700
H  -4.61600 25.39500 31.14300
H  -7.01200 23.87600 30.69500
H  -4.58500 23.34600 31.74000
H  -4.50800 22.48700 30.29100
H  -5.84500 22.17400 31.47800
H  -7.38900 26.51800 31.22300
H  -6.13900 27.53700 30.29700
H  -6.44900 28.15100 32.78200
H  -4.81000 27.60100 32.22300
H  -8.90700 21.08700 27.81800
H  -8.67400 19.94500 26.55800
H  -10.08700 21.12900 26.60100
H  -9.98900 19.79800 22.87300
H  -10.71400 20.79500 24.14500
H  -9.38200 19.55100 24.39400
H  -5.93500 25.35100 21.08900
H  -3.42600 26.51000 21.33100
H  -5.00500 23.49900 20.27000
H  -3.92700 23.24500 21.53000
H  -3.43900 24.30200 20.25900
H  -5.05400 28.42900 22.38000
H  -6.24200 27.47100 21.48800
H  -3.91700 29.09300 20.53700
H  -5.59200 29.01600 19.87200
H  -4.35800 27.92800 19.45800
H  -0.19000 29.34900 26.24900
H  -1.59100 29.80100 25.20200
H  -0.50500 28.54400 24.64100
H  -3.52500 28.08400 30.43200
H  -0.97700 27.19200 33.70900
H  -0.15900 26.24500 32.41900
H  -1.57600 25.57500 33.28000

