158

Mg 31.26200 58.72600 39.81200
C  28.17600 57.00500 38.93100
C  32.93200 56.03400 38.61300
C  33.96000 60.64900 39.82000
C  29.26700 61.43800 40.64200
N  30.59200 56.80600 38.89300
C  29.35200 56.26100 38.62700
C  29.52700 54.91100 38.08700
C  30.99700 54.55600 38.26800
C  31.54500 55.86800 38.58100
C  31.36000 53.56100 39.42500
C  29.15600 54.81300 36.60500
C  28.09000 53.72400 36.19700
H  27.25000 54.18600 34.95900
N  33.23200 58.38000 39.37400
C  33.74700 57.19000 38.87100
C  35.13500 57.31200 38.66100
C  35.48300 58.63500 39.01500
C  34.22200 59.31500 39.41900
C  35.99600 56.23300 38.05100
C  36.90200 59.17600 38.83900
O  37.85900 58.47500 38.55100
C  37.21100 60.64700 38.91400
N  31.53400 60.79600 40.08500
C  32.78100 61.33200 40.23300
C  32.72400 62.72200 40.84600
C  31.17700 62.96600 41.00700
C  30.57600 61.62800 40.49700
C  33.68600 62.89800 42.07400
C  30.65200 64.28800 40.16400
C  29.87800 65.31100 41.04000
N  29.14800 59.18300 39.92900
C  28.49200 60.25800 40.31400
C  27.07900 60.08700 40.26400
C  26.95200 58.84600 39.76000
C  28.20300 58.28400 39.54400
C  26.06800 61.10800 40.61300
C  25.89800 57.85400 39.42700
O  24.68900 57.87800 39.43900
C  26.69200 56.59800 38.80400
C  26.30200 55.37300 39.60500
O  26.95800 54.96300 40.52800
O  25.20600 54.68300 38.99900
C  25.04900 53.38400 39.63700
H  33.52900 55.16200 38.34000
H  34.85100 61.27900 39.83000
H  28.62700 62.27800 40.91900
H  29.03500 54.12700 38.66300
H  31.45500 54.20800 37.34200
H  32.04500 54.06400 40.10700
H  31.80700 52.63000 39.07600
H  30.45400 53.29000 39.96800
H  30.03400 54.61400 35.99100
H  28.79400 55.78400 36.26800
H  27.42600 53.65100 37.05900
H  28.60600 52.79200 35.97000
H  36.18100 56.43400 36.99600
H  35.59400 55.23000 38.19900
H  36.86500 56.22700 38.70900
H  36.42400 61.24700 38.45600
H  38.09100 60.97900 38.36200
H  37.23500 60.72200 40.00100
H  33.14000 63.44600 40.14500
H  31.08900 63.03000 42.09100
H  33.25300 63.60900 42.77800
H  34.70400 63.20600 41.83700
H  33.71300 61.92500 42.56500
H  30.00800 63.85700 39.39900
H  31.48000 64.76600 39.63900
H  30.38400 66.25700 40.84300
H  29.88300 65.04400 42.09700
H  28.85000 65.39000 40.68800
H  26.15300 61.89100 39.85900
H  26.08300 61.43400 41.65300
H  25.10600 60.63500 40.41800
H  26.45800 56.43900 37.75200
H  25.86100 52.72000 39.34000
H  24.02000 53.06800 39.46300
H  25.20500 53.60400 40.69300
Mg 7.54600 53.87400 41.60300
C  6.37700 50.61100 41.43800
C  10.60300 52.86600 40.64100
C  8.47500 57.15300 40.85700
C  4.25900 54.96500 41.73000
N  8.32800 51.97200 40.92000
C  7.74800 50.77500 41.06900
C  8.77100 49.57700 40.82200
C  10.11000 50.37200 40.67200
C  9.65500 51.82900 40.86900
C  11.17600 49.96900 41.74300
C  8.46000 48.72900 39.55900
C  8.42800 49.52400 38.19300
H  7.45800 49.14600 37.14800
N  9.31100 54.86400 41.04000
C  10.48000 54.23700 40.69600
C  11.52200 55.22700 40.47900
C  10.93800 56.51500 40.46700
C  9.55000 56.24800 40.82300
C  12.93600 54.87800 40.23500
C  11.72300 57.82400 40.03400
O  12.92000 57.81100 39.74100
C  11.02700 59.16900 40.12200
N  6.53500 55.72200 41.46900
C  7.10300 56.92600 41.24200
C  6.22800 58.08200 41.69800
C  4.82700 57.41700 41.63800
C  5.22600 55.92300 41.66400
C  6.58900 58.74900 43.05300
C  3.86200 57.80300 40.47500
C  3.94700 59.30900 40.05800
N  5.66900 53.04100 41.74100
C  4.44500 53.61400 41.86800
C  3.42400 52.61700 42.17900
C  4.14600 51.39900 41.97100
C  5.53000 51.72100 41.68700
C  1.90400 52.71500 42.26200
C  4.07200 49.94000 41.93700
O  3.14600 49.19200 42.13000
C  5.44700 49.35900 41.65700
C  5.17700 48.49800 40.45400
O  4.92800 48.86900 39.33300
O  5.23000 47.14900 40.79400
C  5.03700 46.18500 39.72900
H  11.61400 52.45600 40.59800
H  8.61500 58.22700 40.71300
H  3.19600 55.19000 41.83400
H  8.82500 48.81300 41.59800
H  10.51300 50.19700 39.67500
H  11.22900 50.72900 42.52300
H  12.17900 49.90700 41.32100
H  10.99700 49.05000 42.30000
H  7.55700 48.16600 39.79500
H  9.35700 48.11000 39.52800
H  9.43600 49.45600 37.78400
H  8.34800 50.58200 38.44500
H  13.21200 55.34000 39.28700
H  13.05400 53.79500 40.22800
H  13.53000 55.12700 41.11400
H  10.12600 59.23100 39.51200
H  11.76200 59.88800 39.76100
H  10.82600 59.39000 41.17000
H  6.38700 58.96100 41.07300
H  4.32000 57.66300 42.57000
H  7.33400 58.08000 43.48400
H  5.76000 59.02000 43.70600
H  7.10000 59.68500 42.82700
H  2.82900 57.45600 40.51000
H  4.18200 57.24100 39.59800
H  4.38400 59.86800 40.88500
H  2.97000 59.60300 39.67300
H  4.56600 59.42500 39.16900
H  1.42100 52.33100 41.36400
H  1.58700 53.73400 42.48400
H  1.56500 52.17500 43.14600
H  5.70700 48.79500 42.55300
H  5.91800 45.56800 39.55000
H  4.75900 46.50000 38.72200
H  4.30600 45.44200 40.04800

