158

Mg 8.25000 2.88400 27.88100
C  9.66400 1.48400 30.73700
C  6.39000 4.94400 29.96300
C  6.71400 4.04900 25.18800
C  9.88400 0.40900 25.93700
N  7.93800 3.09600 30.18600
C  8.77100 2.52300 31.08000
C  8.49600 3.14200 32.49000
C  7.43600 4.24700 32.25100
C  7.23900 4.14500 30.70600
C  6.05900 4.21200 33.00800
C  9.71800 3.80000 33.16800
C  10.03600 3.29700 34.62600
H  10.56900 4.25100 35.67800
N  6.66300 4.20500 27.62400
C  6.08200 4.97900 28.61100
C  5.16000 5.81200 27.94800
C  5.16500 5.57600 26.54800
C  6.14800 4.56300 26.40200
C  4.39300 6.91400 28.68200
C  4.52600 6.39800 25.45300
O  4.78100 6.31600 24.27200
C  3.28300 7.26500 25.69300
N  8.22200 2.26600 25.85700
C  7.70800 3.08500 24.91700
C  8.15800 2.80500 23.51700
C  9.09100 1.58000 23.71100
C  8.99700 1.28800 25.25900
C  6.98500 2.67600 22.57100
C  10.51100 1.83300 23.23900
C  11.61300 2.32800 24.17100
N  9.41700 1.25100 28.22600
C  10.02200 0.34100 27.31800
C  10.71100 -0.64600 28.05700
C  10.63600 -0.24200 29.39700
C  9.93900 0.98000 29.42000
C  11.32800 -1.84000 27.47800
C  11.20500 -0.47800 30.74800
O  11.96500 -1.39800 31.10600
C  10.61700 0.73600 31.66000
C  9.97300 0.19500 32.90500
O  8.84800 -0.27600 32.93100
O  10.76600 0.27800 34.01500
C  10.21200 -0.40800 35.24700
H  5.90800 5.72700 30.55200
H  6.37700 4.54200 24.27400
H  10.35600 -0.22700 25.18500
H  7.95800 2.39100 33.07000
H  7.92300 5.22000 32.31600
H  5.17800 4.04400 32.38900
H  5.91900 5.17900 33.49100
H  6.08600 3.56300 33.88300
H  9.71400 4.88500 33.06400
H  10.58200 3.46600 32.59400
H  10.77600 2.50000 34.54200
H  9.08500 2.87800 34.95300
H  4.88500 7.84200 28.38900
H  4.41800 6.79600 29.76500
H  3.38300 6.77100 28.30000
H  2.67100 7.14600 24.79900
H  3.57100 8.31600 25.65900
H  2.60600 7.05400 26.52100
H  8.78100 3.61500 23.13700
H  8.71000 0.71000 23.17600
H  7.08600 3.40300 21.76500
H  5.95900 2.77500 22.92600
H  6.96000 1.71200 22.06200
H  10.41600 2.55700 22.43000
H  10.92900 0.87400 22.93100
H  11.27800 2.83800 25.07400
H  12.33100 3.01700 23.72700
H  12.24500 1.50900 24.51500
H  11.77900 -1.66300 26.50200
H  10.60600 -2.65700 27.45600
H  12.10700 -2.16100 28.17000
H  11.45600 1.41400 31.81900
H  11.02500 -0.82800 35.83700
H  9.52500 -1.23500 35.06700
H  9.68100 0.21500 35.96700
Mg 44.22500 5.10000 46.18700
C  42.44700 8.08900 45.92100
C  41.25100 3.42200 45.09200
C  45.91900 2.33700 45.61500
C  47.20000 6.91200 46.34300
N  42.06500 5.74700 45.44800
C  41.55200 7.01000 45.62100
C  40.07500 7.06300 45.51100
C  39.75400 5.52100 45.38400
C  41.07200 4.80600 45.29500
C  38.88900 4.79300 46.47000
C  39.46600 7.93600 44.41400
C  40.29600 8.07600 43.15000
H  39.62100 7.81100 41.79700
N  43.68300 3.08300 45.67500
C  42.44500 2.62700 45.25300
C  42.47400 1.21600 45.10000
C  43.82200 0.80200 45.26500
C  44.54900 2.07100 45.54400
C  41.31700 0.40900 44.82700
C  44.35800 -0.68100 45.17800
O  43.58600 -1.56700 44.79500
C  45.78000 -1.03300 45.56600
N  46.27900 4.71000 45.69300
C  46.72200 3.43800 45.70400
C  48.27100 3.37000 45.71500
C  48.64700 4.95600 45.72300
C  47.28700 5.56900 45.95800
C  48.87300 2.54200 46.91500
C  49.28400 5.47100 44.40700
C  50.87700 5.52300 44.41000
N  44.73300 7.11600 46.21700
C  45.98600 7.63900 46.39500
C  45.83500 9.02500 46.60700
C  44.48700 9.27000 46.47800
C  43.82400 8.06800 46.11200
C  46.91500 10.08500 46.82000
C  43.40200 10.27400 46.47300
O  43.43800 11.49700 46.62900
C  42.07100 9.58600 46.13100
C  41.10400 9.78300 47.19300
O  40.94300 9.03400 48.12000
O  40.24800 10.77200 46.91400
C  39.08600 10.92800 47.75900
H  40.34000 2.82000 45.08900
H  46.58100 1.47100 45.54200
H  48.13800 7.41000 46.59700
H  39.74700 7.40500 46.49300
H  39.14300 5.47800 44.48300
H  39.45200 4.74700 47.40200
H  38.74900 3.75300 46.17400
H  37.97300 5.38100 46.41200
H  39.19900 8.88200 44.88600
H  38.49900 7.56300 44.07600
H  41.16400 7.41800 43.11400
H  40.60000 9.11900 43.05600
H  41.44200 -0.15700 43.90400
H  40.35400 0.91400 44.90200
H  41.40400 -0.32500 45.62800
H  45.92000 -2.10800 45.67100
H  46.06700 -0.48600 46.46400
H  46.55000 -0.83300 44.82000
H  48.58800 2.87400 44.79800
H  49.27400 5.10100 46.60200
H  49.69200 3.07800 47.39500
H  49.37600 1.64100 46.56500
H  48.09700 2.33800 47.65200
H  48.92000 6.47700 44.20000
H  49.06100 4.72800 43.64100
H  51.13200 6.51900 44.04900
H  51.42000 4.84700 43.75100
H  51.21000 5.38200 45.43900
H  46.55900 11.11200 46.91000
H  47.49000 10.30700 45.92000
H  47.61800 9.78500 47.59700
H  41.72000 10.04700 45.20800
H  39.17400 11.68300 48.54000
H  38.79400 9.95000 48.14400
H  38.25300 11.32100 47.17600

