158

Mg 57.20500 23.67100 45.30200
C  55.34600 26.23000 43.69300
C  54.82800 21.44600 43.78600
C  59.26600 21.14600 46.05100
C  59.70400 25.97000 45.86500
N  55.38300 23.82200 43.83900
C  54.80200 25.00500 43.36200
C  53.52100 24.76300 42.57700
C  53.24800 23.27600 43.00400
C  54.61200 22.80400 43.52900
C  52.25100 23.12200 44.20300
C  53.74000 24.81000 41.04700
C  52.64200 25.34800 40.07300
H  52.08800 24.32300 38.99700
N  57.00800 21.54300 45.06800
C  55.96700 20.88200 44.45100
C  56.22300 19.44600 44.61000
C  57.51000 19.27200 45.20700
C  58.01800 20.66000 45.48900
C  55.31400 18.42600 43.91500
C  58.18400 17.93600 45.42800
O  57.71500 16.86900 44.99900
C  59.51600 17.94200 46.08100
N  59.11300 23.59200 46.07200
C  59.80100 22.42000 46.28900
C  61.28600 22.67600 46.74200
C  61.35500 24.22000 46.57900
C  60.00400 24.62400 46.08700
C  61.57200 22.07800 48.17500
C  62.50700 24.65800 45.61100
C  63.41900 25.75700 46.08900
N  57.42000 25.69000 45.14000
C  58.50700 26.52800 45.40800
C  58.12600 27.89600 45.12800
C  56.82300 27.82100 44.64600
C  56.54600 26.47900 44.47200
C  59.07800 29.11100 45.48700
C  55.67900 28.55700 44.21400
O  55.46500 29.74000 44.33600
C  54.74800 27.54900 43.40300
C  54.76000 27.93400 42.02000
O  55.69200 27.82400 41.25900
O  53.57000 28.52900 41.71600
C  53.35100 29.08900 40.39000
H  54.05000 20.77600 43.41300
H  60.03700 20.44000 46.36600
H  60.53000 26.65100 46.07900
H  52.75900 25.43300 42.97600
H  53.01600 22.60400 42.17700
H  52.64400 22.55500 45.04700
H  51.35600 22.64400 43.80500
H  51.94200 24.10600 44.55300
H  54.02100 23.79100 40.78200
H  54.61500 25.39600 40.76500
H  53.03400 26.19100 39.50500
H  51.82100 25.69400 40.70100
H  55.45400 18.49800 42.83600
H  54.25700 18.59200 44.12200
H  55.57800 17.39900 44.16600
H  59.92800 16.94600 46.23900
H  59.38000 18.60100 46.93900
H  60.10600 18.53500 45.38300
H  61.86400 22.10300 46.01700
H  61.46700 24.73200 47.53500
H  62.42700 21.42700 47.99900
H  60.83100 21.39300 48.58800
H  61.80000 22.75500 48.99800
H  61.95500 24.95800 44.72100
H  63.17800 23.90900 45.19100
H  64.41700 25.39500 45.84400
H  63.44300 25.93200 47.16400
H  63.36200 26.72100 45.58300
H  60.02700 28.73200 45.86700
H  58.65300 29.80200 46.21500
H  59.23000 29.63400 44.54300
H  53.73200 27.49400 43.79500
H  53.29800 30.17500 40.46600
H  52.36700 28.79300 40.02600
H  54.06400 28.79800 39.61700
Mg 35.29900 48.32400 25.82200
C  35.83400 46.45600 28.70600
C  34.06900 50.81000 27.76000
C  34.67800 49.99300 23.00800
C  36.25100 45.39800 23.90800
N  34.87400 48.50900 27.99200
C  35.38000 47.74800 29.01200
C  35.15400 48.38800 30.42000
C  34.29900 49.59000 30.05800
C  34.45300 49.65100 28.48400
C  32.85800 49.54100 30.62200
C  36.47800 48.63100 31.10200
C  36.41100 48.46700 32.69400
H  35.06200 48.59100 33.37000
N  34.62100 50.24500 25.44500
C  34.15100 51.13000 26.32400
C  33.94700 52.37000 25.68900
C  34.07300 52.13900 24.28200
C  34.38100 50.70800 24.19400
C  33.72100 53.62200 26.45000
C  33.90200 53.14900 23.09400
O  33.97000 52.82700 21.90400
C  33.59600 54.57000 23.40400
N  35.39200 47.75100 23.85700
C  35.16400 48.68300 22.82700
C  35.16000 48.01500 21.44600
C  35.99200 46.71900 21.77600
C  35.81300 46.57000 23.26500
C  33.75800 47.70700 20.84500
C  37.52000 46.89300 21.42700
C  38.08700 45.72400 20.62400
N  35.88200 46.33000 26.20900
C  36.30300 45.30400 25.33300
C  36.79200 44.23400 26.13800
C  36.62300 44.56300 27.47200
C  36.02300 45.87600 27.47200
C  37.40300 42.93800 25.69700
C  36.84100 44.14000 28.83500
O  37.20100 43.05800 29.28800
C  36.28500 45.30300 29.72200
C  35.26600 44.75700 30.60000
O  34.06800 44.75300 30.31100
O  35.72200 44.57100 31.84400
C  34.80200 44.42500 32.95500
H  33.67700 51.62200 28.37700
H  34.35100 50.49400 22.09400
H  36.80000 44.60600 23.39500
H  34.59800 47.67800 31.03100
H  34.67500 50.53100 30.46000
H  32.04800 49.45600 29.89800
H  32.57500 50.43500 31.17800
H  32.74800 48.73300 31.34600
H  36.89200 49.53500 30.65400
H  37.13200 47.84600 30.72400
H  36.96400 49.29000 33.14700
H  36.84600 47.51400 32.99200
H  34.48600 54.31400 26.09800
H  33.81300 53.42700 27.51800
H  32.76200 54.05600 26.17000
H  33.62900 55.21400 22.52600
H  34.32500 54.88200 24.15200
H  32.57900 54.45000 23.78000
H  35.64400 48.68000 20.73000
H  35.53700 45.81800 21.36500
H  33.72000 46.61900 20.80500
H  33.53400 48.15600 19.87700
H  32.93600 48.02000 21.48800
H  38.09100 46.85900 22.35500
H  37.64600 47.90100 21.03200
H  37.59100 45.71800 19.65300
H  37.81800 44.75800 21.05000
H  39.14400 45.97400 20.52800
H  36.71100 42.09600 25.69300
H  38.30500 42.67600 26.25000
H  37.73800 43.03800 24.66500
H  37.13300 45.55000 30.36100
H  35.24800 45.08000 33.70400
H  34.91700 43.39000 33.27500
H  33.73800 44.63200 32.83900

