158

Mg 47.66900 25.10800 28.61200
C  48.64400 27.31000 30.98700
C  46.23800 23.11900 30.99800
C  46.65400 22.97000 26.11300
C  49.57800 26.97300 26.06600
N  47.71100 25.06100 30.78900
C  47.87100 26.28500 31.55500
C  47.42000 26.01800 32.95400
C  46.66200 24.55300 32.94200
C  46.97200 24.17200 31.49300
C  47.27400 23.53200 34.00900
C  46.42500 27.17400 33.55000
C  47.06400 28.00900 34.68300
H  46.11100 28.31000 35.91100
N  46.64600 23.24400 28.56600
C  46.12100 22.62500 29.67100
C  45.50700 21.37300 29.23000
C  45.49500 21.37300 27.80200
C  46.35700 22.52700 27.39800
C  45.10500 20.37000 30.24000
C  44.82100 20.31300 26.88200
O  44.96900 20.36000 25.63200
C  43.82600 19.30400 27.48200
N  48.11500 24.97700 26.36300
C  47.51900 23.97900 25.57900
C  48.01700 24.09500 24.18400
C  48.58100 25.56300 24.10700
C  48.81700 25.84800 25.54600
C  49.13400 23.05100 23.86500
C  47.65900 26.63500 23.43600
C  48.09000 26.91900 21.96700
N  48.94600 26.63000 28.48200
C  49.60400 27.36000 27.43000
C  50.18500 28.58400 27.98700
C  49.77700 28.60000 29.32800
C  49.09700 27.40100 29.62300
C  51.10900 29.52000 27.25100
C  49.89900 29.44600 30.54900
O  50.55100 30.48700 30.79300
C  49.07200 28.67800 31.67300
C  50.04100 28.44600 32.80100
O  50.76900 27.49200 32.92800
O  49.85800 29.44100 33.74700
C  50.59400 29.18700 35.02500
H  45.75200 22.45200 31.71300
H  46.47400 22.18800 25.37200
H  50.16300 27.59400 25.38500
H  48.38000 25.97400 33.46800
H  45.59400 24.77100 32.96400
H  46.46700 23.13200 34.62300
H  47.96700 24.04600 34.67500
H  47.74500 22.71500 33.46300
H  45.47000 26.80200 33.92200
H  46.13100 27.75000 32.67200
H  47.37000 28.92500 34.17900
H  48.01700 27.56300 34.96800
H  45.42100 19.37200 29.93700
H  44.02700 20.33900 30.39300
H  45.49900 20.59100 31.23200
H  43.16400 18.97800 26.68100
H  43.26000 19.56400 28.37700
H  44.44200 18.43600 27.71800
H  47.27700 23.97200 23.39400
H  49.52800 25.58700 23.56900
H  50.11500 23.52500 23.85600
H  48.89700 22.47600 22.97000
H  49.38700 22.44000 24.73100
H  47.86400 27.46600 24.11100
H  46.64500 26.26600 23.59200
H  48.37300 27.94900 21.74600
H  47.24200 26.65500 21.33500
H  49.01500 26.42300 21.67400
H  51.96000 28.93000 26.91100
H  51.42300 30.36700 27.86000
H  50.63100 29.89400 26.34600
H  48.19200 29.20500 32.04000
H  50.44500 30.07600 35.63700
H  51.65800 28.98100 34.90900
H  50.20600 28.35600 35.61500
Mg -4.83500 25.40300 26.47700
C  -3.41300 26.79800 29.32300
C  -7.05200 23.62800 28.48800
C  -5.86700 23.95600 23.72400
C  -2.62800 27.43900 24.58000
N  -5.12000 25.21000 28.65500
C  -4.41900 25.83500 29.68800
C  -5.03700 25.48900 31.09100
C  -5.84400 24.22700 30.65900
C  -6.04800 24.37500 29.18400
C  -5.22200 22.83600 31.07900
C  -5.92700 26.59500 31.67000
C  -6.01800 26.54700 33.27900
H  -5.50500 25.26100 33.98300
N  -6.31600 23.98700 26.11700
C  -7.13000 23.45300 27.08200
C  -8.08200 22.54700 26.38500
C  -7.69600 22.62000 24.99500
C  -6.55900 23.48500 24.88500
C  -9.16400 21.87500 27.14000
C  -8.32300 21.95900 23.79600
O  -7.82100 21.97500 22.71700
C  -9.56700 21.16600 24.01200
N  -4.29200 25.65800 24.43400
C  -4.87900 24.92000 23.49500
C  -4.50900 25.42300 22.07500
C  -3.56600 26.65000 22.27600
C  -3.51700 26.59600 23.86100
C  -4.06800 24.32400 21.18900
C  -4.23000 27.99400 21.80200
C  -3.50000 28.49600 20.52000
N  -3.31500 26.78600 26.83300
C  -2.52500 27.52500 26.01100
C  -1.69400 28.42600 26.75000
C  -1.91800 28.09800 28.07600
C  -2.93400 27.19500 28.05300
C  -0.73400 29.36100 26.15100
C  -1.51800 28.38400 29.41600
O  -0.63500 29.15000 29.83300
C  -2.39800 27.48900 30.30300
C  -1.67700 26.53700 31.24200
O  -1.15400 25.50100 30.94900
O  -1.85000 27.10800 32.49400
C  -1.37100 26.49600 33.71600
H  -7.73500 23.09200 29.15100
H  -6.24000 23.67700 22.73600
H  -2.03500 28.20000 24.06900
H  -4.16000 25.18500 31.66400
H  -6.83300 24.26400 31.11600
H  -5.96100 22.16300 31.51400
H  -4.41700 23.04900 31.78300
H  -4.67700 22.31500 30.29200
H  -6.89400 26.48100 31.18000
H  -5.58200 27.53400 31.23800
H  -7.06500 26.74100 33.51200
H  -5.34700 27.33200 33.62700
H  -9.19400 20.80400 26.93900
H  -10.19500 22.12400 26.89100
H  -9.02900 21.93300 28.22000
H  -9.26400 20.25000 24.52000
H  -10.04300 21.05900 23.03800
H  -10.28900 21.77100 24.56100
H  -5.46500 25.76000 21.67300
H  -2.66100 26.35700 21.74300
H  -3.36400 24.70000 20.44600
H  -4.96100 23.98200 20.66600
H  -3.71800 23.60300 21.92900
H  -4.02800 28.84500 22.45300
H  -5.31400 27.90800 21.72000
H  -4.22000 28.67000 19.72000
H  -2.76800 27.75600 20.19300
H  -2.93000 29.42400 20.55000
H  -0.17100 28.86800 25.35900
H  0.01800 29.71900 26.85500
H  -1.22200 30.20200 25.65900
H  -2.80300 28.28000 30.93400
H  -1.00100 25.48600 33.54300
H  -2.14200 26.52800 34.48500
H  -0.43900 27.01300 33.94800

