158

Mg 48.17300 16.72500 28.92000
C  46.23100 16.39900 31.93400
C  50.29000 18.52800 30.63800
C  49.48500 17.48700 26.08500
C  45.41400 15.27300 27.19800
N  48.24200 17.38900 31.00700
C  47.45400 17.03500 32.07700
C  48.01200 17.56000 33.44800
C  49.11300 18.56700 32.84900
C  49.19800 18.16700 31.40000
C  48.83600 20.07200 32.97600
C  48.62700 16.47300 34.38000
C  48.16200 16.48600 35.89800
H  47.76000 17.84700 36.54200
N  49.73900 17.71800 28.44600
C  50.59400 18.32000 29.29500
C  51.77200 18.75900 28.63300
C  51.56900 18.49900 27.30000
C  50.22200 17.86300 27.22600
C  53.07400 19.11400 29.35400
C  52.49900 18.84100 26.12400
O  52.25400 18.51400 25.00800
C  53.81700 19.44600 26.26400
N  47.48200 16.53700 26.90400
C  48.27500 16.86100 25.86500
C  47.72600 16.46800 24.46000
C  46.47500 15.60800 24.92200
C  46.46800 15.80300 26.42900
C  47.34900 17.62900 23.70000
C  46.47200 14.10500 24.51500
C  45.85800 13.66600 23.13200
N  46.20200 15.91500 29.41900
C  45.20700 15.42300 28.56800
C  44.08300 15.01300 29.42700
C  44.46800 15.29400 30.70400
C  45.73100 15.82300 30.68800
C  42.70900 14.53400 28.97600
C  44.05100 15.27100 32.12600
O  43.03700 14.88400 32.64300
C  45.14600 15.97100 32.92300
C  44.49100 17.04500 33.69300
O  44.24200 18.11200 33.19000
O  44.01000 16.56600 34.95600
C  43.16200 17.53600 35.73800
H  51.00700 19.12500 31.20600
H  50.04200 17.73100 25.17700
H  44.56500 14.72000 26.79000
H  47.22700 18.16400 33.90200
H  50.09100 18.50700 33.32600
H  49.59200 20.58800 33.56900
H  47.87800 20.20900 33.47700
H  48.85700 20.46500 31.96000
H  49.71200 16.57500 34.35700
H  48.38300 15.52200 33.90700
H  48.91500 16.02300 36.53700
H  47.27400 15.85800 35.96800
H  53.87200 18.43200 29.06000
H  52.98800 19.01900 30.43600
H  53.37700 20.14100 29.14500
H  53.71700 20.25500 26.98700
H  54.20000 19.67100 25.26800
H  54.61400 18.77600 26.58700
H  48.60800 15.97300 24.05400
H  45.56000 16.06700 24.54800
H  46.34100 17.56900 23.29100
H  48.03600 17.67800 22.85400
H  47.47900 18.55300 24.26400
H  46.16900 13.59500 25.42900
H  47.54500 13.94400 24.41800
H  46.50700 13.08300 22.47900
H  45.35100 14.51000 22.66600
H  45.06400 12.93400 23.28000
H  42.25700 15.21100 28.25100
H  42.06500 14.40700 29.84700
H  42.75400 13.54000 28.53200
H  45.81600 15.34300 33.51100
H  42.12400 17.37400 35.44600
H  43.45700 18.56900 35.55500
H  43.14700 17.28500 36.79900
Mg 36.16000 48.46800 24.52500
C  36.30400 46.68400 27.53000
C  34.80100 51.08900 26.33600
C  35.57800 50.02600 21.71300
C  37.32400 45.68400 22.83600
N  35.65500 48.83800 26.74300
C  35.90100 47.99100 27.71800
C  35.65800 48.69500 29.08400
C  34.98300 50.06800 28.72000
C  35.07800 50.00700 27.17400
C  33.47600 50.29000 29.20100
C  36.96000 48.84700 29.93000
C  36.91800 48.37900 31.35500
H  35.58300 48.51800 32.08700
N  35.24100 50.23600 24.07000
C  34.78700 51.22300 24.91600
C  34.27700 52.34700 24.14900
C  34.46900 52.07000 22.77800
C  35.10700 50.70200 22.82800
C  33.81400 53.57700 24.80300
C  34.32100 53.05800 21.50600
O  34.71800 52.81200 20.37300
C  33.84000 54.51600 21.72700
N  36.35100 47.94800 22.56600
C  36.09800 48.76300 21.56400
C  36.37400 48.14300 20.20000
C  37.15800 46.84400 20.59200
C  36.98700 46.80700 22.13100
C  35.08600 47.89500 19.31100
C  38.63500 46.65300 20.09000
C  39.81000 46.98500 21.08600
N  36.87700 46.63900 25.03600
C  37.25900 45.60500 24.21800
C  37.64000 44.47800 25.05000
C  37.28300 44.86800 26.36900
C  36.76700 46.13700 26.28500
C  38.18900 43.16300 24.54600
C  37.15100 44.47200 27.75000
O  37.42900 43.39500 28.32900
C  36.54700 45.69700 28.55100
C  35.40300 45.18500 29.32300
O  34.20800 45.08700 29.02500
O  35.87600 44.97500 30.54700
C  34.98000 44.46600 31.57300
H  34.45900 51.97800 26.87000
H  35.50600 50.50000 20.73200
H  37.69400 44.75900 22.39000
H  34.98100 48.11700 29.71200
H  35.64400 50.88800 29.00100
H  33.22700 49.43700 29.83300
H  32.77900 50.29700 28.36300
H  33.32200 51.12700 29.88300
H  37.24800 49.89900 29.91800
H  37.76900 48.36000 29.38500
H  37.65000 48.89400 31.97800
H  37.17000 47.32000 31.41100
H  34.67300 54.24200 24.71100
H  33.45100 53.41100 25.81700
H  32.92500 53.90600 24.26600
H  32.84000 54.50000 22.16100
H  33.82500 54.84500 20.68800
H  34.53700 55.08400 22.34300
H  37.15100 48.79500 19.80000
H  36.56500 45.99900 20.24300
H  34.25700 48.50000 19.67800
H  34.64600 46.90400 19.42700
H  35.27600 48.11000 18.25900
H  38.78000 47.32700 19.24600
H  38.75000 45.68700 19.60000
H  40.28400 47.87900 20.68300
H  40.54900 46.18700 21.16200
H  39.55700 47.20100 22.12400
H  38.91800 43.30500 23.74800
H  37.33600 42.62100 24.13900
H  38.62500 42.65100 25.40400
H  37.28900 45.97600 29.29900
H  34.23800 45.24300 31.75900
H  35.45200 44.25100 32.53200
H  34.30300 43.69300 31.20900

