158

Mg 0.76900 8.06300 26.63000
C  1.09300 10.04600 29.45200
C  0.56300 5.25100 28.43500
C  0.24500 6.35700 23.72900
C  0.68900 11.05400 24.69400
N  0.97500 7.69400 28.73600
C  0.91100 8.65500 29.70400
C  0.66200 7.99200 31.01000
C  0.83500 6.46400 30.67900
C  0.82500 6.43400 29.15100
C  2.10600 5.76400 31.22400
C  -0.76000 8.33500 31.62700
C  -0.76500 8.82100 33.18300
H  0.37100 8.31800 34.11000
N  0.55700 6.05900 26.12700
C  0.55800 5.04900 27.05200
C  0.35000 3.84200 26.42000
C  0.01800 4.15200 25.00400
C  0.27000 5.57400 24.89700
C  0.22500 2.47500 27.10900
C  -0.43700 3.20000 23.85500
O  -0.66500 3.54600 22.70000
C  -0.57000 1.68200 24.09200
N  0.64100 8.66200 24.58400
C  0.51400 7.69400 23.59800
C  0.65100 8.33700 22.21700
C  0.30400 9.77000 22.53800
C  0.52200 9.88300 24.01700
C  2.03000 8.08500 21.52600
C  -1.23400 10.03000 22.28500
C  -1.56200 10.90300 21.12100
N  1.10300 10.08500 26.95500
C  1.04700 11.19500 26.08300
C  1.35800 12.41800 26.82600
C  1.41700 11.99600 28.15200
C  1.22200 10.63900 28.15900
C  1.36200 13.83400 26.26700
C  1.55400 12.44100 29.43600
O  1.85300 13.56900 29.87500
C  1.24900 11.24100 30.37800
C  2.27700 11.14700 31.44000
O  3.41400 10.80100 31.23100
O  1.70700 11.61700 32.64000
C  2.76800 11.93600 33.59700
H  0.35800 4.38900 29.07300
H  -0.10700 5.77700 22.87400
H  0.63500 11.98300 24.12200
H  1.35500 8.35000 31.77200
H  -0.00900 5.86000 31.01400
H  2.67700 6.39100 31.90800
H  2.82200 5.42300 30.47600
H  1.93800 4.91700 31.88900
H  -1.39800 7.45300 31.67800
H  -1.11500 9.19000 31.05000
H  -1.70100 8.51300 33.64900
H  -0.78000 9.91100 33.20700
H  0.68700 2.42300 28.09500
H  0.74200 1.65400 26.61300
H  -0.79100 2.10800 27.25500
H  0.37100 1.13300 24.11000
H  -1.22900 1.30800 23.30800
H  -1.07900 1.37900 25.00700
H  -0.08400 7.92700 21.52600
H  0.93900 10.47100 21.99600
H  2.65800 7.41100 22.10900
H  2.61300 8.99200 21.36500
H  1.80800 7.66100 20.54600
H  -1.81600 10.48100 23.08900
H  -1.80600 9.10200 22.27000
H  -1.06900 10.48900 20.24100
H  -1.21400 11.92200 21.29600
H  -2.63800 11.06800 21.07400
H  1.74900 13.86300 25.24800
H  2.06500 14.33000 26.93700
H  0.36800 14.27700 26.20800
H  0.29300 11.47600 30.84600
H  3.44400 12.69500 33.20300
H  3.31700 11.04100 33.89000
H  2.40700 12.29200 34.56200
Mg 49.44900 46.11800 42.88900
C  46.01600 46.21500 41.87600
C  49.59100 42.76300 41.95900
C  52.76400 46.48900 42.70300
C  49.06400 49.52900 43.65800
N  48.02900 44.72300 41.87400
C  46.68700 44.99400 41.69200
C  46.04900 43.69800 41.17100
C  47.05900 42.56400 41.60200
C  48.33800 43.34100 41.79100
C  46.77400 41.56700 42.77100
C  45.76100 43.62700 39.64900
C  44.53100 42.82000 39.24000
H  44.01900 43.12800 37.85200
N  51.03400 44.76900 42.47400
C  50.84300 43.42200 42.15300
C  52.19900 42.89500 41.96500
C  53.16400 43.92800 42.26800
C  52.38700 45.12900 42.47400
C  52.48500 41.42900 41.78700
C  54.63100 43.76700 42.41400
O  55.19000 42.70500 42.16600
C  55.58500 44.87700 42.98600
N  50.79800 47.69800 43.28400
C  52.09000 47.64800 43.08400
C  52.80000 48.93200 43.45400
C  51.65200 49.89200 43.85800
C  50.35300 49.03900 43.53800
C  53.92000 48.91600 44.53500
C  51.67500 51.30100 43.11000
C  51.20600 52.51300 43.90600
N  47.91800 47.61300 42.82900
C  47.91400 48.86900 43.27500
C  46.52700 49.32600 43.27900
C  45.85100 48.37000 42.67300
C  46.67400 47.34600 42.41500
C  46.09900 50.64400 43.86700
C  44.50600 48.06700 42.30000
O  43.58200 48.87300 42.30400
C  44.54600 46.65100 41.76000
C  43.69700 45.84400 42.61100
O  43.86600 45.59800 43.76900
O  42.70600 45.26000 41.83200
C  41.77900 44.32700 42.40200
H  49.49000 41.69100 41.77600
H  53.82300 46.75600 42.67400
H  48.91700 50.58500 43.89600
H  45.12400 43.55400 41.73000
H  47.12500 41.79300 40.83400
H  45.82500 41.90500 43.18900
H  47.60200 41.59000 43.47800
H  46.57500 40.55000 42.43300
H  46.70500 43.30000 39.21100
H  45.55000 44.59800 39.20200
H  43.69800 42.97500 39.92600
H  44.78700 41.76700 39.35900
H  51.55200 40.98800 41.43700
H  52.59600 40.89800 42.73300
H  53.26300 41.12000 41.08900
H  55.67500 45.71000 42.29000
H  56.56400 44.47600 43.24800
H  55.16100 45.18400 43.94300
H  53.24400 49.41800 42.58500
H  51.49400 50.02100 44.92900
H  54.90500 49.03200 44.08400
H  54.08700 48.02500 45.14000
H  53.81000 49.73500 45.24600
H  51.00300 51.29300 42.25200
H  52.69200 51.42000 42.73600
H  50.90100 52.28800 44.92800
H  50.34200 52.98900 43.44200
H  51.98400 53.27600 43.86900
H  46.59800 51.52500 43.46300
H  46.42200 50.72600 44.90400
H  45.02000 50.79200 43.83100
H  44.02000 46.74800 40.81100
H  41.17400 43.71000 41.73700
H  41.15400 44.98200 43.00900
H  42.33500 43.65700 43.05700

