158

Mg 2.20000 -1.01500 43.79900
C  5.41200 -0.38300 42.88500
C  0.99400 1.68700 42.01800
C  -1.09300 -2.06800 44.37900
C  3.17400 -4.20100 45.13700
N  3.08600 0.25500 42.27700
C  4.48200 0.45100 42.19100
C  4.77100 1.74200 41.35700
C  3.35000 2.31800 41.05900
C  2.40000 1.44200 41.95900
C  3.18400 3.74900 41.40900
C  5.74500 1.55000 40.17400
C  6.91800 2.59600 39.98400
H  6.92700 3.37100 38.62600
N  0.27900 -0.16000 43.38900
C  0.02200 0.99100 42.68100
C  -1.42700 1.21000 42.62500
C  -2.04900 0.17100 43.37200
C  -0.97700 -0.73000 43.77200
C  -2.07300 2.27200 41.83000
C  -3.55900 0.11000 43.61600
O  -4.25500 0.97800 43.06100
C  -4.19900 -0.89600 44.55700
N  1.27200 -2.86000 44.73300
C  -0.10100 -2.97400 44.81000
C  -0.45900 -4.27600 45.63700
C  0.84500 -5.12300 45.60100
C  1.84000 -4.03100 45.10200
C  -1.06100 -3.98000 46.99200
C  0.94000 -6.49900 44.86800
C  -0.05300 -7.61600 45.24400
N  3.94300 -2.10100 44.12800
C  4.16100 -3.33500 44.61600
C  5.56900 -3.59500 44.62100
C  6.16500 -2.40400 44.07400
C  5.06500 -1.56100 43.69300
C  6.29100 -4.94000 45.06000
C  7.42200 -1.68000 43.74000
O  8.64100 -2.02800 43.79500
C  6.90000 -0.25200 43.04600
C  7.27300 1.00300 43.77600
O  6.59800 1.49500 44.69900
O  8.49800 1.53400 43.33100
C  8.85000 2.74800 44.06400
H  0.56400 2.59000 41.58100
H  -2.09500 -2.45800 44.57000
H  3.52900 -5.16900 45.49700
H  5.29000 2.40700 42.04800
H  3.10300 2.14500 40.01100
H  4.10200 4.33400 41.35300
H  3.02100 3.91500 42.47400
H  2.44600 4.14900 40.71400
H  5.01400 1.63800 39.37000
H  6.12900 0.54200 40.32300
H  7.90600 2.14400 40.07900
H  6.84400 3.33900 40.77900
H  -2.98000 1.94300 41.32400
H  -1.48000 2.68800 41.01500
H  -2.41600 3.07500 42.48300
H  -5.16400 -0.56200 44.93500
H  -3.58300 -0.94100 45.45600
H  -4.33200 -1.83400 44.01800
H  -1.27100 -4.78900 45.12000
H  0.96600 -5.30400 46.66900
H  -1.39200 -2.94200 46.96100
H  -0.32800 -4.18100 47.77300
H  -1.90100 -4.62900 47.23800
H  1.97100 -6.83100 44.99400
H  0.79600 -6.39900 43.79200
H  -0.45000 -7.98900 44.29900
H  -0.69900 -7.43900 46.10400
H  0.56600 -8.40900 45.66200
H  5.94800 -5.23800 46.05100
H  7.34700 -4.72300 45.21900
H  6.16600 -5.58200 44.18800
H  7.26700 -0.13600 42.02600
H  9.69100 3.26400 43.60100
H  9.04100 2.48900 45.10600
H  8.07700 3.51300 44.13800
Mg 17.49500 -1.04300 26.89500
C  16.57200 0.82000 29.77000
C  19.69900 -2.91700 29.04400
C  18.92300 -2.44100 24.20500
C  15.52100 0.86400 24.99400
N  18.13000 -0.97600 29.16100
C  17.54500 -0.17600 30.11500
C  17.91900 -0.61600 31.53700
C  19.04300 -1.75100 31.22800
C  18.95000 -1.92400 29.71500
C  20.42500 -1.32100 31.79400
C  16.70000 -1.12800 32.32800
C  16.30900 -0.42300 33.69200
H  17.39100 0.22700 34.50700
N  19.10000 -2.41200 26.62600
C  19.81900 -3.05900 27.63900
C  20.73200 -3.99400 26.98300
C  20.39400 -4.04100 25.59700
C  19.46400 -2.89500 25.38000
C  21.66900 -4.91000 27.63000
C  20.85700 -5.04800 24.46000
O  20.22000 -5.09000 23.41400
C  22.07400 -6.01600 24.62500
N  17.20000 -0.97500 24.93700
C  17.87500 -1.60600 23.99100
C  17.30600 -1.33500 22.59600
C  16.16600 -0.32700 22.90700
C  16.25100 -0.12900 24.39200
C  18.34900 -0.97900 21.42900
C  14.72400 -0.81100 22.45300
C  13.83000 -1.64100 23.35000
N  16.35800 0.57700 27.22500
C  15.58600 1.28100 26.31500
C  14.85500 2.32900 26.98100
C  15.23400 2.14100 28.36700
C  16.13700 1.06800 28.41700
C  14.00700 3.47900 26.31400
C  14.97100 2.61800 29.66200
O  14.25700 3.53400 30.06600
C  15.86300 1.82400 30.71100
C  16.69800 2.87300 31.40500
O  17.87000 3.19800 31.21000
O  15.87900 3.35400 32.44900
C  16.44700 4.37600 33.35500
H  20.33800 -3.55100 29.66300
H  19.25500 -2.98900 23.32100
H  14.86400 1.25200 24.21200
H  18.40700 0.24400 31.99700
H  18.81100 -2.75200 31.59000
H  20.53500 -2.01700 32.62600
H  20.46100 -0.27000 32.08300
H  21.14500 -1.52300 31.00200
H  16.79100 -2.19100 32.55300
H  15.81500 -0.94400 31.71900
H  15.73500 -1.09300 34.33300
H  15.60600 0.39800 33.55200
H  21.39600 -5.86600 27.18300
H  21.61000 -4.95100 28.71700
H  22.69600 -4.69000 27.34000
H  22.49000 -6.17200 23.63000
H  21.85200 -6.93500 25.16700
H  22.83600 -5.45700 25.16900
H  16.81700 -2.25200 22.26800
H  16.24700 0.65600 22.44400
H  19.35800 -0.80500 21.80100
H  17.93400 -0.21700 20.77000
H  18.52000 -1.81800 20.75500
H  14.94300 -1.45400 21.60000
H  14.30500 0.13500 22.11000
H  12.99300 -0.97700 23.56600
H  14.31200 -1.96100 24.27400
H  13.34900 -2.48100 22.85000
H  14.53800 3.91700 25.46900
H  13.82700 4.17000 27.13700
H  13.05300 3.00400 26.08200
H  15.36000 1.27700 31.50900
H  16.42100 4.24600 34.43700
H  15.72400 5.17400 33.18500
H  17.42200 4.73300 33.02300

