158

Mg 25.49600 0.68900 29.27800
C  27.14700 0.54200 32.39600
C  22.54800 1.43800 30.92400
C  23.80000 0.56700 26.37300
C  28.28300 -0.35000 27.53600
N  24.96400 0.98900 31.51800
C  25.78000 0.84800 32.60300
C  25.03200 1.27500 33.82600
C  23.54400 1.39600 33.35900
C  23.63100 1.23400 31.83300
C  22.59100 0.30800 33.91300
C  25.59700 2.65000 34.45100
C  26.19500 2.50400 35.88100
H  25.53700 3.31900 37.02800
N  23.50000 0.97700 28.65900
C  22.43700 1.23500 29.49900
C  21.27100 1.20200 28.71900
C  21.69400 1.05300 27.36700
C  23.05500 0.87000 27.39600
C  19.89500 1.27000 29.40400
C  20.71400 1.13900 26.19500
O  20.95400 0.74700 25.04500
C  19.24100 1.61000 26.37200
N  26.06400 0.10900 27.19900
C  25.12600 0.19000 26.29300
C  25.74800 -0.24300 24.92700
C  27.33100 -0.42300 25.18700
C  27.28100 -0.15900 26.66700
C  25.08600 -1.52600 24.32300
C  28.37400 0.41400 24.40200
C  28.00200 1.86200 23.97500
N  27.26200 0.08900 29.80700
C  28.35900 -0.22500 28.97800
C  29.51300 -0.46700 29.86600
C  29.13100 -0.12100 31.17400
C  27.73900 0.18000 31.11100
C  30.92300 -0.71600 29.33300
C  29.52900 -0.06700 32.55500
O  30.62800 -0.33800 33.04400
C  28.28500 0.44100 33.42000
C  28.12300 -0.46000 34.58100
O  27.43000 -1.46800 34.53400
O  28.81300 -0.04700 35.64800
C  28.70500 -0.71800 36.92100
H  21.64600 1.51200 31.53400
H  23.34100 0.51700 25.38300
H  29.25800 -0.67300 27.16500
H  25.14500 0.47700 34.55900
H  23.13200 2.34900 33.68800
H  23.10400 -0.38100 34.58400
H  22.29100 -0.30800 33.06500
H  21.79500 0.79200 34.47900
H  24.73800 3.31400 34.54700
H  26.33100 3.13400 33.80700
H  27.22400 2.86400 35.87100
H  26.24500 1.46100 36.19400
H  19.38200 2.17100 29.06700
H  19.83300 1.31300 30.49100
H  19.27900 0.41100 29.13700
H  18.63000 1.07800 27.10100
H  18.68000 1.58800 25.43700
H  19.22800 2.64600 26.70800
H  25.50800 0.52200 24.18800
H  27.70400 -1.43300 25.01800
H  24.02100 -1.33700 24.45800
H  25.28500 -2.50400 24.75900
H  25.26400 -1.55900 23.24800
H  28.53500 -0.14500 23.48100
H  29.28900 0.35900 24.99200
H  28.76000 2.49300 24.43800
H  27.03800 2.17600 24.37600
H  28.01500 2.12400 22.91700
H  31.13100 -0.06300 28.48600
H  31.03400 -1.77100 29.08400
H  31.58900 -0.50400 30.17000
H  28.53400 1.43800 33.78400
H  27.86600 -1.41300 36.91100
H  28.22600 -0.01300 37.60100
H  29.63100 -1.16200 37.28800
Mg 9.14600 47.89500 27.48900
C  7.08400 47.34500 30.28300
C  11.54700 48.91400 29.66000
C  11.12700 48.53800 24.88800
C  6.52200 47.28700 25.46100
N  9.27000 48.13300 29.70800
C  8.35700 47.69600 30.67900
C  8.95700 47.97400 32.07200
C  10.32500 48.65100 31.83300
C  10.38100 48.65600 30.28900
C  10.61400 50.03800 32.53200
C  8.93300 46.72100 33.09000
C  9.87600 46.60100 34.28900
H  9.28600 45.96700 35.61200
N  11.11000 48.68000 27.25800
C  11.94300 48.87900 28.26300
C  13.30600 49.10200 27.74800
C  13.20900 49.10500 26.31600
C  11.78800 48.75800 26.04900
C  14.48200 49.39300 28.59100
C  14.24900 49.37500 25.29000
O  13.99200 49.37500 24.10800
C  15.65000 49.51300 25.72600
N  8.85900 47.96200 25.48900
C  9.84200 48.07200 24.62900
C  9.49400 47.59100 23.20100
C  7.91900 47.33700 23.40500
C  7.77300 47.48300 24.90400
C  9.79200 48.66500 22.09100
C  7.38700 46.08300 22.71800
C  5.94400 46.08200 22.07800
N  7.14200 47.39600 27.71400
C  6.12700 47.24700 26.78700
C  4.82100 47.06100 27.45500
C  5.14800 47.05100 28.86700
C  6.57300 47.27200 28.94700
C  3.52700 46.87600 26.90300
C  4.62600 46.85300 30.21000
O  3.53900 46.65600 30.68100
C  5.85700 47.00300 31.18100
C  5.97600 45.80200 31.97600
O  6.66100 44.86800 31.68000
O  5.41000 45.94400 33.21100
C  5.49800 44.76700 34.15400
H  12.33400 49.26500 30.33000
H  11.71300 48.51500 23.96700
H  5.61900 47.23600 24.84900
H  8.26200 48.73200 32.43500
H  10.99500 47.85700 32.16300
H  10.85100 50.71300 31.70900
H  11.50100 50.09700 33.16400
H  9.85700 50.34200 33.25500
H  9.08600 45.77400 32.57400
H  7.88600 46.71400 33.39600
H  10.13600 47.62200 34.56500
H  10.62300 45.83500 34.08000
H  15.36100 48.78400 28.37900
H  14.09600 49.24700 29.60000
H  14.64400 50.46000 28.43200
H  15.66000 50.40700 26.35000
H  16.29100 49.46700 24.84600
H  15.98000 48.61000 26.24000
H  10.03700 46.67300 22.97500
H  7.38100 48.13300 22.89100
H  10.75300 48.45100 21.62200
H  9.90400 49.64200 22.56200
H  9.02200 48.85600 21.34400
H  7.42600 45.30000 23.47600
H  8.03300 45.74500 21.90800
H  5.33200 45.27300 22.47800
H  5.98400 45.94100 20.99800
H  5.48600 47.01900 22.39400
H  2.74900 47.15800 27.61200
H  3.39300 45.82400 26.64700
H  3.44000 47.34400 25.92200
H  5.62400 47.79600 31.89200
H  6.14600 43.92700 33.90300
H  4.51400 44.41600 34.46400
H  6.02100 45.20500 35.00400

