158

Mg 24.23600 -5.83700 46.16600
C  26.21900 -3.18600 44.86500
C  21.75200 -4.93700 44.12600
C  22.77600 -8.80000 47.00200
C  27.13600 -6.72600 48.05400
N  24.11200 -4.21700 44.68900
C  24.97200 -3.23500 44.39800
C  24.23800 -2.18700 43.47100
C  22.71700 -2.62000 43.53200
C  22.87800 -4.03800 44.11300
C  21.71900 -1.72200 44.30600
C  24.79900 -2.18200 41.96500
C  25.28800 -0.80700 41.41200
H  25.10900 -0.61700 39.94600
N  22.49300 -6.76000 45.52900
C  21.61100 -6.20100 44.75700
C  20.40500 -7.12700 44.60900
C  20.72600 -8.23900 45.44600
C  22.06500 -7.97700 46.07100
C  19.19200 -6.92600 43.76600
C  19.91100 -9.45600 45.83500
O  18.80000 -9.47800 45.30700
C  20.31100 -10.53900 46.86600
N  24.82200 -7.52500 47.36500
C  24.09000 -8.64700 47.52700
C  24.74600 -9.65200 48.49400
C  26.19400 -9.06000 48.75800
C  26.04600 -7.62800 48.08400
C  23.91500 -10.19600 49.67300
C  27.35900 -9.90200 48.10600
C  28.68300 -9.69100 48.89800
N  26.27200 -5.13600 46.42600
C  27.30800 -5.55400 47.24200
C  28.44400 -4.65700 47.12600
C  28.03900 -3.70500 46.21800
C  26.73500 -4.04400 45.82200
C  29.74700 -4.76100 48.04500
C  28.46700 -2.46900 45.59400
O  29.46700 -1.79400 45.70800
C  27.31300 -2.14300 44.67800
C  26.75400 -0.75400 44.91700
O  26.03300 -0.44100 45.83300
O  27.33300 0.09200 44.04400
C  27.18200 1.53400 44.29600
H  20.83900 -4.72700 43.56500
H  22.49200 -9.78300 47.38400
H  27.97200 -7.08900 48.65600
H  24.20900 -1.22800 43.98800
H  22.28700 -2.69400 42.53300
H  20.92000 -1.35200 43.66400
H  22.14600 -0.85100 44.80400
H  21.27300 -2.33600 45.08900
H  24.08700 -2.57900 41.24100
H  25.67700 -2.82600 41.93600
H  26.36000 -0.73900 41.60100
H  24.67200 -0.02400 41.85400
H  18.37300 -6.45800 44.31100
H  18.75800 -7.83300 43.34600
H  19.44600 -6.14000 43.05500
H  19.44800 -11.14500 47.14300
H  20.43300 -9.92700 47.76000
H  21.22700 -11.03500 46.54200
H  24.83400 -10.48600 47.79700
H  26.39500 -8.87400 49.81300
H  22.87700 -9.86300 49.68600
H  24.38600 -9.86500 50.59800
H  23.91200 -11.28400 49.61300
H  27.46000 -9.48500 47.10300
H  27.03900 -10.94000 48.02400
H  29.10900 -10.69300 48.95600
H  28.48000 -9.31800 49.90200
H  29.36300 -9.14500 48.24400
H  30.12700 -3.76800 48.28500
H  30.57900 -5.31900 47.61400
H  29.44800 -5.22100 48.98700
H  27.72500 -2.04400 43.67300
H  26.14000 1.80900 44.13300
H  27.90700 2.01400 43.63900
H  27.41800 1.74200 45.33900
Mg 40.39600 9.24500 29.76400
C  41.96700 10.85400 32.21000
C  38.17700 7.89900 31.93500
C  38.78200 7.99600 27.10800
C  42.94000 10.22400 27.49100
N  40.22700 9.29900 31.90400
C  40.87700 10.15700 32.70800
C  40.39700 9.98600 34.13300
C  39.26700 8.91600 34.05400
C  39.19000 8.65300 32.54300
C  39.43400 7.58200 34.74600
C  40.04200 11.39500 34.71200
C  39.23200 11.50800 35.96400
H  39.67800 12.41900 37.06100
N  38.66500 8.15300 29.51800
C  37.86700 7.66300 30.61100
C  36.72000 6.96700 30.02000
C  36.84900 7.06200 28.58900
C  38.14400 7.71400 28.38300
C  35.50200 6.46500 30.88300
C  35.82600 6.71600 27.46900
O  36.07700 6.63000 26.27800
C  34.41100 6.41700 27.91600
N  40.91200 9.00500 27.66200
C  40.00700 8.47900 26.78900
C  40.49100 8.52100 25.29000
C  41.97200 9.12300 25.42500
C  41.90800 9.49800 26.92800
C  40.37900 7.27300 24.41100
C  42.28200 10.29000 24.40600
C  41.85200 11.74900 24.62800
N  42.13000 10.25900 29.74000
C  43.05800 10.67300 28.81200
C  44.07500 11.44000 29.42200
C  43.74500 11.50200 30.74400
C  42.51800 10.85200 30.86000
C  45.39200 11.92700 28.73800
C  44.12500 12.05900 32.02800
O  45.10700 12.68300 32.39000
C  42.92600 11.69400 33.09600
C  43.58400 10.95300 34.19300
O  43.99000 9.82100 34.17200
O  43.65500 11.79800 35.24900
C  44.03400 11.14500 36.54400
H  37.58800 7.49800 32.76200
H  38.21200 7.70300 26.22400
H  43.65200 10.64900 26.78100
H  41.24400 9.61100 34.70700
H  38.31600 9.40700 34.26100
H  38.45700 7.39700 35.19100
H  40.24600 7.63300 35.47100
H  39.76800 6.74800 34.12800
H  39.50100 11.90900 33.91700
H  40.95200 11.99300 34.75700
H  39.16000 10.55300 36.48500
H  38.25000 11.89100 35.68800
H  35.69600 6.51100 31.95500
H  35.31000 5.47600 30.46800
H  34.67500 7.13400 30.64700
H  33.96600 7.15900 28.58000
H  34.24300 5.47400 28.43700
H  33.82500 6.44300 26.99700
H  39.84100 9.22500 24.77000
H  42.67000 8.28900 25.49000
H  41.34500 6.77400 24.48600
H  40.18100 7.58500 23.38500
H  39.55600 6.60400 24.66000
H  41.72800 10.08000 23.49100
H  43.35300 10.40000 24.23300
H  41.24700 12.07700 23.78300
H  42.73200 12.39100 24.65200
H  41.22600 11.76900 25.52100
H  46.24000 11.92300 29.42300
H  45.37800 12.94900 28.35900
H  45.64300 11.31700 27.87000
H  42.59200 12.70400 33.33300
H  43.24000 11.34900 37.26300
H  44.98600 11.54100 36.89700
H  44.16400 10.06400 36.58400

