158

Mg 42.28200 41.63000 26.35400
C  41.39400 43.97300 28.74500
C  43.52400 39.61200 28.98400
C  43.11000 39.30800 24.03900
C  41.53200 43.86100 23.84600
N  42.52900 41.78100 28.57500
C  41.87700 42.78000 29.30400
C  41.82500 42.48100 30.80700
C  42.69900 41.19400 30.80500
C  42.99800 40.82400 29.39300
C  44.05800 41.34300 31.60100
C  40.26500 42.32500 31.39400
C  40.15800 42.69800 32.91400
H  39.68000 41.73100 33.91000
N  43.12400 39.68700 26.46500
C  43.59600 39.10000 27.62500
C  44.11300 37.77000 27.22000
C  43.88900 37.60100 25.86500
C  43.37200 38.90800 25.39500
C  44.80700 36.88600 28.23500
C  44.02800 36.33000 24.99600
O  43.94500 36.38900 23.74300
C  44.51600 35.03400 25.63500
N  42.36000 41.59400 24.28300
C  42.65300 40.50800 23.54900
C  42.46900 40.72600 22.07900
C  41.96500 42.18700 22.04700
C  41.87300 42.61300 23.47000
C  43.80700 40.45900 21.38300
C  40.77200 42.49700 21.09800
C  41.12700 42.44400 19.59000
N  41.63700 43.56000 26.24300
C  41.35600 44.33600 25.14400
C  40.84100 45.59700 25.57300
C  40.81200 45.56800 27.04100
C  41.31300 44.25700 27.36300
C  40.35300 46.71200 24.66000
C  40.42400 46.23000 28.23400
O  39.89000 47.32600 28.41700
C  40.81800 45.20300 29.40700
C  41.58100 45.79300 30.58000
O  42.81400 45.77800 30.75700
O  40.64600 46.31400 31.46000
C  41.18700 46.80100 32.73200
H  43.65000 38.85600 29.76200
H  43.27700 38.52700 23.29400
H  41.22800 44.53300 23.04000
H  42.26100 43.25900 31.43400
H  42.08200 40.45800 31.32000
H  44.20600 42.28400 32.13200
H  44.87800 41.26100 30.88700
H  44.29800 40.61400 32.37500
H  39.84900 41.34100 31.17700
H  39.67700 42.92800 30.70200
H  39.33400 43.41000 32.97000
H  41.03500 43.15600 33.37100
H  45.34300 36.01400 27.85900
H  44.04100 36.40500 28.84200
H  45.55300 37.51100 28.72600
H  44.06300 34.33500 24.93200
H  43.98800 34.92900 26.58300
H  45.59700 34.95000 25.74000
H  41.68100 40.03400 21.78300
H  42.67700 42.84200 21.54400
H  43.58400 39.74000 20.59500
H  44.55900 39.98900 22.01800
H  44.17800 41.36800 20.91100
H  40.44000 43.52000 21.27200
H  39.98100 41.79200 21.35400
H  42.21400 42.36900 19.54700
H  40.75900 43.35200 19.11400
H  40.71400 41.59500 19.04600
H  39.37700 46.92500 25.09600
H  40.22300 46.36600 23.63400
H  41.04900 47.55000 24.65800
H  39.86000 45.03400 29.89800
H  42.03300 47.45100 32.50700
H  41.64400 46.10300 33.43400
H  40.43000 47.48400 33.11800
Mg 36.27000 49.20600 25.40300
C  36.30700 47.11300 28.20700
C  35.07000 51.67300 27.41500
C  35.80900 50.87100 22.63100
C  36.91900 46.26900 23.45600
N  35.55500 49.35900 27.51300
C  35.90600 48.39900 28.48700
C  35.71300 48.96300 29.90100
C  35.15100 50.38600 29.57500
C  35.34300 50.52900 28.06400
C  33.69000 50.60800 29.98800
C  36.98200 49.00500 30.82800
C  36.86800 48.39100 32.26900
H  36.87800 49.45800 33.35100
N  35.51100 51.02000 25.10300
C  35.22300 51.95200 26.02500
C  35.19600 53.24200 25.42900
C  35.23800 52.97300 23.98100
C  35.53500 51.55000 23.81700
C  34.92300 54.45400 26.32300
C  34.93600 53.87500 22.80100
O  34.85500 53.57500 21.60200
C  34.74800 55.46200 23.08000
N  36.33800 48.67900 23.28500
C  36.13000 49.54900 22.38000
C  36.23500 48.91800 20.91500
C  36.76000 47.46700 21.26100
C  36.73700 47.46000 22.79500
C  34.96400 48.89000 20.01500
C  38.05400 47.00900 20.57200
C  38.02200 46.00100 19.42800
N  36.55300 47.12600 25.68400
C  36.91700 46.10500 24.84600
C  37.20100 44.91900 25.52500
C  36.99900 45.27200 26.86000
C  36.56900 46.63600 26.92600
C  37.66700 43.62500 24.97000
C  37.02400 44.86800 28.23900
O  37.12300 43.76600 28.75500
C  36.67800 46.02100 29.13100
C  35.54400 45.67200 30.00000
O  34.34700 45.71000 29.65600
O  35.90800 45.26700 31.24600
C  34.93700 44.64500 32.11500
H  34.64500 52.44600 28.05900
H  35.72500 51.45800 21.71400
H  36.93400 45.39200 22.80600
H  34.98600 48.34500 30.42900
H  35.67100 51.18800 30.09900
H  33.50300 49.97500 30.85500
H  32.88300 50.45100 29.27300
H  33.46100 51.63500 30.27200
H  37.37600 50.01700 30.92000
H  37.73900 48.37000 30.37000
H  37.71000 47.73200 32.47800
H  35.93200 47.84300 32.37700
H  35.02600 55.36000 25.72500
H  35.65800 54.52300 27.12500
H  33.89700 54.41000 26.68800
H  33.92900 55.66600 23.77000
H  34.33700 55.73800 22.10900
H  35.64100 55.99100 23.41500
H  37.00100 49.49600 20.39800
H  35.96600 46.79400 20.93900
H  35.07800 49.81700 19.45300
H  34.20000 49.08100 20.76900
H  34.77000 48.09300 19.29700
H  38.83300 46.72100 21.27800
H  38.49200 47.93300 20.19500
H  37.04400 45.51900 19.41600
H  38.75500 45.20700 19.57300
H  38.27800 46.44100 18.46500
H  38.59800 43.27300 25.41600
H  37.72100 43.56300 23.88300
H  36.96300 42.81800 25.17300
H  37.63200 46.28000 29.59200
H  34.09700 45.23900 32.47700
H  35.46900 44.34900 33.01900
H  34.43100 43.86900 31.54100

