158

Mg 53.69500 23.91800 44.65500
C  51.40200 26.46000 43.54800
C  51.50300 21.58900 43.36400
C  56.15800 21.59000 44.96700
C  55.89800 26.41100 45.64500
N  51.79700 24.07100 43.37700
C  51.01600 25.16700 43.15200
C  49.63700 24.73900 42.54300
C  49.52700 23.28200 43.20100
C  51.01200 22.89800 43.26700
C  48.76900 23.33800 44.62700
C  49.66900 24.70900 41.01200
C  50.92000 25.03100 40.21100
H  50.79900 25.59500 38.81500
N  53.84900 21.85600 44.10900
C  52.83300 21.06200 43.61400
C  53.25500 19.64300 43.47900
C  54.67800 19.64900 43.80200
C  54.99500 21.08500 44.35300
C  52.31900 18.53100 43.03700
C  55.59600 18.47300 43.63200
O  55.21400 17.38900 43.17300
C  57.07700 18.62800 43.86900
N  55.73100 23.92800 45.27300
C  56.50300 22.83300 45.36100
C  58.00400 23.20000 45.67100
C  57.88300 24.78300 45.94100
C  56.38500 25.09900 45.61800
C  58.62500 22.32700 46.73900
C  58.94200 25.65600 45.18200
C  59.63600 26.71100 46.03500
N  53.69600 26.01500 44.74600
C  54.63000 26.86600 45.26200
C  54.12900 28.19000 45.13600
C  52.90700 28.08100 44.54400
C  52.64700 26.69700 44.26200
C  54.59900 29.30500 45.87300
C  51.69000 28.80400 44.17600
O  51.40700 30.00400 44.22600
C  50.63600 27.73800 43.55200
C  50.13900 28.25000 42.28500
O  50.75300 28.55100 41.29100
O  48.78800 28.31500 42.35000
C  48.16300 28.70900 41.08900
H  50.68300 20.93900 43.05000
H  56.94300 20.83700 45.06200
H  56.50500 27.21800 46.06000
H  48.87300 25.42400 42.91100
H  49.06300 22.64700 42.44600
H  47.92400 22.66100 44.75400
H  48.29100 24.30200 44.80200
H  49.60800 23.23300 45.31500
H  48.90700 25.45900 40.80000
H  49.18300 23.83800 40.57300
H  51.54700 24.14000 40.23500
H  51.46900 25.77300 40.79100
H  51.32000 18.93200 42.86500
H  52.37100 17.80000 43.84300
H  52.60500 18.25600 42.02200
H  57.26000 18.67500 44.94200
H  57.51100 19.46900 43.32900
H  57.61900 17.90400 43.26000
H  58.60000 23.02000 44.77600
H  58.14600 24.84800 46.99700
H  58.11600 21.36500 46.78800
H  58.77500 22.82200 47.69900
H  59.63700 22.17800 46.36100
H  58.46400 26.06300 44.29100
H  59.75600 25.04200 44.79700
H  59.21800 26.79600 47.03800
H  59.53000 27.65100 45.49300
H  60.68400 26.41300 46.05700
H  55.35600 29.91300 45.37600
H  54.98600 28.97000 46.83500
H  53.73600 29.94200 46.06500
H  49.87800 27.68500 44.33300
H  48.35000 29.73400 40.77100
H  47.08200 28.61500 41.18900
H  48.42200 28.09300 40.22800
Mg 46.85200 25.09500 28.75700
C  47.71800 27.27700 31.33700
C  45.87200 22.83200 31.07800
C  46.58500 22.87900 26.33900
C  48.60000 27.26200 26.50400
N  46.83900 25.07600 30.93700
C  47.25200 26.06400 31.77500
C  46.93700 25.66600 33.22600
C  46.61100 24.16000 33.09100
C  46.37500 24.00400 31.62300
C  47.60900 23.09900 33.75500
C  45.89400 26.66900 33.81300
C  46.37700 27.45600 35.07100
H  45.44700 27.28500 36.23800
N  46.20600 23.13000 28.69900
C  45.78400 22.39300 29.73800
C  45.20400 21.15600 29.23800
C  45.53400 21.07700 27.87900
C  46.22500 22.38700 27.56700
C  44.65600 20.05400 30.19000
C  45.17900 19.92000 26.85700
O  45.46500 20.03000 25.66100
C  44.61300 18.69500 27.30100
N  47.45600 25.12700 26.69100
C  47.17700 24.06800 25.93200
C  47.59800 24.32600 24.46600
C  48.07300 25.74700 24.48900
C  48.04500 26.10000 25.96500
C  48.51500 23.25000 23.80500
C  47.24400 26.70800 23.49700
C  45.89500 27.13400 24.18900
N  47.78900 27.01300 28.82500
C  48.56900 27.67500 27.87000
C  49.11100 28.91400 28.50500
C  48.81200 28.78100 29.85400
C  48.01900 27.62800 29.96500
C  49.89500 29.99300 27.81400
C  49.03200 29.42400 31.12400
O  49.74300 30.37400 31.40000
C  48.30300 28.49000 32.18400
C  49.28300 28.04100 33.27800
O  49.88300 26.99100 33.23100
O  49.24300 28.89900 34.35800
C  50.15300 28.60200 35.52000
H  45.62300 22.11500 31.86300
H  46.49400 22.21900 25.47400
H  49.11600 28.00200 25.88900
H  47.80300 25.75500 33.88200
H  45.63800 23.92700 33.52300
H  47.27300 22.52800 34.62100
H  48.48400 23.62200 34.13900
H  47.75300 22.32200 33.00400
H  44.99600 26.16800 34.17500
H  45.65600 27.39400 33.03500
H  46.26300 28.51600 34.84600
H  47.39800 27.20400 35.35700
H  45.34200 19.20700 30.18800
H  43.78400 19.57000 29.74900
H  44.51300 20.27300 31.24800
H  43.64900 18.77600 27.80300
H  45.33000 18.18900 27.94700
H  44.66800 17.96700 26.49100
H  46.61100 24.40200 24.01000
H  49.10900 25.69100 24.15600
H  47.92900 22.75800 23.03000
H  48.91200 22.49500 24.48400
H  49.41500 23.58000 23.28700
H  46.95600 26.17600 22.59000
H  47.83200 27.53600 23.10100
H  45.03800 26.83500 23.58500
H  45.78800 28.21600 24.26000
H  45.68500 26.62000 25.12700
H  50.42700 29.58800 26.95300
H  50.66900 30.25800 28.53400
H  49.12600 30.71600 27.54000
H  47.51000 29.08800 32.63400
H  50.65400 29.56300 35.62900
H  50.96500 27.88800 35.37800
H  49.52100 28.43500 36.39300

