158

Mg 0.38100 8.13100 25.54200
C  1.38800 10.11800 28.08800
C  0.89100 5.41200 27.54700
C  -0.14100 6.18000 22.82000
C  0.67500 10.85000 23.40700
N  1.26200 7.77500 27.53900
C  1.28600 8.74100 28.44700
C  1.42600 8.17000 29.84900
C  1.45000 6.64700 29.67600
C  1.12200 6.60700 28.18600
C  2.80600 5.98300 30.01900
C  0.26700 8.58100 30.73300
C  0.41600 8.28400 32.23100
H  1.64300 7.54700 32.74700
N  0.35900 6.10100 25.22700
C  0.63800 5.08800 26.24600
C  0.40400 3.71800 25.74400
C  -0.02700 3.93800 24.34500
C  0.01000 5.44300 24.03700
C  0.43400 2.38000 26.51000
C  -0.41700 2.94500 23.19100
O  -0.73100 3.36100 22.10600
C  -0.50600 1.48500 23.44700
N  0.31900 8.47200 23.38200
C  0.02200 7.52800 22.44600
C  -0.10900 8.11800 20.98700
C  0.17700 9.59800 21.23800
C  0.40700 9.72400 22.79300
C  0.86100 7.45000 19.92900
C  -0.97800 10.55500 20.78600
C  -2.20300 10.51100 21.79000
N  0.95500 10.11300 25.65500
C  0.86200 11.08800 24.75200
C  1.17900 12.36400 25.38200
C  1.26800 12.03500 26.78900
C  1.21700 10.62900 26.82500
C  1.32700 13.65800 24.74000
C  1.65900 12.54300 28.08600
O  2.00300 13.66500 28.47900
C  1.69800 11.33000 28.99100
C  3.04300 11.31300 29.63700
O  3.97100 10.55300 29.36800
O  2.98600 12.11600 30.65800
C  4.00000 11.96800 31.68800
H  0.87500 4.54600 28.21200
H  -0.33700 5.50500 21.98400
H  0.81400 11.77200 22.83900
H  2.27800 8.68300 30.29400
H  0.71500 6.12700 30.29000
H  3.52800 6.74600 30.30800
H  3.16900 5.59300 29.06800
H  2.74100 5.21000 30.78400
H  -0.59200 8.02200 30.36200
H  0.11000 9.65400 30.62400
H  -0.38800 7.60800 32.52200
H  0.36600 9.13000 32.91600
H  -0.43200 1.76400 26.26800
H  0.26700 2.38100 27.58700
H  1.33100 1.82400 26.23500
H  -1.37500 1.16300 24.02100
H  0.33100 1.13500 24.05100
H  -0.41800 0.96300 22.49400
H  -1.09600 7.84200 20.61600
H  1.05000 9.89200 20.65500
H  1.70800 6.94400 20.39300
H  1.15400 8.24200 19.24000
H  0.35400 6.65400 19.38300
H  -1.19200 10.26300 19.75800
H  -0.67800 11.60100 20.84800
H  -2.29100 11.35200 22.47700
H  -2.13200 9.54200 22.28400
H  -3.11600 10.46600 21.19600
H  0.39200 14.21300 24.68200
H  1.72200 13.39600 23.75800
H  1.94500 14.37500 25.28000
H  0.92700 11.63900 29.69700
H  4.91600 12.14300 31.12400
H  3.96100 10.94100 32.05000
H  3.78500 12.62100 32.53500
Mg 40.75000 9.00800 29.32000
C  42.64800 10.26800 32.14900
C  38.52500 7.89200 31.62300
C  38.96800 7.91700 26.88200
C  43.43900 9.89900 27.30800
N  40.70000 9.04400 31.63900
C  41.44400 9.69600 32.56500
C  40.82300 9.58900 33.95700
C  39.56500 8.73300 33.80500
C  39.60400 8.56000 32.22600
C  39.50000 7.44000 34.59400
C  40.53800 10.95000 34.71700
C  39.77000 11.00600 36.03500
H  40.65100 11.33300 37.29000
N  38.95600 8.01900 29.26300
C  38.21000 7.67500 30.33700
C  36.97900 7.00600 29.83300
C  37.07600 7.03800 28.41100
C  38.36500 7.66200 28.09000
C  35.84900 6.38600 30.74500
C  36.08400 6.55000 27.38600
O  36.43800 6.46700 26.21900
C  34.62800 6.12900 27.79800
N  41.19300 8.88900 27.39100
C  40.22300 8.44300 26.53600
C  40.60600 8.65000 25.02400
C  41.99900 9.30100 25.20800
C  42.29100 9.29100 26.75600
C  40.65000 7.36600 24.13700
C  42.01600 10.66300 24.45600
C  42.06900 11.96200 25.22100
N  42.67800 9.86500 29.59600
C  43.63900 10.21100 28.67800
C  44.70000 10.97400 29.22000
C  44.37500 11.00000 30.62800
C  43.08200 10.43200 30.78100
C  45.84000 11.52500 28.45100
C  44.82500 11.42800 32.04200
O  45.86300 11.98500 32.39600
C  43.62300 11.04200 33.03600
C  44.16900 10.29100 34.21900
O  44.24300 9.09700 34.37400
O  44.63100 11.21000 35.12500
C  45.24800 10.59800 36.34200
H  37.72400 7.70600 32.34100
H  38.44900 7.65100 25.95900
H  44.23200 10.19600 26.61900
H  41.56600 9.01200 34.50700
H  38.69600 9.35200 34.02500
H  40.45900 7.24200 35.07400
H  39.31900 6.66700 33.84700
H  38.69000 7.45900 35.32300
H  39.98600 11.60900 34.04600
H  41.56900 11.24300 34.91300
H  39.19400 10.10300 36.23900
H  39.10700 11.86000 35.90100
H  34.97200 6.98300 30.49600
H  36.14900 6.38900 31.79300
H  35.69600 5.37900 30.35700
H  34.03400 5.88900 26.91500
H  34.14200 6.94700 28.33000
H  34.65500 5.30200 28.50700
H  39.88800 9.39000 24.66900
H  42.75400 8.69500 24.70700
H  39.92300 7.41700 23.32700
H  40.38600 6.53900 24.79600
H  41.66200 7.24300 23.74900
H  41.16800 10.64900 23.77200
H  42.93800 10.62800 23.87500
H  41.38800 11.96700 26.07200
H  41.68300 12.66400 24.48200
H  43.08800 12.27300 25.44800
H  46.20500 12.35900 29.05000
H  45.44300 11.76000 27.46400
H  46.65300 10.82300 28.26700
H  43.15100 11.92300 33.47100
H  44.59600 10.09800 37.05900
H  45.71900 11.45800 36.81800
H  46.06800 9.92700 36.08700

