158

Mg -10.46600 39.93900 42.15800
C  -9.16700 36.65400 41.22200
C  -7.64100 41.28800 40.47500
C  -11.86500 42.88100 42.22200
C  -13.50100 38.34300 42.78900
N  -8.77900 39.07100 40.85700
C  -8.39700 37.75500 40.79400
C  -6.97800 37.64800 40.20900
C  -6.39700 39.09000 40.34800
C  -7.71100 39.90600 40.56000
C  -5.22300 39.39000 41.41900
C  -6.99600 37.08600 38.72300
C  -5.90600 36.00200 38.39500
H  -4.78400 36.23400 37.36200
N  -9.76300 41.84700 41.58600
C  -8.62400 42.21900 40.96400
C  -8.53300 43.69600 40.96300
C  -9.73200 44.13700 41.67400
C  -10.52900 42.92800 41.82400
C  -7.43800 44.44800 40.28500
C  -10.16300 45.55700 41.96000
O  -9.37800 46.47400 41.63200
C  -11.40100 46.07600 42.66500
N  -12.45000 40.57400 42.39200
C  -12.80500 41.87600 42.40100
C  -14.30400 41.99200 42.72500
C  -14.80500 40.53900 42.93200
C  -13.51800 39.72500 42.68400
C  -14.53200 42.89100 43.93300
C  -16.06900 40.17800 42.10600
C  -17.17800 39.39500 42.84400
N  -11.17700 37.89400 42.21300
C  -12.47000 37.41100 42.49600
C  -12.43800 35.93400 42.46900
C  -11.15900 35.62400 41.99900
C  -10.47600 36.77800 41.76900
C  -13.62800 35.06900 42.63600
C  -10.26900 34.55300 41.67000
O  -10.35800 33.33700 41.67000
C  -9.02000 35.21100 41.07200
C  -7.81700 34.72000 41.78000
O  -7.35000 35.22000 42.82100
O  -7.15700 33.75900 40.97100
C  -5.87400 33.17800 41.34800
H  -6.76200 41.72300 39.99400
H  -12.34800 43.85500 42.32400
H  -14.40900 37.76300 42.96800
H  -6.47900 36.98100 40.91300
H  -5.95200 39.23500 39.36300
H  -5.65700 40.01200 42.20100
H  -4.43700 40.00200 40.97700
H  -4.98100 38.36900 41.71400
H  -6.85800 37.88500 37.99400
H  -7.94000 36.61200 38.45400
H  -6.47400 35.10000 38.16600
H  -5.30300 35.78700 39.27600
H  -7.88900 44.80900 39.36100
H  -6.55400 43.83000 40.12600
H  -7.09300 45.39000 40.71100
H  -12.14100 46.09000 41.86500
H  -11.21300 47.02600 43.16500
H  -11.72300 45.43500 43.48700
H  -14.77100 42.45400 41.85600
H  -14.94200 40.34500 43.99600
H  -14.93000 43.86700 43.65600
H  -13.58000 43.03000 44.44600
H  -15.26800 42.50300 44.63800
H  -15.73700 39.70500 41.18300
H  -16.54100 41.10900 41.79100
H  -16.79200 38.81300 43.68100
H  -17.54400 38.68200 42.10500
H  -17.92900 40.11100 43.17400
H  -14.49300 35.56900 43.07000
H  -13.37500 34.20600 43.25200
H  -13.86000 34.66000 41.65200
H  -8.91200 34.94600 40.02000
H  -5.93700 32.39200 42.10100
H  -5.19800 33.88200 41.83300
H  -5.40400 32.83500 40.42600
Mg -0.34400 43.49600 26.91900
C  2.05700 43.26500 29.34800
C  -2.70900 42.31100 29.19300
C  -2.68900 43.46800 24.37400
C  2.16400 44.13800 24.61700
N  -0.31600 42.85500 29.03500
C  0.76600 43.15500 29.86200
C  0.38500 43.15200 31.34600
C  -1.08600 42.55400 31.31300
C  -1.45000 42.61300 29.79700
C  -1.16000 41.07800 31.79900
C  0.45700 44.58600 32.03500
C  0.72100 44.47900 33.49800
H  0.43100 43.30900 34.37200
N  -2.44000 43.00800 26.77400
C  -3.14400 42.45500 27.85800
C  -4.45400 42.03400 27.23400
C  -4.45300 42.48400 25.89100
C  -3.16800 43.05500 25.64700
C  -5.46800 41.34900 28.17400
C  -5.56700 42.20300 24.96600
O  -5.39600 42.43000 23.76500
C  -6.85100 41.44300 25.30200
N  -0.29800 43.66100 24.77600
C  -1.40800 43.72700 23.99400
C  -1.00800 43.97300 22.55400
C  0.46100 44.37400 22.66600
C  0.80600 44.02200 24.12100
C  -1.18200 42.78200 21.53500
C  0.78500 45.82700 22.29100
C  0.24200 46.88900 23.24200
N  1.72800 43.55800 26.87700
C  2.64400 43.75800 25.86600
C  4.00700 43.71400 26.36200
C  3.78500 43.56200 27.76100
C  2.45400 43.49400 28.03700
C  5.25700 43.70800 25.46000
C  4.52100 43.41000 29.01100
O  5.69100 43.44200 29.15400
C  3.40700 43.39500 30.15700
C  3.62100 42.18300 30.99800
O  3.45600 41.04600 30.55100
O  4.21400 42.55400 32.16700
C  4.81100 41.43900 32.98400
H  -3.35100 41.99000 30.01600
H  -3.32300 43.31700 23.49800
H  2.88300 44.55000 23.90600
H  1.10800 42.48900 31.82100
H  -1.74300 43.16800 31.92900
H  -0.35700 40.46600 31.38900
H  -2.09200 40.75900 31.33300
H  -1.14500 40.98100 32.88500
H  -0.51000 45.08000 31.92900
H  1.21100 45.20200 31.54400
H  0.43400 45.43500 33.93400
H  1.80800 44.54800 33.52800
H  -6.39800 41.91500 28.10100
H  -5.24500 41.25400 29.23700
H  -5.67600 40.33500 27.83500
H  -7.37700 42.25700 25.80000
H  -6.66400 40.61600 25.98700
H  -7.38500 41.10000 24.41600
H  -1.69000 44.70000 22.11200
H  1.17200 43.79300 22.07800
H  -2.25600 42.60900 21.60300
H  -0.51500 42.02500 21.94700
H  -0.84500 42.96900 20.51500
H  0.32900 45.94100 21.30800
H  1.85800 45.80700 22.10100
H  -0.60900 47.40000 22.79200
H  1.16100 47.46100 23.36600
H  -0.15900 46.44800 24.15500
H  5.35700 42.77200 24.91000
H  6.10700 43.81000 26.13400
H  5.31300 44.57800 24.80600
H  3.38700 44.36400 30.65500
H  4.41200 40.47500 32.66900
H  4.48500 41.58900 34.01300
H  5.88300 41.42600 32.78600

