158

Mg 46.76800 15.84700 29.10900
C  44.65400 15.32200 31.84200
C  49.00000 17.61400 31.26900
C  48.90900 16.35000 26.53800
C  44.70300 14.11700 27.05600
N  46.75200 16.47800 31.26700
C  45.82900 16.07000 32.16800
C  46.15000 16.56700 33.65500
C  47.36800 17.54700 33.30500
C  47.76200 17.25400 31.79200
C  47.14800 19.07500 33.49900
C  46.46800 15.38700 34.53900
C  45.89900 15.43000 35.95700
H  45.89800 16.66400 36.87200
N  48.64900 16.81100 28.94300
C  49.39600 17.36800 29.91000
C  50.72900 17.68900 29.31800
C  50.65500 17.49500 27.90400
C  49.32200 16.87200 27.74500
C  51.93700 18.03900 30.14700
C  51.73200 17.74300 26.82800
O  51.57800 17.55700 25.62100
C  52.98300 18.44600 27.14000
N  46.63700 15.53900 27.04400
C  47.68100 15.74100 26.23200
C  47.26500 15.29300 24.80600
C  46.13500 14.22600 25.00300
C  45.77100 14.69200 26.43400
C  46.88200 16.49000 23.87500
C  46.66500 12.82700 25.09700
C  46.49100 12.06100 23.76300
N  45.04000 14.92400 29.30600
C  44.22600 14.33800 28.35500
C  43.03000 13.75000 29.01500
C  43.16900 14.22000 30.37600
C  44.36900 14.90400 30.50200
C  41.96300 13.00300 28.38500
C  42.59300 14.14700 31.63900
O  41.63500 13.52600 32.09900
C  43.59700 14.82000 32.64100
C  42.84600 15.78000 33.50800
O  42.51200 16.89400 33.15900
O  42.57700 15.19700 34.70100
C  41.95900 15.92800 35.83100
H  49.73500 18.11400 31.90200
H  49.56100 16.39100 25.66300
H  44.08400 13.33500 26.61200
H  45.28100 17.12300 34.00700
H  48.23300 17.23100 33.88800
H  47.14700 19.56000 32.52300
H  47.91700 19.48900 34.15100
H  46.22900 19.27400 34.05000
H  47.54100 15.32500 34.71900
H  46.19600 14.46000 34.03500
H  46.61600 14.74700 36.41200
H  44.93000 14.93200 35.96600
H  52.73600 17.30400 30.05300
H  51.61000 18.19400 31.17500
H  52.32200 18.96600 29.72300
H  53.45700 18.49200 26.16000
H  53.62000 17.91800 27.84900
H  52.90700 19.47900 27.48100
H  48.18600 14.86400 24.41200
H  45.24900 14.38700 24.38900
H  45.81400 16.48500 23.65400
H  47.40300 16.43700 22.91900
H  47.17100 17.45000 24.30200
H  46.15300 12.29200 25.89700
H  47.70700 12.90300 25.41100
H  46.09400 11.05900 23.92400
H  47.37200 12.11900 23.12400
H  45.75600 12.56800 23.13800
H  42.27000 11.96200 28.48700
H  41.66500 13.31500 27.38400
H  41.12500 13.10000 29.07500
H  44.00900 14.03900 33.28000
H  40.89600 15.68900 35.87100
H  42.00200 17.01700 35.83400
H  42.31400 15.53200 36.78200
Mg 41.44900 40.51400 26.13600
C  40.79700 43.15200 28.50000
C  42.59600 38.65400 28.73500
C  42.39200 38.24200 23.90200
C  41.05600 42.88400 23.59000
N  41.69000 41.00000 28.41900
C  41.12900 41.95600 29.09500
C  41.15500 41.65800 30.56600
C  42.01800 40.34600 30.67300
C  42.13300 39.93000 29.20500
C  43.39700 40.44800 31.39800
C  39.72400 41.81500 31.33400
C  39.55800 40.99900 32.66200
H  38.74600 41.68000 33.80200
N  42.25600 38.68900 26.35500
C  42.74600 38.09100 27.48300
C  43.20700 36.71600 27.17800
C  43.17200 36.56900 25.75000
C  42.52400 37.88500 25.28000
C  43.54800 35.75000 28.23800
C  43.75800 35.45100 24.96300
O  43.94400 35.59000 23.81700
C  44.26500 34.25400 25.60700
N  41.91400 40.66600 23.98600
C  42.16800 39.49200 23.34100
C  42.20800 39.75000 21.80000
C  41.56500 41.20500 21.68800
C  41.43300 41.58800 23.12900
C  43.63100 39.45200 21.15000
C  40.29800 41.36100 20.81300
C  38.96100 41.16600 21.53500
N  40.96100 42.56600 26.04600
C  40.91200 43.41200 24.90900
C  40.52900 44.71900 25.31100
C  40.51000 44.68700 26.73500
C  40.76600 43.34600 27.06600
C  40.13900 45.80800 24.34400
C  40.30600 45.47400 27.92900
O  39.95300 46.64700 28.00800
C  40.39800 44.53900 29.14000
C  41.25800 45.14500 30.17100
O  42.45200 45.26600 30.24000
O  40.45800 45.52600 31.22800
C  41.06700 46.33800 32.36100
H  42.89400 38.03000 29.58000
H  42.52600 37.38500 23.23900
H  41.05500 43.51500 22.69900
H  41.79700 42.36200 31.09600
H  41.38400 39.64300 31.21300
H  43.29500 40.27400 32.46900
H  43.69500 41.48300 31.23300
H  44.15800 39.90800 30.83400
H  39.01400 41.50600 30.56700
H  39.45900 42.85600 31.51500
H  40.50600 40.67600 33.09300
H  39.12100 40.04200 32.37600
H  43.14400 34.80300 27.88100
H  43.07400 35.98100 29.19200
H  44.63500 35.70400 28.29100
H  45.07800 34.60700 26.24100
H  44.49400 33.51500 24.84000
H  43.49300 33.73800 26.17800
H  41.41900 39.09500 21.43000
H  42.29500 41.93400 21.33700
H  44.13000 40.38200 20.87700
H  43.52300 38.79300 20.28900
H  44.21500 39.05400 21.98000
H  40.34600 40.66000 19.98000
H  40.44100 42.34700 20.37300
H  39.00300 40.79800 22.56000
H  38.36600 40.41500 21.01400
H  38.48300 42.14500 21.51500
H  40.85800 45.66500 23.53800
H  40.28800 46.87400 24.51800
H  39.15400 45.54400 23.95900
H  39.34100 44.52200 29.40600
H  41.34700 45.85000 33.29400
H  40.38100 47.11100 32.70800
H  41.92000 46.93400 32.03400

