158

Mg 26.25300 51.00400 26.23400
C  24.42900 52.21300 28.99700
C  28.77300 50.30400 28.38900
C  27.90200 49.74000 23.63700
C  23.78800 52.26300 24.08600
N  26.68200 51.32300 28.48000
C  25.69400 51.61700 29.36500
C  26.23300 51.34100 30.79200
C  27.80700 51.10500 30.60400
C  27.74300 50.84200 29.14600
C  28.71700 52.30800 31.01900
C  25.46800 50.22000 31.58600
C  24.91200 50.49300 32.99500
H  25.82800 50.46000 34.20200
N  28.15300 50.11900 26.00300
C  29.07700 50.02300 27.04100
C  30.30100 49.43300 26.43400
C  30.02900 49.22600 25.07800
C  28.67100 49.68800 24.83400
C  31.41900 48.95200 27.26700
C  30.86400 48.53600 23.99900
O  30.61100 48.67600 22.79600
C  32.06800 47.79100 24.35700
N  25.92500 51.09500 24.17400
C  26.75200 50.39000 23.34600
C  26.17800 50.40800 21.90200
C  24.79600 51.09600 22.08600
C  24.80600 51.48500 23.53800
C  27.08200 51.03000 20.79500
C  23.62300 50.25500 21.61000
C  23.18400 48.97200 22.44200
N  24.54300 52.07300 26.45100
C  23.62900 52.47100 25.46400
C  22.51300 53.05500 26.06700
C  22.71000 52.99900 27.45100
C  24.01400 52.41900 27.68600
C  21.38200 53.59100 25.35200
C  22.21700 53.25100 28.77500
O  21.11900 53.67100 29.12600
C  23.30300 52.69200 29.82600
C  23.59700 53.79900 30.77000
O  24.40400 54.64800 30.51000
O  22.84300 53.80600 31.90700
C  23.27000 54.82000 32.87500
H  29.47000 49.93600 29.14500
H  28.41600 49.30700 22.77600
H  22.96800 52.66700 23.48800
H  26.17500 52.26600 31.36500
H  28.21400 50.22200 31.09700
H  29.37700 51.85600 31.76000
H  28.09100 53.05300 31.51100
H  29.25800 52.86300 30.25300
H  26.16500 49.39200 31.71200
H  24.66700 49.85100 30.94600
H  24.12500 49.76200 33.17900
H  24.44800 51.45600 32.77800
H  31.31500 48.88900 28.35000
H  32.21700 49.68600 27.15200
H  31.73000 47.94400 26.99400
H  32.76000 48.53400 24.75300
H  32.55500 47.45000 23.44300
H  31.92100 46.98100 25.07100
H  26.06100 49.35500 21.64600
H  24.80700 51.92800 21.38200
H  26.76900 52.05200 20.58300
H  26.98600 50.38800 19.91900
H  28.11400 50.96100 21.13900
H  23.78300 49.96200 20.57300
H  22.69800 50.83100 21.63500
H  23.48500 48.14300 21.80200
H  22.11100 49.05700 22.61100
H  23.74500 49.09300 23.36900
H  20.76300 52.75300 25.03300
H  21.64500 54.32900 24.59500
H  20.87900 54.16100 26.13400
H  22.87000 51.95700 30.50400
H  22.36900 54.86300 33.48700
H  23.42900 55.79100 32.40500
H  24.16900 54.50900 33.40600
Mg -0.82100 34.53900 27.01000
C  -2.97600 32.80300 29.15200
C  -0.26300 36.79800 29.47200
C  0.96400 36.42600 24.81900
C  -2.24200 32.80700 24.27600
N  -1.35300 34.58100 29.11900
C  -2.14100 33.75600 29.82300
C  -2.30200 34.16500 31.27000
C  -1.59900 35.58300 31.35000
C  -1.07100 35.73300 29.86500
C  -2.57100 36.75700 31.63700
C  -1.76200 33.17400 32.36200
C  -2.32700 33.30400 33.78100
H  -1.64100 32.59300 35.01200
N  0.27700 36.35600 27.14100
C  0.35000 37.15300 28.24600
C  1.16200 38.38000 27.92800
C  1.51800 38.25800 26.61400
C  0.93600 36.96100 26.14800
C  1.43800 39.48200 28.84300
C  2.42000 39.19600 25.74200
O  2.74800 38.95600 24.61900
C  3.04600 40.40500 26.49400
N  -0.71900 34.56100 24.83200
C  0.21400 35.41700 24.23200
C  0.30800 35.05500 22.74300
C  -0.54800 33.71800 22.56200
C  -1.13700 33.62000 24.00000
C  -0.06800 36.18000 21.73000
C  0.22800 32.55100 22.06300
C  1.32200 31.99000 22.96800
N  -2.19600 33.02900 26.68800
C  -2.76400 32.57900 25.55900
C  -3.80000 31.58500 25.90500
C  -3.82400 31.62700 27.29200
C  -2.95200 32.56500 27.75600
C  -4.63900 30.75400 25.05000
C  -4.51600 31.02800 28.50300
O  -5.34800 30.19900 28.49400
C  -4.00300 31.79200 29.73900
C  -5.19400 32.44100 30.44400
O  -5.68600 33.54100 30.15500
O  -5.78800 31.49700 31.37000
C  -6.81700 32.12900 32.18900
H  -0.03200 37.45700 30.31100
H  1.42900 37.05100 24.05500
H  -2.76100 32.34500 23.43300
H  -3.38400 34.29100 31.30700
H  -0.76600 35.61700 32.05300
H  -2.19500 37.30000 32.50300
H  -3.55200 36.47000 32.01500
H  -2.75800 37.49600 30.85700
H  -0.72700 33.46100 32.54800
H  -1.75200 32.10900 32.13400
H  -3.29200 32.80600 33.68500
H  -2.49000 34.36500 33.96500
H  2.43900 39.56400 29.26700
H  0.78500 39.43500 29.71400
H  1.02100 40.41600 28.46700
H  2.15000 40.98000 26.72900
H  3.77900 40.89700 25.85300
H  3.64900 39.97500 27.29400
H  1.37600 34.94300 22.55600
H  -1.40500 33.77200 21.89200
H  -0.41400 37.14400 22.10200
H  -0.83400 35.86800 21.02000
H  0.85000 36.39800 21.18500
H  0.59800 32.72900 21.05300
H  -0.36200 31.65400 21.87600
H  1.32400 32.49600 23.93300
H  2.25200 32.32000 22.50500
H  1.14200 30.92100 23.08100
H  -4.21300 29.75400 24.97200
H  -4.90300 31.26000 24.12100
H  -5.57700 30.65600 25.59800
H  -3.54400 31.01800 30.35400
H  -7.51900 32.75900 31.64300
H  -6.31000 32.84600 32.83600
H  -7.45200 31.51500 32.82800

