158

Mg 40.13100 9.78100 29.07700
C  42.23800 10.68700 31.75400
C  37.92500 8.54700 31.22000
C  38.26500 8.81000 26.44800
C  42.66500 10.79300 26.91100
N  40.21400 9.55400 31.22000
C  40.97600 10.18700 32.10700
C  40.40600 10.13900 33.57100
C  39.05100 9.38100 33.32200
C  39.04900 9.07200 31.81800
C  38.96300 8.06600 34.11200
C  40.27900 11.51500 34.31300
C  39.46300 11.45300 35.63900
H  40.34800 11.72700 36.87400
N  38.28400 8.82200 28.88900
C  37.54500 8.37300 29.87200
C  36.47200 7.56100 29.33000
C  36.54400 7.72300 27.97600
C  37.72600 8.46000 27.72100
C  35.46000 6.78900 30.19300
C  35.58400 7.23400 26.92700
O  35.83600 7.21600 25.72900
C  34.33800 6.60600 27.35100
N  40.44600 9.60000 26.91900
C  39.55100 9.28700 26.04200
C  39.99900 9.45400 24.55700
C  41.27700 10.34300 24.79900
C  41.51300 10.23800 26.30000
C  40.32300 8.06400 23.96000
C  41.18200 11.77200 24.18700
C  39.83900 12.56700 24.48400
N  42.10500 10.54200 29.22800
C  42.97500 10.98800 28.28000
C  44.14200 11.67100 28.93100
C  43.81500 11.58800 30.28000
C  42.60500 10.88000 30.39800
C  45.29100 12.24800 28.25700
C  44.32200 11.95200 31.56100
O  45.35800 12.52000 31.87300
C  43.24000 11.48800 32.57600
C  43.83100 10.54100 33.53700
O  44.26400 9.41700 33.33200
O  43.85100 11.03700 34.83800
C  43.91800 10.03300 35.92500
H  37.22800 8.08000 31.91900
H  37.60000 8.60300 25.60700
H  43.32000 11.15800 26.11700
H  41.02900 9.53600 34.23200
H  38.24900 10.02300 33.68700
H  39.75600 7.89100 34.84000
H  39.14000 7.22900 33.43600
H  37.92300 7.95600 34.41800
H  39.84800 12.34300 33.75000
H  41.29000 11.87000 34.51300
H  38.87500 10.53900 35.73200
H  38.72700 12.25400 35.57400
H  34.43600 7.16100 30.21500
H  35.85400 6.72900 31.20700
H  35.43400 5.75400 29.85100
H  33.76000 7.31100 27.94800
H  34.48200 5.71800 27.96700
H  33.65500 6.35300 26.54000
H  39.25900 9.97700 23.95200
H  42.15900 9.81300 24.43900
H  39.66900 7.85600 23.11300
H  40.31000 7.19700 24.62100
H  41.38900 7.96200 23.75900
H  41.40900 11.68100 23.12500
H  41.98200 12.31900 24.68500
H  39.29700 12.77300 23.56100
H  39.93400 13.58700 24.85600
H  39.20000 12.00200 25.16300
H  45.00800 12.79800 27.35900
H  46.01600 11.44000 28.16100
H  45.46400 13.04300 28.98200
H  42.80200 12.41500 32.94800
H  44.86200 9.49000 35.89100
H  43.17200 9.29500 35.63000
H  43.64000 10.41000 36.90900
Mg 36.63000 50.28900 26.19000
C  36.96700 47.96800 28.91800
C  35.56100 52.63400 28.47200
C  36.01600 52.25800 23.51800
C  37.58000 47.66700 24.01400
N  36.15400 50.16200 28.46100
C  36.57800 49.23400 29.37500
C  36.44400 49.66300 30.84300
C  35.73400 51.13200 30.63700
C  35.75400 51.30500 29.08800
C  34.29900 51.37500 31.16800
C  37.83800 49.79900 31.63600
C  37.84500 48.90000 32.95200
H  36.66100 49.19900 33.95000
N  36.04100 52.21200 26.04500
C  35.59000 53.04000 27.08800
C  35.24800 54.30000 26.54200
C  35.30900 54.23800 25.07200
C  35.80800 52.80500 24.80300
C  34.89900 55.47900 27.45700
C  34.95100 55.23800 23.94900
O  35.13400 55.07300 22.75600
C  34.38000 56.57700 24.33700
N  36.76800 50.02700 24.10600
C  36.48700 50.95500 23.24200
C  36.81000 50.51200 21.80200
C  37.39400 49.09300 21.95400
C  37.24300 48.90300 23.45900
C  35.57100 50.68600 20.86600
C  38.90400 48.90000 21.50800
C  39.92500 49.75200 22.31100
N  37.14400 48.23500 26.36100
C  37.58700 47.37400 25.40900
C  37.87200 46.07900 26.07800
C  37.67600 46.29500 27.42900
C  37.18900 47.62300 27.57200
C  38.38700 44.87800 25.41900
C  37.73900 45.62700 28.77900
O  37.97100 44.48800 29.07900
C  37.28200 46.76600 29.72100
C  36.15100 46.29200 30.48900
O  34.98200 46.42500 30.18900
O  36.43300 45.77300 31.74200
C  35.45300 45.35100 32.72100
H  35.29900 53.39800 29.20700
H  35.74200 52.79700 22.60900
H  38.12200 47.00100 23.33900
H  35.85100 48.87700 31.31000
H  36.30900 51.94500 31.08100
H  34.36200 52.19500 31.88400
H  33.81800 50.50400 31.61300
H  33.55100 51.57700 30.40200
H  37.78100 50.82200 32.00900
H  38.72300 49.68500 31.01000
H  38.77200 48.94100 33.52500
H  37.65100 47.91900 32.51900
H  35.60100 56.24000 27.11300
H  35.11600 55.21700 28.49200
H  33.82900 55.68200 27.41400
H  33.48700 56.44500 24.94800
H  34.04500 57.08800 23.43400
H  35.20900 57.02400 24.88500
H  37.61700 51.15500 21.45200
H  36.76500 48.33300 21.49100
H  34.66000 50.88600 21.43100
H  35.47600 49.69600 20.41900
H  35.64000 51.35600 20.00900
H  39.03800 49.35600 20.52800
H  39.22300 47.88400 21.27400
H  40.79000 50.08900 21.73800
H  40.30100 49.16900 23.15200
H  39.59400 50.71200 22.70800
H  38.54100 44.08500 26.15000
H  39.36800 45.13000 25.01400
H  37.81000 44.53000 24.56300
H  38.09800 47.04300 30.38800
H  35.45800 44.27000 32.58100
H  34.39200 45.56400 32.59000
H  35.63100 45.68600 33.74300

