158

Mg 9.06300 3.84600 27.64200
C  10.14300 2.10500 30.51800
C  6.68500 5.47100 29.61400
C  7.85400 5.23100 24.80400
C  10.98000 1.55400 25.76400
N  8.42700 3.65800 29.77900
C  9.15800 3.06400 30.85400
C  8.67400 3.49200 32.20800
C  7.58300 4.56100 31.87800
C  7.55900 4.56100 30.32700
C  6.12900 4.19000 32.44100
C  9.69700 4.04100 33.16000
C  9.31600 5.09500 34.16600
H  10.03000 5.06000 35.57300
N  7.51100 5.24400 27.26100
C  6.62000 5.76700 28.21000
C  5.79200 6.75200 27.53900
C  6.17200 6.67600 26.12100
C  7.26900 5.75800 25.99800
C  4.73700 7.51600 28.26900
C  5.64600 7.46700 24.94200
O  5.95100 7.23300 23.77100
C  4.76600 8.53400 25.30300
N  9.38600 3.39500 25.61200
C  8.75400 4.16500 24.63600
C  9.13600 3.75500 23.17100
C  10.16400 2.56800 23.49200
C  10.17900 2.47200 25.02700
C  8.00200 3.46500 22.15200
C  11.50800 2.76500 22.88200
C  11.75300 1.87400 21.69400
N  10.35200 2.22100 28.01000
C  11.13800 1.40300 27.14000
C  11.95500 0.47300 27.83200
C  11.60300 0.69500 29.21600
C  10.64000 1.78500 29.23800
C  12.92500 -0.54100 27.13600
C  11.90600 0.35200 30.62500
O  12.76300 -0.37300 31.05900
C  10.88300 1.26300 31.47400
C  9.99700 0.50400 32.33200
O  8.98200 -0.10800 31.98400
O  10.40800 0.58900 33.63400
C  9.60600 -0.05800 34.67300
H  6.18000 6.20500 30.24600
H  7.58600 5.70100 23.85500
H  11.56100 0.92700 25.08400
H  8.27500 2.57800 32.64700
H  7.80800 5.58900 32.16500
H  6.14600 3.50600 33.29000
H  5.50200 3.88900 31.60200
H  5.75600 5.12300 32.86300
H  10.59300 4.25200 32.57600
H  9.90600 3.22800 33.85400
H  8.25400 5.05900 34.40800
H  9.67300 5.97500 33.63100
H  3.76100 7.57000 27.78600
H  5.16300 8.50700 28.42600
H  4.49700 7.07500 29.23600
H  4.65100 9.10100 24.37900
H  5.28300 9.05500 26.10900
H  3.78000 8.31700 25.71300
H  9.61100 4.65800 22.78700
H  9.77200 1.59200 23.20300
H  7.61200 4.36800 21.68300
H  7.13400 2.87400 22.44300
H  8.52900 2.99000 21.32400
H  12.26400 2.79500 23.66600
H  11.51400 3.80200 22.54700
H  11.06400 1.02900 21.66100
H  12.77400 1.57100 21.46300
H  11.46300 2.48700 20.84000
H  13.02100 -0.39500 26.06000
H  12.65400 -1.57300 27.35900
H  13.84300 -0.50900 27.72200
H  11.51300 1.96400 32.02100
H  10.08400 -0.98800 34.98400
H  8.62400 -0.33400 34.28800
H  9.41200 0.63900 35.48800
Mg 17.56300 -1.03200 28.04800
C  16.25500 1.04000 30.54500
C  19.06400 -2.90200 30.50700
C  19.24200 -2.69200 25.66900
C  16.29400 1.22400 25.62100
N  17.66700 -0.87800 30.32300
C  16.91900 -0.04500 31.08200
C  17.01000 -0.43500 32.60200
C  18.16400 -1.52600 32.50100
C  18.28400 -1.85400 31.07100
C  19.52000 -1.10200 33.24000
C  15.58800 -0.88200 33.18800
C  15.39400 -0.58900 34.64700
H  16.47800 -0.03400 35.52800
N  19.00000 -2.58000 28.07000
C  19.37300 -3.28000 29.18100
C  20.31200 -4.31100 28.85200
C  20.46800 -4.23100 27.42500
C  19.57600 -3.09400 26.98200
C  20.94100 -5.15200 29.89400
C  21.38500 -5.07300 26.50100
O  21.36400 -4.85400 25.30400
C  22.23300 -6.15000 27.02900
N  17.84100 -0.65100 25.96100
C  18.43300 -1.62500 25.21300
C  18.35700 -1.24500 23.69200
C  17.37200 -0.02000 23.71400
C  17.13500 0.20200 25.23900
C  19.67700 -0.85500 22.98200
C  16.00800 0.00200 22.90400
C  15.90900 0.88200 21.58600
N  16.37400 0.77400 28.01000
C  15.98400 1.58300 27.00500
C  15.23100 2.65200 27.55500
C  15.35300 2.50400 28.98200
C  16.04200 1.38000 29.17600
C  14.35800 3.63100 26.81200
C  14.97100 3.14300 30.23300
O  14.37900 4.21500 30.46000
C  15.46800 2.17500 31.28400
C  16.35000 2.93000 32.10200
O  17.56400 2.76100 32.18700
O  15.62300 3.66200 33.06800
C  16.30700 4.48900 34.07000
H  19.47700 -3.56700 31.26800
H  19.76400 -3.23700 24.88000
H  15.90400 1.90500 24.86100
H  17.37800 0.47600 33.07400
H  17.70000 -2.38600 32.98400
H  19.44700 -0.04200 33.48600
H  20.39800 -1.27200 32.61600
H  19.51800 -1.57300 34.22200
H  15.51800 -1.94900 32.97900
H  14.75000 -0.42500 32.66200
H  14.92000 -1.45600 35.10600
H  14.73100 0.27600 34.64300
H  20.19300 -5.57600 30.56400
H  21.59700 -4.56000 30.53300
H  21.44000 -6.02200 29.46700
H  22.77300 -5.84700 27.92600
H  23.01300 -6.40700 26.31200
H  21.61200 -7.03700 27.15100
H  17.96100 -2.07500 23.10700
H  17.91900 0.90700 23.54400
H  19.59500 0.12200 22.50600
H  19.76600 -1.48700 22.09900
H  20.52000 -0.91100 23.67200
H  15.16400 0.24000 23.55200
H  15.95100 -1.04100 22.59200
H  15.22600 1.73000 21.53300
H  15.72000 0.19200 20.76400
H  16.89000 1.31400 21.38700
H  13.32300 3.35000 27.01100
H  14.57000 3.52800 25.74700
H  14.65100 4.61900 27.16500
H  14.55800 1.88100 31.80800
H  16.03100 5.54000 33.98400
H  17.38800 4.35500 34.11500
H  15.89600 4.22800 35.04600

