158

Mg 1.27200 8.55000 27.09500
C  1.87000 10.76200 29.91500
C  1.45700 5.95400 29.32300
C  1.46200 6.49800 24.42900
C  1.51100 11.29100 25.09400
N  1.71000 8.38900 29.39100
C  1.85600 9.35600 30.27900
C  1.69600 8.83600 31.68900
C  1.98700 7.31700 31.57900
C  1.67900 7.21100 30.04300
C  3.33700 6.71400 31.85600
C  0.31800 9.18800 32.30400
C  0.25200 9.26500 33.85000
H  1.29400 8.53400 34.69600
N  1.31400 6.51900 26.90500
C  1.27000 5.62500 27.93300
C  1.20900 4.26800 27.37700
C  1.29600 4.42800 25.95200
C  1.33200 5.85900 25.71800
C  1.11400 3.08200 28.22400
C  1.22000 3.40300 24.82500
O  1.35500 3.68400 23.58900
C  0.76200 2.01300 25.19200
N  1.67800 8.90400 24.98000
C  1.57100 7.85300 24.10000
C  1.55800 8.37900 22.63700
C  1.32300 9.88200 22.88900
C  1.45100 10.07500 24.39600
C  2.82800 7.98700 21.81100
C  0.03100 10.47400 22.25900
C  -1.20500 10.74200 23.09700
N  1.58300 10.59600 27.42800
C  1.63100 11.59000 26.45900
C  1.61600 12.91300 27.12500
C  1.74700 12.59600 28.51400
C  1.66800 11.23000 28.64300
C  1.70300 14.24800 26.61700
C  1.98800 13.15900 29.81800
O  2.17200 14.32400 30.20800
C  1.97900 11.99600 30.81800
C  3.08000 12.04400 31.74400
O  4.23700 11.69300 31.51500
O  2.67300 12.49900 32.95300
C  3.66100 12.47700 34.09400
H  1.50800 5.09100 29.99100
H  1.48700 5.95700 23.48100
H  1.36500 12.23400 24.56200
H  2.47600 9.37000 32.23100
H  1.24800 6.77600 32.17200
H  3.77400 6.14400 31.03600
H  3.18700 5.90100 32.56600
H  4.01100 7.52300 32.13800
H  -0.51900 8.56300 31.99200
H  0.07400 10.14800 31.84800
H  -0.82100 9.18900 34.02900
H  0.42300 10.29100 34.17500
H  0.17000 2.57800 28.01500
H  1.04700 3.33500 29.28200
H  2.01200 2.51200 27.98600
H  0.63500 1.46600 24.25800
H  -0.20500 2.08200 25.69200
H  1.38600 1.43700 25.87600
H  0.70800 7.91000 22.14100
H  2.10300 10.50900 22.45700
H  3.51000 7.55100 22.54000
H  3.32400 8.86400 21.39500
H  2.51300 7.25100 21.07100
H  -0.34700 9.71800 21.57100
H  0.24400 11.36300 21.66500
H  -2.00400 10.22000 22.57100
H  -1.38500 11.81700 23.11600
H  -1.25200 10.45600 24.14800
H  2.69600 14.55600 26.29100
H  1.44200 14.92300 27.43300
H  0.96500 14.58900 25.89100
H  1.03800 12.12800 31.35300
H  4.45200 11.74200 33.94600
H  3.09600 12.29600 35.00900
H  4.12700 13.45400 34.22600
Mg 10.13000 48.06100 25.89800
C  7.96100 48.42100 28.73800
C  12.59000 49.62500 27.80700
C  11.87600 48.25500 23.18200
C  7.19300 47.25100 24.02100
N  10.22700 48.87900 28.00400
C  9.29600 48.72900 29.06500
C  9.94500 49.09900 30.40600
C  11.28600 49.80700 29.96700
C  11.46400 49.30300 28.50700
C  11.34200 51.33700 30.21800
C  9.97600 47.99100 31.50400
C  9.55300 48.44400 32.89000
H  9.44700 47.28000 33.91700
N  12.09100 48.50400 25.59100
C  12.91100 49.31700 26.47800
C  14.22400 49.43400 25.84300
C  14.07600 48.95100 24.50100
C  12.64100 48.55600 24.36600
C  15.54200 49.88100 26.59900
C  15.10000 48.68200 23.43500
O  14.88800 48.22900 22.37100
C  16.57500 49.04300 23.70900
N  9.56800 47.96900 23.81300
C  10.57500 47.95700 22.87900
C  10.02500 47.59800 21.44700
C  8.52000 47.09900 21.74800
C  8.40200 47.40900 23.30900
C  10.06700 48.75700 20.40000
C  8.43600 45.57000 21.46100
C  9.00300 44.63100 22.57300
N  8.03900 47.75400 26.23900
C  7.01800 47.48600 25.34600
C  5.76100 47.38000 26.08400
C  6.09300 47.76900 27.40900
C  7.44400 48.06400 27.44400
C  4.32900 47.09000 25.47900
C  5.54900 48.04100 28.69200
O  4.37500 47.93900 29.08800
C  6.73500 48.46200 29.56800
C  6.76400 47.41700 30.63600
O  7.07200 46.27600 30.43600
O  6.22700 47.89400 31.75400
C  5.96500 46.94300 32.84200
H  13.37800 50.07700 28.41400
H  12.51000 48.17300 22.29600
H  6.30300 46.91000 23.48800
H  9.28600 49.86700 30.81200
H  12.01100 49.26900 30.57900
H  12.13900 51.73500 29.59000
H  11.53300 51.44200 31.28600
H  10.37700 51.82200 30.07100
H  11.03800 47.77500 31.62000
H  9.44300 47.08400 31.22000
H  8.67700 49.08700 32.80000
H  10.40500 49.03700 33.22200
H  16.33400 49.17200 26.35800
H  15.35100 50.04200 27.66000
H  15.82400 50.86900 26.23600
H  17.19700 48.95700 22.81900
H  16.90000 48.35500 24.49000
H  16.71700 50.01800 24.17600
H  10.56100 46.73300 21.05600
H  7.80400 47.64300 21.13200
H  10.80200 49.48600 20.74000
H  9.16500 49.36800 20.38500
H  10.31200 48.40700 19.39600
H  8.85400 45.30900 20.48900
H  7.37400 45.36000 21.33200
H  8.15100 44.48700 23.23700
H  9.74000 45.15800 23.17900
H  9.38600 43.69300 22.17000
H  4.54000 46.30600 24.75200
H  3.96300 47.95700 24.92900
H  3.69900 46.74100 26.29700
H  6.61700 49.48600 29.92400
H  4.91600 46.64800 32.84200
H  6.15400 47.46700 33.77900
H  6.62300 46.07700 32.76400

