158

Mg 26.35300 0.86700 29.17300
C  28.16700 0.73800 32.22000
C  23.42700 1.15700 31.09200
C  24.51300 0.86200 26.24700
C  29.22400 -0.05900 27.46200
N  25.83400 1.03900 31.48500
C  26.80600 0.94400 32.52000
C  26.01500 1.01000 33.85400
C  24.49000 1.07300 33.44500
C  24.57600 1.08300 31.88000
C  23.56600 -0.08600 33.96500
C  26.38000 2.23900 34.74100
C  25.68100 2.52700 36.05300
H  26.51700 2.76100 37.33800
N  24.30600 1.03900 28.70200
C  23.30400 1.23600 29.65400
C  22.04100 1.41300 28.91200
C  22.36400 1.24700 27.51600
C  23.79700 1.09200 27.42900
C  20.67300 1.48700 29.64400
C  21.40400 1.29500 26.31100
O  21.71800 1.09500 25.15500
C  20.07300 1.76700 26.54100
N  26.73500 0.22200 27.20000
C  25.88100 0.47300 26.19600
C  26.51800 0.17600 24.85700
C  28.00800 -0.14300 25.23300
C  28.03700 0.07100 26.72700
C  25.84800 -0.94100 24.13900
C  28.99700 0.73300 24.51600
C  29.49900 0.35000 23.09800
N  28.29200 0.51100 29.68000
C  29.37800 0.11500 28.89200
C  30.60000 -0.09900 29.67600
C  30.10200 0.14200 30.98300
C  28.75000 0.52600 30.94500
C  31.91700 -0.63500 29.12800
C  30.50400 0.25500 32.36400
O  31.60800 0.13200 32.83500
C  29.24800 0.55600 33.21100
C  28.97600 -0.54100 34.18000
O  28.19400 -1.48700 34.03900
O  29.47500 -0.13800 35.36700
C  29.22300 -1.03100 36.52100
H  22.51100 1.24500 31.67900
H  24.01000 0.87800 25.27800
H  30.12500 -0.32500 26.90400
H  26.24700 0.10200 34.41200
H  24.06600 2.04000 33.71700
H  22.98200 -0.63600 33.22700
H  22.84900 0.31500 34.68200
H  24.18500 -0.86700 34.40600
H  26.33800 3.11800 34.09800
H  27.42600 2.15800 35.03800
H  25.06300 1.63700 36.17100
H  25.06700 3.42000 35.93100
H  20.03200 0.65500 29.35600
H  20.03100 2.29400 29.28900
H  20.70700 1.51600 30.73400
H  19.60300 1.98200 25.58100
H  20.16500 2.64100 27.18500
H  19.56300 0.94500 27.04300
H  26.24200 1.04700 24.26300
H  28.16900 -1.21400 25.10900
H  25.32200 -1.53000 24.89100
H  26.53600 -1.61700 23.63100
H  25.13100 -0.60900 23.38800
H  29.92600 0.92400 25.05300
H  28.52400 1.70800 24.39400
H  30.57300 0.53400 23.05600
H  29.00600 0.99100 22.36700
H  29.49000 -0.72400 22.91100
H  31.76100 -1.40300 28.37100
H  32.37500 -1.08300 30.01000
H  32.46600 0.22500 28.74400
H  29.26700 1.49300 33.76900
H  29.42500 -2.05100 36.19700
H  28.30800 -0.85500 37.08700
H  29.92600 -0.88100 37.34100
Mg 9.57100 48.44500 25.99000
C  7.11100 48.99400 28.36200
C  11.95300 49.47100 28.22300
C  11.85900 47.96800 23.68200
C  7.05500 48.22800 23.54300
N  9.54500 49.08100 28.08100
C  8.41800 49.07600 28.90100
C  8.85500 49.31800 30.37100
C  10.28200 49.95100 30.11300
C  10.62900 49.46100 28.73100
C  10.45500 51.49200 30.25400
C  8.79300 47.97300 31.10400
C  9.45200 47.82400 32.42800
H  8.64300 47.36600 33.69200
N  11.66200 48.58700 25.96700
C  12.46900 49.09900 26.93900
C  13.87700 49.11300 26.50000
C  13.80300 48.58600 25.13800
C  12.40000 48.28900 24.91800
C  15.12700 49.41600 27.31700
C  14.92400 48.23400 24.16300
O  14.84100 47.64200 23.12800
C  16.34600 48.69900 24.53400
N  9.46900 48.25600 23.95500
C  10.56300 47.93800 23.20700
C  10.29300 47.57700 21.72800
C  8.73200 47.83500 21.64200
C  8.34400 48.07900 23.13200
C  11.02600 48.31700 20.68100
C  7.97900 46.75300 20.81700
C  7.19800 47.10600 19.64800
N  7.48400 48.38600 25.94200
C  6.60500 48.33600 24.89300
C  5.25500 48.34800 25.37600
C  5.43000 48.58500 26.74900
C  6.80400 48.66000 27.01500
C  4.04200 48.06100 24.50100
C  4.65400 48.78400 27.99800
O  3.47800 48.80000 28.17300
C  5.71500 49.25700 29.03500
C  5.57700 48.42000 30.24800
O  5.29300 47.26200 30.26900
O  5.36100 49.21800 31.27600
C  4.83900 48.70300 32.60600
H  12.70000 49.83900 28.93000
H  12.57800 47.75900 22.88700
H  6.32500 48.04400 22.75200
H  8.19400 50.03100 30.86400
H  10.87200 49.53700 30.93000
H  9.62200 52.04000 30.69300
H  10.48200 51.84400 29.22300
H  11.32800 51.69000 30.87500
H  9.21500 47.28300 30.37400
H  7.78000 47.60500 31.26500
H  9.94600 48.72500 32.79200
H  10.25600 47.09800 32.31000
H  15.82000 50.05900 26.77300
H  15.61400 48.46700 27.54100
H  14.88000 49.92300 28.25000
H  16.67400 48.28200 25.48600
H  16.39800 49.78800 24.53900
H  17.06400 48.30400 23.81400
H  10.60700 46.53400 21.68800
H  8.63000 48.77900 21.10500
H  12.10200 48.21400 20.82100
H  10.89700 49.38900 20.83600
H  10.64400 48.03400 19.70100
H  7.24000 46.31000 21.48400
H  8.61500 45.89400 20.60100
H  6.13000 46.89000 19.67300
H  7.66200 46.63600 18.78100
H  7.24800 48.18500 19.49700
H  3.53700 48.98000 24.20200
H  3.21500 47.58200 25.02400
H  4.36800 47.50200 23.62400
H  5.63100 50.31600 29.28000
H  4.12700 49.44200 32.97400
H  5.67600 48.72600 33.30500
H  4.26800 47.77700 32.65800

