158

Mg 44.05800 3.50300 47.95200
C  42.07700 6.26800 47.27900
C  41.23500 1.48200 47.63700
C  46.06600 0.64800 47.87800
C  46.88100 5.42200 47.58900
N  42.00400 3.85800 47.55800
C  41.37000 5.08800 47.38000
C  39.86300 4.93600 47.31200
C  39.57800 3.44600 47.54500
C  41.05300 2.87400 47.54600
C  38.89100 3.10600 48.87100
C  39.18600 5.52900 46.04800
C  39.62400 4.93000 44.68800
H  39.57900 5.87600 43.51100
N  43.74000 1.35000 47.79700
C  42.48600 0.77600 47.79100
C  42.65600 -0.63300 47.61000
C  44.04800 -0.88300 47.45000
C  44.70100 0.40300 47.67300
C  41.52900 -1.59000 47.59100
C  44.76300 -2.19700 47.17700
O  44.16300 -3.28300 47.17800
C  46.18500 -2.20900 46.82100
N  46.18700 3.16800 47.51500
C  46.72300 1.89200 47.84500
C  48.19500 1.96500 48.23600
C  48.51700 3.53000 48.05400
C  47.08600 4.10700 47.73600
C  48.42400 1.47100 49.75200
C  49.54400 3.85000 46.97200
C  50.96900 4.07700 47.45400
N  44.49200 5.46700 47.50100
C  45.69600 6.15900 47.46200
C  45.37000 7.58700 47.50600
C  44.00300 7.67100 47.34300
C  43.48900 6.37300 47.38700
C  46.44700 8.63400 47.64100
C  42.95900 8.56400 47.15400
O  42.97300 9.75200 47.05600
C  41.63100 7.69100 47.17400
C  40.95300 8.14900 48.32500
O  41.38000 8.05400 49.47400
O  39.70800 8.59200 47.95800
C  38.80800 9.08000 49.02100
H  40.28900 0.93600 47.64700
H  46.79100 -0.12900 48.12800
H  47.72600 6.09300 47.75300
H  39.58400 5.58800 48.13900
H  39.06800 3.00700 46.68800
H  37.96600 2.58400 48.62400
H  38.67000 3.99800 49.45800
H  39.44100 2.46100 49.55600
H  39.33000 6.60900 46.07500
H  38.14000 5.28300 46.22900
H  39.03000 4.04600 44.45600
H  40.67500 4.64400 44.73500
H  41.32600 -1.87800 46.56000
H  40.63700 -1.06900 47.94000
H  41.87800 -2.39700 48.23500
H  46.88100 -2.54500 47.58900
H  46.36900 -1.24200 46.35200
H  46.32300 -2.84000 45.94200
H  48.80300 1.32900 47.59100
H  48.80000 4.08100 48.95100
H  48.60000 0.39600 49.69800
H  47.59200 1.78000 50.38400
H  49.33900 1.98100 50.05200
H  49.08400 4.66600 46.41400
H  49.69000 2.93000 46.40600
H  51.65100 3.26700 47.19400
H  50.95200 4.26200 48.52800
H  51.30200 5.01100 47.00200
H  47.14000 8.47200 48.46700
H  46.12800 9.67600 47.68100
H  46.98800 8.63700 46.69400
H  41.09700 7.99600 46.27400
H  38.02000 8.32700 49.03600
H  38.42700 10.02000 48.62100
H  39.28600 9.24000 49.98800
Mg 53.66400 23.83400 44.41900
C  50.87600 25.86000 43.86400
C  51.54000 21.11300 44.52200
C  56.28500 21.78300 44.00400
C  55.72000 26.59000 43.71600
N  51.52100 23.55900 44.07900
C  50.53800 24.45900 43.94400
C  49.16500 23.85600 43.92200
C  49.36900 22.43600 44.29900
C  50.90600 22.37100 44.35200
C  48.71000 22.01400 45.68700
C  48.47800 23.98500 42.57500
C  49.32200 23.71200 41.35100
H  49.13400 24.61200 40.12900
N  53.85000 21.71500 44.24800
C  52.87800 20.80100 44.43100
C  53.43400 19.46400 44.44600
C  54.81400 19.67900 44.35800
C  55.04700 21.12500 44.18800
C  52.71300 18.19000 44.81700
C  55.86000 18.52400 44.54700
O  55.44800 17.37100 44.65100
C  57.34300 18.77900 44.59100
N  55.71100 24.22900 43.72100
C  56.61200 23.17100 43.82600
C  57.98900 23.71400 43.55400
C  57.83800 25.25300 43.43700
C  56.32800 25.35500 43.58800
C  59.12500 23.29200 44.55800
C  58.45500 25.96100 42.14100
C  59.40700 27.18600 42.24000
N  53.40900 25.88400 44.05200
C  54.31900 26.85800 43.79300
C  53.62700 28.15500 43.89100
C  52.30100 27.79000 43.95700
C  52.20500 26.39000 43.95000
C  54.28700 29.54100 43.84800
C  50.98700 28.31100 43.92900
O  50.57200 29.49500 44.00600
C  49.99500 27.13600 43.87100
C  49.25000 27.41800 42.67400
O  49.79500 27.51900 41.58600
O  47.90500 27.64500 42.91900
C  47.13200 28.24700 41.83400
H  50.85200 20.30200 44.77000
H  57.24000 21.26800 43.87300
H  56.37000 27.44700 43.52500
H  48.53200 24.39000 44.63000
H  49.02800 21.72700 43.54400
H  48.52700 22.88300 46.31800
H  49.39600 21.43500 46.30500
H  47.70700 21.61500 45.53800
H  48.14100 25.02100 42.53500
H  47.57900 23.36900 42.54600
H  49.07800 22.69100 41.06000
H  50.38700 23.65700 41.57600
H  53.05400 17.51100 44.03600
H  51.65200 18.42200 44.73200
H  52.95200 17.83100 45.81800
H  57.78600 17.91300 45.08200
H  57.56700 19.66700 45.18300
H  57.76700 18.81500 43.58700
H  58.15200 23.26600 42.57400
H  58.38400 25.63500 44.30000
H  59.42900 24.04300 45.28700
H  60.03600 22.89200 44.11200
H  58.67800 22.45800 45.09800
H  57.65500 26.39900 41.54500
H  58.96400 25.37100 41.37800
H  60.38600 26.82600 41.92400
H  59.59500 27.44100 43.28300
H  59.09400 28.05000 41.65300
H  53.94200 30.12800 42.99700
H  55.37200 29.57400 43.74300
H  53.96300 30.01000 44.77700
H  49.31700 27.10300 44.72400
H  46.98800 27.49800 41.05600
H  47.76600 28.97700 41.33000
H  46.15100 28.63900 42.10000

