158

Mg 47.52000 16.54700 28.32900
C  45.68300 16.23500 31.35700
C  49.74700 18.48200 30.11400
C  48.85600 17.37400 25.36700
C  44.80300 15.14600 26.75500
N  47.66800 17.37800 30.45500
C  46.93000 16.95300 31.49500
C  47.38900 17.48700 32.84900
C  48.53400 18.43900 32.37900
C  48.63400 18.11500 30.87200
C  48.38200 19.94700 32.72600
C  47.91000 16.29900 33.79600
C  47.63900 16.36200 35.30200
H  47.16500 17.63500 35.97400
N  49.21400 17.55000 27.88600
C  49.96900 18.26400 28.71400
C  51.09900 18.81300 27.91400
C  50.83100 18.48000 26.56400
C  49.56900 17.76700 26.55200
C  52.28900 19.45300 28.62600
C  51.72000 18.88000 25.34100
O  51.40900 18.61300 24.16900
C  53.00900 19.67600 25.50900
N  46.99600 16.18300 26.33000
C  47.63600 16.67700 25.23700
C  46.82500 16.39400 23.98900
C  45.77100 15.32400 24.40500
C  45.93000 15.47000 25.95000
C  46.19600 17.60600 23.22100
C  46.07900 13.92800 23.76800
C  45.04900 13.41800 22.68800
N  45.68200 15.86200 28.88900
C  44.69400 15.29500 28.12600
C  43.61900 14.78800 28.85900
C  43.99100 15.16700 30.15500
C  45.22300 15.81000 30.11800
C  42.43100 14.07100 28.38200
C  43.53200 15.10100 31.54300
O  42.50600 14.70000 32.03300
C  44.66500 15.78900 32.34200
C  44.07300 16.83600 33.13100
O  43.81300 17.98400 32.70700
O  43.78200 16.37300 34.39300
C  43.04300 17.25300 35.35000
H  50.41200 19.17800 30.63000
H  49.27100 17.71900 24.41700
H  43.93300 14.64400 26.32600
H  46.67000 18.12500 33.36200
H  49.48200 18.10400 32.80000
H  47.58000 20.11800 33.44400
H  48.34600 20.60300 31.85600
H  49.25900 20.25900 33.29200
H  48.95100 15.99000 33.70000
H  47.34800 15.51100 33.29500
H  48.54700 16.02200 35.80000
H  46.92200 15.54700 35.40700
H  52.18500 19.28300 29.69800
H  52.39000 20.52700 28.46900
H  53.21400 19.01600 28.25100
H  53.43100 19.95100 24.54200
H  53.70900 18.99400 25.99200
H  52.82800 20.53200 26.16000
H  47.40600 15.96400 23.17400
H  44.74300 15.54700 24.11700
H  46.32400 18.48700 23.85100
H  45.13800 17.51100 22.97900
H  46.60700 17.96200 22.27700
H  46.20700 13.21800 24.58500
H  47.09500 13.94600 23.37400
H  44.96600 12.33200 22.65600
H  45.35600 13.78800 21.71000
H  44.05000 13.82400 22.85200
H  42.76100 13.03200 28.37900
H  42.06400 14.42000 27.41700
H  41.61000 14.14900 29.09500
H  45.06500 15.01400 32.99700
H  42.00700 17.28100 35.01400
H  43.44400 18.26700 35.32600
H  43.11500 16.94100 36.39200
Mg 47.50400 25.06500 29.32800
C  48.77300 27.23200 31.67500
C  46.30400 23.05800 31.82800
C  46.85600 22.77000 26.92200
C  48.95300 27.10800 26.85600
N  47.44000 25.19200 31.53300
C  48.07000 26.13400 32.33500
C  47.66000 25.94000 33.77800
C  47.01200 24.56700 33.76400
C  46.86900 24.23400 32.28400
C  47.65300 23.40700 34.63400
C  46.63600 27.05300 34.37100
C  47.00800 27.73200 35.61400
H  45.88300 27.95600 36.63700
N  46.55800 23.21800 29.34000
C  46.15100 22.59700 30.46600
C  45.57500 21.29300 29.96500
C  45.64800 21.28900 28.53300
C  46.37100 22.47400 28.18600
C  45.05300 20.19000 30.91300
C  45.05300 20.22600 27.60200
O  45.25800 20.31200 26.41000
C  44.07800 19.09100 28.15600
N  47.96700 24.83300 27.17500
C  47.64700 23.76300 26.41000
C  47.94400 23.98300 24.98200
C  48.39200 25.50900 24.90600
C  48.44300 25.83700 26.39900
C  48.97400 22.96200 24.49300
C  47.51600 26.54700 24.21200
C  48.13000 27.29300 23.02200
N  48.60900 26.83500 29.25700
C  49.15900 27.55700 28.15900
C  49.98500 28.66300 28.68300
C  49.72200 28.66500 30.05900
C  48.98700 27.42800 30.34600
C  50.93600 29.63500 27.93400
C  49.99400 29.34900 31.27100
O  50.65600 30.36500 31.47200
C  49.37000 28.46600 32.37200
C  50.42800 28.18600 33.32200
O  51.42000 27.51400 33.02800
O  50.08500 28.74300 34.54800
C  51.11400 28.53300 35.55600
H  46.01100 22.37100 32.62400
H  46.73400 22.07300 26.09000
H  49.24600 27.82700 26.08800
H  48.49800 25.92900 34.47600
H  46.04500 24.52900 34.26500
H  48.08900 22.60200 34.04200
H  46.86600 22.92700 35.21500
H  48.54600 23.84500 35.08000
H  45.64400 26.60100 34.39300
H  46.54200 27.83800 33.62100
H  47.47500 28.65400 35.26800
H  47.82500 27.17000 36.06500
H  45.15600 20.53600 31.94200
H  45.60000 19.24900 30.96800
H  44.05000 20.11900 30.49300
H  44.52800 18.47800 28.93600
H  43.76200 18.49300 27.30200
H  43.17600 19.61000 28.48000
H  47.04100 23.87600 24.38100
H  49.39000 25.67100 24.50100
H  49.15800 22.28400 25.32700
H  49.88600 23.23300 23.96200
H  48.48700 22.28000 23.79600
H  47.24700 27.30200 24.95100
H  46.71400 25.95000 23.77800
H  47.61600 27.20600 22.06500
H  49.15300 26.95200 22.86200
H  48.11400 28.36200 23.23500
H  51.02900 29.28500 26.90600
H  51.92900 29.56600 28.38000
H  50.48400 30.62600 27.92900
H  48.50900 28.96600 32.81700
H  51.61300 27.56900 35.46200
H  50.76500 28.78600 36.55700
H  51.96900 29.20600 35.48800

