158

Mg 25.20900 0.97400 28.85800
C  27.16000 0.70700 31.70600
C  22.41400 0.80500 31.15700
C  23.12200 1.15100 26.32200
C  27.92200 0.40200 26.86400
N  24.84500 0.61300 31.16200
C  25.85700 0.75100 32.11600
C  25.37300 0.76300 33.58100
C  23.78700 0.82800 33.35100
C  23.64700 0.68700 31.79400
C  22.89000 -0.17600 34.15700
C  25.83900 1.96600 34.42200
C  24.99300 2.44500 35.58400
H  25.61100 3.00900 36.86500
N  23.12000 0.94200 28.68300
C  22.19500 0.90100 29.71000
C  20.78300 1.04100 29.14000
C  20.94800 1.14300 27.72200
C  22.42400 1.09600 27.51400
C  19.53100 0.74700 29.88200
C  19.89500 1.14500 26.55400
O  20.20300 1.23100 25.37800
C  18.33600 0.99200 26.87600
N  25.43300 0.81300 26.88900
C  24.49700 1.01700 25.97500
C  25.05200 1.22200 24.60800
C  26.61900 1.19200 24.83700
C  26.68200 0.69100 26.25100
C  24.52200 0.21400 23.57300
C  27.37500 2.58100 24.67500
C  26.91900 3.70900 25.57000
N  27.19900 0.61000 29.13300
C  28.26000 0.40500 28.24000
C  29.50500 0.19600 28.97000
C  29.14300 0.35800 30.32200
C  27.70500 0.57100 30.36300
C  30.84400 0.06800 28.27500
C  29.64100 0.41000 31.68900
O  30.72000 0.25700 32.14200
C  28.36300 0.53200 32.56900
C  28.28600 -0.69400 33.39100
O  27.89500 -1.79100 33.09300
O  28.59500 -0.34800 34.68100
C  28.26400 -1.23000 35.84400
H  21.55300 0.81600 31.82900
H  22.57300 1.23400 25.38100
H  28.72000 0.16600 26.15700
H  25.73300 -0.14100 34.07400
H  23.41100 1.81300 33.62600
H  22.29100 -0.88200 33.58200
H  22.28100 0.40100 34.85200
H  23.56300 -0.86800 34.66300
H  25.90200 2.78900 33.71000
H  26.85800 1.91200 34.80500
H  24.28100 1.65400 35.82200
H  24.46400 3.36400 35.33400
H  18.73200 1.43900 29.61500
H  19.59200 0.77900 30.97000
H  19.16300 -0.20200 29.49300
H  17.74500 1.07300 25.96400
H  17.98600 1.65200 27.67000
H  18.29000 -0.00700 27.31000
H  24.73600 2.25700 24.47700
H  27.05900 0.37500 24.26400
H  23.99900 -0.69200 23.87900
H  25.35400 -0.00300 22.90400
H  23.75000 0.75500 23.02400
H  27.06700 3.04100 23.73600
H  28.43600 2.33600 24.63900
H  27.46500 3.52500 26.49500
H  25.83800 3.64900 25.69600
H  27.16800 4.68700 25.15800
H  30.88000 0.45700 27.25700
H  31.02400 -1.00700 28.30300
H  31.68200 0.39500 28.89100
H  28.42600 1.43800 33.17200
H  27.55700 -0.63100 36.41800
H  29.19600 -1.40400 36.38300
H  27.65400 -2.09500 35.58500
Mg 39.64700 9.87500 29.89700
C  41.74500 11.19300 32.48000
C  37.52400 8.91700 32.56300
C  37.82200 8.23800 27.61300
C  41.90800 10.97800 27.55100
N  39.75100 9.90600 32.34400
C  40.66300 10.57100 33.09700
C  40.22600 10.58100 34.55400
C  38.89000 9.73700 34.51800
C  38.71300 9.56600 33.01200
C  38.85700 8.34600 35.23300
C  40.01900 11.99900 35.16400
C  40.92600 12.32900 36.37000
H  40.25300 12.72800 37.69700
N  37.86700 8.71400 30.08500
C  37.07800 8.53500 31.26400
C  35.90300 7.84100 30.76000
C  36.09200 7.53900 29.35500
C  37.28200 8.17700 28.93900
C  34.79300 7.48000 31.75400
C  35.14900 6.70800 28.50700
O  35.43600 6.35200 27.35700
C  33.87100 6.37500 29.02500
N  39.78000 9.84800 27.78000
C  38.89700 8.99800 27.08700
C  39.30500 8.98100 25.58700
C  40.54100 10.02400 25.57900
C  40.79500 10.24700 27.03900
C  39.61300 7.60400 25.03400
C  40.22900 11.25800 24.71000
C  41.39500 12.19600 24.44000
N  41.47900 10.80800 29.96600
C  42.26400 11.22100 28.89100
C  43.47100 11.94800 29.38600
C  43.25800 11.99700 30.78900
C  42.01300 11.26900 31.07600
C  44.57600 12.45500 28.49700
C  43.83300 12.48300 32.00900
O  44.86100 13.17300 32.17200
C  42.84800 12.03800 33.18100
C  43.59500 11.13600 34.07300
O  43.80200 9.92400 33.97600
O  43.96300 11.80300 35.23500
C  44.72200 11.11300 36.23500
H  36.75000 8.85300 33.33000
H  37.16900 7.83300 26.83800
H  42.58500 11.20900 26.72600
H  41.00400 9.98000 35.02400
H  38.03300 10.29800 34.88800
H  39.85900 7.93500 35.36200
H  38.46200 7.51300 34.65300
H  38.30700 8.35500 36.17400
H  38.98700 12.11900 35.49400
H  40.12400 12.76800 34.39900
H  41.30500 13.31200 36.09100
H  41.65300 11.53700 36.54800
H  34.80100 8.18000 32.58900
H  34.96100 6.44800 32.05900
H  33.83600 7.58900 31.24300
H  33.41100 7.31500 29.33100
H  34.02200 5.63000 29.80600
H  33.26100 5.85400 28.28800
H  38.39300 9.34400 25.11400
H  41.38200 9.51000 25.11400
H  39.71600 6.86100 25.82500
H  40.41400 7.56700 24.29500
H  38.70000 7.29000 24.53000
H  39.40100 11.86000 25.08300
H  39.89300 10.83300 23.76400
H  41.16700 12.68500 23.49300
H  42.36500 11.70100 24.39400
H  41.41200 13.03700 25.13200
H  45.52600 11.99000 28.76300
H  44.57200 13.48300 28.85900
H  44.48500 12.35300 27.41500
H  42.41400 12.94400 33.60500
H  45.56200 10.62200 35.74300
H  44.15100 10.27500 36.63500
H  45.06600 11.74300 37.05500

