158

Mg -2.41000 17.16800 26.39200
C  -2.97500 14.82400 28.95700
C  -2.81300 19.76100 28.51800
C  -2.20500 19.21100 23.79500
C  -2.73400 14.40400 24.12100
N  -2.89600 17.25400 28.53900
C  -3.15000 16.13900 29.37900
C  -3.30100 16.68500 30.83700
C  -3.48900 18.20800 30.56600
C  -3.05700 18.45800 29.12000
C  -4.90300 18.81300 31.07700
C  -2.16400 16.28500 31.71700
C  -1.85600 17.15900 32.98900
H  -1.34000 16.47100 34.29100
N  -2.37900 19.21200 26.18100
C  -2.52500 20.10900 27.21300
C  -2.39600 21.42100 26.65800
C  -2.23200 21.25500 25.27000
C  -2.21800 19.82400 25.01100
C  -2.49700 22.68600 27.45000
C  -2.03700 22.38300 24.22400
O  -2.10100 22.16500 22.98400
C  -1.91200 23.80500 24.66000
N  -2.42500 16.84900 24.22900
C  -2.27400 17.89800 23.34500
C  -2.33300 17.42400 21.86300
C  -2.84300 15.98700 22.01800
C  -2.61100 15.66800 23.50700
C  -3.09900 18.40300 20.99800
C  -2.21300 14.93700 21.08500
C  -3.14300 14.33600 20.01400
N  -2.64600 15.02800 26.43900
C  -2.60800 14.04900 25.41700
C  -2.56700 12.76400 26.05000
C  -2.63800 13.02700 27.42800
C  -2.77300 14.40600 27.63800
C  -2.46300 11.41000 25.25900
C  -2.65300 12.34400 28.69500
O  -2.43300 11.14900 28.96200
C  -2.82900 13.48100 29.76300
C  -1.56800 13.47400 30.59800
O  -0.50300 13.96700 30.31000
O  -1.74900 12.61100 31.70500
C  -0.51300 12.47900 32.50500
H  -3.02700 20.51900 29.27500
H  -1.92700 19.83000 22.93900
H  -2.87700 13.51000 23.51000
H  -4.13400 16.15100 31.29500
H  -2.75100 18.79700 31.11000
H  -4.69400 19.41100 31.96300
H  -5.52500 17.93600 31.25600
H  -5.43100 19.43900 30.35700
H  -1.22500 16.23900 31.16500
H  -2.35400 15.24700 31.98900
H  -2.67400 17.77600 33.36200
H  -1.17100 17.96300 32.71900
H  -1.54400 23.21200 27.49500
H  -2.68300 22.40400 28.48600
H  -3.31500 23.30300 27.07900
H  -2.82700 24.11000 25.16600
H  -1.74300 24.45000 23.79800
H  -1.00400 23.85800 25.26100
H  -1.30700 17.39500 21.49700
H  -3.92500 16.00500 21.88500
H  -3.91600 17.84300 20.54200
H  -2.48600 18.84500 20.21300
H  -3.60600 19.26900 21.42400
H  -1.88100 14.14400 21.75500
H  -1.27500 15.24700 20.62600
H  -2.88600 14.79800 19.06100
H  -4.17600 14.46300 20.33800
H  -3.04600 13.25800 19.88800
H  -1.84000 11.75800 24.43500
H  -3.42800 11.06500 24.88800
H  -2.03700 10.62600 25.88500
H  -3.68700 13.30200 30.41000
H  -0.87100 12.24500 33.50800
H  -0.01400 13.44700 32.55700
H  0.02800 11.71700 31.94500
Mg 2.45500 -2.45500 45.06200
C  5.76600 -1.81300 44.44000
C  1.62000 0.15300 42.84000
C  -0.85500 -3.42100 45.07200
C  3.29100 -5.51700 46.55900
N  3.54300 -0.95500 43.94500
C  4.92500 -0.89700 43.81900
C  5.45200 0.16200 42.81200
C  4.06200 0.80900 42.38500
C  3.00600 -0.08000 43.08200
C  3.93400 2.22000 42.93400
C  6.30900 -0.35500 41.60100
C  7.72200 0.27500 41.47000
H  8.01800 1.01600 40.21200
N  0.62200 -1.54400 44.33300
C  0.51800 -0.53600 43.38200
C  -0.85300 -0.31300 43.18900
C  -1.63200 -1.21700 43.96900
C  -0.64400 -2.12200 44.55400
C  -1.28900 0.88000 42.25800
C  -3.14100 -1.17200 44.14000
O  -3.85700 -0.37000 43.48800
C  -3.73000 -2.01900 45.11800
N  1.40000 -4.34000 45.58200
C  0.04300 -4.37100 45.58800
C  -0.48100 -5.66800 46.26500
C  0.85700 -6.39300 46.67300
C  1.93700 -5.46600 46.14000
C  -1.62300 -5.45200 47.34300
C  0.91300 -7.83000 46.10700
C  0.53200 -9.03200 47.07000
N  4.16300 -3.44700 45.52800
C  4.33500 -4.70600 46.06700
C  5.79100 -4.97900 46.18400
C  6.43400 -3.84100 45.55000
C  5.39700 -3.01300 45.17800
C  6.50600 -6.20500 46.75200
C  7.72000 -3.20600 45.19800
O  8.88800 -3.50100 45.43300
C  7.30800 -1.89700 44.45900
C  7.76200 -0.75200 45.25800
O  7.61700 -0.64400 46.46600
O  8.45400 0.19000 44.46300
C  8.69400 1.46700 45.05900
H  1.49000 0.84900 42.00900
H  -1.91100 -3.60300 45.28400
H  3.60400 -6.47200 46.98700
H  5.98700 0.90000 43.41000
H  3.81600 0.82700 41.32300
H  3.74200 2.89100 42.09700
H  4.74100 2.50300 43.60800
H  3.04600 2.37800 43.54600
H  5.80500 -0.12600 40.66100
H  6.28200 -1.43700 41.73000
H  8.39300 -0.56000 41.67200
H  7.98800 1.00200 42.23700
H  -2.18200 0.49700 41.76400
H  -0.59600 1.09200 41.44400
H  -1.41700 1.82600 42.78400
H  -3.16300 -2.04300 46.04800
H  -3.77400 -3.01100 44.66800
H  -4.77200 -1.75700 45.29900
H  -1.00600 -6.21500 45.48200
H  0.94800 -6.55300 47.74800
H  -2.07600 -4.46200 47.30200
H  -1.27800 -5.39700 48.37500
H  -2.42800 -6.18100 47.25100
H  1.95100 -7.98300 45.81200
H  0.36000 -8.03400 45.19000
H  -0.42000 -9.38800 46.67800
H  0.27900 -8.65500 48.06100
H  1.36900 -9.72700 47.13600
H  6.09000 -6.54500 47.70100
H  7.56500 -5.98500 46.88400
H  6.42300 -6.92500 45.93900
H  7.79900 -1.97600 43.48900
H  7.80500 1.80800 45.59000
H  8.85100 2.21300 44.28000
H  9.53500 1.39300 45.74800

