158

Mg 36.13200 49.89200 24.89800
C  36.56600 48.09800 27.83800
C  34.51300 52.28500 26.79400
C  35.37100 51.51600 22.03400
C  37.30100 47.13700 23.13900
N  35.64900 50.10500 27.08300
C  36.09400 49.36000 28.09000
C  35.71900 49.91900 29.50800
C  34.98100 51.27300 29.10500
C  35.04200 51.27700 27.53200
C  33.61600 51.48400 29.74100
C  36.98100 50.22200 30.46500
C  36.88300 49.77300 31.93600
H  35.62000 50.11700 32.75200
N  35.31200 51.72500 24.48200
C  34.61900 52.54100 25.40600
C  34.18700 53.77100 24.76000
C  34.42000 53.61000 23.35700
C  35.06100 52.18800 23.23700
C  33.72900 54.91500 25.52300
C  34.26600 54.53100 22.14400
O  34.62700 54.23500 21.02700
C  33.54800 55.84400 22.43400
N  36.27100 49.35900 22.88500
C  35.93400 50.23200 21.84600
C  36.07100 49.55500 20.47300
C  36.97900 48.23700 20.81700
C  36.82200 48.20500 22.33600
C  34.76400 49.40400 19.72700
C  38.50700 48.28200 20.48200
C  39.31300 49.49000 20.99800
N  36.80200 47.94400 25.33600
C  37.22500 46.95400 24.51100
C  37.64000 45.80200 25.31800
C  37.37400 46.21100 26.65300
C  36.86900 47.55100 26.60800
C  37.95800 44.39000 24.74300
C  37.37000 45.79600 28.02000
O  37.72000 44.74700 28.54600
C  36.92300 46.96400 28.84000
C  35.78400 46.58600 29.64900
O  34.66000 46.31500 29.28900
O  36.27600 46.56000 30.97200
C  35.18000 46.25900 31.92500
H  33.95600 53.04500 27.34600
H  35.01500 51.89900 21.07600
H  37.86000 46.39400 22.56500
H  34.97000 49.28300 29.98100
H  35.56000 52.14700 29.40400
H  32.85600 51.82200 29.03700
H  33.82900 52.29900 30.43200
H  33.24900 50.59000 30.24600
H  37.23000 51.27700 30.34700
H  37.79100 49.68500 29.97200
H  37.68000 50.25200 32.50600
H  37.03600 48.69500 31.89600
H  33.46600 54.73300 26.56500
H  32.82100 55.34700 25.10100
H  34.56600 55.61200 25.54000
H  33.66400 56.45800 21.54100
H  33.91700 56.51800 23.20700
H  32.49900 55.54800 22.45400
H  36.67700 50.17500 19.81100
H  36.57700 47.29900 20.43300
H  33.98800 49.68900 20.43800
H  34.62700 48.36000 19.44500
H  34.64700 50.03900 18.84900
H  38.57000 48.36600 19.39700
H  39.12200 47.44800 20.82000
H  38.72600 50.08300 21.70000
H  39.42000 50.18700 20.16700
H  40.24800 49.22900 21.49400
H  38.97000 44.04500 24.95400
H  37.83900 44.40300 23.66000
H  37.22600 43.67600 25.11800
H  37.81200 47.32500 29.35800
H  34.91500 45.20400 31.85200
H  34.29100 46.83200 31.66200
H  35.46900 46.50900 32.94500
Mg -2.09000 34.63600 26.06800
C  -3.65900 32.86700 28.60200
C  -0.86000 36.81000 28.43600
C  -0.85200 36.54900 23.57800
C  -3.74000 32.58600 23.74600
N  -2.21400 34.80600 28.25600
C  -2.80700 33.93100 29.09000
C  -2.51100 34.27400 30.54100
C  -1.80100 35.67100 30.43100
C  -1.58300 35.77300 28.90400
C  -2.66700 36.85600 31.02700
C  -1.72500 33.18200 31.37200
C  -2.37100 32.75000 32.74500
H  -1.44100 33.00800 33.99200
N  -0.87300 36.17600 26.02000
C  -0.40000 36.89800 27.10700
C  0.57900 37.88300 26.62200
C  0.64300 37.79000 25.20700
C  -0.39500 36.81700 24.87200
C  1.29900 38.76400 27.64200
C  1.57800 38.38300 24.20700
O  1.57900 38.05900 23.01100
C  2.73500 39.34600 24.56400
N  -2.49200 34.70900 23.94300
C  -1.79900 35.58400 23.16000
C  -1.90700 35.11100 21.68000
C  -2.76900 33.82200 21.74700
C  -3.05300 33.68100 23.19500
C  -2.53500 36.27300 20.84900
C  -2.00700 32.53300 21.20100
C  -1.21400 31.63900 22.07200
N  -3.46500 33.10500 26.06900
C  -4.03100 32.35300 25.06000
C  -4.80400 31.29700 25.60500
C  -4.71500 31.50700 26.95600
C  -3.89800 32.58100 27.22100
C  -5.62700 30.28500 24.77600
C  -5.22900 30.97600 28.20300
O  -6.02300 30.08900 28.48700
C  -4.57600 31.88500 29.32900
C  -5.64000 32.54800 30.14300
O  -6.04700 33.66200 29.87800
O  -5.94900 31.81800 31.27700
C  -6.90600 32.55100 32.18800
H  -0.51600 37.55000 29.16200
H  -0.59900 37.22100 22.75600
H  -4.13900 31.85600 23.03900
H  -3.49500 34.25300 31.00700
H  -0.86100 35.78900 30.96800
H  -3.17500 37.30000 30.17100
H  -1.92100 37.51500 31.47200
H  -3.43200 36.47900 31.70600
H  -0.70900 33.48500 31.62600
H  -1.84600 32.34900 30.67900
H  -2.67100 31.70200 32.75800
H  -3.33600 33.25200 32.81900
H  1.48500 39.77200 27.27000
H  2.26900 38.26900 27.69400
H  0.84900 38.83300 28.63200
H  3.07700 39.90500 23.69300
H  3.57200 38.77700 24.96900
H  2.29700 40.12000 25.19400
H  -0.89200 34.87600 21.36000
H  -3.72500 33.97600 21.24600
H  -2.74400 37.11000 21.51600
H  -3.45500 36.02300 20.32200
H  -1.77300 36.70300 20.19900
H  -1.34200 32.96900 20.45600
H  -2.76400 31.92400 20.70800
H  -1.63600 30.63500 22.03100
H  -1.13500 32.00600 23.09500
H  -0.15500 31.53300 21.83900
H  -5.51200 29.35200 25.32700
H  -5.04600 30.16400 23.86200
H  -6.62300 30.70800 24.64200
H  -4.05100 31.18000 29.97400
H  -6.43900 33.50600 32.42900
H  -7.17600 32.01300 33.09600
H  -7.78800 32.72000 31.57000

