158

Mg -2.41500 17.53200 26.03700
C  -2.77900 15.18600 28.72500
C  -2.86000 20.12500 28.36800
C  -2.73000 19.76900 23.53200
C  -2.41700 14.93600 23.82900
N  -2.72800 17.60600 28.35100
C  -2.67600 16.52900 29.19300
C  -2.56800 17.05500 30.62600
C  -2.78300 18.65700 30.45600
C  -2.73000 18.82700 28.98300
C  -4.00300 19.20000 31.26600
C  -1.16700 16.63400 31.25800
C  -0.76200 17.53100 32.42900
H  -0.31900 16.83500 33.74200
N  -2.68300 19.56500 25.94600
C  -2.92600 20.40000 27.01000
C  -3.35700 21.67600 26.49400
C  -3.19700 21.72100 25.14400
C  -2.91000 20.28000 24.80200
C  -3.91600 22.72300 27.37700
C  -3.51100 22.85200 24.16100
O  -3.41600 22.71000 22.94500
C  -3.83400 24.29500 24.68900
N  -2.67800 17.36900 23.91900
C  -2.61700 18.49000 23.13400
C  -2.31800 18.01500 21.66500
C  -2.33000 16.44400 21.82200
C  -2.39200 16.27600 23.28000
C  -3.36300 18.66100 20.63900
C  -1.05500 15.80900 21.24300
C  0.28900 15.89500 21.93500
N  -2.55700 15.53100 26.17800
C  -2.52200 14.56300 25.16600
C  -2.56800 13.24600 25.76300
C  -2.59500 13.48200 27.07500
C  -2.67300 14.80900 27.36600
C  -2.39100 11.84000 25.16600
C  -2.66500 12.79900 28.38500
O  -2.66100 11.60500 28.58000
C  -2.71000 13.85400 29.51400
C  -1.49200 13.62300 30.30100
O  -0.37700 13.78900 29.96800
O  -1.93200 13.06300 31.52800
C  -0.80600 12.60300 32.34300
H  -2.97500 20.95400 29.07000
H  -2.53800 20.59200 22.84100
H  -2.26300 14.06300 23.19100
H  -3.38000 16.52800 31.12800
H  -1.85700 19.04800 30.87600
H  -3.77900 19.88400 32.08400
H  -4.66700 18.39600 31.58500
H  -4.65600 19.83800 30.67100
H  -0.42300 16.68400 30.46400
H  -1.26700 15.60400 31.60300
H  -1.66400 18.05300 32.74900
H  -0.09000 18.29600 32.03900
H  -3.24600 23.57600 27.48100
H  -4.15900 22.26800 28.33700
H  -4.81200 23.16500 26.94100
H  -4.87600 24.19600 24.99300
H  -3.68500 24.86900 23.77400
H  -3.17800 24.66100 25.48000
H  -1.27200 18.23500 21.45400
H  -3.25600 16.02900 21.42500
H  -4.08900 19.38800 21.00300
H  -4.04100 17.96800 20.14100
H  -2.78500 19.22300 19.90600
H  -0.77500 16.30800 20.31500
H  -1.23700 14.73600 21.17200
H  0.26300 16.62600 22.74200
H  0.94500 16.30200 21.16600
H  0.69100 14.94100 22.27800
H  -2.10800 11.90000 24.11500
H  -3.30000 11.24800 25.27100
H  -1.56000 11.41100 25.72600
H  -3.58700 13.63800 30.12500
H  -0.38500 13.48700 32.82400
H  -0.10200 12.00300 31.76600
H  -1.14300 11.99700 33.18400
Mg 9.93900 47.90800 26.37800
C  7.93700 48.09200 29.29200
C  12.46000 49.27100 28.19700
C  11.51600 47.95500 23.57900
C  6.80600 47.32000 24.62300
N  10.14400 48.60700 28.59400
C  9.22200 48.51200 29.60200
C  9.82300 48.96000 30.90300
C  11.11400 49.58700 30.43400
C  11.27700 49.19000 28.99200
C  11.17200 51.11000 30.72200
C  10.09600 47.75300 31.88900
C  9.59200 48.08200 33.33800
H  9.48300 46.78100 34.28700
N  11.71100 48.40800 25.92600
C  12.66700 48.79100 26.88200
C  14.01800 48.66700 26.23300
C  13.78400 48.49300 24.88800
C  12.29400 48.23200 24.72000
C  15.38700 48.92100 27.07100
C  14.76300 48.44100 23.76200
O  14.40600 48.27400 22.60900
C  16.24200 48.64000 23.99900
N  9.27300 47.62300 24.36100
C  10.12400 47.68600 23.39300
C  9.52500 47.35200 22.02000
C  8.07300 47.04300 22.38600
C  8.00700 47.26300 23.89000
C  9.77900 48.38700 20.91000
C  7.63000 45.55300 21.99700
C  7.66200 45.22600 20.47900
N  7.83700 47.61700 26.80700
C  6.76900 47.41500 26.01200
C  5.54900 47.27800 26.72500
C  5.92600 47.49800 28.06400
C  7.36300 47.70400 28.04400
C  4.13800 46.99200 26.15800
C  5.46400 47.73800 29.37200
O  4.27900 47.79700 29.78300
C  6.75200 48.02700 30.26300
C  6.84100 46.90400 31.25100
O  7.52700 45.90500 31.24200
O  5.70200 47.05700 32.07400
C  5.45900 46.00000 33.04800
H  13.37800 49.62500 28.67200
H  12.16300 47.53800 22.80400
H  5.86000 47.21700 24.08700
H  9.18100 49.71200 31.36400
H  11.96400 49.05400 30.86200
H  12.07900 51.22900 31.31600
H  10.38100 51.50000 31.36300
H  11.35300 51.68600 29.81400
H  11.17500 47.62900 31.98000
H  9.78800 46.74900 31.59600
H  8.55900 48.42800 33.29500
H  10.14900 48.89900 33.79700
H  15.16400 48.88600 28.13700
H  15.86500 49.88000 26.86800
H  16.10200 48.11400 26.90800
H  16.71600 48.80800 23.03200
H  16.80500 47.85900 24.51100
H  16.32800 49.53900 24.60900
H  9.90400 46.39500 21.66200
H  7.40900 47.64000 21.76100
H  9.83700 49.39800 21.31300
H  9.01200 48.48100 20.14100
H  10.74000 48.29000 20.40400
H  6.68600 45.31000 22.48500
H  8.36800 44.86800 22.41400
H  8.43500 44.49500 20.24400
H  7.87400 46.11400 19.88300
H  6.67600 44.90400 20.14500
H  3.72400 47.88100 25.68200
H  3.45900 46.52800 26.87200
H  4.26300 46.27900 25.34300
H  6.83400 48.93900 30.85300
H  5.70500 46.47500 33.99800
H  6.04200 45.11600 32.79000
H  4.39900 45.75100 32.99600

