158

Mg 40.84200 9.27900 29.22800
C  42.46300 10.76600 31.96700
C  38.54400 7.99900 31.45600
C  39.12300 8.07100 26.60300
C  43.38000 10.41400 27.28000
N  40.60300 9.38300 31.44700
C  41.38500 10.06100 32.39900
C  40.77000 10.02500 33.77400
C  39.67300 8.90900 33.54100
C  39.54900 8.74300 32.02700
C  40.01300 7.61800 34.30800
C  40.19500 11.26800 34.45300
C  39.76300 11.21600 35.92800
H  40.24300 12.41700 36.77100
N  39.00500 8.22800 29.05900
C  38.23900 7.79600 30.05000
C  37.03300 7.17100 29.52700
C  37.06400 7.40900 28.08300
C  38.43600 7.94900 27.83400
C  36.00200 6.60200 30.40500
C  36.02300 7.15700 27.07400
O  36.19400 7.26100 25.86900
C  34.73800 6.79200 27.50400
N  41.24400 9.11900 27.28000
C  40.39900 8.63100 26.37300
C  41.01800 8.61400 24.94200
C  42.31900 9.49300 25.19700
C  42.32600 9.78600 26.67600
C  41.12300 7.16800 24.35600
C  42.41000 10.83900 24.37600
C  41.56500 12.09300 24.87900
N  42.63000 10.20600 29.51100
C  43.52500 10.62000 28.60900
C  44.55600 11.39800 29.23700
C  44.17200 11.54800 30.55600
C  42.97500 10.80800 30.70500
C  45.77000 11.87000 28.47700
C  44.56000 12.02600 31.86400
O  45.57400 12.67800 32.17200
C  43.38200 11.59700 32.86100
C  44.01000 10.82500 33.98800
O  44.90700 10.06600 33.86400
O  43.58000 11.22300 35.13800
C  44.15300 10.80700 36.40000
H  37.80400 7.56200 32.12900
H  38.63400 7.65400 25.72000
H  44.15000 10.92800 26.70200
H  41.45700 9.64900 34.53300
H  38.75200 9.30500 33.97000
H  41.03100 7.65000 34.69600
H  39.99900 6.76300 33.63100
H  39.30200 7.41700 35.11000
H  39.37900 11.59100 33.80600
H  40.91600 12.05700 34.23600
H  39.97700 10.24700 36.37900
H  38.68600 11.33400 36.04100
H  36.52100 6.24600 31.29400
H  35.50500 5.73700 29.96600
H  35.27400 7.39500 30.57900
H  34.63200 5.70700 27.52700
H  33.99400 7.09100 26.76600
H  34.41000 7.27400 28.42400
H  40.30400 9.20300 24.36600
H  43.15000 8.84000 24.92800
H  40.65100 7.19900 23.37400
H  40.62800 6.44600 25.00500
H  42.18600 6.93000 24.40400
H  42.20100 10.70700 23.31400
H  43.45600 11.13000 24.47700
H  40.95000 11.67000 25.67300
H  41.10900 12.37600 23.93000
H  42.22500 12.89400 25.21000
H  46.24200 11.05500 27.92900
H  46.46100 12.16800 29.26500
H  45.59000 12.65500 27.74300
H  42.98600 12.54100 33.23600
H  45.22000 10.61900 36.27900
H  43.68000 9.88300 36.73100
H  43.87800 11.53900 37.15900
Mg 48.78800 35.08500 26.47200
C  46.84500 33.51100 28.96900
C  48.91100 37.85200 28.60200
C  50.12100 36.72800 23.95500
C  48.24200 32.30800 24.33700
N  48.06800 35.52200 28.62200
C  47.33000 34.72100 29.38300
C  47.34600 35.24200 30.79800
C  47.68900 36.68700 30.63800
C  48.31000 36.75000 29.22200
C  46.45900 37.69700 30.88800
C  48.44700 34.41800 31.62300
C  48.13600 33.94900 33.07100
H  47.72900 34.97000 34.11700
N  49.36400 37.02800 26.30500
C  49.31700 38.05700 27.24900
C  49.91200 39.29300 26.66100
C  50.27700 38.95700 25.31200
C  49.93300 37.54500 25.12700
C  50.07400 40.58400 27.45400
C  50.91900 39.79300 24.26600
O  51.29600 39.38400 23.16700
C  51.35900 41.16900 24.68000
N  48.99500 34.63100 24.32800
C  49.78800 35.42000 23.63700
C  50.16300 34.82700 22.26600
C  49.68700 33.29400 22.45200
C  48.94400 33.41600 23.78700
C  49.48400 35.47600 21.11300
C  50.71500 32.15700 22.61000
C  50.40200 30.75700 22.05500
N  47.78800 33.27700 26.55700
C  47.65100 32.22800 25.65700
C  46.82700 31.14300 26.20400
C  46.45100 31.63300 27.48900
C  47.08000 32.93300 27.69900
C  46.34700 29.87000 25.56600
C  45.70000 31.33800 28.65300
O  44.94600 30.42500 28.94600
C  45.72700 32.61700 29.47600
C  45.79600 32.34100 30.95200
O  46.52500 31.54500 31.45500
O  44.82700 32.98500 31.54500
C  44.64500 32.81900 32.99200
H  48.97800 38.79000 29.15600
H  50.61800 37.12700 23.06800
H  48.09400 31.41900 23.72000
H  46.41400 35.10200 31.34500
H  48.58300 36.92900 31.21200
H  46.34300 38.42300 30.08300
H  46.66700 38.39000 31.70300
H  45.50800 37.19700 31.07200
H  49.44000 34.86700 31.62000
H  48.63300 33.46700 31.12500
H  49.01500 33.64800 33.64100
H  47.44000 33.11500 33.16800
H  49.28900 40.46900 28.20100
H  49.84900 41.39400 26.75900
H  51.13400 40.72800 27.66600
H  50.62300 41.97200 24.73200
H  52.06300 41.58800 23.96000
H  51.84600 41.07800 25.65100
H  51.22000 34.87800 22.00700
H  48.90900 32.97600 21.75800
H  48.64600 36.07800 21.46600
H  49.15100 34.74500 20.37600
H  50.24300 36.10900 20.65200
H  50.91100 31.98000 23.66700
H  51.71000 32.47500 22.29800
H  50.42100 30.09500 22.92000
H  51.12500 30.42200 21.31100
H  49.37900 30.66900 21.68900
H  45.27000 29.92000 25.40400
H  46.60100 29.00800 26.18400
H  46.84800 29.89500 24.59900
H  44.82600 33.18000 29.23200
H  43.75500 32.25000 33.26200
H  44.58200 33.82100 33.41500
H  45.48500 32.24200 33.37900

