158

Mg 16.52100 -1.52800 28.19100
C  15.19900 0.56200 30.78300
C  18.29400 -3.21600 30.48200
C  17.96100 -3.43200 25.72000
C  14.89700 0.46900 25.86000
N  16.81300 -1.26900 30.25300
C  16.17700 -0.38800 31.18900
C  16.44600 -0.81500 32.64600
C  17.56900 -1.86800 32.52400
C  17.59000 -2.10100 30.98700
C  19.08300 -1.63600 32.95800
C  15.08200 -1.22900 33.28000
C  14.72500 -0.77800 34.69200
H  15.70600 0.04000 35.49700
N  17.77800 -3.17900 28.16400
C  18.42200 -3.72300 29.14600
C  19.23200 -4.89200 28.77600
C  19.03800 -5.06700 27.36300
C  18.22700 -3.80000 27.02000
C  20.01800 -5.72900 29.79300
C  19.67100 -6.01200 26.37600
O  19.57000 -5.87600 25.14900
C  20.50300 -7.20900 26.93100
N  16.40100 -1.44100 26.12100
C  17.05800 -2.37100 25.31600
C  16.71900 -2.10200 23.80900
C  15.65400 -0.93400 23.92800
C  15.63600 -0.61100 25.39300
C  17.96000 -1.83100 23.04100
C  14.28700 -1.51400 23.34500
C  14.20300 -1.52700 21.80500
N  15.37500 0.27100 28.25300
C  14.78900 0.90800 27.23800
C  13.96600 1.98700 27.75200
C  14.02200 1.86400 29.15100
C  14.97900 0.84400 29.44000
C  13.10000 2.76000 26.87700
C  13.65900 2.42500 30.38500
O  13.03600 3.41400 30.65500
C  14.36000 1.56700 31.49300
C  15.22700 2.54700 32.27700
O  16.41200 2.81200 32.00000
O  14.46400 3.03200 33.28700
C  14.96400 4.14300 34.12100
H  18.91200 -3.67100 31.25900
H  18.36000 -3.97500 24.86100
H  14.23900 1.01200 25.17900
H  16.86600 0.05100 33.15800
H  17.31300 -2.75900 33.09800
H  19.08000 -0.85500 33.71900
H  19.67700 -1.43200 32.06700
H  19.45200 -2.55600 33.41100
H  15.07800 -2.31700 33.35400
H  14.20600 -1.01000 32.67100
H  14.34400 -1.62000 35.27100
H  13.83800 -0.17000 34.51100
H  20.01000 -6.81100 29.66200
H  19.76900 -5.61500 30.84800
H  21.01800 -5.30900 29.69100
H  21.03900 -7.74700 26.14900
H  19.76500 -7.85500 27.40700
H  21.19300 -6.86000 27.69800
H  16.29300 -3.05500 23.49600
H  15.97300 -0.08800 23.31900
H  17.88200 -0.97100 22.37500
H  18.24800 -2.66900 22.40700
H  18.78500 -1.61900 23.72100
H  13.35800 -1.04500 23.66600
H  14.09400 -2.54400 23.64700
H  13.22000 -1.13700 21.54000
H  14.27100 -2.57400 21.51100
H  15.04900 -0.98900 21.37900
H  12.52500 2.10900 26.21900
H  13.76600 3.30200 26.20600
H  12.41300 3.43900 27.38200
H  13.65700 1.09900 32.18100
H  15.00100 3.85000 35.17000
H  14.30500 5.00500 34.01900
H  15.89500 4.60300 33.78800
Mg 46.68300 17.17300 29.01500
C  45.09400 16.56700 32.20000
C  49.11900 18.94100 30.93800
C  47.97600 18.33200 26.23500
C  44.06000 15.67300 27.45700
N  47.14100 17.58900 31.37300
C  46.34600 17.18300 32.44900
C  46.85400 17.74200 33.80800
C  48.10700 18.53800 33.35900
C  48.16900 18.32100 31.77900
C  48.05600 20.03900 33.69900
C  47.22200 16.61900 34.86000
C  46.47700 16.87400 36.22300
H  46.30700 18.28900 36.67200
N  48.37600 18.43300 28.64300
C  49.25300 19.04600 29.53700
C  50.28200 19.78900 28.85900
C  50.03600 19.54700 27.42500
C  48.75600 18.76100 27.33500
C  51.43800 20.37300 29.46100
C  50.89800 19.84200 26.18600
O  50.71300 19.32000 25.08700
C  52.04400 20.79600 26.28900
N  46.24400 16.79400 27.16300
C  46.83700 17.51600 26.13200
C  46.14700 17.24400 24.76500
C  45.10200 16.11100 25.12700
C  45.14500 16.15600 26.67700
C  45.62600 18.57500 24.08900
C  45.39800 14.69100 24.60000
C  44.55300 14.38100 23.39700
N  44.98900 16.19300 29.64600
C  43.99300 15.57100 28.85000
C  42.94600 15.02500 29.78600
C  43.35600 15.41500 31.02100
C  44.57700 16.13200 30.97300
C  41.68700 14.42700 29.34300
C  42.96500 15.28800 32.47300
O  41.98200 14.77000 32.97300
C  44.00300 16.19500 33.26500
C  43.39000 17.42600 33.86000
O  42.78600 18.25300 33.23700
O  43.31800 17.25600 35.20100
C  42.36900 18.11200 35.94800
H  49.93400 19.44500 31.46200
H  48.30400 18.68400 25.25500
H  43.17000 15.33400 26.92100
H  46.00600 18.36000 34.10400
H  49.03100 18.12300 33.76300
H  48.00900 20.60300 32.76800
H  48.92400 20.30000 34.30400
H  47.16400 20.18800 34.30700
H  48.29400 16.58000 35.05500
H  46.86200 15.65500 34.50100
H  47.03100 16.40700 37.03700
H  45.49300 16.41800 36.11200
H  51.19700 20.50300 30.51600
H  51.71200 21.34500 29.05100
H  52.37400 19.86900 29.22200
H  52.85300 20.34900 26.86800
H  51.67100 21.68900 26.78900
H  52.42500 21.19900 25.35100
H  46.84600 16.77500 24.07300
H  44.14200 16.44400 24.73300
H  46.25600 19.42400 24.35800
H  44.58400 18.60000 24.40900
H  45.68200 18.51100 23.00200
H  45.20100 13.93000 25.35500
H  46.44000 14.67500 24.28200
H  45.21800 14.21100 22.55100
H  43.91200 15.20200 23.07400
H  43.95900 13.48000 23.54700
H  41.46100 14.78800 28.33900
H  40.93400 14.67000 30.09200
H  41.88600 13.36200 29.46200
H  44.43700 15.54000 34.02100
H  41.35300 17.82700 35.67500
H  42.42100 19.18400 35.75700
H  42.49900 17.93500 37.01500

