158

Mg -1.95500 17.28500 26.89100
C  -2.29300 15.27000 29.84900
C  -2.39400 20.02100 28.83500
C  -1.96500 19.03500 24.13300
C  -1.97000 14.25200 25.04100
N  -2.60300 17.55400 29.05800
C  -2.52600 16.66200 30.07400
C  -2.94900 17.28400 31.39600
C  -3.07500 18.80200 31.00900
C  -2.62200 18.78800 29.54800
C  -4.43900 19.44500 31.21800
C  -2.00000 17.15200 32.67400
C  -2.72900 16.94900 34.01900
H  -2.04100 16.17100 35.17200
N  -2.05600 19.25600 26.55900
C  -2.29600 20.25400 27.40800
C  -2.32700 21.59400 26.65400
C  -2.14700 21.26400 25.33400
C  -2.08000 19.75500 25.32600
C  -2.65900 22.87800 27.37400
C  -2.08700 22.22000 24.09800
O  -2.25200 21.85400 22.95700
C  -1.73800 23.71500 24.34900
N  -2.17900 16.73600 24.84700
C  -1.92200 17.67500 23.93600
C  -1.84900 17.00600 22.54800
C  -1.31400 15.60200 22.90400
C  -1.90200 15.50700 24.33500
C  -3.17500 16.93900 21.67700
C  0.20100 15.48400 22.92800
C  0.93100 15.41000 21.60600
N  -2.17000 15.16500 27.29300
C  -2.17700 14.05800 26.40200
C  -2.34800 12.81000 27.17800
C  -2.35100 13.26400 28.54500
C  -2.34800 14.66700 28.53500
C  -2.42300 11.46300 26.58300
C  -2.34900 12.80400 29.95100
O  -2.31700 11.65800 30.34900
C  -2.38000 14.13900 30.79400
C  -1.12800 14.09300 31.57700
O  0.00500 14.24100 31.14400
O  -1.49500 13.78100 32.82500
C  -0.30300 13.68700 33.71200
H  -2.48100 20.92400 29.44300
H  -1.82600 19.56500 23.18800
H  -1.65200 13.38700 24.45600
H  -3.93200 16.83400 31.53700
H  -2.35700 19.42600 31.54100
H  -5.02300 18.95400 31.99700
H  -4.94300 19.45000 30.25200
H  -4.33900 20.50200 31.46700
H  -1.50400 18.11500 32.79700
H  -1.15100 16.49100 32.50200
H  -3.72600 16.63500 33.71000
H  -2.85100 17.95700 34.41500
H  -3.03700 22.63000 28.36600
H  -3.54300 23.34400 26.93700
H  -1.80600 23.55400 27.31700
H  -0.99900 23.74100 25.14900
H  -2.63000 24.23200 24.70200
H  -1.34200 24.28300 23.50700
H  -1.10800 17.49400 21.91600
H  -1.65000 14.80800 22.23700
H  -3.09400 16.04000 21.06500
H  -3.16100 17.72300 20.91900
H  -3.96700 17.10000 22.40800
H  0.39600 14.53400 23.42700
H  0.61500 16.25100 23.58300
H  0.21100 15.36200 20.78900
H  1.66700 14.61600 21.73300
H  1.59300 16.27400 21.54500
H  -1.44000 11.00200 26.48000
H  -2.99300 11.45400 25.65400
H  -3.02300 10.94600 27.33200
H  -3.27700 14.00600 31.40000
H  0.06700 14.70700 33.81500
H  0.48700 12.98700 33.43900
H  -0.61500 13.39900 34.71600
Mg 47.06700 24.70100 28.71200
C  47.64000 27.01900 31.24500
C  45.99300 22.44700 31.15500
C  46.51400 22.44000 26.38500
C  48.69600 26.69600 26.37800
N  46.84100 24.75900 31.01200
C  47.06700 25.81400 31.80700
C  46.69100 25.49300 33.28500
C  46.32600 23.98300 33.24000
C  46.38500 23.67900 31.73000
C  47.17000 23.10100 34.17200
C  45.53800 26.43100 33.71400
C  45.92800 27.27000 34.94000
H  46.55000 26.54500 36.28000
N  46.25900 22.80800 28.77900
C  45.85100 22.05600 29.86000
C  45.24500 20.77300 29.38200
C  45.43200 20.74800 27.97600
C  46.00000 22.04400 27.60600
C  44.90400 19.64300 30.26500
C  45.18900 19.55000 26.98600
O  45.41600 19.58800 25.82100
C  44.80200 18.15700 27.44400
N  47.53100 24.60900 26.59700
C  47.24200 23.46000 25.93100
C  47.61400 23.64000 24.47900
C  48.35500 25.01300 24.51800
C  48.30400 25.43600 25.91900
C  48.33900 22.48000 23.71700
C  47.77900 26.13600 23.56700
C  46.35800 26.74300 23.88700
N  47.95800 26.47000 28.73200
C  48.57400 27.24800 27.70800
C  48.98200 28.53800 28.28700
C  48.72900 28.44000 29.64600
C  48.03400 27.19800 29.87700
C  49.66700 29.64000 27.50400
C  48.85700 29.15900 30.91100
O  49.36300 30.24200 31.22600
C  48.15000 28.27500 31.92900
C  49.22700 27.88900 32.96900
O  50.00600 26.90300 32.80600
O  49.16800 28.70200 34.08600
C  49.97300 28.18300 35.25400
H  45.67900 21.75800 31.94200
H  46.31400 21.73400 25.57700
H  49.27300 27.27200 25.65100
H  47.67200 25.66300 33.72800
H  45.31500 23.60200 33.38300
H  47.69700 22.22600 33.79100
H  46.46800 22.76200 34.93400
H  47.89500 23.75600 34.65400
H  44.50100 26.09600 33.71900
H  45.46800 27.16700 32.91300
H  44.95600 27.71800 35.14600
H  46.54500 28.12900 34.67800
H  45.62000 18.85000 30.05200
H  43.84500 19.40400 30.16200
H  45.12600 19.84300 31.31300
H  44.66200 17.43400 26.64000
H  43.85400 18.18900 27.98000
H  45.59200 17.77400 28.09000
H  46.69600 23.90100 23.95200
H  49.39400 24.91800 24.20100
H  49.14500 22.88600 23.10600
H  47.64900 22.01200 23.01600
H  48.77600 21.80800 24.45600
H  47.65700 25.63500 22.60700
H  48.58400 26.86700 23.48900
H  45.87900 26.51900 24.84000
H  45.73200 26.55300 23.01500
H  46.41800 27.82800 23.80900
H  50.70200 29.76300 27.82500
H  49.14500 30.55500 27.78300
H  49.59700 29.49800 26.42500
H  47.43900 28.88100 32.49000
H  49.58100 27.21600 35.56700
H  50.13200 28.95200 36.01000
H  50.95300 27.88900 34.87700

