158

Mg 35.97700 49.01200 25.67100
C  36.16000 47.06000 28.66800
C  34.77600 51.67800 27.53500
C  35.05700 50.49600 22.84800
C  36.67800 46.10600 23.89900
N  35.36700 49.26300 27.85000
C  35.70900 48.43000 28.91500
C  35.37100 49.14600 30.20400
C  34.79500 50.50700 29.79500
C  35.03500 50.49500 28.28600
C  33.24800 50.66200 30.07000
C  36.57200 49.31700 31.12800
C  36.38500 48.69800 32.55700
H  36.36100 49.71600 33.66900
N  35.19800 50.83900 25.26200
C  34.85500 51.85500 26.14700
C  34.34400 53.03700 25.38100
C  34.53200 52.71800 23.99500
C  34.91500 51.29300 24.02300
C  33.78800 54.31700 26.01400
C  34.35700 53.59900 22.71600
O  34.63300 53.27000 21.54100
C  33.77300 54.90300 22.87800
N  35.98300 48.44100 23.60500
C  35.47600 49.15700 22.60500
C  35.64900 48.54400 21.27600
C  36.48100 47.25800 21.63200
C  36.40200 47.19700 23.09600
C  34.34000 48.23800 20.54300
C  37.91600 47.14100 21.12700
C  38.26000 45.96600 20.24900
N  36.30800 46.99300 26.12900
C  36.62900 45.94100 25.31200
C  36.91500 44.78000 26.11400
C  36.66800 45.12800 27.44400
C  36.30400 46.53800 27.39700
C  37.34300 43.48100 25.65200
C  36.63100 44.65300 28.81200
O  36.78900 43.51600 29.27600
C  36.37900 46.00400 29.72600
C  35.17700 45.81800 30.71300
O  33.94300 45.87200 30.41100
O  35.68300 45.61400 31.92000
C  34.78800 45.24700 33.01100
H  34.62700 52.63400 28.04100
H  34.83700 50.98300 21.89500
H  37.12700 45.23600 23.41500
H  34.53100 48.58500 30.61200
H  35.21700 51.42500 30.20500
H  32.69200 50.48500 29.14900
H  33.03400 51.61500 30.55400
H  32.92800 49.85900 30.73400
H  36.73900 50.38600 31.26100
H  37.48000 48.92300 30.67200
H  37.12800 47.92000 32.73300
H  35.52100 48.03300 32.55900
H  32.91100 54.61800 25.44000
H  34.43400 55.19100 25.92800
H  33.55500 54.16600 27.06800
H  33.75600 55.52000 21.98000
H  34.49700 55.42200 23.50600
H  32.74600 54.81000 23.23200
H  36.17300 49.32200 20.72100
H  36.01800 46.34000 21.26900
H  33.49700 48.84500 20.87100
H  34.03600 47.21700 20.77400
H  34.51100 48.26400 19.46700
H  38.53500 47.18900 22.02200
H  38.15500 48.00600 20.50900
H  38.80500 46.29300 19.36300
H  37.37200 45.49000 19.83200
H  38.89000 45.29200 20.83000
H  37.65000 43.50100 24.60700
H  36.55700 42.72700 25.69900
H  38.26700 43.15000 26.12500
H  37.23700 46.18900 30.37200
H  34.46600 46.14100 33.54500
H  35.28000 44.50700 33.64200
H  33.89500 44.73500 32.65200
Mg -11.62400 38.10700 41.39200
C  -9.36400 35.45700 40.32800
C  -9.50600 40.29800 39.64600
C  -13.78300 40.59500 41.74600
C  -13.81300 35.70700 42.45300
N  -9.63500 37.86700 40.06500
C  -8.97300 36.74100 39.81100
C  -7.58600 37.03800 39.08500
C  -7.55400 38.57800 38.98900
C  -8.98700 38.95700 39.54700
C  -6.42600 39.25900 39.75100
C  -7.49300 36.25700 37.70900
C  -5.96700 35.89600 37.36500
H  -5.58500 35.90500 35.85200
N  -11.63500 40.16800 40.85500
C  -10.69000 40.90000 40.19400
C  -11.08000 42.23100 40.04500
C  -12.37100 42.35900 40.67100
C  -12.67900 41.01700 41.12400
C  -10.34200 43.38900 39.38400
C  -13.26800 43.66500 40.60100
O  -12.78600 44.75300 40.19000
C  -14.71700 43.62600 41.05100
N  -13.61000 38.02300 41.75600
C  -14.20800 39.28600 42.09300
C  -15.53700 39.02300 42.91400
C  -15.60200 37.43000 42.86500
C  -14.26400 37.03200 42.36100
C  -15.77300 39.68800 44.27100
C  -16.78400 36.89300 42.00600
C  -18.16500 37.18100 42.37800
N  -11.64300 35.97500 41.43000
C  -12.56600 35.21800 41.96300
C  -12.00000 33.86100 42.15500
C  -10.78000 33.90100 41.51100
C  -10.60800 35.21100 41.07000
C  -12.58500 32.87100 42.98300
C  -9.53100 33.21800 41.21900
O  -9.13900 32.09800 41.42700
C  -8.65100 34.14600 40.31500
C  -7.23700 34.17100 40.72900
O  -6.41000 33.49900 40.08900
O  -7.01200 35.18000 41.67300
C  -5.64900 35.24700 42.21800
H  -8.82300 40.97100 39.12400
H  -14.52200 41.27800 42.16900
H  -14.40600 34.93000 42.94200
H  -6.76300 36.69700 39.71400
H  -7.56400 38.93600 37.96000
H  -5.79400 38.54900 40.28500
H  -6.84100 39.86700 40.55500
H  -5.83000 39.92000 39.12200
H  -7.75500 36.98100 36.93800
H  -8.15400 35.39200 37.66600
H  -5.66900 34.87600 37.60800
H  -5.24000 36.40000 38.00200
H  -10.96300 43.73400 38.55800
H  -9.46000 42.97700 38.89300
H  -10.00800 44.25900 39.95000
H  -14.95500 43.34700 42.07700
H  -15.35800 43.02100 40.41000
H  -15.29400 44.53600 40.89100
H  -16.27300 39.49600 42.26400
H  -15.79000 37.10000 43.88700
H  -16.43800 39.07100 44.87600
H  -16.24300 40.66300 44.14100
H  -14.73800 39.82100 44.58700
H  -16.72800 35.81400 41.86200
H  -16.66800 37.44400 41.07200
H  -18.77100 36.27600 42.41000
H  -18.54700 37.70100 41.50000
H  -18.22300 37.75700 43.30100
H  -12.00500 31.94900 42.94100
H  -13.57200 32.63200 42.58700
H  -12.63900 33.17700 44.02700
H  -8.62600 33.73700 39.30500
H  -5.81000 35.55700 43.25100
H  -5.17800 36.07900 41.69600
H  -5.05700 34.33200 42.19500

