158

Mg 17.43100 -1.35500 26.48400
C  16.31300 0.63800 29.27200
C  19.11900 -3.25800 28.72500
C  18.78800 -2.88300 23.86900
C  16.00300 1.06500 24.41200
N  17.61800 -1.27200 28.73900
C  17.09600 -0.42600 29.68500
C  17.54800 -0.85300 31.05200
C  18.43000 -2.11300 30.86300
C  18.41500 -2.28800 29.31200
C  19.78800 -1.90400 31.55000
C  16.42100 -0.95300 32.17000
C  16.56500 -0.11600 33.40000
H  17.96000 0.30700 33.89100
N  18.67700 -2.98900 26.30200
C  19.20600 -3.64000 27.39300
C  19.99000 -4.73700 26.83400
C  19.97900 -4.62100 25.37800
C  19.14900 -3.46100 25.15400
C  20.55400 -5.79900 27.67100
C  20.55000 -5.54800 24.39300
O  20.40100 -5.39100 23.19400
C  21.29500 -6.80100 24.84100
N  17.46200 -0.97200 24.41600
C  18.07000 -1.77500 23.52200
C  17.99000 -1.25800 22.11000
C  17.04300 -0.00400 22.28100
C  16.81300 0.08400 23.82000
C  19.37300 -1.00300 21.49000
C  15.65400 0.08500 21.52900
C  14.52800 -0.89300 21.81600
N  16.26400 0.44900 26.71000
C  15.69600 1.30100 25.79800
C  14.93000 2.31800 26.43600
C  15.14900 2.09800 27.81200
C  15.93100 0.95900 27.94200
C  14.02900 3.28200 25.83200
C  14.79500 2.60500 29.14900
O  14.00400 3.44700 29.51800
C  15.57100 1.67200 30.14400
C  16.45500 2.49400 31.04600
O  17.66400 2.54100 31.00500
O  15.55800 3.14000 31.97400
C  16.09000 4.01600 33.08900
H  19.73100 -3.80200 29.44700
H  19.20100 -3.41600 23.01000
H  15.62000 1.78100 23.68200
H  18.19800 -0.03600 31.36500
H  17.85700 -2.90900 31.33700
H  19.71000 -1.77300 32.63000
H  20.40400 -1.04000 31.30500
H  20.46400 -2.74300 31.38400
H  16.54400 -1.99000 32.48000
H  15.42500 -0.77300 31.76400
H  16.09100 -0.67500 34.20700
H  16.03500 0.80300 33.15000
H  20.02700 -6.71800 27.41500
H  20.36400 -5.60900 28.72700
H  21.62900 -5.94400 27.56600
H  22.13300 -6.78900 25.53900
H  21.76900 -7.11200 23.91100
H  20.54400 -7.53700 25.13000
H  17.36200 -1.95800 21.55900
H  17.54500 0.91600 21.98100
H  19.30900 -0.21400 20.74100
H  19.91000 -1.86400 21.09300
H  20.10200 -0.70300 22.24300
H  15.89600 0.00500 20.46900
H  15.21600 1.07100 21.68300
H  14.09800 -1.32200 20.91100
H  13.73800 -0.52500 22.47000
H  14.95900 -1.76000 22.31700
H  13.83400 3.11600 24.77200
H  14.46100 4.24800 26.09300
H  13.05200 3.11700 26.28400
H  14.91500 1.14900 30.84000
H  15.48500 4.00900 33.99600
H  16.22600 5.00000 32.63900
H  17.13000 3.75900 33.29300
Mg 46.23600 34.51800 27.05300
C  44.80800 33.08000 29.89100
C  47.13000 37.35600 29.05000
C  47.38800 36.15000 24.34600
C  45.54400 31.70700 25.36500
N  45.81100 35.12700 29.22000
C  45.25900 34.33700 30.21600
C  45.63900 34.96600 31.61100
C  45.94000 36.48300 31.20100
C  46.33900 36.33500 29.74300
C  44.73400 37.38700 31.48900
C  46.74900 34.21400 32.33100
C  46.86400 34.20400 33.82600
H  45.82900 34.90900 34.66100
N  47.25500 36.44700 26.80300
C  47.54400 37.40800 27.73100
C  48.31400 38.42100 27.09000
C  48.35100 38.20500 25.68400
C  47.57800 36.91800 25.57400
C  49.03100 39.47500 27.91300
C  48.94500 39.04900 24.50500
O  48.97500 38.63400 23.34100
C  49.66900 40.37400 24.78900
N  46.27000 34.09800 25.11300
C  46.84600 34.86500 24.16400
C  46.95700 34.17000 22.84100
C  46.51500 32.70700 23.24300
C  46.10000 32.80000 24.67200
C  46.35800 34.88600 21.65700
C  47.38900 31.43400 22.86000
C  48.42100 31.04500 23.89000
N  45.30400 32.76800 27.44700
C  45.15600 31.61100 26.64600
C  44.60400 30.58000 27.36500
C  44.37100 31.13600 28.65300
C  44.83700 32.46000 28.62500
C  44.34300 29.20300 26.93200
C  43.89500 30.97200 29.99200
O  43.39100 29.97500 30.51100
C  43.96200 32.28800 30.73400
C  44.23900 31.98100 32.13800
O  45.23500 31.43900 32.53700
O  43.04900 32.15100 32.80900
C  42.93300 31.87700 34.25000
H  47.37000 38.24300 29.64000
H  47.87800 36.52300 23.44400
H  45.24700 30.85200 24.75400
H  44.70100 34.85400 32.15500
H  46.82600 36.83500 31.72800
H  43.78100 36.86000 31.54600
H  44.71300 38.14700 30.70800
H  44.91700 37.77400 32.49100
H  47.60400 34.82300 32.03700
H  46.83500 33.19500 31.95300
H  47.89200 34.42300 34.11200
H  46.79500 33.14500 34.07500
H  50.11200 39.39300 27.79600
H  48.89900 39.23000 28.96700
H  48.91000 40.51900 27.62200
H  49.89700 40.77700 23.80200
H  50.54100 40.16500 25.40900
H  49.07800 41.11300 25.32900
H  48.02200 34.20600 22.61300
H  45.55600 32.47900 22.77900
H  47.07800 35.18200 20.89500
H  45.96700 35.81900 22.06400
H  45.60300 34.19600 21.28100
H  48.02200 31.73200 22.02500
H  46.78200 30.54800 22.67200
H  49.37700 30.76700 23.44800
H  48.02000 30.13900 24.34400
H  48.66800 31.89500 24.52700
H  45.22300 28.79600 26.43500
H  43.67500 29.31100 26.07800
H  43.96000 28.67300 27.80400
H  42.97200 32.74100 30.69100
H  42.59300 30.85800 34.43400
H  42.24100 32.62100 34.64300
H  43.85200 31.99300 34.82500

