158

Mg -1.68100 17.43500 27.02700
C  -2.17900 15.23900 29.72700
C  -2.30300 19.98300 29.23100
C  -2.05100 19.47600 24.28900
C  -1.94100 14.69700 24.92700
N  -2.37900 17.57100 29.23300
C  -2.27800 16.58900 30.15600
C  -2.38200 17.05900 31.59500
C  -2.42600 18.61100 31.39100
C  -2.51900 18.74900 29.87300
C  -3.59400 19.40500 32.04200
C  -1.25400 16.52000 32.55400
C  -1.14700 17.35100 33.82400
H  -0.94900 16.62700 35.25200
N  -1.90300 19.41700 26.83100
C  -2.17400 20.26000 27.86200
C  -2.04900 21.66500 27.34600
C  -1.77300 21.54300 25.92900
C  -1.97800 20.12100 25.62200
C  -2.02200 22.90600 28.21600
C  -1.48800 22.58100 24.86100
O  -1.42900 22.32400 23.67300
C  -1.17700 23.90300 25.37100
N  -2.03900 17.18200 24.90100
C  -2.10700 18.13400 23.94700
C  -2.27900 17.58900 22.56400
C  -1.97200 16.08000 22.75600
C  -1.96800 15.91900 24.30700
C  -3.54600 17.82600 21.76800
C  -0.60100 15.63800 22.14200
C  0.66400 16.07300 22.96600
N  -1.80800 15.33900 27.19600
C  -1.93500 14.39600 26.25500
C  -2.14000 13.07700 26.92500
C  -2.22000 13.32600 28.25800
C  -2.09600 14.77300 28.38600
C  -2.43600 11.87400 26.23900
C  -2.34000 12.71100 29.54900
O  -2.35600 11.54100 29.93600
C  -2.22000 13.90300 30.58600
C  -0.93900 13.63500 31.31800
O  0.20200 13.94800 30.92000
O  -1.14900 12.92600 32.51900
C  0.05500 12.60200 33.33500
H  -2.32100 20.79800 29.95800
H  -1.93400 20.15700 23.44300
H  -2.01800 13.83400 24.26200
H  -3.31600 16.80500 32.09700
H  -1.54500 19.09700 31.81100
H  -4.09000 18.84400 32.83400
H  -4.29300 19.78500 31.29800
H  -3.23100 20.27600 32.58700
H  -0.30400 16.27900 32.07700
H  -1.57100 15.54800 32.93300
H  -1.96100 18.05300 34.00400
H  -0.17900 17.84300 33.73300
H  -2.68300 23.63100 27.74300
H  -1.00700 23.27600 28.36200
H  -2.52600 22.71700 29.16400
H  -0.47800 23.84400 26.20600
H  -2.16500 24.30600 25.59100
H  -0.75200 24.43700 24.52100
H  -1.44900 17.95100 21.95800
H  -2.68500 15.32300 22.42900
H  -4.10000 16.89600 21.89400
H  -3.29700 18.04200 20.72900
H  -4.15300 18.65000 22.14200
H  -0.58800 16.07300 21.14300
H  -0.59400 14.54800 22.12200
H  0.45400 16.55000 23.92300
H  1.09200 16.79900 22.27400
H  1.31100 15.20600 23.09500
H  -1.63000 11.47500 25.62300
H  -3.25500 11.95300 25.52400
H  -2.64800 11.18600 27.05700
H  -3.07500 13.78100 31.25100
H  -0.36900 11.94000 34.09000
H  0.47200 13.43700 33.89900
H  0.79200 12.19700 32.64200
Mg 49.81900 46.67600 42.41300
C  46.42800 47.04000 41.83000
C  49.67600 43.45600 41.15200
C  53.18200 46.40200 42.74100
C  50.03500 50.05900 43.13100
N  48.20800 45.41700 41.46800
C  46.90300 45.85100 41.26500
C  46.02600 44.74600 40.58400
C  47.11400 43.56600 40.52100
C  48.41300 44.18500 41.09000
C  46.67900 42.36400 41.28400
C  45.42900 45.19400 39.25400
C  43.95300 45.31600 39.26400
H  43.17800 45.01700 38.02700
N  51.27000 45.14100 42.16400
C  50.97900 43.89000 41.55900
C  52.20100 43.07500 41.50000
C  53.27900 43.87900 42.09000
C  52.61000 45.15200 42.34600
C  52.31400 41.67900 40.84400
C  54.75900 43.51300 42.24700
O  55.10000 42.36300 41.95900
C  55.75200 44.38000 43.00400
N  51.37700 48.06600 42.58400
C  52.67000 47.70000 42.86800
C  53.60100 48.90400 43.20900
C  52.58700 50.13500 43.14300
C  51.25500 49.39800 42.92300
C  54.17700 48.76300 44.64600
C  52.78200 51.05000 41.95200
C  52.41900 52.52400 42.16600
N  48.51000 48.21100 42.48500
C  48.71500 49.54200 42.99100
C  47.47000 50.21800 43.03800
C  46.49300 49.30600 42.69200
C  47.18700 48.13600 42.30000
C  47.27000 51.64100 43.50700
C  45.09200 49.16500 42.36800
O  44.20000 49.95000 42.44700
C  45.05000 47.66200 41.80300
C  44.09900 46.86700 42.68400
O  44.32300 46.21600 43.76700
O  42.88400 46.98700 42.09800
C  41.77600 46.39100 42.76000
H  49.72900 42.42400 40.79900
H  54.25000 46.41200 42.96500
H  50.08800 51.12400 43.36500
H  45.22000 44.55900 41.29400
H  47.33800 43.27300 39.49500
H  47.04300 41.52000 40.69900
H  45.60000 42.25300 41.18000
H  47.01300 42.26900 42.31800
H  45.84100 44.55600 38.47200
H  45.86900 46.18200 39.11700
H  43.75500 46.35600 39.52200
H  43.47000 44.65800 39.98600
H  52.52400 41.00400 41.67300
H  53.15900 41.63900 40.15800
H  51.51300 41.32800 40.19300
H  56.00800 45.23400 42.37600
H  56.65000 43.79200 43.19400
H  55.40400 44.86400 43.91600
H  54.42100 48.99400 42.49800
H  52.52800 50.68800 44.08000
H  54.47100 47.77500 45.00000
H  53.59500 49.30000 45.39600
H  55.15500 49.21800 44.48700
H  52.13000 50.68000 41.16100
H  53.80100 50.93300 41.58200
H  53.24900 53.19300 41.93800
H  52.35200 52.61200 43.25000
H  51.60500 52.85400 41.52000
H  47.71900 52.33200 42.79400
H  47.72900 51.75100 44.49000
H  46.21400 51.80700 43.71800
H  44.68100 47.67000 40.77800
H  40.92300 46.10100 42.14600
H  41.42800 47.13700 43.47500
H  41.99300 45.51800 43.37500

