158

Mg 48.77400 35.79700 27.98600
C  46.64500 34.39800 30.17500
C  49.17500 38.49200 30.00000
C  50.47300 37.39500 25.45200
C  48.22200 33.10300 25.72100
N  48.01700 36.28300 29.92400
C  47.19100 35.54600 30.67000
C  47.24900 36.02600 32.12900
C  47.54200 37.61400 31.81300
C  48.33900 37.49100 30.46200
C  46.28900 38.54100 31.64700
C  48.22700 35.18500 33.08300
C  49.49900 35.92500 33.56200
H  49.45000 36.47700 35.00000
N  49.59200 37.66300 27.70200
C  49.74200 38.60700 28.69100
C  50.50900 39.71100 28.21800
C  50.82100 39.50600 26.85000
C  50.27100 38.11600 26.59000
C  50.83400 40.96500 29.07600
C  51.55500 40.38600 25.84800
O  51.71500 40.06000 24.71400
C  52.11000 41.65300 26.35400
N  49.37700 35.27600 25.90200
C  49.99700 36.15900 25.14000
C  50.34700 35.48100 23.77200
C  49.63800 34.09300 23.90300
C  48.99300 34.09700 25.26600
C  49.83700 36.42900 22.60200
C  50.62400 32.93400 23.54100
C  50.83200 32.79100 22.01800
N  47.70700 34.09000 27.91600
C  47.60300 33.03100 26.98200
C  46.80100 31.95800 27.53200
C  46.28300 32.52200 28.70700
C  46.92100 33.77100 28.89300
C  46.57700 30.56500 26.99700
C  45.47400 32.19300 29.83000
O  44.89700 31.13900 30.10000
C  45.58500 33.45000 30.81500
C  45.90900 32.77500 32.07700
O  46.96800 32.21100 32.35900
O  44.84300 32.88100 32.93800
C  45.20700 32.87700 34.37500
H  49.42500 39.30700 30.68200
H  51.16900 37.76600 24.69600
H  47.89900 32.30300 25.05100
H  46.26800 35.84400 32.56900
H  48.14800 38.01300 32.62700
H  46.36900 39.32900 32.39700
H  45.38600 37.94000 31.74900
H  46.25000 38.96200 30.64200
H  48.53000 34.21500 32.68800
H  47.65700 35.01700 33.99700
H  49.91100 36.62600 32.83600
H  50.29700 35.20600 33.74700
H  51.88200 40.98700 29.37600
H  50.21500 41.16800 29.95000
H  50.55300 41.82700 28.47200
H  51.37400 42.44800 26.48300
H  52.74900 41.96200 25.52600
H  52.85800 41.70900 27.14400
H  51.43500 35.49600 23.70600
H  48.80200 34.04200 23.20500
H  49.05700 35.97500 21.99100
H  50.72700 36.48700 21.97500
H  49.42500 37.34300 23.02900
H  50.21600 32.05100 24.03200
H  51.56500 33.22700 24.00800
H  50.42300 33.60700 21.42200
H  50.57600 31.82100 21.59200
H  51.92200 32.79300 22.00800
H  47.13200 30.39700 26.07400
H  45.50800 30.46400 26.81300
H  46.87500 29.78600 27.70000
H  44.63500 33.98000 30.88600
H  46.22300 33.22600 34.55500
H  44.99000 31.92100 34.85200
H  44.62600 33.70100 34.78700
Mg 7.21200 54.87100 41.68500
C  6.66500 51.49700 41.11400
C  10.22200 54.49500 39.82300
C  7.62600 58.16300 41.61800
C  3.98600 55.12400 42.80000
N  8.31200 53.18100 40.73200
C  7.88300 51.94100 40.48800
C  8.82600 51.14300 39.44200
C  10.11800 51.96000 39.70500
C  9.52300 53.30600 40.06500
C  11.07900 51.39500 40.77200
C  8.45600 51.28400 37.86600
C  8.85700 50.02200 37.15900
H  8.33200 49.86800 35.72000
N  8.71700 56.16000 40.96500
C  9.90900 55.79500 40.28400
C  10.71300 56.96700 40.06800
C  10.02100 58.07700 40.61900
C  8.75200 57.50800 41.13700
C  12.09500 56.77000 39.50000
C  10.50000 59.49200 40.51500
O  11.54600 59.71900 39.91500
C  9.64600 60.59200 41.16200
N  5.86700 56.46400 41.97500
C  6.30700 57.74700 42.01200
C  5.22600 58.66000 42.50400
C  4.05100 57.69700 42.89200
C  4.66300 56.34300 42.56000
C  5.62800 59.56300 43.68300
C  2.66800 57.90300 42.20300
C  1.57500 58.13600 43.23400
N  5.70000 53.57800 42.21100
C  4.39100 53.81000 42.59400
C  3.65500 52.61700 42.65700
C  4.54000 51.69000 42.12000
C  5.76000 52.30800 41.82400
C  2.21900 52.38000 43.07400
C  4.69700 50.26200 41.91000
O  3.88300 49.37500 42.15400
C  6.07800 50.07300 41.17600
C  5.70100 49.51500 39.88100
O  5.43100 50.08800 38.82900
O  5.75800 48.16200 40.00100
C  5.56900 47.43400 38.71800
H  11.13500 54.36100 39.23900
H  7.58400 59.25300 41.56000
H  2.98700 55.28800 43.20900
H  8.90500 50.08600 39.69600
H  10.59900 52.16800 38.74900
H  10.89800 50.36800 41.08800
H  11.11200 52.00000 41.67900
H  12.03000 51.44000 40.24200
H  8.99700 52.02300 37.27700
H  7.40400 51.48200 37.66400
H  8.45300 49.21900 37.77500
H  9.93600 49.99100 37.31000
H  12.59300 57.69300 39.20200
H  12.10500 56.11500 38.62900
H  12.69200 56.24500 40.24600
H  9.33100 60.24900 42.14800
H  8.75700 60.74800 40.55100
H  10.16400 61.54800 41.23300
H  5.01400 59.27100 41.62600
H  3.99600 57.66600 43.98000
H  6.36400 60.30700 43.37600
H  6.07200 58.97200 44.48400
H  4.73800 60.09800 44.01500
H  2.43100 57.03900 41.58200
H  2.73700 58.80300 41.59100
H  1.73700 57.91000 44.28800
H  0.69500 57.51100 43.08100
H  1.03300 59.07700 43.13800
H  2.36200 51.79600 43.98400
H  1.74700 51.75300 42.31800
H  1.73300 53.34900 43.18900
H  6.64600 49.36100 41.77500
H  5.74500 46.37700 38.91400
H  6.18900 47.76400 37.88400
H  4.54400 47.69100 38.45200

