158

Mg 46.84300 24.51200 28.35600
C  47.54000 26.71500 30.93100
C  46.15800 22.06600 30.75600
C  46.79400 22.14400 25.99800
C  47.83000 26.95500 26.05900
N  46.87000 24.45400 30.54600
C  47.06700 25.47000 31.36800
C  46.85700 25.05200 32.85700
C  46.61100 23.54400 32.78300
C  46.56700 23.31200 31.27400
C  47.61100 22.67600 33.57700
C  45.72000 25.85300 33.53300
C  46.15800 26.61900 34.85700
H  45.05900 26.87600 35.94000
N  46.27100 22.39900 28.32900
C  45.95700 21.67400 29.40300
C  45.71400 20.30000 28.90700
C  45.92900 20.24500 27.53600
C  46.33500 21.60800 27.22500
C  45.49100 19.10200 29.80900
C  45.67000 19.07500 26.54800
O  45.97000 19.17800 25.37200
C  45.09200 17.89700 27.01100
N  47.30900 24.53700 26.35500
C  47.12000 23.51200 25.60500
C  47.61300 23.79700 24.16700
C  47.53700 25.33900 24.09400
C  47.61300 25.62200 25.59600
C  48.96400 23.24000 23.70600
C  46.24100 25.86300 23.49100
C  44.90200 25.99100 24.28400
N  47.53300 26.44600 28.39400
C  47.85600 27.37100 27.41400
C  48.19200 28.65600 27.96800
C  48.09000 28.36400 29.39200
C  47.72500 27.06400 29.54100
C  48.65700 29.88400 27.24800
C  48.24800 28.99700 30.70300
O  48.52800 30.18000 30.94000
C  47.91000 27.93700 31.72900
C  49.04300 27.72300 32.66700
O  50.04300 27.02400 32.40500
O  48.83000 28.35900 33.84100
C  49.61200 27.98400 35.02400
H  45.95300 21.21500 31.40900
H  46.99400 21.37800 25.24700
H  47.93400 27.70200 25.26900
H  47.84200 25.32300 33.23700
H  45.59500 23.33800 33.12200
H  48.21200 23.20900 34.31400
H  48.31600 22.15900 32.92500
H  47.06300 21.86900 34.06200
H  44.81700 25.25700 33.66000
H  45.31900 26.53600 32.78400
H  46.38800 27.63800 34.54400
H  47.08700 26.26200 35.30300
H  45.54600 19.14400 30.89700
H  46.13700 18.29800 29.45700
H  44.46800 18.74600 29.68000
H  44.83900 17.18100 26.22800
H  44.19800 18.17400 27.57000
H  45.81700 17.41400 27.66600
H  46.94300 23.26500 23.49100
H  48.34100 25.83300 23.54800
H  49.07500 22.35200 24.32800
H  49.73700 24.00600 23.65300
H  48.77200 22.91200 22.68400
H  45.99500 25.33400 22.57100
H  46.55100 26.84500 23.13200
H  44.08700 25.73900 23.60600
H  44.81700 26.97200 24.75100
H  44.92600 25.22600 25.05900
H  48.18600 30.04700 26.27900
H  49.69000 29.82600 26.90600
H  48.62900 30.78100 27.86700
H  47.09600 28.24300 32.38500
H  50.22900 27.08600 35.05000
H  48.86400 27.72600 35.77300
H  50.24000 28.84100 35.26700
Mg 36.31400 49.49300 24.61900
C  36.26100 47.61200 27.65900
C  35.41200 52.28000 26.40300
C  36.20400 51.16500 21.65400
C  36.92000 46.53200 22.97000
N  35.78700 49.88200 26.82300
C  35.96800 48.99700 27.86900
C  35.67300 49.67900 29.21100
C  35.26900 51.12600 28.71800
C  35.47600 51.12000 27.17100
C  33.85500 51.68300 29.14300
C  36.96300 49.67300 30.10000
C  36.61500 49.38400 31.63600
H  35.19800 49.57100 32.22000
N  35.97000 51.45900 24.13300
C  35.68700 52.44600 25.01400
C  35.46400 53.64900 24.27800
C  35.76800 53.40300 22.89300
C  35.96300 51.91200 22.86600
C  35.08900 55.00700 24.86100
C  35.85300 54.39300 21.71000
O  36.13200 53.99900 20.58100
C  35.57500 55.88500 21.83800
N  36.44700 48.91200 22.67300
C  36.39800 49.79200 21.60700
C  36.64100 49.01900 20.20100
C  37.19100 47.69900 20.75000
C  36.79600 47.69300 22.20600
C  35.46800 48.99900 19.25800
C  38.73000 47.45200 20.46100
C  39.70600 48.34300 21.30400
N  36.49300 47.47200 25.18900
C  36.72500 46.35500 24.41100
C  36.75800 45.14400 25.21400
C  36.64700 45.62800 26.50900
C  36.45000 47.01300 26.48500
C  36.84600 43.69800 24.56700
C  36.51400 45.19300 27.91000
O  36.50900 44.07800 28.36500
C  36.36000 46.47900 28.73600
C  35.09800 46.36400 29.65900
O  33.92900 46.51400 29.40000
O  35.57800 45.78700 30.78100
C  34.45300 45.24800 31.64700
H  34.95100 53.18800 26.79800
H  36.13800 51.71800 20.71400
H  37.06200 45.66300 22.32500
H  34.83400 49.22800 29.74200
H  36.04900 51.84800 28.96300
H  33.38400 51.32200 30.05800
H  33.11300 51.73100 28.34600
H  33.99100 52.74000 29.37300
H  37.41600 50.65700 29.98400
H  37.68200 48.94700 29.71900
H  37.33300 50.05900 32.10300
H  36.89500 48.34200 31.78900
H  35.82300 55.70400 24.45700
H  35.28700 54.97900 25.93300
H  34.07600 55.32600 24.61400
H  36.12700 56.43400 22.60100
H  34.49400 56.01200 21.78500
H  36.01000 56.32900 20.94300
H  37.51600 49.47800 19.74100
H  36.61900 46.86300 20.34700
H  36.03400 48.93100 18.32900
H  34.91700 49.93400 19.36100
H  34.79600 48.16800 19.47300
H  38.88400 47.74700 19.42300
H  39.01100 46.40200 20.54100
H  40.45600 48.81300 20.66600
H  40.26000 47.93600 22.14900
H  39.17100 49.11700 21.85300
H  37.43100 43.64900 23.64800
H  35.83600 43.38700 24.30100
H  37.29400 43.03300 25.30600
H  37.21100 46.72400 29.37200
H  34.87500 44.56100 32.38000
H  33.74700 44.69200 31.03000
H  34.00200 46.14400 32.07500

