158

Mg 44.18800 5.58700 47.75600
C  42.11200 8.33300 47.36200
C  41.25500 3.46600 47.51400
C  46.02900 2.90400 47.60400
C  46.96600 7.64400 47.35600
N  41.99300 5.82300 47.31000
C  41.38400 7.11700 47.26800
C  39.86100 7.02500 47.31300
C  39.61500 5.46100 47.40500
C  41.03800 4.84500 47.40200
C  38.65900 5.03500 48.60400
C  39.11500 7.72200 46.18200
C  39.69900 7.86900 44.78000
H  38.80100 7.35400 43.66500
N  43.69100 3.46800 47.62800
C  42.50900 2.84500 47.55300
C  42.69900 1.43100 47.48500
C  44.03800 1.16600 47.61000
C  44.63800 2.59100 47.65900
C  41.52100 0.40500 47.23400
C  44.73600 -0.25100 47.59200
O  44.11600 -1.29500 47.48600
C  46.26100 -0.34600 47.72500
N  46.15900 5.31500 47.27900
C  46.73600 4.06400 47.48000
C  48.24000 4.06000 47.41200
C  48.49700 5.56600 47.18300
C  47.11500 6.26900 47.35900
C  48.90900 3.44800 48.60700
C  49.19000 5.87100 45.83600
C  50.59900 5.35600 45.81900
N  44.55600 7.60100 47.45800
C  45.76900 8.32000 47.36300
C  45.40800 9.75000 47.16500
C  44.00700 9.76900 47.15700
C  43.51800 8.45900 47.36800
C  46.45500 10.76600 46.81600
C  42.84500 10.66300 47.01600
O  42.70500 11.89800 46.96000
C  41.60200 9.72500 47.17800
C  40.52100 10.14300 48.08300
O  40.36800 9.69400 49.22800
O  39.74600 11.04000 47.48100
C  38.61600 11.54500 48.24900
H  40.39100 2.84900 47.26100
H  46.69900 2.04200 47.60000
H  47.78600 8.36400 47.30700
H  39.47200 7.57300 48.17100
H  39.14300 5.01400 46.53000
H  38.11500 5.85900 49.06500
H  39.13800 4.52800 49.44100
H  37.91000 4.35000 48.20600
H  38.77100 8.66900 46.59700
H  38.24700 7.07600 46.04800
H  40.63400 7.30800 44.78000
H  39.86600 8.93700 44.64200
H  41.86000 -0.45100 46.64900
H  40.60000 0.84600 46.85300
H  41.16900 0.03900 48.19800
H  46.78300 0.09600 46.87600
H  46.52900 -1.40200 47.73700
H  46.51700 -0.01900 48.73300
H  48.52000 3.54600 46.49200
H  49.12100 5.96100 47.98500
H  48.20100 3.07700 49.34800
H  49.55900 4.17600 49.09300
H  49.49000 2.60000 48.24500
H  49.09800 6.94600 45.67800
H  48.47300 5.46900 45.12000
H  50.59100 4.42400 45.25500
H  50.87800 5.14200 46.85100
H  51.31500 6.10400 45.47700
H  47.00400 11.16700 47.66800
H  45.81200 11.57200 46.46000
H  47.16400 10.50900 46.02900
H  41.16900 9.78800 46.18000
H  37.75700 10.89200 48.09000
H  38.43800 12.59300 48.01000
H  38.76100 11.52800 49.32900
Mg -1.49900 34.23300 27.05000
C  -3.35500 32.42800 29.49000
C  -0.36100 36.27100 29.45400
C  -0.08500 36.22700 24.65900
C  -3.08100 32.37000 24.54900
N  -1.77900 34.32200 29.22400
C  -2.54400 33.45100 30.02900
C  -2.28700 33.82400 31.50900
C  -1.56900 35.20500 31.47700
C  -1.26300 35.33400 30.00600
C  -2.37400 36.44000 32.16300
C  -1.57700 32.66700 32.30400
C  -2.35100 32.13100 33.52500
H  -1.73400 32.26900 34.90100
N  -0.20100 35.85000 27.02300
C  0.14600 36.53400 28.15000
C  1.00300 37.59200 27.84700
C  1.02600 37.67700 26.42100
C  0.22200 36.56700 25.92900
C  1.62400 38.43700 28.93300
C  1.62800 38.69100 25.49700
O  1.33600 38.85400 24.34400
C  2.71200 39.57300 25.99500
N  -1.83600 34.41600 24.92900
C  -0.93300 35.17200 24.15200
C  -1.16300 34.98800 22.66900
C  -1.78200 33.56800 22.66700
C  -2.32900 33.43100 24.09700
C  -1.98300 36.09300 21.81800
C  -0.89900 32.37200 22.19600
C  -1.53800 31.43900 21.14000
N  -2.91800 32.71900 26.95300
C  -3.45700 32.10900 25.85200
C  -4.42200 31.17100 26.26900
C  -4.40300 31.24700 27.67700
C  -3.43000 32.17300 28.04100
C  -5.15100 30.06700 25.41800
C  -5.06400 30.75200 28.93100
O  -5.97500 29.99700 29.16800
C  -4.40500 31.50500 30.18700
C  -5.42200 32.37300 30.81900
O  -6.03100 33.26900 30.26300
O  -5.58300 31.86300 32.07600
C  -6.65600 32.45700 32.94600
H  -0.15000 37.00800 30.23300
H  0.38800 36.81500 23.86900
H  -3.38200 31.65800 23.77900
H  -3.30900 33.95400 31.86400
H  -0.62000 35.21300 32.01300
H  -3.19400 36.12200 32.80600
H  -2.79000 37.10800 31.40900
H  -1.73200 37.05500 32.79300
H  -0.53400 32.92600 32.48600
H  -1.48100 31.83800 31.60300
H  -2.61700 31.08900 33.34900
H  -3.34300 32.58000 33.48500
H  0.90600 39.15200 29.33500
H  2.53200 38.84500 28.49000
H  1.84700 37.77300 29.76800
H  3.59500 38.99800 26.27500
H  2.38900 40.36300 26.67200
H  3.01200 40.22000 25.17000
H  -0.15100 34.93200 22.26900
H  -2.58700 33.58900 21.93200
H  -2.79900 35.63900 21.25500
H  -1.32600 36.64700 21.14800
H  -2.47600 36.78800 22.49800
H  -0.46400 31.77800 23.00000
H  -0.05300 32.68400 21.58300
H  -1.56200 30.40600 21.48700
H  -0.97200 31.38700 20.21000
H  -2.56000 31.75800 20.93600
H  -6.20000 30.10900 25.71100
H  -4.68000 29.14400 25.75500
H  -5.03000 30.18700 24.34200
H  -3.95900 30.80500 30.89200
H  -7.02800 33.37300 32.48700
H  -6.21100 32.87600 33.84800
H  -7.57800 31.89900 33.10900

