158

Mg -1.96100 17.63100 27.65700
C  -2.69600 15.32200 30.23600
C  -2.35600 20.18800 29.75800
C  -1.51600 19.82300 24.94400
C  -1.72200 14.89900 25.34500
N  -2.51100 17.61300 29.72900
C  -2.71200 16.63800 30.66600
C  -2.99700 17.18900 32.13700
C  -2.78900 18.71600 31.87500
C  -2.62800 18.86000 30.36000
C  -3.80000 19.70700 32.49300
C  -1.99000 16.72400 33.24500
C  -1.76900 17.52000 34.47900
H  -1.87900 16.87900 35.86700
N  -1.91100 19.69700 27.34500
C  -2.02800 20.54300 28.40800
C  -1.77700 21.86500 28.01100
C  -1.54000 21.81200 26.57900
C  -1.68400 20.39000 26.17600
C  -1.82400 23.03600 28.93500
C  -1.27700 22.96600 25.54700
O  -1.34100 22.79400 24.35300
C  -0.94400 24.37200 25.97000
N  -1.97900 17.41200 25.36400
C  -1.65400 18.46700 24.59200
C  -1.37000 17.96000 23.12300
C  -1.26300 16.43600 23.30200
C  -1.76300 16.17600 24.78000
C  -2.32300 18.45300 22.00500
C  0.20100 16.00900 23.02200
C  1.23800 16.19000 24.18500
N  -2.24200 15.56200 27.67600
C  -2.02700 14.52000 26.70200
C  -2.17600 13.19900 27.29500
C  -2.50500 13.53300 28.62600
C  -2.45500 14.91100 28.81700
C  -1.91300 11.80000 26.73900
C  -2.74000 12.91800 29.89500
O  -2.77000 11.76200 30.22400
C  -2.82800 14.02200 30.99600
C  -1.69400 13.82600 31.96300
O  -0.52500 14.27600 31.85100
O  -2.16200 13.04600 32.98300
C  -1.19800 12.76600 34.03400
H  -2.50700 20.92000 30.55400
H  -1.24000 20.40400 24.06100
H  -1.28400 14.11800 24.72000
H  -3.99900 16.89400 32.44700
H  -1.75600 18.98800 32.08900
H  -4.34900 19.17400 33.26900
H  -4.41900 20.07000 31.67200
H  -3.30100 20.57000 32.93300
H  -0.95500 16.74200 32.90400
H  -2.28800 15.73300 33.58500
H  -2.43800 18.38100 34.46300
H  -0.75700 17.91300 34.38400
H  -2.89200 23.22800 29.03400
H  -1.26700 23.87700 28.52400
H  -1.37300 22.64300 29.84700
H  -0.89700 25.03700 25.10700
H  0.02900 24.13600 26.40000
H  -1.60300 24.79600 26.72700
H  -0.37600 18.36200 22.92600
H  -1.78400 15.87000 22.52900
H  -2.84000 19.38200 22.24700
H  -3.11000 17.71100 21.87300
H  -1.76800 18.60000 21.07900
H  0.54100 16.48700 22.10400
H  0.11900 14.99200 22.63800
H  0.80100 16.63800 25.07700
H  2.06600 16.83800 23.89800
H  1.75300 15.29100 24.52200
H  -1.53000 11.23200 27.58700
H  -1.18400 11.85000 25.93000
H  -2.82200 11.38800 26.30300
H  -3.73100 13.90400 31.59400
H  -0.66700 11.82600 33.88300
H  -1.86200 12.57100 34.87600
H  -0.56700 13.62100 34.27800
Mg 7.78000 3.35400 28.07300
C  9.30000 1.79300 30.88200
C  6.27200 5.56200 30.16000
C  6.23800 4.60700 25.43700
C  8.93200 0.72300 26.15500
N  7.72300 3.52200 30.32700
C  8.59000 2.97200 31.21600
C  8.39400 3.67900 32.64600
C  7.27700 4.71300 32.42500
C  7.12200 4.63500 30.84800
C  5.91500 4.46400 33.12800
C  9.75600 4.29100 33.16100
C  10.27500 3.66900 34.45800
H  10.43800 4.51200 35.78300
N  6.47200 4.95200 27.79200
C  5.98500 5.73600 28.75600
C  5.25800 6.85300 28.12200
C  5.23900 6.57300 26.80400
C  5.94000 5.29200 26.58700
C  4.54100 8.05000 28.78000
C  4.70900 7.40800 25.56800
O  4.47300 6.89300 24.46800
C  4.39300 8.88600 25.78800
N  7.73700 2.86900 26.08000
C  7.08700 3.53700 25.14000
C  7.23700 2.89000 23.77400
C  8.17500 1.70600 23.99900
C  8.22000 1.70500 25.49600
C  5.96200 2.49500 23.07600
C  9.70000 1.78600 23.38600
C  10.35400 0.48100 22.99400
N  8.92800 1.62100 28.44300
C  9.35500 0.64700 27.47200
C  10.12600 -0.40000 28.13700
C  10.05500 0.00900 29.48000
C  9.35200 1.21300 29.61200
C  10.85100 -1.49700 27.52200
C  10.53000 -0.30300 30.80600
O  11.30800 -1.19100 31.15300
C  10.19500 0.85500 31.72700
C  9.46800 0.28600 32.91700
O  8.36600 -0.15700 33.05000
O  10.42100 0.37000 33.91200
C  10.03100 -0.05900 35.24900
H  5.96500 6.47100 30.68100
H  5.83700 5.01900 24.50900
H  9.32900 -0.08300 25.53500
H  8.01600 2.96600 33.37800
H  7.71300 5.68100 32.67000
H  5.12700 4.55400 32.37900
H  5.72000 5.27400 33.83000
H  5.84600 3.53000 33.68600
H  9.77100 5.37700 33.24200
H  10.53400 4.20800 32.40300
H  11.26500 3.24100 34.30100
H  9.66900 2.82500 34.78600
H  4.75500 8.00800 29.84800
H  3.51400 7.70600 28.65700
H  4.78100 9.06000 28.44800
H  5.16300 9.45600 26.30700
H  3.55100 8.93600 26.47700
H  4.15700 9.39900 24.85500
H  7.58300 3.67400 23.10100
H  7.81300 0.72900 23.67700
H  5.03400 2.63900 23.63100
H  5.91700 1.49400 22.64800
H  5.88400 3.20600 22.25400
H  10.38000 2.36300 24.01200
H  9.62700 2.46700 22.53900
H  10.73300 0.50300 21.97200
H  9.68300 -0.37300 23.08800
H  11.18200 0.26900 23.67000
H  10.67100 -1.58100 26.45000
H  10.65100 -2.47500 27.95800
H  11.91400 -1.30600 27.67200
H  10.93800 1.57300 32.07500
H  9.37000 0.70800 35.65200
H  10.99600 -0.11800 35.75200
H  9.68700 -1.09300 35.24500

