158

Mg 46.18500 4.35300 47.02100
C  44.09500 7.09200 46.70000
C  43.49600 2.41400 46.07400
C  48.31700 1.72300 46.79200
C  49.03100 6.45900 47.02200
N  44.06700 4.74200 46.45100
C  43.46300 5.93800 46.33200
C  41.90800 5.75300 46.25600
C  41.74100 4.25200 46.03100
C  43.18100 3.75100 46.27500
C  40.72300 3.47300 46.91100
C  41.19100 6.59700 45.08900
C  42.02600 6.65100 43.74800
H  41.34900 6.11700 42.46300
N  45.95100 2.30600 46.64100
C  44.75900 1.69900 46.16300
C  44.93300 0.27500 45.97900
C  46.33000 0.04600 46.24300
C  46.98700 1.38000 46.64200
C  43.85000 -0.68000 45.54100
C  46.94800 -1.38200 46.14700
O  46.24100 -2.28700 45.80200
C  48.37600 -1.53800 46.44000
N  48.40300 4.12700 47.12000
C  48.97300 2.94200 46.93700
C  50.46400 2.93800 47.01100
C  50.75200 4.50300 46.85500
C  49.32400 5.11100 47.12300
C  50.96500 2.26800 48.31300
C  51.34500 5.01200 45.45200
C  51.67300 4.02700 44.35600
N  46.52400 6.31500 47.10300
C  47.70700 7.04400 47.05900
C  47.31700 8.44700 47.08300
C  45.90100 8.52400 47.04700
C  45.51900 7.23000 46.96400
C  48.26600 9.63000 46.91200
C  44.75800 9.38200 46.96300
O  44.67000 10.62100 46.92600
C  43.48100 8.47400 46.75500
C  42.55800 8.56500 47.85300
O  42.46400 7.80400 48.83600
O  41.75500 9.70300 47.73000
C  40.91300 10.07400 48.83100
H  42.69400 1.80700 45.65000
H  49.01900 0.89600 46.66500
H  49.88500 7.13800 46.99100
H  41.36700 6.05600 47.15300
H  41.67500 4.01400 44.96900
H  39.84900 4.03800 47.23400
H  41.21600 3.12800 47.82000
H  40.28200 2.59900 46.43000
H  40.98600 7.60200 45.45800
H  40.25800 6.04500 44.97500
H  42.89800 6.00800 43.86100
H  42.44500 7.63800 43.55100
H  44.03100 -1.23300 44.61900
H  42.88500 -0.19500 45.39700
H  43.78800 -1.43600 46.32400
H  48.53500 -1.19200 47.46100
H  48.95500 -0.99900 45.69000
H  48.60800 -2.59300 46.29100
H  50.95500 2.30600 46.27200
H  51.40200 4.82200 47.66900
H  51.69000 2.85900 48.87100
H  51.46000 1.33500 48.04300
H  50.12000 2.10500 48.98200
H  52.24400 5.51700 45.80700
H  50.71800 5.81300 45.06100
H  52.66400 3.66700 44.63200
H  51.63800 4.41800 43.33900
H  50.91500 3.24900 44.45100
H  49.24100 9.53500 47.38900
H  47.85500 10.59400 47.21100
H  48.47500 9.62900 45.84200
H  42.84100 8.82100 45.94400
H  41.07200 9.58300 49.79100
H  39.86100 9.95000 48.57200
H  40.99700 11.15100 48.97500
Mg 48.17600 34.31400 26.58100
C  46.31300 32.90100 29.09700
C  48.77400 37.13800 28.56200
C  49.32900 35.94700 23.92900
C  47.31000 31.63400 24.50800
N  47.62600 34.87400 28.52500
C  47.00700 34.07600 29.44900
C  47.22700 34.63600 30.91100
C  47.56900 36.14600 30.65000
C  47.98300 36.05400 29.14200
C  46.43800 37.20100 30.84800
C  48.32400 33.81400 31.57700
C  48.21500 33.82200 33.11300
H  47.04200 34.38400 33.95800
N  48.94600 36.26800 26.34000
C  49.15600 37.22000 27.20200
C  49.95200 38.26900 26.65900
C  50.12800 37.98100 25.29700
C  49.44200 36.67700 25.13000
C  50.31700 39.41200 27.48300
C  50.81200 38.78000 24.22600
O  50.93300 38.41700 23.06100
C  51.50200 40.05200 24.60100
N  48.15700 33.98900 24.44900
C  48.81200 34.71900 23.53300
C  48.97500 34.04500 22.17900
C  48.67400 32.52900 22.53400
C  48.01400 32.69500 23.91200
C  48.17300 34.59000 20.93700
C  49.89500 31.57900 22.50600
C  50.14400 30.78000 21.20400
N  47.08700 32.63100 26.73600
C  46.73400 31.67500 25.74500
C  45.89900 30.69300 26.38900
C  45.66200 31.18200 27.68000
C  46.39600 32.36700 27.76300
C  45.22100 29.55500 25.80000
C  44.95500 30.87400 28.87900
O  44.15000 29.95000 29.18400
C  45.26600 32.07000 29.87000
C  45.84000 31.36000 31.05100
O  46.87300 30.68700 31.04400
O  44.96600 31.41600 32.12400
C  45.31300 30.73400 33.37800
H  49.01200 37.82100 29.37900
H  49.77900 36.47600 23.08700
H  47.18000 30.77300 23.84900
H  46.26400 34.60900 31.42200
H  48.36100 36.41100 31.35000
H  45.65600 36.98200 31.57600
H  45.86000 37.26200 29.92600
H  46.92500 38.15200 31.06300
H  49.33200 34.22200 31.50600
H  48.45900 32.78100 31.25500
H  49.04900 34.30700 33.62000
H  48.12800 32.79800 33.47600
H  49.85000 40.22200 26.92300
H  51.37100 39.60800 27.29100
H  50.06800 39.42700 28.54400
H  51.96300 40.60800 23.78500
H  52.27500 39.92000 25.35800
H  50.71300 40.73500 24.91500
H  50.01200 34.15800 21.86300
H  47.87400 32.16300 21.89000
H  47.12300 34.75800 21.17700
H  48.20200 33.86900 20.12100
H  48.72600 35.48200 20.64400
H  49.73200 30.91000 23.35100
H  50.72800 32.25800 22.68700
H  50.30300 31.41900 20.33600
H  49.30100 30.11100 21.03100
H  51.08300 30.28800 21.45700
H  45.90500 28.73800 26.02900
H  45.09100 29.63100 24.72100
H  44.23800 29.43200 26.25700
H  44.33100 32.61400 30.01000
H  46.30500 30.99400 33.74700
H  45.23400 29.65000 33.29500
H  44.50400 30.93500 34.08000

