158

Mg -0.11200 7.18900 26.39300
C  0.67200 9.38300 29.14500
C  -0.70500 4.66400 28.61400
C  -1.04100 5.45200 23.83900
C  0.68200 9.99200 24.29300
N  0.01300 7.01000 28.59200
C  0.33400 8.01200 29.52400
C  0.29400 7.46300 30.99300
C  -0.15000 6.00100 30.83600
C  -0.35800 5.86300 29.24800
C  0.88100 5.03700 31.46400
C  -0.67200 8.14800 32.01300
C  -0.13100 8.63100 33.39300
H  -0.72300 8.17400 34.72700
N  -0.67300 5.31100 26.25200
C  -0.91300 4.33400 27.26400
C  -1.24700 3.10000 26.71700
C  -1.31900 3.28700 25.33500
C  -1.03700 4.73600 25.08300
C  -1.29700 1.89000 27.54400
C  -1.46000 2.29600 24.29000
O  -1.57200 2.60600 23.12800
C  -1.43700 0.81200 24.62300
N  -0.14300 7.70000 24.35500
C  -0.53000 6.72100 23.43100
C  -0.55900 7.26900 21.96600
C  -0.05400 8.69800 22.18500
C  0.16100 8.83000 23.73900
C  0.45300 6.41200 20.97600
C  -0.96300 9.90800 21.60600
C  -2.15500 10.26900 22.54800
N  0.70100 9.17200 26.62200
C  0.97500 10.16000 25.69500
C  1.53300 11.36500 26.32900
C  1.43500 11.06300 27.69500
C  0.90000 9.74900 27.79800
C  1.85400 12.66500 25.62300
C  1.55800 11.62300 29.00200
O  1.94000 12.76000 29.33300
C  1.04200 10.58200 30.01600
C  2.06100 10.39200 31.06400
O  3.10900 9.75900 30.93200
O  1.74400 11.09900 32.22600
C  2.80100 11.17200 33.23900
H  -0.80300 3.94900 29.43300
H  -1.29800 4.84500 22.96800
H  0.81400 10.82100 23.59400
H  1.30600 7.58600 31.37800
H  -1.11900 5.73900 31.26200
H  1.56400 5.52900 32.15700
H  1.55800 4.57400 30.74600
H  0.27000 4.28000 31.95600
H  -1.50200 7.47000 32.21300
H  -1.11600 9.02200 31.53500
H  -0.24000 9.70600 33.53100
H  0.93400 8.42300 33.29400
H  -0.89000 2.06400 28.54000
H  -0.68300 1.12600 27.06700
H  -2.26200 1.39700 27.66700
H  -2.21000 0.59400 25.36000
H  -0.37900 0.66900 24.84300
H  -1.75400 0.24300 23.74800
H  -1.58000 7.17600 21.59500
H  0.95200 8.71800 21.76800
H  0.28500 6.71000 19.94100
H  0.19800 5.35400 21.04000
H  1.49300 6.62500 21.22000
H  -1.40000 9.49100 20.69900
H  -0.35400 10.73000 21.23000
H  -3.04100 9.95800 21.99400
H  -2.25700 11.34300 22.70200
H  -2.22200 9.75400 23.50700
H  2.81200 13.04000 25.98300
H  1.03400 13.37700 25.72600
H  1.95700 12.44100 24.56200
H  0.06000 10.86200 30.39700
H  2.80700 12.11500 33.78600
H  3.77600 11.07100 32.76300
H  2.66500 10.31400 33.89700
Mg 47.37800 16.82500 28.71700
C  45.15600 16.64300 31.41300
C  49.73100 18.56000 30.64100
C  49.19800 17.43000 25.89300
C  44.87500 15.29500 26.75800
N  47.40700 17.55400 30.71000
C  46.39700 17.33300 31.69900
C  47.00000 17.67600 33.14100
C  48.25300 18.55500 32.79400
C  48.57200 18.12400 31.31100
C  48.19500 20.13200 32.95800
C  47.25300 16.38600 34.03700
C  47.02100 16.51000 35.53300
H  46.77000 17.84700 36.24400
N  49.23800 17.79400 28.38000
C  50.05000 18.45400 29.28400
C  51.17000 19.07000 28.66800
C  51.02300 18.76200 27.26500
C  49.76700 18.00900 27.10100
C  52.15900 19.74500 29.47400
C  51.89300 19.18900 26.13900
O  51.64600 18.87300 24.97500
C  53.08900 20.01200 26.37900
N  47.06300 16.47300 26.73900
C  48.00000 16.74600 25.77900
C  47.66800 16.18100 24.37800
C  46.36800 15.40400 24.67100
C  46.08900 15.65700 26.17600
C  47.69600 17.13100 23.15300
C  46.47800 13.83300 24.43300
C  45.74700 13.35300 23.13100
N  45.33300 16.17600 28.95000
C  44.49100 15.50400 28.12600
C  43.35200 15.11800 28.90000
C  43.62800 15.50700 30.20200
C  44.79100 16.16500 30.16600
C  42.08300 14.40200 28.44500
C  43.06300 15.42700 31.49200
O  42.02400 14.89500 31.95100
C  44.07800 16.22200 32.37900
C  43.43100 17.32300 33.08200
O  43.26400 18.42100 32.55500
O  42.87500 17.02600 34.27400
C  42.27300 18.00900 35.14700
H  50.48900 19.05000 31.25600
H  49.70000 17.59700 24.93800
H  44.06700 14.69700 26.33200
H  46.27200 18.24000 33.72400
H  49.01400 18.24200 33.50900
H  48.67600 20.45100 33.88200
H  47.13500 20.36300 33.05600
H  48.59400 20.62900 32.07300
H  48.30900 16.14700 33.91200
H  46.57100 15.61300 33.68100
H  47.85800 16.02000 36.03100
H  46.13200 15.94100 35.80500
H  52.91100 19.02400 29.79400
H  51.80500 20.38700 30.28100
H  52.72900 20.53800 28.98900
H  53.40000 20.11900 25.34000
H  53.80900 19.35600 26.86900
H  52.93800 20.95800 26.90000
H  48.49100 15.51700 24.11300
H  45.57400 15.87500 24.09100
H  48.37300 16.81600 22.35800
H  48.09400 18.07100 23.53600
H  46.73700 17.24700 22.64700
H  45.99400 13.39300 25.30400
H  47.53400 13.58600 24.32800
H  46.45700 13.52000 22.32100
H  44.87500 13.97800 22.94100
H  45.54600 12.28200 23.14200
H  41.34500 14.38000 29.24700
H  42.42300 13.42100 28.11500
H  41.66400 14.99200 27.63000
H  44.61400 15.62900 33.12000
H  41.39300 18.43900 34.66800
H  43.04700 18.75000 35.34800
H  42.04400 17.65100 36.15000

