158

Mg 8.86000 3.33300 27.91200
C  9.91600 1.62100 30.92800
C  7.25800 5.45900 29.76300
C  7.24400 4.28100 25.08300
C  10.23000 0.64000 26.09700
N  8.38700 3.23800 30.04800
C  9.11500 2.77400 31.14300
C  8.90400 3.57400 32.40200
C  7.72500 4.49500 32.00900
C  7.76300 4.40000 30.48100
C  6.34700 4.31200 32.63600
C  10.26900 4.31300 32.86100
C  10.13800 4.85000 34.30300
H  10.99400 4.08500 35.30500
N  7.41600 4.70900 27.50500
C  6.96500 5.59200 28.41800
C  6.15200 6.58000 27.72000
C  6.14500 6.32000 26.28500
C  6.95100 5.06200 26.21400
C  5.44700 7.69000 28.50700
C  5.38900 7.06200 25.19700
O  5.51000 6.68500 24.00500
C  4.67900 8.33100 25.55000
N  8.82900 2.67100 25.88700
C  8.10500 3.22500 24.89400
C  8.46200 2.70500 23.55200
C  9.51700 1.64400 23.88100
C  9.48800 1.59800 25.39000
C  7.21300 2.17600 22.77200
C  10.94700 1.90700 23.33000
C  11.31000 1.08500 22.09300
N  9.97300 1.47500 28.31400
C  10.42700 0.51000 27.45900
C  11.02800 -0.55200 28.29400
C  10.85900 -0.19400 29.63800
C  10.16100 1.05500 29.63100
C  11.78400 -1.69700 27.71300
C  11.16200 -0.47700 31.03800
O  11.83500 -1.31200 31.52300
C  10.63800 0.64800 31.86400
C  9.60700 0.01700 32.75100
O  8.47100 -0.21700 32.37500
O  10.14400 -0.46300 33.85300
C  9.38500 -1.20600 34.82400
H  7.04500 6.37500 30.31800
H  6.69400 4.65700 24.21800
H  10.62600 -0.18200 25.49700
H  8.57300 2.85500 33.15200
H  8.08600 5.50900 32.18100
H  5.67100 3.84900 31.91700
H  6.00800 5.31700 32.88900
H  6.38600 3.74200 33.56400
H  10.40400 5.19000 32.22900
H  11.16600 3.72100 32.68000
H  9.09200 4.98000 34.58100
H  10.57000 5.85000 34.32400
H  5.91000 8.66600 28.35900
H  5.47000 7.57500 29.59000
H  4.36900 7.62900 28.35600
H  3.84100 8.20500 26.23600
H  4.27100 8.83600 24.67500
H  5.41100 9.00700 25.99300
H  8.94200 3.46100 22.93100
H  9.09300 0.65600 23.70200
H  7.10300 1.14200 22.44500
H  7.19300 2.67800 21.80400
H  6.31400 2.57200 23.24300
H  11.75000 1.70900 24.03900
H  10.92200 2.89800 22.87800
H  11.33700 1.60400 21.13500
H  10.52700 0.32700 22.11200
H  12.29200 0.62300 22.19600
H  11.37100 -1.79300 26.70800
H  11.54100 -2.57100 28.31700
H  12.81800 -1.35600 27.66800
H  11.38700 1.01800 32.56500
H  10.16800 -1.82800 35.25800
H  8.63900 -1.77700 34.27100
H  8.94800 -0.47700 35.50700
Mg 16.94200 -2.24000 28.32700
C  15.99300 -0.39600 31.01300
C  18.90400 -4.27100 30.50400
C  18.55500 -3.67700 25.68600
C  15.66600 0.06700 26.08700
N  17.35500 -2.34000 30.54900
C  16.87100 -1.43000 31.45000
C  17.36900 -1.73600 32.88700
C  18.39600 -2.91700 32.67100
C  18.23000 -3.22200 31.13600
C  19.92400 -2.55400 33.00800
C  16.13300 -2.19500 33.80400
C  16.35400 -2.18200 35.27700
H  17.62100 -1.52700 35.90800
N  18.30500 -3.85100 28.13100
C  18.97800 -4.52000 29.13100
C  19.61300 -5.68200 28.59800
C  19.58400 -5.53000 27.15400
C  18.84400 -4.30300 26.97000
C  20.30400 -6.86200 29.40300
C  20.11800 -6.42400 26.02500
O  19.96000 -6.25000 24.82800
C  20.65900 -7.75700 26.42800
N  17.15300 -1.81300 26.08700
C  17.78400 -2.56800 25.27000
C  17.52000 -2.25600 23.80600
C  16.38700 -1.17800 23.97400
C  16.36500 -0.96800 25.50400
C  18.78200 -1.72700 23.12000
C  15.05000 -1.62100 23.16800
C  13.71000 -1.76900 23.97100
N  15.87200 -0.64300 28.43600
C  15.45900 0.25000 27.45400
C  14.73000 1.24700 28.12800
C  14.94800 1.06500 29.54300
C  15.65000 -0.15900 29.66800
C  13.94600 2.45400 27.39100
C  14.71100 1.65500 30.81600
O  14.18500 2.70200 31.08800
C  15.35500 0.72300 31.81900
C  16.34200 1.52600 32.55900
O  17.47100 1.77100 32.22000
O  15.79900 1.90900 33.74500
C  16.65400 2.74500 34.51400
H  19.43900 -4.95000 31.17000
H  18.96700 -4.11300 24.77400
H  15.09400 0.61300 25.33300
H  17.79900 -0.78700 33.20700
H  18.01100 -3.75200 33.25600
H  20.36000 -3.17100 33.79400
H  20.03900 -1.56700 33.45600
H  20.50900 -2.55400 32.08800
H  15.84100 -3.16400 33.39900
H  15.29700 -1.51100 33.65500
H  16.27900 -3.18300 35.70300
H  15.43900 -1.69700 35.61500
H  19.75300 -7.74300 29.07500
H  20.10000 -6.79300 30.47200
H  21.35400 -7.06200 29.18700
H  21.51300 -7.51300 27.06100
H  21.03600 -8.43800 25.66500
H  19.93200 -8.39000 26.93600
H  17.19100 -3.10400 23.20500
H  16.70600 -0.28700 23.43200
H  18.60900 -0.91900 22.40900
H  19.23400 -2.57500 22.60600
H  19.54700 -1.39600 23.82200
H  15.33400 -2.52100 22.62300
H  14.82200 -0.82300 22.46200
H  13.92500 -1.72300 25.03800
H  13.25400 -2.74000 23.77900
H  13.14200 -0.91100 23.61200
H  13.49500 3.09100 28.15200
H  13.13300 2.01900 26.80900
H  14.49800 2.94200 26.58800
H  14.58400 0.46600 32.54500
H  16.33100 2.98300 35.52700
H  16.67600 3.70400 33.99600
H  17.65600 2.31800 34.56200

