158

Mg 5.48800 54.39500 41.45400
C  3.20900 51.60500 41.57300
C  7.68500 52.36800 39.86700
C  7.13100 57.11200 40.57500
C  2.53700 56.41700 41.82000
N  5.34500 52.30700 40.60500
C  4.33800 51.36200 40.74200
C  4.71200 50.12800 39.94600
C  6.21900 50.23000 39.81800
C  6.46000 51.70400 40.16000
C  7.14400 49.19600 40.49200
C  3.98300 50.13100 38.56700
C  3.44600 48.83500 38.00600
H  4.15900 48.27800 36.75700
N  7.33800 54.68700 40.61900
C  8.12200 53.69400 40.06400
C  9.44000 54.33400 39.76800
C  9.26900 55.74900 40.00300
C  7.87200 55.93400 40.44900
C  10.50300 53.46900 39.22800
C  10.43500 56.74800 39.88100
O  11.52700 56.41000 39.41300
C  10.30100 58.16000 40.25600
N  4.84700 56.42200 41.17800
C  5.75200 57.37300 40.81100
C  5.09100 58.80900 40.77900
C  3.58600 58.58900 41.16300
C  3.64100 57.04200 41.38300
C  5.80300 59.95600 41.57100
C  2.55900 59.07800 40.10200
C  2.03800 60.53700 40.29800
N  3.35900 54.13100 41.97400
C  2.30900 55.05000 42.07400
C  1.17100 54.34000 42.58300
C  1.49600 52.95700 42.45700
C  2.81300 52.91900 42.02500
C  -0.09700 54.98200 42.91500
C  0.97500 51.63400 42.58400
O  -0.08400 51.21200 43.00900
C  2.14300 50.73400 42.10700
C  1.59500 49.76800 41.10700
O  1.14900 50.13900 40.05100
O  1.92000 48.51100 41.58000
C  1.45300 47.42800 40.69100
H  8.47700 51.69100 39.53900
H  7.79100 57.97300 40.45500
H  1.65800 57.04400 41.98300
H  4.37600 49.20200 40.41300
H  6.52700 50.19100 38.77300
H  6.55900 48.33400 40.81300
H  7.47500 49.55400 41.46700
H  8.02700 48.99900 39.88400
H  4.58900 50.47400 37.72800
H  3.19800 50.88400 38.64000
H  2.37000 48.87300 37.83400
H  3.52500 48.02900 38.73500
H  10.50000 53.58400 38.14400
H  10.48400 52.41200 39.49700
H  11.44900 53.88600 39.57100
H  11.28000 58.57100 40.50200
H  9.75200 58.28600 41.18900
H  9.87900 58.71400 39.41700
H  5.18300 59.12600 39.74000
H  3.32300 59.05000 42.11500
H  5.15400 60.50800 42.25100
H  6.19400 60.65000 40.82700
H  6.67800 59.80400 42.20200
H  1.60600 58.55000 40.13200
H  3.13200 58.97400 39.18000
H  2.77700 61.16200 39.79700
H  2.07200 60.80000 41.35500
H  1.01100 60.76100 40.00800
H  0.15500 55.72000 43.67600
H  -0.85500 54.37400 43.40800
H  -0.58800 55.40100 42.03600
H  2.47800 50.17400 42.98000
H  1.17900 47.71800 39.67700
H  0.67100 46.87500 41.21300
H  2.42000 46.93500 40.59000
Mg 0.79000 42.81500 25.35800
C  2.16000 43.04800 28.68600
C  -2.22300 42.26200 26.66400
C  -0.35600 42.35100 22.23000
C  3.88700 43.36100 24.16400
N  0.14400 42.60200 27.53000
C  0.75400 42.77100 28.70400
C  -0.22000 42.68300 29.82000
C  -1.57400 42.28400 29.09100
C  -1.18900 42.41700 27.61900
C  -2.05100 40.86100 29.47300
C  -0.40700 44.03400 30.50700
C  -1.28800 44.00600 31.82900
H  -2.26200 42.83600 32.09800
N  -1.10900 42.34700 24.57800
C  -2.22000 42.15300 25.24600
C  -3.30300 41.90200 24.27500
C  -2.65800 41.89400 22.97900
C  -1.27800 42.21700 23.23500
C  -4.74300 41.64700 24.78800
C  -3.27900 41.65400 21.66400
O  -2.67800 41.65500 20.56000
C  -4.72800 41.37300 21.62500
N  1.60900 42.79700 23.48000
C  0.95700 42.59400 22.35300
C  1.88500 42.65400 21.12200
C  3.12100 43.29500 21.75300
C  2.90000 43.06200 23.22400
C  2.11400 41.40000 20.26100
C  3.40100 44.78600 21.39300
C  2.94300 45.98500 22.28600
N  2.59800 43.25900 26.20500
C  3.77500 43.49600 25.58000
C  4.88900 43.81300 26.54700
C  4.25700 43.61700 27.76100
C  2.88800 43.30900 27.51900
C  6.40000 44.18100 26.20500
C  4.45300 43.61100 29.19600
O  5.42800 43.77700 29.92200
C  3.06400 43.22400 29.83600
C  3.24500 41.99500 30.57100
O  3.88700 41.00600 30.20500
O  2.55700 42.12000 31.75100
C  2.44200 40.89100 32.58700
H  -3.18500 42.00900 27.11600
H  -0.58800 42.26600 21.16700
H  4.82500 43.73600 23.75000
H  0.06800 41.97700 30.59900
H  -2.32900 43.03200 29.33100
H  -3.12200 40.89100 29.67300
H  -1.46500 40.34100 30.23000
H  -1.82800 40.26000 28.59100
H  -0.92300 44.71700 29.83300
H  0.60200 44.35500 30.76700
H  -2.05400 44.76800 31.68800
H  -0.75300 44.27700 32.73900
H  -5.40300 42.42900 24.41100
H  -4.75900 41.62400 25.87800
H  -5.02600 40.67000 24.39800
H  -4.95200 40.46900 22.19200
H  -5.02000 41.11000 20.60800
H  -5.35600 42.16300 22.03600
H  1.30900 43.35200 20.51500
H  4.01500 42.73200 21.48600
H  3.15000 41.19000 19.99600
H  1.54800 41.52000 19.33700
H  1.85300 40.51100 20.83500
H  3.09500 45.00700 20.37000
H  4.49000 44.78200 21.36300
H  2.54800 45.74300 23.27300
H  2.25200 46.57700 21.68500
H  3.76300 46.68700 22.43500
H  7.22600 43.50100 26.41400
H  6.54300 45.17400 26.63000
H  6.56300 44.40500 25.15100
H  2.73300 43.97400 30.55300
H  2.56300 41.24400 33.61100
H  3.12400 40.05900 32.41000
H  1.39200 40.61200 32.50900

