158

Mg 53.78700 23.90600 44.75700
C  51.50500 26.39400 43.78600
C  51.79000 21.59100 43.28500
C  56.34100 21.74400 45.34300
C  55.91200 26.52000 45.61300
N  51.93000 24.00400 43.65300
C  51.21800 25.12400 43.28100
C  49.92200 24.81500 42.46400
C  49.89700 23.25300 42.69300
C  51.27000 22.87700 43.16700
C  48.66600 22.70700 43.50400
C  50.00800 25.18300 40.91500
C  51.45200 25.67500 40.43200
H  51.55500 26.18300 38.96800
N  54.07800 21.95400 44.34700
C  53.08700 21.13100 43.87700
C  53.53200 19.71200 44.02400
C  54.83500 19.69400 44.56500
C  55.13900 21.14700 44.78200
C  52.64200 18.51200 43.62100
C  55.62600 18.42100 44.93600
O  55.29300 17.26000 44.68400
C  56.89100 18.52200 45.78100
N  55.87500 24.15900 45.19500
C  56.67700 23.07800 45.51300
C  58.16500 23.46800 45.77100
C  57.97100 25.05200 45.80800
C  56.51800 25.26200 45.49100
C  58.96200 22.74100 46.91300
C  58.96500 25.88200 44.91500
C  60.43800 26.16800 45.35700
N  53.63700 26.00900 44.95800
C  54.56600 26.95300 45.31200
C  53.95500 28.27700 45.45400
C  52.69400 28.06200 44.90000
C  52.55700 26.72100 44.55000
C  54.48300 29.55600 45.98400
C  51.46500 28.73600 44.47300
O  51.10900 29.89200 44.68300
C  50.56700 27.63600 43.85000
C  50.04100 28.12500 42.52500
O  50.74100 28.58400 41.64900
O  48.70400 27.92500 42.44100
C  48.00800 28.53700 41.28400
H  51.27000 20.76800 42.78900
H  57.17300 21.09900 45.63300
H  56.54800 27.29500 46.04500
H  48.95900 25.22300 42.77100
H  49.82400 22.65500 41.78500
H  48.12500 21.90000 43.00900
H  47.98300 23.49800 43.81200
H  48.99800 22.22800 44.42500
H  49.25000 25.92300 40.65900
H  49.73900 24.31000 40.31900
H  52.15500 24.85000 40.54800
H  51.81800 26.47200 41.08000
H  51.57300 18.72200 43.59200
H  52.62900 17.66100 44.30200
H  52.86300 18.12000 42.62800
H  56.62500 19.06600 46.68700
H  57.68500 19.02500 45.22900
H  57.20900 17.54300 46.13900
H  58.79400 23.34700 44.88900
H  58.06100 25.24900 46.87600
H  58.50500 21.77400 47.12800
H  59.04900 23.43700 47.74800
H  59.95400 22.51900 46.51900
H  58.53000 26.86900 44.75800
H  59.08300 25.32500 43.98500
H  60.48100 27.17500 45.77200
H  61.21100 25.99100 44.60900
H  60.58500 25.46900 46.18000
H  53.62800 30.18400 45.73200
H  55.42200 29.80400 45.48900
H  54.55700 29.40000 47.06000
H  49.76200 27.38300 44.54000
H  48.52600 29.43600 40.95100
H  46.99800 28.78700 41.61000
H  47.96300 27.84500 40.44300
Mg 47.20200 16.98200 28.62400
C  44.95100 16.48600 31.43800
C  48.96200 19.19800 30.50100
C  48.66900 17.89900 25.74600
C  44.87400 15.19000 26.74700
N  46.95900 17.73900 30.78700
C  46.10600 17.30000 31.77400
C  46.45500 17.84800 33.16900
C  47.62600 18.75100 32.73300
C  47.91000 18.58400 31.26200
C  47.35600 20.28700 32.92500
C  46.75100 16.65000 34.05600
C  46.11200 16.61900 35.46500
H  45.81700 18.00400 36.13900
N  48.55900 18.40200 28.22100
C  49.17600 19.21400 29.10800
C  50.09800 20.03300 28.32200
C  50.07600 19.60200 27.00300
C  49.02300 18.64900 26.94000
C  51.09400 20.92300 29.00000
C  50.95300 19.97300 25.78800
O  50.87300 19.43100 24.69700
C  52.00500 20.95100 25.86500
N  46.73800 16.61900 26.62200
C  47.58600 17.04800 25.64700
C  47.38200 16.39400 24.33500
C  46.13200 15.46800 24.56300
C  45.86500 15.78600 26.03300
C  47.30500 17.30500 23.03500
C  46.41500 14.02900 24.11700
C  45.41300 13.36400 23.11300
N  45.30800 15.94000 28.96000
C  44.50900 15.24400 28.09900
C  43.39300 14.69500 28.83100
C  43.50900 15.15000 30.16500
C  44.72700 15.91600 30.18000
C  42.20100 13.99000 28.29500
C  42.84800 15.22800 31.43300
O  41.83100 14.70200 31.92800
C  43.78700 16.00200 32.41100
C  42.98700 17.14800 32.94400
O  42.39700 17.99200 32.28400
O  42.84300 17.00400 34.30900
C  42.12000 18.14700 34.88300
H  49.62000 19.78900 31.14100
H  49.31700 17.89700 24.86700
H  44.33900 14.56500 26.02900
H  45.60100 18.43400 33.50900
H  48.50800 18.49000 33.31800
H  46.43400 20.52500 33.45600
H  47.25800 20.70900 31.92500
H  48.18100 20.71000 33.49900
H  47.81800 16.54100 34.24800
H  46.37100 15.75100 33.57000
H  46.77900 16.04100 36.10400
H  45.11000 16.19400 35.39700
H  51.06600 21.13600 30.06900
H  51.06100 21.87100 28.46300
H  52.03700 20.43000 28.76600
H  51.56800 21.88400 26.21900
H  52.40800 21.15400 24.87300
H  52.84600 20.60800 26.46800
H  48.21300 15.74000 24.07000
H  45.36100 16.02100 24.02800
H  46.36800 17.26400 22.47900
H  48.16300 17.00200 22.43500
H  47.44800 18.37400 23.19100
H  46.70600 13.35300 24.92100
H  47.38100 14.04400 23.61200
H  44.46200 13.86200 23.30200
H  45.29900 12.29400 23.28800
H  45.75100 13.61300 22.10700
H  42.39200 13.65300 27.27600
H  41.29300 14.59200 28.27300
H  42.01000 13.04900 28.81200
H  44.10600 15.34000 33.21600
H  42.70700 19.03000 34.63300
H  42.03300 18.08000 35.96800
H  41.12700 18.23700 34.44400

