158

Mg 24.08400 -3.83600 45.91400
C  26.03700 -1.54400 44.20200
C  21.49100 -3.03400 43.72900
C  22.46100 -6.63400 46.87500
C  26.99800 -4.89200 47.64300
N  23.89300 -2.44000 44.05200
C  24.81600 -1.55600 43.60500
C  24.32400 -0.68700 42.50600
C  22.79100 -1.02500 42.60700
C  22.65300 -2.22700 43.55200
C  21.93100 0.24300 43.11800
C  24.91800 -0.98400 41.05600
C  24.39000 0.01700 39.95900
H  24.05100 -0.58500 38.57900
N  22.16100 -4.74100 45.36100
C  21.23200 -4.23500 44.52800
C  20.13000 -5.11800 44.59400
C  20.36600 -6.15700 45.56900
C  21.71200 -5.88600 45.99100
C  18.90400 -4.73900 43.81600
C  19.39600 -7.26400 45.87300
O  18.28200 -7.35400 45.34900
C  19.71200 -8.33900 46.86600
N  24.65300 -5.44100 47.12800
C  23.80000 -6.50000 47.30900
C  24.54000 -7.70000 47.90900
C  25.92900 -7.13300 48.32900
C  25.85400 -5.75200 47.67400
C  23.83200 -8.53800 49.06400
C  27.13300 -8.09100 47.97500
C  27.95900 -8.62700 49.11000
N  26.03400 -3.25500 46.12800
C  27.12000 -3.71000 46.88100
C  28.28900 -2.79900 46.69300
C  27.82900 -1.94100 45.70100
C  26.48800 -2.34900 45.30400
C  29.54400 -2.83300 47.41800
C  28.34000 -0.89300 44.85200
O  29.40100 -0.26100 44.84600
C  27.27200 -0.66300 43.84000
C  26.86500 0.81400 43.91500
O  26.14800 1.33800 44.71900
O  27.30400 1.49600 42.77100
C  27.30300 2.98000 43.00200
H  20.58000 -2.73500 43.20600
H  21.94600 -7.56400 47.12200
H  27.86600 -5.27200 48.18600
H  24.59000 0.35200 42.70100
H  22.48400 -1.43600 41.64500
H  21.53800 0.22100 44.13500
H  21.01800 0.22600 42.52300
H  22.37400 1.23400 43.01900
H  24.97100 -2.03400 40.76600
H  25.93100 -0.60000 41.17900
H  25.17900 0.75800 39.82500
H  23.57800 0.57900 40.41900
H  19.12000 -4.18200 42.90500
H  18.11900 -4.27500 44.41300
H  18.47200 -5.65000 43.40100
H  18.89500 -9.04600 47.01400
H  20.06100 -7.79400 47.74300
H  20.43300 -9.02900 46.42700
H  24.56800 -8.45100 47.11900
H  25.89900 -7.01600 49.41200
H  24.48800 -8.81200 49.89000
H  23.38100 -9.49300 48.79300
H  22.95600 -8.08100 49.52500
H  27.78300 -7.52800 47.30500
H  26.70900 -8.87900 47.35200
H  27.65200 -8.05500 49.98600
H  29.00300 -8.44300 48.85900
H  27.76700 -9.69800 49.16200
H  29.93200 -3.84900 47.48800
H  29.54600 -2.25300 48.34100
H  30.18800 -2.27800 46.73600
H  27.79900 -0.84700 42.90300
H  27.65500 3.50500 42.11400
H  27.89600 3.20500 43.88800
H  26.31400 3.29000 43.33900
Mg 17.51100 50.69800 26.57500
C  19.65600 49.42300 29.07600
C  15.23300 51.52900 28.93700
C  15.81800 51.98000 24.09500
C  19.99700 49.59100 24.19800
N  17.35600 50.20500 28.71000
C  18.35700 49.87500 29.56300
C  18.04600 50.16700 31.07400
C  16.53800 50.55500 30.90800
C  16.39500 50.85400 29.40200
C  15.50600 49.54400 31.50500
C  18.87200 51.39300 31.65600
C  19.04600 51.49700 33.18600
H  18.11800 50.77200 34.10500
N  15.70800 51.53700 26.53800
C  14.95200 51.85600 27.59400
C  13.88600 52.64000 27.09600
C  14.09700 52.93800 25.76800
C  15.31000 52.13700 25.41800
C  12.79000 53.08800 27.96600
C  13.35800 53.85300 24.83100
O  13.72300 54.02300 23.67700
C  12.14200 54.53900 25.29800
N  17.92400 50.72400 24.39200
C  16.93400 51.27100 23.61100
C  17.28000 51.08500 22.14300
C  18.59700 50.27800 22.14200
C  18.84900 50.16600 23.67700
C  16.14500 50.50100 21.25700
C  19.82900 50.92600 21.44900
C  20.51600 50.15800 20.26200
N  19.35200 49.60100 26.59900
C  20.28500 49.31500 25.58500
C  21.55800 48.87400 26.13200
C  21.31600 48.88200 27.53400
C  20.01400 49.34600 27.75600
C  22.74000 48.62700 25.34800
C  21.90700 48.46100 28.80500
O  23.00600 47.93100 28.99200
C  20.87500 48.88400 29.94700
C  20.55300 47.62100 30.60100
O  19.85500 46.72100 30.09500
O  21.02300 47.62100 31.89800
C  20.23600 46.79200 32.80200
H  14.59600 51.90100 29.74300
H  15.21200 52.34100 23.26100
H  20.69000 49.29300 23.40800
H  18.20600 49.29100 31.70300
H  16.31200 51.47600 31.44500
H  15.97000 48.82000 32.17400
H  14.97200 49.12200 30.65300
H  14.77700 50.08200 32.11100
H  18.37500 52.30800 31.33700
H  19.88600 51.31700 31.26400
H  19.06400 52.50900 33.58900
H  19.98600 51.03500 33.49000
H  11.82400 52.72200 27.61900
H  12.99700 54.15000 28.09300
H  12.84200 52.61100 28.94500
H  11.51700 53.75900 25.73200
H  11.63500 55.01600 24.45900
H  12.28700 55.29500 26.07000
H  17.45000 52.09400 21.76900
H  18.47700 49.32200 21.63200
H  16.00200 51.18500 20.42000
H  15.17100 50.54400 21.74400
H  16.44200 49.52800 20.86500
H  20.58500 51.20200 22.18500
H  19.52200 51.89200 21.04800
H  20.83800 49.14400 20.49900
H  21.37800 50.72500 19.91100
H  19.85900 50.24200 19.39600
H  22.69000 49.35400 24.53700
H  22.62400 47.66300 24.85200
H  23.66100 48.66900 25.93000
H  21.33500 49.61200 30.61500
H  20.72400 45.84900 33.04800
H  19.28300 46.47500 32.37800
H  20.11900 47.43200 33.67600

