158

Mg 35.86800 2.14100 30.76800
C  33.23500 3.30300 32.85500
C  37.73900 1.84100 33.57100
C  38.44200 1.45600 28.75300
C  33.82400 2.52000 28.07800
N  35.47200 2.64900 32.95400
C  34.39200 3.06900 33.58800
C  34.48800 2.90100 35.08100
C  36.01500 2.82300 35.32400
C  36.44800 2.37600 33.85000
C  36.69000 4.18700 35.83300
C  33.69800 1.70300 35.62000
C  32.73800 2.13800 36.74500
H  33.40600 3.11800 37.68900
N  37.86900 1.83600 31.15200
C  38.37000 1.58700 32.37600
C  39.71600 1.02700 32.23500
C  40.01300 0.97800 30.82200
C  38.75500 1.43800 30.13000
C  40.71000 0.67100 33.32000
C  41.24800 0.61900 30.11900
O  41.42800 0.58400 28.94000
C  42.51000 0.24400 30.95700
N  36.16100 2.20100 28.68200
C  37.33000 1.86900 28.05500
C  37.21300 1.90100 26.45400
C  35.61400 1.98800 26.26500
C  35.16800 2.25700 27.72900
C  37.93200 3.07200 25.75400
C  34.96100 0.67800 25.61700
C  34.05600 0.87800 24.38100
N  33.91800 2.78500 30.44000
C  33.20300 2.80800 29.24300
C  31.87100 3.14700 29.53800
C  31.81200 3.37400 30.95900
C  33.09200 3.10100 31.47700
C  30.75900 3.36200 28.58800
C  30.95800 3.82500 32.09300
O  29.80000 4.24000 32.16400
C  31.91400 3.80700 33.34900
C  31.97400 5.16700 34.01000
O  32.37200 6.19500 33.53000
O  31.53800 5.01100 35.32200
C  31.42500 6.33300 36.11400
H  38.27300 1.48600 34.45500
H  39.36700 1.46200 28.17200
H  33.15600 2.53500 27.21300
H  34.21100 3.85800 35.52200
H  36.29200 1.97400 35.94900
H  37.44200 4.45800 35.09200
H  37.19800 4.10500 36.79400
H  35.90300 4.93700 35.90900
H  34.27600 0.83800 35.94400
H  33.03300 1.31400 34.84800
H  32.48800 1.21700 37.27200
H  31.82500 2.52500 36.29200
H  40.77700 -0.41600 33.28200
H  40.29000 0.96800 34.28100
H  41.60400 1.25200 33.09500
H  42.37900 -0.44400 31.79300
H  42.92500 1.11800 31.45700
H  43.29700 -0.19800 30.34600
H  37.65000 0.94800 26.15300
H  35.28000 2.78700 25.60400
H  38.39100 3.68400 26.53100
H  37.25200 3.72400 25.20600
H  38.71700 2.64100 25.13300
H  34.46900 0.16000 26.44000
H  35.76800 -0.00400 25.34900
H  34.43600 1.79600 23.93200
H  33.02100 0.87400 24.72400
H  34.21500 0.00700 23.74600
H  30.87500 2.82700 27.64600
H  30.64900 4.44400 28.51600
H  29.92700 2.95100 29.16000
H  31.47900 3.15500 34.10500
H  30.71300 6.21300 36.93000
H  31.15900 7.18700 35.49100
H  32.32500 6.58200 36.67700
Mg 26.70000 49.61900 25.50200
C  24.67000 50.94400 28.22900
C  29.17600 48.92100 27.80800
C  28.41800 48.45300 23.08300
C  24.35000 51.01700 23.30400
N  26.89900 49.88400 27.71300
C  25.93200 50.35300 28.64800
C  26.40500 50.16600 30.13600
C  27.95300 49.82100 29.89900
C  28.03700 49.44000 28.40700
C  28.87600 51.03000 30.23600
C  25.60800 49.13100 31.09000
C  25.27400 49.64400 32.47100
H  26.26100 50.30700 33.37100
N  28.53500 48.72400 25.50000
C  29.42100 48.54600 26.50900
C  30.57800 47.82300 26.03600
C  30.27200 47.44600 24.66300
C  28.99100 48.16700 24.33400
C  31.81900 47.44700 27.03900
C  30.86900 46.42700 23.75400
O  30.37000 46.33800 22.62700
C  31.92300 45.53900 24.11400
N  26.42400 49.78600 23.47000
C  27.31100 49.21600 22.67500
C  27.12600 49.65000 21.17000
C  25.74100 50.41100 21.21300
C  25.41700 50.39900 22.73200
C  28.25400 50.41200 20.37300
C  24.61200 49.74300 20.28900
C  23.85000 48.48000 20.75500
N  25.00400 50.78600 25.68600
C  24.07800 51.21700 24.68300
C  23.00700 51.97300 25.26600
C  23.25900 51.90400 26.63400
C  24.42500 51.17600 26.85400
C  21.81000 52.47800 24.61500
C  22.59000 52.20900 27.88500
O  21.50800 52.68600 28.10100
C  23.60900 51.75000 28.96600
C  24.19700 52.90300 29.75100
O  25.14800 53.55800 29.40300
O  23.59900 53.15100 30.88000
C  24.12900 54.21500 31.73300
H  29.93300 48.62500 28.53800
H  28.94900 48.23600 22.15500
H  23.64700 51.41600 22.57000
H  26.19900 51.11400 30.63300
H  28.18000 49.12300 30.70400
H  29.76000 51.16800 29.61400
H  29.08200 50.78400 31.27800
H  28.30700 51.95900 30.20600
H  26.25100 48.26400 31.24200
H  24.85300 48.65100 30.46700
H  24.97600 48.69300 32.91200
H  24.38000 50.26800 32.48900
H  31.91200 48.19600 27.82500
H  32.74700 47.45100 26.46700
H  31.86600 46.46100 27.50200
H  31.69300 44.62900 23.55900
H  31.85700 45.33800 25.18300
H  32.85600 45.98900 23.77600
H  27.20600 48.69300 20.65600
H  25.84500 51.42800 20.83400
H  27.93400 50.69000 19.36800
H  29.20800 49.88800 20.33700
H  28.52700 51.32100 20.90900
H  25.19100 49.46700 19.40700
H  23.97600 50.59100 20.03300
H  23.99300 47.75300 19.95600
H  22.81100 48.76300 20.92100
H  24.18400 47.95400 21.65000
H  21.88100 53.44000 24.10700
H  20.95700 52.54200 25.29000
H  21.33000 51.80900 23.90100
H  23.12600 51.16800 29.75200
H  24.04200 55.15000 31.18000
H  25.12200 53.89300 32.04900
H  23.53800 54.15700 32.64700

