158

Mg 8.77900 3.78100 28.00600
C  10.04200 2.02000 30.80600
C  6.76700 5.55500 30.06500
C  7.25700 5.01600 25.33300
C  10.33200 1.39300 26.02600
N  8.44900 3.76000 30.16100
C  9.23900 3.10300 31.08700
C  8.97000 3.70500 32.51800
C  7.72700 4.65500 32.30500
C  7.65900 4.67700 30.74800
C  6.34900 4.14800 32.83700
C  10.24400 4.45700 33.02600
C  10.81800 4.08800 34.44400
H  10.74000 5.18100 35.54100
N  7.35600 5.22000 27.75000
C  6.65400 5.85400 28.74700
C  5.89000 6.88800 28.15800
C  6.12100 6.86900 26.76600
C  6.91900 5.65200 26.52300
C  5.05700 7.92100 28.99900
C  5.60700 7.87200 25.73400
O  5.74600 7.63200 24.53000
C  4.91300 9.08400 26.05800
N  8.69000 3.18600 25.93000
C  7.99900 3.83700 24.96400
C  8.21400 3.29200 23.54400
C  9.30200 2.19000 23.83900
C  9.47700 2.28900 25.36500
C  6.89600 2.67800 22.84100
C  10.67300 2.46000 23.17200
C  11.25000 1.34000 22.34200
N  9.95400 2.07800 28.24400
C  10.56900 1.25400 27.34800
C  11.49300 0.30700 28.07700
C  11.21100 0.55900 29.42100
C  10.37000 1.64300 29.44400
C  12.46500 -0.56100 27.35800
C  11.66000 0.16700 30.76500
O  12.53200 -0.64800 31.03000
C  10.90000 1.11800 31.75500
C  10.06600 0.33200 32.69400
O  8.93500 -0.04800 32.54000
O  10.72100 0.25700 33.88200
C  10.14500 -0.20800 35.16000
H  6.14100 6.18500 30.70100
H  6.68900 5.43200 24.49800
H  10.84700 0.72800 25.33000
H  8.65400 2.90600 33.19000
H  7.83500 5.66000 32.71300
H  5.69300 4.97300 33.11500
H  6.55200 3.52400 33.70700
H  5.84700 3.46700 32.14900
H  10.07900 5.53000 32.93200
H  11.08700 4.21700 32.37800
H  11.86200 3.78500 34.36700
H  10.37300 3.16000 34.80300
H  4.72700 7.52800 29.96000
H  4.15300 8.25000 28.48700
H  5.60400 8.86300 28.98600
H  5.40100 9.62500 26.86900
H  3.89800 8.90500 26.41300
H  4.82000 9.70500 25.16700
H  8.67000 4.03000 22.88400
H  8.89700 1.22300 23.54200
H  6.02400 2.90800 23.45300
H  6.93000 1.59700 22.69900
H  6.71400 3.22900 21.91900
H  11.46500 2.65300 23.89500
H  10.54700 3.29000 22.47600
H  11.95700 0.79900 22.97100
H  11.82200 1.67400 21.47800
H  10.45100 0.66400 22.03600
H  12.65600 -0.30900 26.31500
H  12.11600 -1.59200 27.30200
H  13.38300 -0.50600 27.94400
H  11.49000 1.74700 32.42200
H  9.26400 -0.80900 34.93300
H  9.91200 0.70600 35.70700
H  10.87400 -0.71900 35.78900
Mg 35.46700 1.85600 29.31500
C  33.67100 3.20900 32.01600
C  38.32700 1.82400 31.31100
C  37.36200 1.41400 26.50100
C  32.71600 2.63200 27.23600
N  35.91400 2.36400 31.37500
C  35.02600 2.73800 32.34500
C  35.58300 2.65600 33.76000
C  37.10600 2.28900 33.53100
C  37.15900 2.12900 32.01700
C  38.24700 3.38400 33.90800
C  34.66200 1.60800 34.54100
C  34.40400 1.95900 36.02700
H  35.06800 3.19000 36.66600
N  37.58400 1.57900 28.97600
C  38.57200 1.56800 29.97200
C  39.82700 1.38000 29.34300
C  39.57700 1.29900 27.88900
C  38.13700 1.39700 27.70000
C  41.08300 1.13300 30.06800
C  40.68000 1.23200 26.83900
O  40.39900 1.11200 25.65100
C  42.13600 1.39300 27.14600
N  35.07200 1.78700 27.29500
C  35.99300 1.56600 26.29100
C  35.36400 1.72900 24.84300
C  33.89400 1.78600 25.25300
C  33.89600 2.14400 26.72900
C  35.86800 2.96300 24.06600
C  33.08800 0.50100 25.07500
C  33.05600 0.00500 23.63600
N  33.53100 2.63000 29.57000
C  32.54600 2.89700 28.58900
C  31.39900 3.43900 29.29000
C  31.73400 3.56000 30.68200
C  33.11100 3.10300 30.73100
C  30.14900 3.90700 28.61100
C  31.31300 4.03400 32.00900
O  30.19500 4.46600 32.27900
C  32.53900 3.74500 32.95000
C  32.79600 5.03300 33.73400
O  33.67900 5.82500 33.46200
O  31.83800 5.24300 34.70100
C  31.84300 6.59300 35.35000
H  39.22200 1.80500 31.93600
H  38.04100 1.41700 25.64600
H  31.79000 2.68000 26.66000
H  35.47600 3.65000 34.19200
H  37.32300 1.39900 34.12300
H  37.91800 4.13900 34.62200
H  38.78500 3.78900 33.05200
H  39.07400 2.90800 34.43500
H  35.24400 0.68800 34.48400
H  33.72200 1.47000 34.00700
H  34.61900 1.05400 36.59600
H  33.31800 2.05300 36.01100
H  41.66900 0.24900 29.81600
H  40.83700 0.88100 31.10000
H  41.65400 2.06200 30.05500
H  42.42600 1.98800 28.01200
H  42.57600 1.81000 26.24100
H  42.57100 0.41400 27.35000
H  35.50400 0.80400 24.28400
H  33.44300 2.58700 24.66700
H  36.37900 3.59300 24.79400
H  35.04400 3.57900 23.70700
H  36.47600 2.88800 23.16400
H  32.08400 0.73400 25.43100
H  33.54100 -0.25900 25.71300
H  32.04500 0.04700 23.23100
H  33.37000 -1.03900 23.65400
H  33.58400 0.57700 22.87300
H  29.49500 3.04600 28.47100
H  30.26300 4.30900 27.60400
H  29.62200 4.68400 29.16400
H  32.22400 2.89300 33.55200
H  31.79500 7.31200 34.53200
H  32.75500 6.52100 35.94300
H  30.99100 6.78000 36.00300

