158

Mg 53.63400 23.88000 46.12900
C  51.02300 25.72200 44.99300
C  51.85700 21.05200 45.14400
C  56.48600 22.02500 46.51300
C  55.54500 26.79900 46.70000
N  51.70900 23.39800 45.08500
C  50.79100 24.38200 44.78400
C  49.41200 23.73000 44.30700
C  49.62100 22.25700 44.69200
C  51.11900 22.23200 44.96200
C  48.83600 21.67600 45.92700
C  49.13600 23.90700 42.73700
C  47.70800 24.50600 42.42800
H  47.11900 23.96100 41.11500
N  54.10300 21.82500 45.84800
C  53.22400 20.83300 45.43400
C  53.96200 19.52000 45.48800
C  55.31600 19.83900 45.77000
C  55.32300 21.23500 46.10200
C  53.32000 18.22700 44.99300
C  56.43200 18.84300 45.95200
O  56.35000 17.66700 45.66100
C  57.85200 19.18700 46.48500
N  55.73100 24.36800 46.33900
C  56.62900 23.42500 46.63700
C  57.93000 23.98000 47.24800
C  57.72600 25.49400 47.07900
C  56.25200 25.57600 46.70500
C  58.20000 23.45600 48.67300
C  58.57500 26.14800 45.93400
C  59.36900 27.39900 46.44500
N  53.39900 25.89900 46.02100
C  54.25200 26.94800 46.32400
C  53.43700 28.15000 46.23700
C  52.20500 27.73300 45.67000
C  52.23300 26.36500 45.54200
C  53.67500 29.53700 46.69600
C  50.88000 28.20900 45.22600
O  50.41800 29.33700 45.28900
C  50.14700 26.92700 44.67800
C  50.17500 27.25300 43.21700
O  51.01500 26.88400 42.42000
O  49.02000 27.90900 42.82900
C  48.82300 28.21000 41.35200
H  51.20500 20.18700 45.00500
H  57.42600 21.53300 46.77300
H  55.99200 27.73300 47.04800
H  48.62900 24.08100 44.98000
H  49.35200 21.63700 43.83700
H  48.12100 20.93600 45.56800
H  48.21900 22.45600 46.37400
H  49.36600 21.34400 46.82000
H  49.24100 22.97600 42.17900
H  49.85500 24.51700 42.19100
H  47.73500 25.59600 42.42300
H  47.05000 24.43400 43.29500
H  53.58900 17.47000 45.73000
H  53.81000 17.98500 44.05000
H  52.23600 18.29900 44.89600
H  58.49200 19.86100 45.91800
H  58.35700 18.25000 46.72100
H  57.80800 19.62300 47.48400
H  58.87000 23.72500 46.75900
H  57.86000 25.94000 48.06400
H  57.34600 22.93900 49.11400
H  58.42100 24.20600 49.43200
H  58.98200 22.69900 48.72900
H  57.96900 26.51500 45.10500
H  59.31300 25.42800 45.58200
H  60.35600 27.44000 45.98400
H  59.30100 27.54900 47.52200
H  58.93700 28.31600 46.04400
H  52.99700 30.16700 46.12000
H  54.70700 29.85200 46.54100
H  53.50700 29.73700 47.75400
H  49.11000 26.82500 44.99800
H  49.85000 28.37800 41.02500
H  48.10500 29.02900 41.34800
H  48.40900 27.38100 40.77700
Mg 0.12700 43.79000 26.75000
C  2.49800 43.57800 29.24500
C  -2.22700 42.65400 28.78700
C  -1.92000 43.41000 24.00300
C  2.72500 44.33300 24.54000
N  0.15400 43.14200 28.75900
C  1.18500 43.29700 29.66500
C  0.71400 43.00500 31.05800
C  -0.78000 42.54200 30.98500
C  -0.98900 42.79800 29.37400
C  -1.20800 41.18100 31.51400
C  0.81700 44.30700 31.95800
C  0.92600 44.15400 33.51500
H  0.84500 42.67300 34.08500
N  -1.90000 43.13400 26.50300
C  -2.71700 42.71400 27.46600
C  -4.03400 42.55100 26.92200
C  -3.98800 42.77300 25.51700
C  -2.60100 43.15000 25.26300
C  -5.28000 42.49000 27.77100
C  -5.09700 42.84000 24.48800
O  -4.90000 43.28400 23.35100
C  -6.48500 42.40900 24.80400
N  0.39000 43.83200 24.46800
C  -0.62700 43.65600 23.64400
C  -0.13300 43.92900 22.13500
C  1.33100 44.40000 22.34700
C  1.49600 44.12200 23.87000
C  -0.43900 42.79100 21.16500
C  1.69100 45.86500 21.91600
C  1.74300 47.01900 22.96700
N  2.19500 44.06100 26.86900
C  3.13700 44.21000 25.82400
C  4.51000 44.23200 26.34400
C  4.32600 43.93300 27.70300
C  2.89600 43.83800 27.94000
C  5.84100 44.39200 25.50100
C  4.94200 43.58700 29.02800
O  6.09700 43.36100 29.31300
C  3.79000 43.44000 30.05000
C  4.01700 42.05600 30.52300
O  3.87300 40.99600 29.91900
O  4.37600 42.15900 31.85700
C  4.91200 40.93800 32.48300
H  -2.98500 42.30100 29.49000
H  -2.64900 43.40200 23.19000
H  3.52600 44.64100 23.86500
H  1.33400 42.17900 31.40500
H  -1.34800 43.31800 31.50000
H  -1.58900 40.60800 30.66800
H  -2.03800 41.27600 32.21300
H  -0.44900 40.56200 31.99400
H  -0.07100 44.93900 31.97300
H  1.63000 45.00000 31.74200
H  0.03200 44.56700 33.98400
H  1.76900 44.70900 33.92500
H  -6.23900 42.80200 27.35800
H  -5.11700 42.98800 28.72600
H  -5.51600 41.44000 27.94600
H  -6.91500 42.13400 23.84100
H  -7.15500 43.17800 25.19000
H  -6.48200 41.51100 25.42000
H  -0.78200 44.75800 21.85100
H  2.01200 43.66400 21.92100
H  -0.36400 41.87400 21.74900
H  0.29300 42.67000 20.36600
H  -1.45300 43.01800 20.83800
H  0.92300 46.17800 21.20800
H  2.65200 45.84100 21.40300
H  2.77500 47.36500 23.02200
H  1.40400 46.75400 23.96900
H  1.11600 47.81100 22.55800
H  6.47800 43.54300 25.74900
H  6.30000 45.36900 25.65500
H  5.57500 44.39500 24.44400
H  3.72700 44.04500 30.95500
H  5.97100 41.04400 32.71900
H  4.94900 40.10300 31.78400
H  4.22500 40.74700 33.30800

