158

Mg 50.73000 46.12900 43.25200
C  47.91200 47.44800 41.67900
C  49.94500 43.14400 41.66900
C  53.83600 45.04200 43.95300
C  51.52100 49.37800 44.31300
N  49.10000 45.39700 41.84700
C  47.99800 46.09000 41.42700
C  47.09100 45.21700 40.58200
C  47.62000 43.76000 40.98000
C  48.93900 44.06200 41.58400
C  46.63600 42.98800 41.87500
C  47.23200 45.55500 39.05300
C  46.01500 46.04400 38.22900
H  45.47200 45.03300 37.20500
N  51.77700 44.30300 42.91000
C  51.21500 43.14000 42.27100
C  52.20200 42.04100 42.38200
C  53.39100 42.63500 42.95100
C  53.05500 44.07200 43.25400
C  51.92900 40.53700 42.05700
C  54.73700 41.88600 43.24000
O  54.84700 40.70300 42.88300
C  55.92200 42.53900 43.86200
N  52.42000 47.05500 43.96200
C  53.55900 46.33500 44.29000
C  54.60000 47.33800 44.84600
C  53.86200 48.68800 45.04100
C  52.52400 48.36400 44.34800
C  55.47300 46.83600 46.06800
C  54.67000 49.88000 44.47200
C  54.92200 51.00700 45.52200
N  49.91200 48.09500 43.04000
C  50.29200 49.29800 43.57800
C  49.34300 50.27900 43.16800
C  48.35400 49.63600 42.50100
C  48.82800 48.30400 42.37600
C  49.52600 51.79600 43.40800
C  47.05200 49.78600 41.86000
O  46.25900 50.71200 41.80100
C  46.72600 48.38000 41.31100
C  45.36100 47.92600 41.76000
O  45.03500 47.49000 42.85500
O  44.51600 48.07300 40.67800
C  43.16400 47.48700 40.98900
H  49.59100 42.25200 41.14700
H  54.86700 44.75300 44.17000
H  51.76600 50.29900 44.84600
H  46.05600 45.31000 40.91200
H  47.78300 43.12500 40.10900
H  45.72700 43.56900 42.03000
H  47.00900 42.93100 42.89700
H  46.53900 42.00700 41.40900
H  47.73200 44.82000 38.42200
H  48.00000 46.31900 38.94000
H  46.15400 46.94300 37.62900
H  45.26800 46.31200 38.97700
H  51.11400 40.38300 41.35000
H  51.71600 39.94000 42.94400
H  52.74100 40.01100 41.55300
H  55.54600 42.90700 44.81700
H  56.37700 43.31500 43.24700
H  56.78000 41.87500 43.96900
H  55.33600 47.54900 44.07100
H  53.60000 48.93100 46.07100
H  55.30300 45.76300 46.15600
H  55.31600 47.27800 47.05200
H  56.52300 46.90300 45.78400
H  54.06800 50.27100 43.65200
H  55.66300 49.54900 44.16900
H  55.99800 51.04700 45.69400
H  54.29700 50.88200 46.40600
H  54.64900 51.97400 45.10000
H  50.05700 52.26300 42.57800
H  49.90600 52.02600 44.40400
H  48.53400 52.24300 43.34800
H  46.68900 48.47200 40.22500
H  43.21600 46.39900 40.94700
H  42.51000 47.80500 40.17800
H  42.83800 47.86700 41.95800
Mg 27.26100 51.16800 26.46000
C  24.95800 52.17700 28.91300
C  29.36100 50.27500 29.08500
C  29.30000 50.20000 24.17600
C  25.19200 52.76500 24.13100
N  27.07800 51.04000 28.74000
C  26.07700 51.56500 29.50800
C  26.35300 51.43600 31.01100
C  27.90500 51.03300 31.02800
C  28.17600 50.79300 29.49900
C  28.85600 52.13500 31.71400
C  25.44700 50.31800 31.62000
C  25.20700 50.28900 33.12500
H  26.14300 51.08200 34.05800
N  29.13200 50.41100 26.60900
C  29.78800 50.09200 27.77000
C  31.14400 49.57600 27.35100
C  31.10100 49.39000 25.90600
C  29.84500 50.08200 25.49200
C  32.25700 49.21700 28.32400
C  32.09700 48.75800 25.11100
O  32.06900 48.79800 23.86000
C  33.29100 48.15900 25.70900
N  27.17300 51.44500 24.43400
C  28.11900 50.81500 23.68200
C  27.75300 50.92900 22.18000
C  26.52500 51.90800 22.09400
C  26.27000 52.04100 23.61400
C  28.96600 51.13700 21.23000
C  25.26500 51.37100 21.28800
C  24.49100 50.09800 21.81700
N  25.45800 52.28400 26.44400
C  24.70100 52.74600 25.44500
C  23.44500 53.24500 25.95100
C  23.52200 53.06400 27.31200
C  24.75400 52.47400 27.57900
C  22.27500 53.57100 25.12700
C  22.73300 53.31000 28.45700
O  21.70700 53.91200 28.63300
C  23.66800 52.78500 29.59400
C  24.07600 53.87900 30.37500
O  24.92000 54.72900 30.08000
O  23.45300 53.86300 31.60300
C  23.89100 54.74500 32.67400
H  30.02400 49.98500 29.90300
H  29.94500 49.77800 23.40200
H  24.54500 53.19100 23.36200
H  26.20700 52.41400 31.46700
H  28.18500 50.10100 31.51800
H  29.14000 51.71600 32.68000
H  28.34700 53.05700 31.99700
H  29.68500 52.45100 31.08000
H  25.81900 49.35400 31.27200
H  24.49500 50.46800 31.11200
H  25.34600 49.25200 33.43200
H  24.16000 50.48900 33.35500
H  33.23700 49.67200 28.18000
H  32.50400 48.15800 28.39800
H  31.96100 49.52800 29.32600
H  33.94300 48.91800 26.14000
H  33.80500 47.71300 24.85800
H  32.93200 47.45700 26.46200
H  27.41800 49.94600 21.84700
H  26.83100 52.88700 21.72600
H  28.67700 51.82000 20.43200
H  29.26900 50.24500 20.68300
H  29.87600 51.50900 21.70200
H  25.62000 51.16600 20.27800
H  24.51600 52.13900 21.09300
H  24.47000 49.30100 21.07400
H  23.47600 50.34700 22.12600
H  24.90400 49.68100 22.73600
H  21.32800 53.49300 25.66100
H  22.24200 52.98800 24.20600
H  22.43800 54.57900 24.74600
H  23.21800 52.07000 30.28300
H  24.75900 55.34800 32.41100
H  24.20900 54.01600 33.42000
H  23.20500 55.35200 33.26500

