158

Mg -1.76000 17.50400 27.61000
C  -2.37700 15.23600 30.13700
C  -2.22600 20.15400 29.62700
C  -1.36300 19.50800 24.77800
C  -1.82100 14.69800 25.33600
N  -2.31100 17.64100 29.64000
C  -2.32800 16.58000 30.51800
C  -2.53300 17.14900 31.95600
C  -2.64500 18.74900 31.71500
C  -2.32000 18.88800 30.23000
C  -4.01400 19.46500 32.15400
C  -1.47000 16.80700 33.05400
C  -1.65000 17.46600 34.46700
H  -1.26000 16.69500 35.68500
N  -1.69500 19.54700 27.25000
C  -1.90200 20.52000 28.25200
C  -1.79200 21.76600 27.66300
C  -1.55300 21.66100 26.30200
C  -1.60100 20.22300 26.01800
C  -1.98700 23.08200 28.48900
C  -1.50100 22.74100 25.28300
O  -1.44600 22.48600 24.06400
C  -1.44300 24.16900 25.68400
N  -1.78100 17.12600 25.37000
C  -1.53800 18.16400 24.49900
C  -1.20800 17.61500 23.15500
C  -0.99500 16.10100 23.38300
C  -1.59200 15.90700 24.79900
C  -2.43200 17.87500 22.17300
C  0.48300 15.65600 23.22000
C  1.53200 15.82600 24.31000
N  -2.02400 15.40800 27.71700
C  -1.97800 14.41800 26.70600
C  -2.24800 13.09900 27.31000
C  -2.55600 13.39700 28.63100
C  -2.34200 14.76900 28.85000
C  -2.29700 11.80900 26.64700
C  -2.97600 12.82300 29.88000
O  -3.19300 11.68900 30.18700
C  -2.77700 14.03300 30.92700
C  -1.77200 13.53800 31.87500
O  -0.63200 13.45500 31.65800
O  -2.47500 13.31500 33.05200
C  -1.62600 12.94400 34.18600
H  -2.33300 20.90300 30.41500
H  -1.10400 20.14000 23.92600
H  -1.70700 13.80200 24.72200
H  -3.47700 16.85300 32.41500
H  -1.82300 19.18500 32.28200
H  -4.51000 18.91500 32.95400
H  -4.60800 19.47600 31.24000
H  -3.72900 20.46200 32.49300
H  -0.48100 17.17800 32.78500
H  -1.46300 15.71700 33.05300
H  -2.65800 17.87800 34.50800
H  -0.94000 18.29300 34.47000
H  -2.83200 23.67000 28.12900
H  -1.10400 23.72200 28.46600
H  -2.19500 22.97800 29.55300
H  -1.47800 24.76500 24.77100
H  -0.56500 24.32500 26.31000
H  -2.31200 24.39000 26.30400
H  -0.37000 18.16600 22.72800
H  -1.65700 15.51500 22.74400
H  -3.05100 16.97800 22.12900
H  -2.10400 18.18400 21.18100
H  -2.96000 18.74700 22.55900
H  0.85900 16.13000 22.31400
H  0.45400 14.59600 22.96900
H  0.97100 15.88400 25.24300
H  1.81600 16.86500 24.14000
H  2.43000 15.22000 24.42700
H  -2.92800 11.16900 27.26400
H  -1.26900 11.44700 26.65600
H  -2.70500 11.66700 25.64700
H  -3.76600 14.23100 31.34000
H  -2.28000 12.71100 35.02600
H  -0.93300 13.74500 34.44300
H  -0.99000 12.12800 33.84300
Mg 17.30100 -1.30800 27.51000
C  16.43500 0.55500 30.33200
C  19.02100 -3.49300 29.64300
C  18.34600 -2.94100 24.81400
C  15.75100 1.14600 25.55700
N  17.77500 -1.36500 29.65300
C  17.28400 -0.50700 30.60400
C  17.78400 -0.91100 32.02300
C  18.73600 -2.10300 31.73000
C  18.47100 -2.41100 30.27700
C  20.22700 -1.73800 32.08200
C  16.54600 -1.24100 33.01500
C  16.44200 -0.62700 34.41400
H  17.76200 -0.10500 35.09600
N  18.54800 -3.03900 27.18100
C  19.04400 -3.83300 28.25900
C  19.68000 -4.90900 27.57400
C  19.64700 -4.76400 26.19500
C  18.78400 -3.63400 25.98700
C  20.25900 -6.07700 28.37500
C  20.26100 -5.53800 25.05000
O  20.09400 -5.13400 23.91100
C  21.07500 -6.78800 25.28000
N  17.13500 -0.92700 25.47100
C  17.65300 -1.77100 24.57400
C  17.38100 -1.23300 23.22000
C  16.23200 -0.14200 23.38400
C  16.43200 0.12600 24.90500
C  18.63500 -0.54700 22.54900
C  14.74200 -0.60600 22.99000
C  14.01300 -0.11900 21.66600
N  16.15100 0.43300 27.84700
C  15.53500 1.32700 26.97000
C  14.76600 2.27700 27.75200
C  15.09000 1.99000 29.05400
C  15.92700 0.90400 29.04900
C  13.80600 3.35300 27.18200
C  14.86000 2.40900 30.37300
O  14.07900 3.24500 30.89700
C  15.77000 1.54200 31.22400
C  16.72400 2.39200 31.99200
O  17.82800 2.70000 31.64500
O  15.98200 2.96100 33.06000
C  16.73600 4.03400 33.76700
H  19.61100 -4.17700 30.25600
H  18.76500 -3.39200 23.91200
H  15.11900 1.80100 24.95400
H  18.31800 -0.06300 32.45100
H  18.43100 -3.00100 32.26600
H  20.78800 -2.32100 31.35200
H  20.41600 -2.29300 33.00100
H  20.58800 -0.71100 32.11600
H  16.59600 -2.30500 33.24700
H  15.60700 -1.01900 32.50800
H  16.00500 -1.33500 35.11700
H  15.84700 0.28400 34.34400
H  21.32400 -5.92700 28.19800
H  19.94200 -7.07100 28.06000
H  19.91300 -6.07600 29.40800
H  21.50100 -7.17900 24.35600
H  20.55000 -7.61300 25.76200
H  21.82700 -6.39100 25.96200
H  17.01400 -2.02600 22.56900
H  16.66400 0.64400 22.76500
H  19.42200 -0.67300 23.29300
H  18.57800 0.44000 22.09000
H  18.87800 -1.18400 21.69900
H  14.10900 -0.34000 23.83700
H  14.77200 -1.69200 22.89500
H  13.18500 0.46900 22.06100
H  13.58400 -0.90000 21.03800
H  14.55700 0.64500 21.10900
H  12.89100 2.95000 26.74800
H  14.30800 4.01300 26.47500
H  13.44900 3.98500 27.99500
H  15.07200 1.06500 31.91300
H  16.22400 4.99600 33.74900
H  17.73600 4.28300 33.41300
H  16.90100 3.75900 34.80900

