158

Mg 24.04700 -6.80300 46.26000
C  26.29500 -4.68900 44.64400
C  21.60500 -5.93100 44.03300
C  22.05700 -9.33600 47.49100
C  26.81600 -8.14800 48.00200
N  23.92700 -5.39100 44.56500
C  24.98500 -4.56200 44.13100
C  24.53900 -3.87600 42.91400
C  23.01200 -4.23500 42.85600
C  22.81100 -5.23300 43.91100
C  22.02200 -3.07000 42.94300
C  25.31600 -4.25400 41.64200
C  25.80700 -3.05200 40.77900
H  25.40400 -3.22400 39.26800
N  22.00500 -7.43700 45.92500
C  21.18000 -6.94600 44.99100
C  19.88900 -7.62300 44.99000
C  19.96300 -8.57000 46.08500
C  21.42600 -8.56600 46.54200
C  18.65800 -7.24700 44.12900
C  18.82200 -9.46500 46.60700
O  17.74800 -9.59200 46.06200
C  18.93200 -10.31700 47.88600
N  24.42000 -8.63700 47.46100
C  23.41800 -9.51100 47.82200
C  23.95800 -10.56700 48.83300
C  25.52100 -10.26800 48.82700
C  25.60800 -8.90400 48.13800
C  23.33700 -10.46600 50.26400
C  26.38600 -11.28500 48.02300
C  27.31400 -12.26300 48.80300
N  26.07000 -6.50800 46.36400
C  27.06700 -7.06100 47.20600
C  28.32500 -6.38900 47.05500
C  28.00000 -5.42100 46.04200
C  26.64000 -5.55900 45.65500
C  29.62400 -6.74600 47.74600
C  28.68400 -4.34600 45.31100
O  29.80900 -3.84100 45.35800
C  27.59700 -3.86700 44.27500
C  27.32000 -2.36500 44.58800
O  26.68500 -1.95000 45.53000
O  27.83800 -1.58200 43.58300
C  27.48600 -0.13200 43.69300
H  20.76600 -5.68000 43.38000
H  21.41900 -10.05000 48.01600
H  27.72200 -8.53200 48.47400
H  24.67800 -2.80500 43.06000
H  22.79100 -4.64300 41.87000
H  21.06300 -3.24900 42.45600
H  22.38300 -2.16300 42.45900
H  21.84700 -2.77400 43.97700
H  24.72300 -4.96500 41.06700
H  26.20300 -4.80700 41.95200
H  26.86600 -2.86800 40.96000
H  25.37700 -2.08000 41.02100
H  17.99000 -6.68700 44.78300
H  17.92100 -8.00500 43.86300
H  18.98800 -6.67500 43.26200
H  19.52000 -9.83200 48.66500
H  19.47300 -11.22500 47.62200
H  18.00200 -10.53200 48.41300
H  23.87500 -11.56000 48.39300
H  25.77700 -10.13900 49.87800
H  22.82800 -9.50500 50.33700
H  24.09000 -10.69300 51.01900
H  22.58300 -11.25300 50.28400
H  27.02500 -10.70700 47.35500
H  25.80900 -11.93400 47.36400
H  27.39600 -11.95500 49.84600
H  28.30300 -12.06200 48.39200
H  27.12200 -13.32900 48.68500
H  29.75500 -7.76700 47.38500
H  29.39000 -6.74000 48.81100
H  30.50300 -6.15600 47.49000
H  28.01900 -4.09900 43.29700
H  26.45200 0.04900 43.98700
H  27.68900 0.41000 42.77000
H  28.19700 0.22200 44.44000
Mg -2.18900 35.32900 26.85700
C  -3.47800 33.16000 29.30300
C  -0.84400 37.13800 29.26200
C  -0.97800 37.12700 24.42300
C  -3.85200 33.20800 24.36300
N  -2.21300 35.11000 29.09300
C  -2.56000 34.10900 29.84900
C  -2.25700 34.29100 31.31900
C  -1.50500 35.69600 31.29300
C  -1.57900 36.04300 29.78500
C  -2.08500 36.84000 32.23600
C  -1.50000 33.02800 31.83200
C  -1.96700 32.47000 33.17100
H  -0.94800 32.23700 34.28500
N  -1.18900 36.93300 26.80900
C  -0.65000 37.57400 27.94400
C  0.30200 38.61800 27.53200
C  0.37100 38.54000 26.14300
C  -0.62200 37.49700 25.70700
C  1.12900 39.53900 28.52900
C  1.20500 39.32900 25.19200
O  1.26400 39.19700 23.99200
C  2.12800 40.33500 25.73800
N  -2.62400 35.32600 24.74300
C  -1.92600 36.17600 23.94800
C  -2.25300 35.93900 22.46400
C  -3.06500 34.70100 22.45700
C  -3.22900 34.40400 23.94700
C  -2.95700 37.06300 21.69100
C  -2.44100 33.48300 21.62900
C  -1.23900 32.73500 22.29600
N  -3.49700 33.60200 26.75700
C  -4.08400 32.84900 25.71000
C  -4.81300 31.72200 26.23800
C  -4.70000 31.84500 27.67400
C  -3.79100 32.92000 27.93900
C  -5.47400 30.62300 25.48500
C  -5.03200 31.33000 28.90600
O  -5.79200 30.39900 29.17300
C  -4.21500 32.06000 30.04500
C  -5.11700 32.65200 31.04000
O  -5.87300 33.59900 30.85800
O  -5.03900 31.97700 32.22300
C  -6.12800 32.24100 33.14000
H  -0.27600 37.73300 29.98000
H  -0.68300 37.76400 23.58700
H  -4.32200 32.67100 23.53700
H  -3.19600 34.41000 31.86000
H  -0.52700 35.60000 31.76300
H  -2.95900 36.60300 32.84300
H  -2.35800 37.67800 31.59500
H  -1.36000 37.25200 32.93800
H  -0.43300 33.22600 31.93100
H  -1.47600 32.23300 31.08700
H  -2.53200 31.55300 33.00500
H  -2.65300 33.18400 33.62700
H  2.14700 39.79000 28.23000
H  1.08400 39.11600 29.53200
H  0.63500 40.49800 28.67800
H  2.96500 39.76400 26.13900
H  1.59100 40.94800 26.46200
H  2.45500 41.06900 25.00200
H  -1.25700 35.88900 22.02400
H  -4.12300 34.82600 22.22700
H  -3.64900 36.71700 20.92400
H  -2.17500 37.75400 21.37800
H  -3.51800 37.59800 22.45800
H  -2.23600 33.87300 20.63200
H  -3.23100 32.78100 21.36000
H  -0.92100 33.17800 23.23900
H  -0.31900 32.87700 21.72900
H  -1.48800 31.67900 22.40400
H  -4.93000 30.34400 24.58300
H  -6.47900 30.99500 25.28800
H  -5.59500 29.88200 26.27500
H  -3.56900 31.31600 30.51200
H  -7.02700 32.70100 32.73000
H  -5.74700 32.75500 34.02200
H  -6.42500 31.28800 33.58000

