158

Mg 34.68700 3.05700 29.53700
C  32.71400 4.03200 32.27100
C  37.49600 2.77500 31.52900
C  36.41800 2.15400 26.84600
C  31.82900 3.37100 27.60000
N  35.11300 3.51000 31.66900
C  34.07200 3.57200 32.59400
C  34.70500 3.53200 34.02400
C  36.20700 3.03500 33.78900
C  36.29900 3.09300 32.25800
C  37.38400 3.81000 34.41700
C  33.89400 2.59700 34.96000
C  33.86600 2.95100 36.44800
H  34.80400 3.99600 37.11900
N  36.72200 2.70100 29.21000
C  37.66800 2.66000 30.12200
C  38.93900 2.22300 29.50500
C  38.73700 1.98900 28.12500
C  37.24100 2.25300 27.98600
C  40.24300 2.19800 30.27100
C  39.66500 1.58300 26.90900
O  39.29800 1.57800 25.74700
C  41.14800 1.12900 27.09700
N  34.18600 2.63500 27.61700
C  35.09400 2.37900 26.62200
C  34.48600 1.99000 25.30200
C  32.96000 2.22700 25.60600
C  32.95800 2.74600 27.02800
C  34.94800 2.97200 24.21400
C  32.04900 1.03000 25.52600
C  32.41100 0.07500 24.43000
N  32.67500 3.82900 29.72200
C  31.63600 3.83800 28.89100
C  30.45800 4.34900 29.61000
C  30.79800 4.39100 30.95900
C  32.18500 4.03000 30.98000
C  29.15100 4.63300 28.96000
C  30.31300 4.65800 32.29700
O  29.17900 4.93600 32.66100
C  31.48400 4.38900 33.24600
C  31.81800 5.49700 34.07600
O  32.08900 6.62100 33.67000
O  31.61500 5.18100 35.41200
C  31.55800 6.32200 36.35700
H  38.28500 2.62500 32.26900
H  36.93900 1.73600 25.98200
H  30.91900 3.37100 26.99600
H  34.86100 4.53700 34.41700
H  36.34500 2.01700 34.15400
H  38.30900 3.23500 34.39700
H  37.12900 4.01100 35.45800
H  37.63000 4.74600 33.91700
H  34.18600 1.54700 34.95000
H  32.82400 2.65400 34.76000
H  34.15700 2.02900 36.95100
H  32.86600 3.06200 36.86600
H  40.79900 3.13400 30.22300
H  40.91300 1.41600 29.91300
H  40.16900 2.05000 31.34800
H  41.69000 0.98300 26.16300
H  41.22100 0.15900 27.59000
H  41.69000 1.87700 27.67400
H  34.73900 0.94000 25.15400
H  32.63800 3.06500 24.98700
H  35.90800 2.73700 23.75300
H  34.93800 3.95700 24.68100
H  34.09900 2.91100 23.53300
H  31.00200 1.32200 25.44200
H  32.01500 0.41000 26.42200
H  33.08700 -0.66600 24.85800
H  32.84600 0.60700 23.58400
H  31.47300 -0.42500 24.18800
H  29.27500 5.22200 28.05100
H  28.71400 5.31500 29.69000
H  28.49000 3.79900 28.72700
H  31.10500 3.50100 33.75300
H  30.50900 6.55500 36.54200
H  32.15500 7.15700 35.99200
H  31.91800 5.94300 37.31300
Mg 43.18700 42.35800 26.55500
C  42.06300 44.60800 28.89300
C  44.49500 40.46600 29.10400
C  44.29400 40.16700 24.16000
C  42.09700 44.47800 24.06200
N  43.17000 42.47300 28.74800
C  42.57000 43.41000 29.46200
C  42.51900 42.95300 30.95800
C  43.62900 41.87600 30.99700
C  43.76100 41.54300 29.52900
C  44.82500 42.22200 31.85500
C  41.09600 42.63700 31.42300
C  40.45700 43.43600 32.58200
H  39.83500 42.65200 33.70500
N  44.11400 40.50500 26.65900
C  44.64700 39.90700 27.81300
C  45.21000 38.63300 27.48400
C  45.11800 38.50400 26.03500
C  44.47300 39.78500 25.51600
C  45.71000 37.67700 28.58100
C  45.43600 37.30800 25.13900
O  45.32400 37.30900 23.88500
C  45.91400 35.97600 25.84100
N  43.39100 42.48500 24.37600
C  43.86000 41.44900 23.63400
C  43.77400 41.78600 22.14900
C  42.82900 43.00000 22.12100
C  42.77900 43.38100 23.58000
C  45.13400 42.08300 21.50300
C  41.54800 42.40000 21.61200
C  40.69300 41.57600 22.65200
N  42.45500 44.28000 26.43700
C  42.07300 44.99700 25.36500
C  41.53500 46.27000 25.83100
C  41.44700 46.09700 27.24500
C  42.07100 44.86600 27.51700
C  41.09100 47.44800 25.03800
C  40.94900 46.70600 28.45600
O  40.27400 47.76400 28.64100
C  41.20500 45.67000 29.60200
C  42.06100 46.23300 30.79600
O  43.20800 46.58500 30.74600
O  41.33200 46.17200 31.88100
C  41.94200 46.73000 33.05800
H  44.88500 39.82900 29.90100
H  44.70200 39.47000 23.42500
H  41.69200 45.14600 23.29900
H  42.79100 43.72500 31.67800
H  43.22300 40.94500 31.39400
H  44.65400 43.04800 32.54700
H  45.62300 42.69100 31.27900
H  45.08100 41.27500 32.33000
H  41.06200 41.57900 31.68200
H  40.55600 42.79700 30.49000
H  39.76600 44.18900 32.20400
H  41.27200 44.03200 32.99400
H  45.25600 36.68700 28.63100
H  45.62100 38.03100 29.60900
H  46.79700 37.73400 28.53700
H  46.55100 36.28600 26.66900
H  46.52200 35.37100 25.16900
H  45.00600 35.50300 26.21500
H  43.50400 40.85100 21.65800
H  43.18800 43.68200 21.35000
H  45.51500 43.06500 21.78500
H  45.03500 42.05400 20.41800
H  45.93000 41.36100 21.68900
H  41.52900 41.72100 20.76000
H  40.85800 43.22500 21.43400
H  40.62900 42.01200 23.64800
H  41.02000 40.53600 22.63800
H  39.65300 41.61300 22.32700
H  41.22300 48.32000 25.67900
H  40.08200 47.13900 24.76600
H  41.63400 47.56300 24.10000
H  40.26500 45.25500 29.96700
H  41.34700 46.41500 33.91600
H  41.84600 47.81500 33.02200
H  42.99800 46.52900 33.24000

