158

Mg -1.91300 16.91200 26.93900
C  -2.57500 14.50200 29.45900
C  -2.49600 19.37500 29.29000
C  -2.12700 19.24800 24.44100
C  -1.90500 14.38600 24.65500
N  -2.50500 16.89000 29.07000
C  -2.55800 15.80300 29.94700
C  -2.53000 16.25200 31.42000
C  -2.62900 17.82300 31.34100
C  -2.54900 18.08100 29.80400
C  -3.89500 18.41800 32.08400
C  -1.32400 15.58500 32.23600
C  -0.66000 16.28400 33.45400
H  -0.36200 15.46400 34.70100
N  -2.13600 18.98500 26.85700
C  -2.35200 19.79900 27.95300
C  -2.26600 21.23300 27.61400
C  -2.20300 21.26900 26.19700
C  -2.23300 19.78200 25.74900
C  -2.38900 22.34800 28.59600
C  -2.06300 22.38700 25.26200
O  -1.92700 22.19000 24.03100
C  -2.21800 23.80400 25.69100
N  -2.09500 16.83200 24.82300
C  -2.00700 17.93900 24.00200
C  -1.82100 17.50200 22.53100
C  -1.69200 15.93500 22.75200
C  -1.85900 15.67200 24.17300
C  -3.01000 17.93200 21.63200
C  -0.34200 15.37200 22.26200
C  0.97100 15.88500 22.96400
N  -2.12800 14.81200 26.97200
C  -2.10200 13.89300 25.98200
C  -2.30900 12.60300 26.50100
C  -2.41700 12.78500 27.86100
C  -2.30500 14.15200 28.13100
C  -2.42000 11.28100 25.70600
C  -2.60300 12.06700 29.00800
O  -2.80500 10.89600 29.17300
C  -2.66300 13.14700 30.14800
C  -1.67100 12.71600 31.14100
O  -0.44100 12.63300 30.99100
O  -2.28800 12.41800 32.28100
C  -1.63300 11.54100 33.27800
H  -2.24700 20.14100 30.02800
H  -2.14900 19.96100 23.61500
H  -2.02700 13.65600 23.85300
H  -3.42800 15.87900 31.91300
H  -1.72500 18.22000 31.80200
H  -4.41100 17.61600 32.61100
H  -4.66600 18.66400 31.35300
H  -3.52900 19.18700 32.76500
H  -0.46300 15.37000 31.60400
H  -1.81400 14.72100 32.68500
H  -1.25900 17.11000 33.83700
H  0.26300 16.78000 33.15500
H  -1.43300 22.86200 28.69100
H  -2.67500 22.04600 29.60400
H  -3.12500 23.02900 28.17100
H  -3.25400 23.89200 26.01800
H  -2.13000 24.39200 24.77700
H  -1.44800 24.12700 26.39200
H  -0.81700 17.84800 22.28400
H  -2.44100 15.43300 22.13800
H  -3.62900 18.58800 22.24300
H  -3.64700 17.11400 21.29600
H  -2.76000 18.61800 20.82200
H  -0.22800 15.70500 21.23100
H  -0.47100 14.29000 22.24400
H  0.73600 16.60000 23.75200
H  1.58700 16.29000 22.16000
H  1.49100 14.99300 23.31400
H  -1.78200 10.43400 25.95900
H  -2.23000 11.51400 24.65800
H  -3.47800 11.02500 25.75900
H  -3.66200 13.05000 30.57400
H  -2.30100 11.34300 34.11600
H  -0.70200 11.96000 33.66100
H  -1.42100 10.60100 32.76700
Mg 16.64900 -2.45300 27.93100
C  15.55700 -0.13200 30.42700
C  18.72800 -3.75400 30.12700
C  18.06800 -4.09900 25.30800
C  14.67800 -0.71400 25.56700
N  16.83800 -2.10800 30.10000
C  16.35400 -1.14300 30.91200
C  16.96300 -1.31200 32.27300
C  18.09300 -2.40000 32.15500
C  17.90500 -2.81200 30.67600
C  19.55900 -1.82400 32.39600
C  15.91100 -1.60200 33.41600
C  16.21700 -1.33700 34.88500
H  17.44500 -0.49900 35.26700
N  18.07700 -3.90600 27.72900
C  18.75800 -4.34000 28.83100
C  19.60600 -5.44600 28.33900
C  19.57900 -5.48200 26.93100
C  18.48300 -4.49500 26.59900
C  20.45800 -6.26200 29.36100
C  20.33600 -6.34100 25.98200
O  20.05000 -6.31200 24.76700
C  21.31200 -7.32300 26.44400
N  16.51700 -2.22700 25.64500
C  17.15600 -3.14800 24.83900
C  16.83900 -2.94700 23.30400
C  15.45200 -2.16200 23.50600
C  15.52500 -1.69900 25.02400
C  17.94900 -2.31500 22.40700
C  14.20600 -3.04900 23.18400
C  13.05800 -2.58200 22.23600
N  15.36000 -0.85900 27.90200
C  14.63400 -0.26200 26.87600
C  13.82200 0.81700 27.49500
C  14.21500 0.94000 28.85500
C  15.17400 -0.06300 29.03300
C  12.82300 1.73300 26.72500
C  14.02100 1.74700 30.00600
O  13.22700 2.61400 30.30300
C  14.81500 0.99800 31.13500
C  15.70900 2.11600 31.72400
O  16.73200 2.47100 31.21000
O  15.17500 2.60100 32.86200
C  16.10800 3.30700 33.76800
H  19.56700 -4.06700 30.75200
H  18.55000 -4.63600 24.48900
H  14.02300 -0.19300 24.86500
H  17.46700 -0.36600 32.46900
H  17.80400 -3.25800 32.76200
H  19.55600 -0.99600 33.10500
H  19.95800 -1.57000 31.41400
H  20.11800 -2.63900 32.85500
H  15.82900 -2.68900 33.42900
H  15.03000 -1.03800 33.11000
H  16.18000 -2.31900 35.35700
H  15.34500 -0.77200 35.21500
H  20.58100 -7.31100 29.09200
H  19.99700 -6.17700 30.34500
H  21.44100 -5.80000 29.45600
H  21.99300 -6.84900 27.15100
H  21.89100 -7.73500 25.61800
H  20.72300 -8.12800 26.88500
H  16.68400 -3.92400 22.84600
H  15.39300 -1.27100 22.88000
H  18.84800 -2.01700 22.94700
H  17.52700 -1.41100 21.96600
H  18.22000 -3.05000 21.65000
H  13.79100 -3.25100 24.17100
H  14.58000 -4.02200 22.86600
H  12.19500 -2.54500 22.90100
H  12.81000 -3.11200 21.31700
H  13.42300 -1.61600 21.88700
H  12.04200 1.96400 27.45000
H  12.37100 1.13900 25.93000
H  13.29500 2.62800 26.32100
H  14.12700 0.69300 31.92300
H  16.21500 4.36000 33.50700
H  17.11600 2.92100 33.92500
H  15.56100 3.28000 34.71000

