158

Mg 46.55800 23.98300 28.22800
C  47.28200 26.24600 30.93400
C  45.90200 21.63600 30.72200
C  46.20000 21.82900 25.90700
C  48.16900 26.18200 26.17700
N  46.52800 23.92100 30.59700
C  46.83200 25.00800 31.39900
C  46.56100 24.65600 32.85900
C  46.49700 23.11300 32.85800
C  46.30200 22.81700 31.34000
C  47.70600 22.33400 33.40600
C  45.34000 25.45000 33.34900
C  45.37100 26.06900 34.74500
H  46.11900 25.28500 35.88700
N  46.04000 22.06800 28.28800
C  45.77200 21.28000 29.37100
C  45.25100 20.04600 28.90500
C  45.26900 20.11000 27.44300
C  45.91600 21.28200 27.14700
C  44.96500 18.90700 29.83000
C  44.66200 19.10800 26.42600
O  44.55000 19.37500 25.23800
C  43.86500 17.93000 26.90400
N  47.19300 24.01400 26.32500
C  46.78800 23.06500 25.50600
C  47.18600 23.25900 24.00400
C  47.78400 24.73400 24.15000
C  47.80000 24.96000 25.67900
C  48.23300 22.20500 23.51000
C  47.09500 25.91000 23.35900
C  45.89800 26.54500 24.04600
N  47.47800 25.92400 28.47200
C  48.03800 26.69100 27.49600
C  48.33700 27.92200 28.07400
C  48.04600 27.88200 29.44100
C  47.52800 26.57300 29.65900
C  48.99900 29.09200 27.31500
C  48.10500 28.59100 30.70900
O  48.52800 29.66000 30.99200
C  47.49100 27.61200 31.69600
C  48.30300 27.53400 32.98000
O  49.22800 26.74500 33.23300
O  47.80200 28.49200 33.82600
C  48.15500 28.29200 35.27400
H  45.63500 20.87700 31.46000
H  45.96400 21.31100 24.97400
H  48.70300 26.79300 25.44500
H  47.37500 24.99900 33.49700
H  45.62100 22.82500 33.43900
H  48.42200 23.05400 33.80300
H  48.18300 21.73000 32.63300
H  47.39600 21.69200 34.23000
H  44.41000 24.88400 33.30000
H  45.16000 26.23200 32.61200
H  44.31500 26.10700 35.01200
H  45.68000 27.10700 34.61500
H  45.12100 17.94300 29.34400
H  43.90400 18.96300 30.07600
H  45.58400 18.90000 30.72800
H  44.53800 17.20300 27.36000
H  43.31700 17.53000 26.05200
H  43.11600 18.32100 27.59200
H  46.29100 23.33900 23.38700
H  48.84100 24.76100 23.88700
H  48.96300 21.91600 24.26600
H  48.78300 22.57600 22.64500
H  47.55000 21.39500 23.25500
H  46.80100 25.58500 22.36100
H  47.88600 26.65500 23.27400
H  45.40200 25.92700 24.79500
H  45.11000 26.86300 23.36300
H  46.22900 27.49800 24.45900
H  48.36200 29.40600 26.48800
H  50.00300 28.86400 26.95700
H  48.97500 29.94300 27.99500
H  46.47400 27.97400 31.85300
H  48.42900 27.25900 35.49000
H  47.29300 28.62000 35.85400
H  48.92700 29.03400 35.47800
Mg 49.92000 45.91500 43.19900
C  46.57300 46.26300 42.31800
C  49.78200 42.60900 42.26800
C  53.32700 45.73200 43.66000
C  50.15400 49.43900 43.84400
N  48.33600 44.65700 42.26000
C  47.03000 44.96400 42.17100
C  46.21500 43.79000 41.71600
C  47.20600 42.56300 41.83800
C  48.52400 43.28700 42.16300
C  46.90200 41.45800 42.93300
C  45.77000 43.94500 40.14300
C  44.39300 43.60500 39.81400
H  43.86500 44.45000 38.63100
N  51.44500 44.40500 42.87200
C  51.12300 43.07900 42.53600
C  52.32800 42.27100 42.61000
C  53.33400 43.15000 43.07200
C  52.73200 44.51100 43.19300
C  52.40500 40.77100 42.24800
C  54.84800 42.75900 43.28700
O  55.12400 41.59100 43.02100
C  55.89500 43.70200 43.79500
N  51.51700 47.41700 43.62900
C  52.74100 47.00300 43.83500
C  53.58300 48.27500 44.14800
C  52.57700 49.51800 44.17400
C  51.32900 48.76000 43.89100
C  54.49500 48.19700 45.40900
C  52.89400 50.57100 43.00700
C  53.62200 51.89300 43.48600
N  48.62000 47.53800 43.18000
C  48.88400 48.86900 43.43900
C  47.55900 49.55600 43.31600
C  46.65300 48.58300 42.89100
C  47.37400 47.39100 42.79900
C  47.20800 50.94700 43.53700
C  45.27400 48.26800 42.47300
O  44.32700 49.02900 42.33500
C  45.14900 46.81600 42.10100
C  44.14600 46.32600 43.14900
O  44.30200 46.18000 44.36200
O  42.96300 45.94000 42.49100
C  41.92100 45.21300 43.26400
H  49.58700 41.54400 42.12500
H  54.35700 45.62700 44.00800
H  50.03800 50.49500 44.09500
H  45.30900 43.58000 42.28300
H  47.19700 42.10500 40.84900
H  46.51100 40.51300 42.55500
H  46.05800 41.85800 43.49500
H  47.71100 41.25100 43.63400
H  46.35700 43.32500 39.46600
H  46.04300 44.93700 39.78200
H  43.79500 43.68600 40.72100
H  44.51800 42.56500 39.51300
H  51.45700 40.25200 42.38700
H  53.17500 40.23600 42.80400
H  52.66900 40.76900 41.19000
H  56.07000 44.45200 43.02400
H  56.84800 43.17200 43.78600
H  55.69900 44.18400 44.75300
H  54.19700 48.39800 43.25600
H  52.67600 49.95600 45.16700
H  54.24100 47.48600 46.19600
H  54.56800 49.18100 45.87200
H  55.52200 47.99500 45.10300
H  51.93600 50.78600 42.53500
H  53.48300 50.16300 42.18600
H  54.49200 52.02300 42.84300
H  53.92900 51.72900 44.51900
H  53.02600 52.80600 43.45700
H  47.67800 51.56900 42.77500
H  47.60200 51.20900 44.51900
H  46.12300 51.04200 43.57100
H  44.73500 46.84600 41.09300
H  42.08900 44.17000 42.99500
H  40.91500 45.54600 43.00700
H  41.97800 45.18600 44.35200

