158

Mg 7.98800 53.00200 40.99700
C  7.64400 49.55400 40.63600
C  11.17900 52.70200 39.91500
C  8.03300 56.34300 40.65100
C  4.62100 53.11100 41.86500
N  9.13500 51.31400 40.08900
C  8.89700 49.97200 40.15000
C  9.99400 49.19600 39.50700
C  11.22600 50.11900 39.91900
C  10.48800 51.50700 39.94200
C  12.05000 49.81900 41.24400
C  9.84700 49.09800 37.89600
C  9.96800 47.70000 37.27100
H  8.78500 47.20800 36.31400
N  9.44200 54.44000 40.33100
C  10.69800 54.07800 39.96800
C  11.45900 55.24200 39.75500
C  10.56900 56.37500 39.91200
C  9.30500 55.76500 40.38800
C  12.97600 55.23300 39.27900
C  11.02200 57.81400 39.63100
O  12.17200 58.02500 39.19700
C  10.12700 59.05200 39.86600
N  6.56900 54.54600 41.24600
C  6.80100 55.81700 40.89700
C  5.60200 56.72500 41.14500
C  4.46100 55.69800 41.45600
C  5.24700 54.39200 41.54900
C  5.87200 57.71200 42.27600
C  3.27900 55.63700 40.49400
C  3.70700 55.10500 39.17700
N  6.43100 51.64000 41.27500
C  5.16000 51.82200 41.77600
C  4.50300 50.59300 42.00300
C  5.49700 49.65500 41.59200
C  6.59300 50.36500 41.14000
C  3.11800 50.41800 42.61500
C  5.82600 48.23800 41.61100
O  5.26600 47.28200 42.10900
C  7.18700 48.17800 40.93500
C  7.07000 47.43800 39.61800
O  6.68800 47.86800 38.52500
O  7.35000 46.10200 39.85200
C  6.88900 45.08800 38.90200
H  12.20900 52.44000 39.66500
H  7.99200 57.40800 40.41200
H  3.58900 53.19700 42.21300
H  10.05400 48.19900 39.94400
H  11.94900 50.02200 39.10900
H  11.50000 49.09500 41.84500
H  12.23800 50.69800 41.86100
H  12.93900 49.39900 40.77300
H  10.56300 49.77200 37.42700
H  8.86300 49.50100 37.65400
H  10.11200 46.95200 38.05100
H  10.74100 47.64400 36.50500
H  12.99400 55.92200 38.43400
H  13.41200 54.24900 39.10500
H  13.51000 55.62800 40.14300
H  9.49900 58.96900 40.75200
H  9.46000 59.12400 39.00700
H  10.69000 59.98400 39.89000
H  5.29400 57.15800 40.19300
H  4.14600 55.93000 42.47300
H  6.70000 57.38600 42.90600
H  4.95700 57.81000 42.85900
H  6.26900 58.66100 41.91600
H  2.84900 56.58700 40.17500
H  2.39900 55.12700 40.88400
H  3.15400 55.53600 38.34200
H  3.62100 54.01900 39.22500
H  4.75400 55.34000 38.98900
H  2.49200 51.19400 42.17600
H  3.18400 50.54600 43.69600
H  2.63600 49.46300 42.40800
H  7.73300 47.64100 41.71100
H  7.76500 44.78400 38.33000
H  6.13400 45.36600 38.16700
H  6.53200 44.16200 39.35300
Mg -5.97000 24.96000 26.32100
C  -4.29600 26.43200 28.96200
C  -7.72200 22.86600 28.59800
C  -7.47400 23.30400 23.77100
C  -4.16400 26.82800 24.06300
N  -6.04000 24.71400 28.54900
C  -5.25900 25.48100 29.40700
C  -5.58600 25.13000 30.87900
C  -6.59200 23.83000 30.73400
C  -6.83400 23.78900 29.16300
C  -5.94300 22.50300 31.22000
C  -6.27200 26.35000 31.63500
C  -5.90800 26.66300 33.10500
H  -5.40000 25.53600 33.89800
N  -7.44100 23.40500 26.27000
C  -8.07700 22.70200 27.20000
C  -9.14300 21.87900 26.72300
C  -9.05300 22.08200 25.27400
C  -7.90500 22.97800 25.07400
C  -9.94800 20.94100 27.57400
C  -9.93400 21.43300 24.25700
O  -9.83600 21.71400 23.06600
C  -11.05900 20.47300 24.55800
N  -5.77800 25.04800 24.21400
C  -6.51500 24.20900 23.43200
C  -6.00400 24.41700 21.96400
C  -5.12300 25.70900 21.99200
C  -4.98000 25.86300 23.47500
C  -5.10200 23.16100 21.54300
C  -5.95400 26.84400 21.34700
C  -5.31700 27.53500 20.10500
N  -4.43200 26.25500 26.43800
C  -3.82900 27.02400 25.42500
C  -2.90600 27.98000 26.05100
C  -3.02500 27.70000 27.43600
C  -4.04500 26.75200 27.56800
C  -2.05200 28.98900 25.34000
C  -2.60500 28.16000 28.72800
O  -1.86300 29.08800 29.01500
C  -3.30600 27.27100 29.79100
C  -2.25100 26.40600 30.36400
O  -1.37400 25.81000 29.74000
O  -2.38200 26.37400 31.75800
C  -1.36800 25.54400 32.45800
H  -8.25700 22.29700 29.36100
H  -7.92300 22.79700 22.91500
H  -3.63600 27.49200 23.37700
H  -4.65300 24.87300 31.38000
H  -7.49400 24.08500 31.29000
H  -5.05900 22.71100 31.82300
H  -5.65200 21.90500 30.35700
H  -6.63700 21.93700 31.84200
H  -7.35100 26.21400 31.56100
H  -6.17200 27.24300 31.01700
H  -6.77300 27.02100 33.66300
H  -5.09900 27.39200 33.06200
H  -9.72800 19.89200 27.37900
H  -11.00100 21.07800 27.33000
H  -9.79200 21.23700 28.61200
H  -11.50900 20.16900 23.61300
H  -11.77900 20.99400 25.18900
H  -10.72200 19.55800 25.04500
H  -6.84300 24.54300 21.28000
H  -4.11500 25.59400 21.59500
H  -4.06600 23.45500 21.37700
H  -5.46600 22.88100 20.55400
H  -5.12600 22.35500 22.27500
H  -6.08600 27.65900 22.05900
H  -6.92500 26.52300 20.97000
H  -6.07100 27.52800 19.31800
H  -4.44100 26.97800 19.77300
H  -4.91600 28.53700 20.25900
H  -2.44500 30.00500 25.37300
H  -1.97300 28.73000 24.28400
H  -1.00900 28.93000 25.65100
H  -3.58700 27.94500 30.60000
H  -1.78300 25.28000 33.43100
H  -0.53100 26.22700 32.60500
H  -1.01700 24.72200 31.83400

