158

Mg 24.64500 -4.99500 45.86000
C  26.63000 -2.72500 44.21200
C  21.97300 -4.02400 43.96400
C  22.88500 -7.86700 46.75200
C  27.28900 -6.09100 47.72100
N  24.36800 -3.55400 44.16000
C  25.33700 -2.67800 43.71900
C  24.71500 -1.76000 42.60400
C  23.16300 -1.93100 42.81000
C  23.16500 -3.22300 43.68900
C  22.41800 -0.65700 43.40700
C  25.12400 -2.06400 41.13700
C  25.48000 -0.88000 40.20700
H  26.46000 -1.11100 39.07700
N  22.71200 -5.82500 45.41100
C  21.70500 -5.22900 44.64600
C  20.48200 -6.05500 44.70300
C  20.74100 -7.22800 45.50500
C  22.16900 -7.01700 45.93700
C  19.21900 -5.60700 44.01800
C  19.70300 -8.16700 45.91700
O  18.57600 -8.03100 45.50100
C  19.97800 -9.26300 46.74300
N  24.99700 -6.79000 47.06700
C  24.17700 -7.80100 47.30800
C  24.82400 -8.82900 48.32500
C  26.09600 -8.07500 48.74000
C  26.15600 -6.88400 47.80400
C  23.92100 -9.26300 49.58000
C  27.35800 -9.05000 48.56700
C  28.44700 -8.97500 49.68400
N  26.57700 -4.51300 46.00500
C  27.55400 -5.07400 46.78100
C  28.76300 -4.37600 46.52500
C  28.49300 -3.45500 45.54100
C  27.11600 -3.57100 45.24100
C  30.05900 -4.81100 47.13800
C  29.04700 -2.42900 44.69700
O  30.20400 -2.05700 44.47300
C  27.83200 -1.94200 43.86600
C  27.64700 -0.52700 44.12600
O  26.74300 -0.03100 44.82100
O  28.40700 0.29000 43.32700
C  28.30200 1.79600 43.38200
H  21.09500 -3.68900 43.40800
H  22.56100 -8.88300 46.98500
H  28.15700 -6.30400 48.34900
H  24.97900 -0.72600 42.82500
H  22.47800 -2.23700 42.01900
H  21.69900 -0.34200 42.65100
H  23.07400 0.20900 43.49600
H  21.89600 -0.75800 44.35800
H  24.38100 -2.69600 40.65100
H  26.04900 -2.63800 41.07100
H  25.74900 -0.09600 40.91500
H  24.59900 -0.48300 39.70100
H  19.04300 -6.09300 43.05800
H  19.04000 -4.53200 44.00500
H  18.32100 -5.96500 44.52300
H  19.11000 -9.58200 47.32100
H  20.71100 -8.94100 47.48200
H  20.43300 -10.07700 46.18000
H  25.02800 -9.76400 47.80400
H  26.10500 -7.79100 49.79300
H  24.46800 -9.17500 50.51900
H  23.41000 -10.21200 49.41600
H  23.13400 -8.51500 49.66600
H  27.77400 -8.79800 47.59100
H  27.06200 -10.09600 48.49200
H  29.43300 -9.19700 49.27700
H  28.25300 -9.52600 50.60400
H  28.56600 -7.95500 50.05100
H  30.87200 -4.18500 46.77100
H  30.22100 -5.84800 46.84500
H  30.10000 -4.70100 48.22200
H  28.17400 -2.05300 42.83700
H  29.34600 2.09300 43.27700
H  27.78100 2.23300 44.23400
H  27.81000 2.15300 42.47800
Mg 53.16700 23.98800 44.67100
C  50.52400 26.25600 43.89200
C  51.34000 21.56400 43.30400
C  56.05200 22.31000 44.45000
C  55.02200 26.95900 45.37700
N  51.16100 23.93000 43.81000
C  50.28200 24.96000 43.53900
C  48.99500 24.37100 42.90100
C  49.08000 22.85900 43.33000
C  50.62200 22.73300 43.45200
C  48.41800 22.59600 44.78400
C  48.83100 24.73100 41.38000
C  50.16200 24.70700 40.52300
H  50.92200 23.39700 40.26100
N  53.56700 22.09700 44.08000
C  52.66800 21.22800 43.61300
C  53.33300 19.99000 43.45800
C  54.72300 20.11400 43.71700
C  54.85400 21.55000 44.16000
C  52.61400 18.74000 42.88100
C  55.86600 19.04300 43.64900
O  55.62600 18.00000 43.13000
C  57.18200 19.18300 44.24100
N  55.25600 24.52100 44.88200
C  56.25600 23.64800 44.75000
C  57.65300 24.38700 44.74500
C  57.29200 25.86300 45.06400
C  55.75200 25.82100 45.13600
C  58.65900 23.75700 45.83600
C  57.80000 26.92300 44.09500
C  57.20800 27.11700 42.63800
N  52.85500 26.23300 44.83000
C  53.63600 27.20300 45.30800
C  52.81700 28.46900 45.47500
C  51.57900 28.14000 44.86200
C  51.65800 26.77000 44.48500
C  53.28900 29.71800 46.16400
C  50.23400 28.56000 44.49500
O  49.77800 29.70100 44.53000
C  49.59300 27.43700 43.75100
C  49.40900 27.91900 42.36800
O  50.22000 27.80800 41.44800
O  48.11900 28.39000 42.20400
C  47.79800 28.85900 40.82000
H  50.69100 20.74400 42.99100
H  57.03000 21.83100 44.54000
H  55.53200 27.91700 45.26000
H  48.11900 24.83200 43.35900
H  48.70900 22.15800 42.58300
H  48.96800 23.25200 45.45900
H  48.65000 21.57100 45.07400
H  47.33700 22.70100 44.70000
H  48.17400 25.56900 41.14500
H  48.33500 23.90900 40.86600
H  50.77500 25.37100 41.13200
H  49.91600 25.11800 39.54400
H  51.52900 18.76300 42.98200
H  52.83200 17.82700 43.43600
H  52.66500 18.58700 41.80300
H  57.77000 19.78800 43.55000
H  57.64500 18.19700 44.23700
H  57.08000 19.58200 45.25000
H  58.10700 24.35800 43.75400
H  57.58400 26.06200 46.09500
H  58.14400 22.87000 46.20400
H  58.84200 24.41100 46.68800
H  59.60200 23.45400 45.38100
H  58.85000 26.78200 43.84000
H  57.88100 27.86800 44.63100
H  56.88500 28.14900 42.50800
H  56.43500 26.37000 42.45300
H  57.94800 27.05700 41.84000
H  53.64100 30.34600 45.34600
H  54.07800 29.51400 46.88700
H  52.39600 30.23600 46.51500
H  48.59900 27.20900 44.13400
H  46.84400 29.37300 40.69600
H  47.87500 28.03600 40.11000
H  48.58400 29.55900 40.53700

