158

Mg -1.34700 17.38200 27.18800
C  -1.94800 15.17100 30.05200
C  -1.85500 20.00300 29.46500
C  -1.35300 19.32800 24.71500
C  -1.73700 14.47300 25.13200
N  -1.92800 17.54500 29.49400
C  -1.84000 16.51400 30.44300
C  -2.06100 17.04900 31.84900
C  -2.16800 18.58100 31.62000
C  -2.00600 18.77400 30.11300
C  -3.57900 19.20500 32.11800
C  -0.87800 16.60500 32.84300
C  -0.59500 17.51900 34.00900
H  -0.34200 17.03900 35.42700
N  -1.34600 19.39900 27.09700
C  -1.56200 20.33700 28.13600
C  -1.44200 21.68200 27.56100
C  -1.23200 21.44800 26.10800
C  -1.35900 20.01900 25.88400
C  -1.46900 22.95600 28.35400
C  -1.03200 22.41400 25.01900
O  -1.02300 22.10200 23.83100
C  -0.90400 23.91000 25.25200
N  -1.74900 16.96400 25.22700
C  -1.59900 17.99800 24.33400
C  -1.53000 17.54100 22.82500
C  -1.50100 15.96000 23.02100
C  -1.66800 15.75100 24.52000
C  -2.77700 18.11600 21.99500
C  -0.23500 15.25600 22.49800
C  1.15700 15.42200 23.23200
N  -1.71000 15.24600 27.45300
C  -1.76500 14.25100 26.55000
C  -2.10700 13.07100 27.24300
C  -2.06200 13.31400 28.61800
C  -1.88100 14.71700 28.70600
C  -2.35600 11.71800 26.48800
C  -2.25400 12.70600 29.96900
O  -2.51600 11.58700 30.38300
C  -2.17200 13.93700 30.96400
C  -1.04300 13.58100 31.82600
O  0.12500 13.71500 31.44900
O  -1.44800 13.21300 33.12000
C  -0.39300 13.11600 34.12100
H  -1.81700 20.80200 30.20800
H  -1.35300 19.93400 23.80600
H  -1.73200 13.54500 24.55600
H  -3.05300 16.64900 32.05800
H  -1.43400 19.21400 32.11800
H  -3.82700 18.58400 32.97900
H  -4.25900 19.02100 31.28700
H  -3.42000 20.26500 32.31400
H  0.04500 16.31100 32.34500
H  -1.32400 15.72700 33.31000
H  -1.52300 18.09000 33.97900
H  0.21800 18.21900 33.81600
H  -1.62100 23.80400 27.68600
H  -0.44000 22.92500 28.71300
H  -2.07900 23.05300 29.25200
H  0.00700 24.06600 25.83000
H  -1.80300 24.30400 25.72600
H  -0.85000 24.37400 24.26700
H  -0.56900 17.69800 22.33600
H  -2.43100 15.56500 22.61400
H  -3.25200 18.92100 22.55500
H  -3.40700 17.28900 21.66600
H  -2.33400 18.42500 21.04800
H  -0.13300 15.70700 21.51000
H  -0.39700 14.19600 22.30300
H  1.01900 15.77500 24.25500
H  1.75000 16.16500 22.69800
H  1.52900 14.39800 23.27200
H  -2.74100 11.91800 25.48800
H  -3.10400 11.17300 27.06400
H  -1.49700 11.04800 26.51200
H  -3.08400 13.98000 31.55900
H  0.24100 14.00100 34.06800
H  0.22700 12.22700 34.00100
H  -0.82900 13.07800 35.11900
Mg 0.26700 7.93200 26.81100
C  1.20800 9.92900 29.56600
C  -0.26600 5.44100 29.06300
C  -0.46300 6.00600 24.15700
C  0.77900 10.60800 24.67200
N  0.44900 7.74500 29.06700
C  0.75000 8.70100 29.98900
C  0.71500 8.08700 31.42600
C  0.57100 6.52400 31.15900
C  0.12600 6.57500 29.67500
C  1.83500 5.68900 31.40200
C  -0.39600 8.70100 32.40800
C  0.08500 8.59400 33.88200
H  -0.59000 7.46100 34.76800
N  -0.26800 6.02100 26.66300
C  -0.38000 5.11700 27.66900
C  -0.75100 3.84000 27.09800
C  -0.73400 3.94300 25.66500
C  -0.41700 5.38300 25.42300
C  -1.15300 2.74200 27.99200
C  -1.05200 2.93400 24.61700
O  -0.97400 3.21400 23.41900
C  -1.49000 1.53200 24.92800
N  0.33600 8.28300 24.69000
C  -0.17100 7.30700 23.82800
C  -0.34100 7.85600 22.36500
C  -0.13000 9.37000 22.65100
C  0.43900 9.43300 24.09300
C  0.68900 7.30400 21.43600
C  -1.40400 10.18500 22.37600
C  -1.52500 10.66100 20.90100
N  1.03800 9.82000 27.00700
C  1.19600 10.83400 26.03100
C  1.68800 12.02200 26.68700
C  1.84800 11.72600 28.08800
C  1.31300 10.41700 28.21200
C  1.90700 13.46300 26.02800
C  2.12600 12.23200 29.38800
O  2.56500 13.34900 29.70600
C  1.67100 11.17600 30.41700
C  2.75900 10.89400 31.37900
O  3.75200 10.27800 31.15500
O  2.43700 11.40700 32.57900
C  3.25100 11.13700 33.70800
H  -0.49200 4.54800 29.65000
H  -0.72500 5.51000 23.22000
H  0.77500 11.46300 23.99200
H  1.68900 8.34100 31.84500
H  -0.24500 6.11000 31.75100
H  1.51400 4.84200 32.00900
H  2.63100 6.17900 31.96400
H  2.24500 5.31800 30.46300
H  -1.30100 8.10800 32.27500
H  -0.66200 9.72600 32.15100
H  0.01600 9.61600 34.25600
H  1.15600 8.45800 34.03000
H  -2.19500 2.93300 28.25200
H  -0.52900 2.71500 28.88600
H  -1.24700 1.72000 27.62700
H  -1.70600 1.03100 23.98400
H  -2.41800 1.65100 25.48700
H  -0.69100 1.11100 25.53900
H  -1.31300 7.72600 21.88900
H  0.71600 9.65700 22.02600
H  0.94700 8.09700 20.73400
H  0.31000 6.51000 20.79200
H  1.56300 7.04800 22.03500
H  -1.43400 10.98900 23.11200
H  -2.27100 9.53300 22.48800
H  -2.37800 10.12500 20.48400
H  -0.59200 10.52200 20.35500
H  -1.81900 11.70700 20.81900
H  1.01100 14.06700 25.88500
H  2.33100 13.34400 25.03000
H  2.59300 14.06200 26.62600
H  0.82400 11.46700 31.03700
H  3.93400 10.29700 33.57700
H  2.54600 10.80000 34.46800
H  3.79000 12.05200 33.95600

