158

Mg 1.52500 8.62000 27.63000
C  1.89800 11.09200 30.21200
C  1.66000 6.21400 30.26600
C  1.88100 6.34500 25.39400
C  2.02500 11.23000 25.38800
N  1.67800 8.69700 29.99500
C  1.77300 9.81500 30.81800
C  1.52700 9.46800 32.34300
C  1.79400 7.84700 32.22600
C  1.70900 7.53000 30.69400
C  3.19100 7.31300 32.72900
C  0.11900 9.81900 32.79400
C  -0.19100 9.58800 34.31000
H  0.86100 9.15100 35.31200
N  1.50100 6.59300 27.76600
C  1.57600 5.78700 28.90700
C  1.44200 4.44600 28.51300
C  1.58800 4.39700 27.08600
C  1.70300 5.80900 26.69200
C  1.43800 3.34500 29.50300
C  1.67500 3.15600 26.06600
O  1.78200 3.35800 24.87400
C  1.53200 1.74100 26.67600
N  1.85400 8.72900 25.65200
C  2.01800 7.65300 24.91700
C  2.21800 8.06000 23.43500
C  2.16900 9.57700 23.47500
C  1.93800 9.88400 24.92900
C  3.42300 7.45800 22.64100
C  1.23300 10.27000 22.42200
C  -0.18000 10.41300 22.96900
N  1.83500 10.75700 27.71600
C  1.99200 11.62000 26.69700
C  1.99200 12.95200 27.20100
C  1.97100 12.80500 28.63200
C  1.88500 11.44300 28.85100
C  2.14100 14.25400 26.43200
C  2.04500 13.48700 29.96400
O  2.02900 14.64700 30.26900
C  2.03900 12.30700 31.02400
C  3.18600 12.38200 31.93200
O  4.36600 12.09300 31.76000
O  2.71600 12.85500 33.16900
C  3.57700 12.73200 34.38200
H  1.44500 5.52200 31.08300
H  2.22900 5.62600 24.64900
H  2.10800 11.97600 24.59400
H  2.22700 10.06600 32.92600
H  0.96100 7.32500 32.69600
H  3.42400 8.01600 33.52800
H  3.94300 7.36800 31.94200
H  3.17100 6.31200 33.16000
H  -0.53500 9.15900 32.22500
H  0.03400 10.88900 32.60400
H  -0.98700 8.84600 34.24800
H  -0.55900 10.49800 34.78200
H  2.26200 2.63100 29.46400
H  0.52300 2.75600 29.43800
H  1.40600 3.65400 30.54700
H  0.49100 1.53700 26.92700
H  2.14200 1.53100 27.55500
H  1.86900 1.10700 25.85700
H  1.26500 7.72900 23.02300
H  3.16900 9.97200 23.30000
H  3.97000 8.37400 22.41800
H  3.08400 6.91900 21.75600
H  4.12600 6.76500 23.10200
H  1.08200 9.74900 21.47700
H  1.53400 11.29300 22.20000
H  -0.17100 11.21800 23.70300
H  -0.59600 9.48200 23.35400
H  -0.84200 10.73500 22.16500
H  1.83200 14.06200 25.40500
H  3.20400 14.48600 26.49200
H  1.63300 15.04300 26.98800
H  1.10300 12.51100 31.54300
H  3.35900 13.63600 34.95000
H  4.63000 12.81300 34.11200
H  3.39100 11.79000 34.89900
Mg 9.24700 48.47900 25.65200
C  6.82800 49.06500 28.15900
C  11.65800 49.45900 27.95300
C  11.36900 48.15400 23.23200
C  6.52000 47.81700 23.48200
N  9.24100 49.32200 27.69300
C  8.17400 49.34500 28.53500
C  8.61300 49.55400 30.01500
C  9.95800 50.20500 29.73800
C  10.32900 49.60900 28.40700
C  9.91000 51.70900 29.73700
C  8.83000 48.21100 30.79700
C  9.49500 48.23100 32.23600
H  8.85100 47.23600 33.20600
N  11.19100 48.75700 25.61000
C  12.01000 49.04900 26.63300
C  13.43100 49.01000 26.17200
C  13.32700 48.67400 24.78900
C  11.94100 48.58400 24.48600
C  14.56600 49.28000 27.03500
C  14.54600 48.47200 23.79300
O  14.53000 48.25200 22.61300
C  15.89300 48.45200 24.45800
N  8.94100 47.90000 23.68000
C  10.04900 47.89100 22.86500
C  9.63200 47.38500 21.46200
C  8.05600 47.54500 21.45200
C  7.83500 47.72200 22.96000
C  10.23100 48.05700 20.22000
C  7.24900 46.34100 20.81900
C  6.05300 46.57800 19.86800
N  7.04900 48.34200 25.73500
C  6.11500 48.08000 24.77700
C  4.75400 48.16700 25.40300
C  5.01400 48.43700 26.73000
C  6.41500 48.65200 26.85900
C  3.44600 47.89800 24.71700
C  4.36100 48.51400 27.96000
O  3.19100 48.29100 28.30900
C  5.49000 49.02600 28.91000
C  5.38900 48.07400 30.06300
O  5.49000 46.86800 30.01200
O  4.88800 48.68600 31.19000
C  4.36800 47.68900 32.16400
H  12.44100 49.91600 28.56100
H  12.14800 48.06400 22.47200
H  5.77700 47.61600 22.70800
H  7.88300 50.11700 30.59600
H  10.81500 49.91500 30.34600
H  8.88200 52.06600 29.80600
H  10.37600 52.09700 28.83100
H  10.44400 52.09300 30.60600
H  9.61600 47.67300 30.26700
H  7.97600 47.53500 30.78000
H  9.36000 49.22200 32.66900
H  10.54300 48.00100 32.04500
H  15.12800 48.34900 27.10700
H  14.30200 49.54100 28.06000
H  15.16200 50.05500 26.55400
H  16.18600 49.42900 24.84300
H  16.64800 48.07100 23.77100
H  15.98100 47.63500 25.17400
H  10.00100 46.36100 21.39200
H  7.63200 48.50600 21.16200
H  11.29400 48.21700 20.40400
H  9.67200 48.95900 19.97100
H  10.29900 47.31200 19.42800
H  6.90400 45.72600 21.65000
H  7.89100 45.71300 20.20200
H  6.03200 47.56200 19.39800
H  5.10300 46.30500 20.32800
H  6.14300 45.86300 19.05000
H  3.09900 48.76100 24.14900
H  2.71300 47.46100 25.39500
H  3.63100 47.06900 24.03400
H  5.06600 49.98800 29.19800
H  3.81000 46.86600 31.71600
H  3.81600 48.04000 33.03500
H  5.19000 47.11800 32.59600

