158

Mg 44.14700 3.36600 47.25900
C  43.33600 6.62400 46.22200
C  40.97700 2.34000 45.94900
C  45.22700 0.22500 47.33700
C  47.44900 4.42700 47.78300
N  42.37900 4.37100 46.24400
C  42.35200 5.73600 45.91600
C  41.03900 5.94300 45.13200
C  40.18000 4.70500 45.49900
C  41.21900 3.75200 45.86200
C  39.10100 4.96000 46.49700
C  41.24600 6.23800 43.62200
C  40.38200 7.35800 42.96800
H  39.32000 6.90800 41.94200
N  43.20400 1.56300 46.83700
C  41.91900 1.33600 46.39500
C  41.57400 -0.07000 46.38000
C  42.86200 -0.73200 46.81700
C  43.83700 0.35600 47.00500
C  40.28300 -0.69000 45.89600
C  43.02900 -2.26700 47.01200
O  42.07100 -3.05200 46.83700
C  44.27300 -2.91200 47.45800
N  46.01000 2.40700 47.69700
C  46.23000 1.11700 47.68700
C  47.62800 0.69600 48.04100
C  48.40300 2.02000 48.14300
C  47.20000 3.05400 47.88700
C  47.63400 -0.12100 49.35600
C  49.59600 2.14200 47.23200
C  50.66600 3.00700 47.80300
N  45.16000 5.17300 47.22500
C  46.51500 5.42000 47.40100
C  46.71600 6.84100 47.30100
C  45.47800 7.37800 46.88100
C  44.57700 6.30000 46.70200
C  47.95400 7.67900 47.66800
C  44.77700 8.57900 46.57100
O  45.15700 9.73500 46.55500
C  43.28700 8.17500 46.16400
C  42.42200 8.81200 47.20300
O  42.56100 8.77500 48.38900
O  41.21900 9.25100 46.63600
C  40.40200 9.99000 47.55600
H  39.97800 1.92800 45.79000
H  45.53900 -0.82200 47.35800
H  48.43500 4.86900 47.94300
H  40.47200 6.75800 45.58200
H  39.66400 4.47800 44.56600
H  38.90300 3.96700 46.90200
H  38.22000 5.45000 46.08200
H  39.58800 5.53200 47.28700
H  40.96600 5.35200 43.05200
H  42.30000 6.27500 43.34800
H  41.02700 8.18600 42.67300
H  39.82800 7.84100 43.77200
H  39.49200 0.05000 46.02200
H  40.03700 -1.52400 46.55200
H  40.34400 -1.07800 44.87900
H  44.73900 -2.60100 48.39300
H  45.02200 -2.92400 46.66600
H  43.97100 -3.95500 47.54900
H  47.96500 0.03800 47.24000
H  48.74500 2.09000 49.17600
H  48.30300 0.38700 50.05100
H  47.92200 -1.16900 49.26800
H  46.65300 -0.09700 49.83200
H  49.29300 2.59700 46.28900
H  49.96300 1.13600 47.03000
H  51.55900 2.46400 48.11100
H  50.32500 3.65200 48.61200
H  50.96500 3.78600 47.10200
H  48.35000 7.60800 48.68100
H  47.70200 8.70900 47.41500
H  48.70200 7.42300 46.91700
H  43.01900 8.51000 45.16200
H  40.68600 11.04200 47.52500
H  40.50900 9.70700 48.60300
H  39.39200 9.77000 47.20900
Mg -9.97000 18.28300 42.62200
C  -6.64200 17.29500 42.52700
C  -9.05400 21.42400 41.64700
C  -13.22500 19.04000 41.81400
C  -10.82600 14.95100 42.93600
N  -8.12900 19.20200 42.04500
C  -6.86500 18.67400 42.15400
C  -5.75400 19.62500 41.75900
C  -6.54200 20.95100 41.95300
C  -8.02300 20.50400 41.81900
C  -6.27300 21.82000 43.26900
C  -5.09400 19.32600 40.43700
C  -6.02900 18.65700 39.46400
H  -5.41600 18.51500 38.07100
N  -11.00000 20.09800 42.03000
C  -10.42200 21.27600 41.74500
C  -11.46400 22.30300 41.48800
C  -12.73300 21.56900 41.61600
C  -12.37600 20.19100 41.87000
C  -11.15300 23.79900 41.17300
C  -14.05300 22.20600 41.48300
O  -14.06800 23.44700 41.36200
C  -15.26600 21.43900 41.58400
N  -11.85500 17.15700 42.49500
C  -13.02300 17.68800 42.10600
C  -14.11200 16.55600 41.90900
C  -13.41200 15.35100 42.70500
C  -11.89700 15.80700 42.59500
C  -15.48000 16.87800 42.52400
C  -13.79300 13.96300 42.05800
C  -13.75600 12.87800 43.04400
N  -8.91100 16.43600 42.82500
C  -9.42500 15.14800 43.04700
C  -8.38600 14.17100 43.19600
C  -7.22500 14.99800 43.07300
C  -7.62000 16.33800 42.83500
C  -8.52200 12.65000 43.13800
C  -5.77200 14.98300 42.94200
O  -4.96200 14.10000 42.88600
C  -5.30000 16.49700 42.73000
C  -4.59800 17.07800 43.85700
O  -3.47100 17.59400 43.75900
O  -5.33700 17.07100 45.02400
C  -4.74300 17.69200 46.19600
H  -8.76400 22.45500 41.43500
H  -14.15600 19.33500 41.32500
H  -11.16900 13.91700 43.02300
H  -4.95800 19.62400 42.50300
H  -6.40700 21.57100 41.06600
H  -7.14200 21.90200 43.92200
H  -5.89400 22.79200 42.95400
H  -5.52000 21.30400 43.86400
H  -4.28600 18.60500 40.56100
H  -4.73800 20.21100 39.91100
H  -6.93000 19.24000 39.27300
H  -6.16000 17.62700 39.79800
H  -11.87800 24.27800 40.51500
H  -10.27900 23.79300 40.52300
H  -11.00600 24.35800 42.09700
H  -15.23500 20.82400 42.48400
H  -15.40000 20.85400 40.67400
H  -16.06900 22.14700 41.78900
H  -14.26900 16.36100 40.84800
H  -13.73900 15.29900 43.74300
H  -15.57500 17.77300 43.13900
H  -15.77800 16.08700 43.21200
H  -16.18800 17.03800 41.71100
H  -13.06400 13.75500 41.27500
H  -14.79000 14.04700 41.62600
H  -13.32800 13.19800 43.99400
H  -13.17600 12.02300 42.69600
H  -14.73900 12.42900 43.19100
H  -9.30300 12.42300 42.41300
H  -8.92800 12.17400 44.03100
H  -7.65300 12.12500 42.74200
H  -4.59400 16.71300 41.92800
H  -3.69500 17.47700 46.40600
H  -5.35500 17.37400 47.04100
H  -5.00800 18.74500 46.10300

