158

Mg 35.37400 2.49400 29.51800
C  33.13100 3.80500 31.85500
C  37.78900 2.36200 32.00800
C  37.66900 1.60400 27.14100
C  32.90700 2.76400 27.00400
N  35.50400 3.10000 31.66000
C  34.44000 3.47500 32.42500
C  34.83300 3.38800 33.93300
C  36.33200 3.10500 33.89200
C  36.57400 2.87000 32.43700
C  37.41200 4.12000 34.54200
C  34.02300 2.35200 34.65900
C  33.51400 2.70300 36.08900
H  34.28900 3.80100 36.88700
N  37.47200 2.14900 29.55200
C  38.22200 1.98300 30.72500
C  39.50200 1.41900 30.33000
C  39.47600 1.28700 28.90400
C  38.19100 1.74600 28.50900
C  40.59100 1.18700 31.33100
C  40.63400 0.90200 27.91100
O  40.48800 0.99500 26.68900
C  41.97400 0.36500 28.41800
N  35.30700 2.26400 27.40000
C  36.35600 1.91800 26.67500
C  35.94800 1.72600 25.20300
C  34.40800 1.69800 25.21400
C  34.13700 2.36700 26.64100
C  36.52500 2.90400 24.40500
C  33.69500 0.26800 24.96200
C  32.59900 0.15900 23.81700
N  33.45800 3.23800 29.41100
C  32.53500 3.21700 28.31500
C  31.24700 3.76000 28.79200
C  31.49400 3.98200 30.20200
C  32.79100 3.71100 30.48100
C  29.98700 3.93500 28.02200
C  30.79300 4.39600 31.39800
O  29.65900 4.88300 31.52000
C  31.82400 4.22700 32.51100
C  31.86700 5.54400 33.20600
O  32.55600 6.48700 32.85200
O  31.08000 5.54300 34.34000
C  31.50800 6.43000 35.36100
H  38.54400 2.23400 32.78600
H  38.29500 1.32100 26.29200
H  32.27600 2.78900 26.11300
H  34.66700 4.37800 34.35700
H  36.62300 2.13000 34.28500
H  36.76600 4.88700 34.96900
H  38.15200 4.62600 33.92200
H  37.94700 3.63900 35.36000
H  34.57000 1.43100 34.85800
H  33.23200 2.06600 33.96600
H  33.45900 1.81600 36.72000
H  32.53100 3.16300 35.98600
H  40.42000 1.54000 32.34800
H  41.53300 1.66700 31.06900
H  40.94400 0.15600 31.32300
H  42.52700 1.23600 28.77200
H  42.53000 -0.14900 27.63400
H  41.69700 -0.35900 29.18400
H  36.40900 0.83400 24.77800
H  34.07500 2.34600 24.40300
H  35.79000 3.40300 23.77400
H  37.37500 2.62200 23.78400
H  36.90400 3.65300 25.10100
H  33.23900 -0.09100 25.88500
H  34.52300 -0.37600 24.66700
H  32.27300 1.10200 23.37700
H  31.75100 -0.34100 24.28600
H  32.93400 -0.48600 23.00500
H  29.85000 4.87200 27.48200
H  29.18300 3.94100 28.75800
H  29.81800 3.01300 27.46700
H  31.33100 3.56300 33.22200
H  30.80600 7.25900 35.26600
H  32.52900 6.79300 35.24300
H  31.41500 6.00300 36.35900
Mg 16.86100 52.06500 26.13000
C  18.49200 50.74500 28.91900
C  14.32000 53.01200 28.25900
C  15.09000 53.03500 23.48000
C  19.37800 50.77800 24.06700
N  16.50500 52.03600 28.45500
C  17.32400 51.48800 29.30200
C  16.85100 51.77700 30.78200
C  15.40600 52.18500 30.55300
C  15.35600 52.49600 29.02700
C  14.33300 51.12200 31.00200
C  17.85200 52.75200 31.46900
C  18.17700 52.45100 32.92700
H  17.05000 51.79600 33.80300
N  15.03000 52.91800 25.91100
C  14.10600 53.21400 26.89300
C  12.91500 53.85500 26.30300
C  13.24000 53.97800 24.94800
C  14.54300 53.33300 24.72100
C  11.80400 54.49200 27.11900
C  12.37300 54.53500 23.82900
O  12.68300 54.54500 22.65400
C  11.09500 55.07600 24.17500
N  17.14800 51.88100 24.07500
C  16.31900 52.41800 23.16300
C  16.88000 52.29900 21.74500
C  18.30700 51.74800 21.95200
C  18.33000 51.46000 23.41400
C  15.99200 51.44200 20.78700
C  19.43300 52.70400 21.48900
C  19.50500 54.19200 21.84800
N  18.53300 50.82300 26.32800
C  19.52500 50.50500 25.43600
C  20.59800 49.74600 26.09900
C  20.18900 49.80200 27.51500
C  18.94400 50.53900 27.57800
C  21.88200 49.20100 25.50600
C  20.57000 49.44300 28.85500
O  21.51500 48.78600 29.23100
C  19.49700 50.05200 29.82200
C  18.94500 48.93000 30.54800
O  18.16800 48.11500 30.08300
O  19.29800 49.03800 31.84300
C  18.75800 48.10900 32.82500
H  13.49100 53.24000 28.93200
H  14.59200 53.10800 22.51100
H  20.28800 50.64200 23.48000
H  16.88400 50.80800 31.28000
H  15.10900 53.08800 31.08600
H  13.68400 51.60100 31.73500
H  14.89600 50.26000 31.36000
H  13.68900 50.73400 30.21300
H  17.49900 53.78300 31.48400
H  18.81800 52.65700 30.97200
H  18.37700 53.34700 33.51400
H  19.06200 51.82200 32.82100
H  12.06000 54.45500 28.17800
H  10.88800 53.90700 27.03900
H  11.64500 55.52200 26.79900
H  10.37800 54.39800 24.63800
H  10.53200 55.02900 23.24300
H  11.17900 56.08600 24.57700
H  16.91500 53.34900 21.45400
H  18.41800 50.75000 21.52900
H  16.51400 50.84300 20.04100
H  15.42700 51.97900 20.02400
H  15.32500 50.76600 21.32200
H  19.40900 52.87600 20.41300
H  20.37700 52.20300 21.70400
H  20.22900 54.35200 22.64700
H  18.55000 54.52600 22.25200
H  19.84400 54.72700 20.96100
H  21.94400 49.25800 24.41900
H  22.09400 48.14400 25.66900
H  22.73900 49.66100 25.99700
H  20.03800 50.69500 30.51700
H  19.28800 47.15900 32.76600
H  17.67200 48.02100 32.84400
H  18.96400 48.48900 33.82600

