158

Mg 46.74400 24.93300 28.20400
C  47.72700 27.25300 30.68000
C  45.61000 22.82300 30.62000
C  46.34200 22.61800 25.72200
C  48.35100 27.03600 25.83500
N  46.64900 25.12700 30.41600
C  46.96300 26.21800 31.24600
C  46.52900 25.92100 32.73100
C  45.98600 24.45900 32.63600
C  46.06000 24.12600 31.10800
C  46.63700 23.36100 33.46500
C  45.47700 26.97300 33.27700
C  44.64200 26.75400 34.55400
H  45.49500 26.57600 35.89300
N  45.91700 23.05900 28.13600
C  45.60600 22.34100 29.27300
C  45.07600 21.01600 28.81700
C  45.24500 20.96800 27.41700
C  45.85200 22.26700 26.98100
C  44.51600 20.07700 29.83300
C  44.72400 19.95800 26.36500
O  45.01200 19.98000 25.16300
C  43.79600 18.99400 26.89100
N  47.18100 24.94400 26.06300
C  46.98800 23.80200 25.28600
C  47.68600 23.92700 23.87700
C  48.21000 25.37200 23.93600
C  47.85000 25.83800 25.37100
C  48.60900 22.74300 23.50000
C  47.85600 26.38900 22.74100
C  48.94100 27.38500 22.32600
N  47.69000 26.82700 28.19300
C  48.37400 27.51200 27.17100
C  49.03600 28.73300 27.66000
C  48.69300 28.68600 29.05700
C  47.93800 27.49400 29.35700
C  49.83000 29.75000 26.93000
C  48.77500 29.53500 30.27500
O  49.07600 30.71700 30.44000
C  48.17000 28.50000 31.43000
C  49.30700 28.16200 32.33500
O  50.39700 27.73100 32.01400
O  48.99100 28.60400 33.60900
C  50.17700 28.80300 34.41000
H  45.23100 22.07200 31.31600
H  46.30100 21.83100 24.96600
H  48.80400 27.70100 25.09600
H  47.40400 26.06900 33.36500
H  44.92700 24.44600 32.89400
H  47.41700 23.78600 34.09600
H  47.18900 22.66400 32.83500
H  45.96700 22.77500 34.09300
H  44.89500 27.21400 32.38700
H  45.95800 27.92100 33.52000
H  44.03400 25.85800 34.42500
H  43.98300 27.61300 34.68200
H  45.13900 19.18600 29.75700
H  43.49900 19.81300 29.54300
H  44.53000 20.40500 30.87200
H  43.32300 18.45900 26.06700
H  42.94000 19.51100 27.32300
H  44.36900 18.31300 27.52100
H  46.91700 23.88500 23.10500
H  49.29700 25.31100 23.90400
H  49.14800 22.31200 24.34400
H  49.17600 22.97800 22.60000
H  47.99000 21.87400 23.27300
H  46.98500 27.00700 22.95700
H  47.63700 25.75200 21.88400
H  49.65800 27.54600 23.13200
H  48.46100 28.36300 22.29200
H  49.42700 27.15600 21.37800
H  50.31900 29.54600 25.97800
H  50.52600 30.11800 27.68400
H  49.00300 30.44300 26.77500
H  47.29500 28.97600 31.87400
H  49.90300 28.89100 35.46100
H  50.60600 29.77800 34.17900
H  51.04400 28.16200 34.25300
Mg -6.13800 25.71600 25.37200
C  -4.43400 27.10900 28.21400
C  -7.45100 23.54900 27.59400
C  -7.34100 24.12600 22.68100
C  -4.17800 27.72000 23.35800
N  -6.03200 25.44000 27.69600
C  -5.28700 26.12500 28.59400
C  -5.63200 25.80100 29.99600
C  -6.39500 24.41000 29.78900
C  -6.57100 24.40400 28.26200
C  -5.76000 23.16100 30.43300
C  -6.40800 26.85800 30.78900
C  -5.82800 27.23000 32.14400
H  -6.59200 26.41100 33.23200
N  -7.31800 24.12300 25.19800
C  -7.90000 23.42900 26.24300
C  -9.05400 22.70000 25.72500
C  -8.95300 22.76800 24.28500
C  -7.85400 23.72200 23.95000
C  -10.07700 22.04600 26.57400
C  -9.63900 21.95000 23.28000
O  -9.50600 22.04600 22.06400
C  -10.61300 20.84300 23.69500
N  -5.84700 25.90600 23.37300
C  -6.45400 25.12600 22.43500
C  -6.06600 25.53600 20.98500
C  -5.17000 26.79200 21.23700
C  -5.03900 26.80500 22.74500
C  -5.36500 24.44100 20.05000
C  -5.65700 28.16500 20.73000
C  -5.78100 28.52500 19.19900
N  -4.65700 27.17300 25.70400
C  -3.93300 27.88200 24.74600
C  -3.00700 28.76300 25.43600
C  -3.26900 28.58800 26.77800
C  -4.20300 27.60100 26.90300
C  -2.06500 29.78700 24.76700
C  -2.93600 29.06900 28.06600
O  -2.21200 29.95100 28.46300
C  -3.61800 28.09500 29.03800
C  -2.67300 27.35800 29.89000
O  -1.96500 26.46300 29.53900
O  -2.59900 27.85600 31.17900
C  -1.86400 27.24900 32.26500
H  -8.09100 22.96700 28.26000
H  -7.82800 23.58600 21.86600
H  -3.47900 28.35100 22.80600
H  -4.64400 25.58200 30.40200
H  -7.43800 24.36700 30.10200
H  -6.32600 22.92600 31.33400
H  -4.73200 23.27300 30.77900
H  -5.85500 22.30900 29.75900
H  -7.38100 26.40800 30.98800
H  -6.54400 27.74800 30.17500
H  -6.03100 28.29200 32.27800
H  -4.76000 27.05100 32.26800
H  -9.95700 20.96300 26.55200
H  -11.08000 22.27100 26.21300
H  -10.00000 22.32700 27.62400
H  -10.02000 20.07400 24.19000
H  -10.95500 20.34700 22.78600
H  -11.42200 21.17700 24.34500
H  -7.02600 25.84900 20.57300
H  -4.13800 26.75900 20.88700
H  -6.07900 23.92200 19.41000
H  -4.83200 23.90900 20.83700
H  -4.67900 24.85300 19.30900
H  -5.16700 29.04400 21.14900
H  -6.71600 28.19100 20.98500
H  -5.64700 27.62200 18.60300
H  -5.02800 29.27000 18.94100
H  -6.76000 28.94600 18.97000
H  -1.45400 29.29900 24.00800
H  -1.43700 30.04300 25.62000
H  -2.67700 30.53900 24.26900
H  -4.25600 28.77000 29.60900
H  -2.46200 26.75100 33.02800
H  -1.27200 28.01800 32.76100
H  -1.10400 26.55900 31.89800

