158

Mg 0.86800 7.20600 25.41500
C  1.55400 8.90100 28.38000
C  1.15500 4.27000 27.20800
C  0.40300 5.47100 22.63500
C  1.11100 10.24000 23.68000
N  1.07100 6.67200 27.60500
C  1.29700 7.56700 28.55000
C  1.36100 6.82800 29.87500
C  1.55000 5.28900 29.47000
C  1.26000 5.38400 27.97100
C  2.78900 4.59200 29.97800
C  0.10300 7.07200 30.72100
C  0.44400 7.49800 32.20600
H  1.73700 6.97700 32.85900
N  0.78100 5.12800 24.96700
C  0.95200 4.06900 25.81000
C  0.86400 2.84800 25.07200
C  0.68500 3.25700 23.71600
C  0.67000 4.68600 23.69400
C  1.12800 1.53600 25.73400
C  0.56500 2.33600 22.46200
O  0.49000 2.79800 21.30900
C  0.47800 0.89900 22.63100
N  0.86400 7.75600 23.44000
C  0.39900 6.89000 22.51400
C  0.10700 7.60600 21.21100
C  0.34900 9.09700 21.49700
C  0.78000 9.08500 22.98600
C  0.97400 6.95300 20.09900
C  -0.87700 10.04000 21.38700
C  -0.79200 11.24700 20.37600
N  1.39200 9.19100 25.90400
C  1.40000 10.31600 25.12800
C  1.57900 11.49900 25.93900
C  1.66300 10.98900 27.24500
C  1.63100 9.52600 27.15900
C  1.53000 12.91600 25.27200
C  1.84100 11.35200 28.67600
O  2.01900 12.43600 29.21700
C  1.83700 9.95500 29.42900
C  3.15300 9.82100 30.12900
O  4.20200 9.43100 29.60400
O  3.12800 10.49000 31.40200
C  4.43500 10.67800 32.14000
H  1.37400 3.39300 27.82100
H  0.07000 4.96100 21.72900
H  1.11400 11.20100 23.16100
H  2.23600 7.29500 30.32900
H  0.74100 4.69000 29.88900
H  3.43600 5.30100 30.49400
H  3.38600 4.19200 29.15800
H  2.51000 3.80100 30.67400
H  -0.49000 6.15900 30.78200
H  -0.60000 7.75300 30.24100
H  -0.44600 7.24300 32.78200
H  0.48900 8.58200 32.31100
H  2.05500 1.15800 25.30300
H  0.34200 0.84900 25.42100
H  1.02600 1.54900 26.81900
H  1.48800 0.52500 22.79600
H  0.05000 0.33500 21.80200
H  -0.25200 0.81600 23.43600
H  -0.97200 7.54100 21.07500
H  1.18600 9.39100 20.86300
H  1.14100 7.64800 19.27600
H  0.45500 6.06400 19.74000
H  1.97000 6.70100 20.46200
H  -1.07200 10.50000 22.35700
H  -1.77600 9.48000 21.13000
H  -0.92000 12.16800 20.94400
H  -1.45700 11.14600 19.51900
H  0.21000 11.34200 19.95700
H  1.33400 13.54800 26.13800
H  0.71400 13.07500 24.56600
H  2.41400 13.28700 24.75300
H  1.03000 10.06300 30.15300
H  5.22000 10.77900 31.39100
H  4.82900 9.87900 32.76900
H  4.29700 11.59500 32.71300
Mg 44.17300 4.47900 48.17800
C  42.02500 7.14500 47.71600
C  41.65800 2.36200 47.62400
C  46.50400 2.08800 47.73600
C  46.87300 6.91800 48.00800
N  42.09500 4.77200 47.76700
C  41.44000 5.90800 47.67000
C  40.02600 5.65100 47.29400
C  39.87300 4.16500 47.59100
C  41.31400 3.69100 47.70300
C  39.23400 3.86100 49.01500
C  39.65300 6.00300 45.78400
C  38.30900 6.69500 45.53000
H  37.71200 6.71100 44.11200
N  44.08300 2.48100 47.75600
C  42.93500 1.73900 47.45400
C  43.29300 0.35200 47.22500
C  44.72900 0.28500 47.29700
C  45.19300 1.65500 47.57900
C  42.32800 -0.69500 46.96100
C  45.44800 -0.98200 47.11700
O  44.83000 -1.96200 46.61900
C  46.89000 -1.14300 47.19800
N  46.33500 4.48600 47.87800
C  47.03900 3.33600 47.79000
C  48.57200 3.50000 47.86100
C  48.72500 5.07400 47.96000
C  47.20000 5.55500 47.96500
C  49.41400 2.66700 48.79700
C  49.48900 5.82300 46.83400
C  50.81900 6.50900 47.16800
N  44.45600 6.61900 48.10800
C  45.56300 7.47200 47.97900
C  45.14600 8.86300 47.83100
C  43.74700 8.73400 47.80900
C  43.37700 7.42800 47.91400
C  45.97000 10.08900 47.67100
C  42.57800 9.52300 47.54000
O  42.34800 10.77200 47.35700
C  41.40900 8.48200 47.64600
C  40.50600 8.76300 48.79400
O  40.84800 8.92500 49.93100
O  39.20400 8.68700 48.38100
C  38.13900 8.77500 49.42200
H  40.83500 1.65100 47.72600
H  47.23900 1.28500 47.82700
H  47.83100 7.43400 48.10600
H  39.33100 6.28200 47.84900
H  39.34900 3.57800 46.83700
H  38.87200 4.77000 49.49400
H  40.09600 3.49400 49.57200
H  38.49000 3.06400 48.98500
H  39.73900 5.09900 45.18100
H  40.37100 6.70400 45.35900
H  38.30000 7.73800 45.84800
H  37.56000 6.18700 46.13600
H  42.45200 -1.26000 46.03700
H  41.28000 -0.39900 47.00700
H  42.44000 -1.45000 47.73900
H  47.12300 -0.80100 48.20700
H  47.35800 -0.54500 46.41600
H  47.14100 -2.19800 47.08400
H  48.92700 3.22300 46.86800
H  49.03500 5.25900 48.98900
H  50.10300 3.30500 49.35100
H  50.04100 2.08400 48.12300
H  48.87100 1.97200 49.43800
H  48.82800 6.64600 46.56100
H  49.58300 5.16300 45.97200
H  50.78400 6.73100 48.23500
H  51.03200 7.43000 46.62500
H  51.60100 5.77800 46.96500
H  46.25500 10.25000 48.71100
H  45.40000 10.94700 47.31300
H  46.76400 9.80000 46.98300
H  40.77000 8.64100 46.77700
H  38.18700 9.75100 49.90700
H  38.19900 8.01200 50.19800
H  37.16500 8.65200 48.95000

