158

Mg 35.84000 1.84100 29.97600
C  33.73700 3.38000 32.37500
C  38.25900 1.72800 32.28100
C  37.84600 0.98600 27.47700
C  33.21200 2.83700 27.44200
N  35.91700 2.58800 32.08300
C  34.94200 3.07500 32.87300
C  35.27300 2.96700 34.34100
C  36.91900 2.97900 34.22000
C  37.08300 2.40500 32.81200
C  37.65100 4.32300 34.49400
C  34.64500 1.73500 35.05900
C  34.50400 1.86100 36.55000
H  35.00400 3.09700 37.32100
N  37.72800 1.26700 29.94300
C  38.58600 1.30400 31.03200
C  39.93300 0.77100 30.57800
C  39.80200 0.53200 29.14400
C  38.40900 0.84900 28.78500
C  41.21100 0.63900 31.35500
C  40.90400 0.21500 28.12700
O  40.60700 0.08200 26.95400
C  42.32000 -0.12500 28.35500
N  35.49000 1.84800 27.80600
C  36.55800 1.46300 27.09400
C  36.15300 1.47000 25.57700
C  34.61700 1.88900 25.50700
C  34.42600 2.21200 26.99000
C  37.00900 2.32500 24.59900
C  33.45400 0.91500 24.99500
C  33.09100 1.17700 23.48000
N  33.88900 2.87800 29.86600
C  32.90500 3.11300 28.82200
C  31.69700 3.63800 29.35300
C  31.99600 3.78200 30.73900
C  33.34700 3.32400 30.99900
C  30.44700 4.02100 28.66700
C  31.42700 4.17700 32.01600
O  30.31300 4.65300 32.21700
C  32.53200 3.93800 33.11000
C  32.65600 5.10000 34.00500
O  33.54400 5.96300 33.91400
O  31.65800 5.02600 35.01300
C  31.72800 6.14200 35.98900
H  39.00800 1.69500 33.07500
H  38.49800 0.83900 26.61300
H  32.48000 3.14600 26.69400
H  34.91700 3.88700 34.80500
H  37.35200 2.28800 34.94400
H  37.99600 4.88100 33.62400
H  38.48400 4.29200 35.19600
H  36.88200 4.97700 34.90600
H  35.30300 0.89200 34.85200
H  33.65500 1.55700 34.63900
H  34.90700 0.92800 36.94300
H  33.48600 1.74000 36.92000
H  41.90700 1.36900 30.94000
H  41.56800 -0.33900 31.03400
H  40.97200 0.77100 32.41000
H  42.43000 -1.04100 28.93500
H  42.81900 0.64200 28.94600
H  42.76100 -0.22800 27.36300
H  36.19900 0.47700 25.13100
H  34.63300 2.84900 24.99000
H  37.52600 3.06300 25.21100
H  36.36000 2.82600 23.88000
H  37.74000 1.77400 24.00700
H  32.53600 0.91000 25.58200
H  33.88200 -0.07100 24.81600
H  33.60300 2.04300 23.06200
H  32.06100 1.53200 23.45000
H  33.06900 0.23700 22.92900
H  30.24600 3.43900 27.76800
H  30.34800 5.10500 28.60200
H  29.71300 3.75300 29.42700
H  32.36500 3.05000 33.72000
H  31.45700 7.11600 35.58000
H  32.73400 6.18600 36.40600
H  31.10400 5.89100 36.84600
Mg -12.50100 38.33500 41.52300
C  -10.65800 35.58800 40.49300
C  -10.47000 40.31000 39.86500
C  -14.74200 40.55800 42.01300
C  -14.94300 35.78900 42.75600
N  -10.94700 37.93700 40.17700
C  -10.25300 36.76700 39.91600
C  -8.99500 37.00600 39.14100
C  -8.86300 38.62400 39.06700
C  -10.18100 38.97400 39.77000
C  -7.63300 39.26000 39.81100
C  -8.99500 36.34500 37.67100
C  -7.75200 35.49400 37.26300
H  -6.78700 36.13700 36.26900
N  -12.59600 40.24300 41.07000
C  -11.61700 40.93000 40.43700
C  -11.96800 42.32200 40.46900
C  -13.22100 42.47800 41.13900
C  -13.56600 41.04400 41.47900
C  -11.07600 43.49100 39.83700
C  -13.90300 43.72700 41.42200
O  -13.50200 44.71400 40.86000
C  -15.15000 43.83200 42.24900
N  -14.47100 38.21100 42.45300
C  -15.19700 39.36100 42.45700
C  -16.60300 39.06300 42.93700
C  -16.73900 37.53900 43.02600
C  -15.33500 37.14100 42.74200
C  -16.96200 39.78700 44.29200
C  -17.71600 36.92700 42.07700
C  -17.39200 36.95600 40.56700
N  -12.67500 36.19900 41.81400
C  -13.66100 35.32300 42.41900
C  -13.19500 33.97400 42.41400
C  -11.99000 34.05800 41.69600
C  -11.77300 35.38700 41.28200
C  -13.82300 32.78900 43.07400
C  -11.00400 33.23500 41.19400
O  -10.85600 32.03100 41.19900
C  -10.01700 34.19600 40.44300
C  -8.69600 34.09000 41.11900
O  -8.54000 34.55700 42.24000
O  -7.75700 33.45700 40.35600
C  -6.43500 33.07600 40.99400
H  -9.80000 40.88000 39.21800
H  -15.52700 41.31100 41.91700
H  -15.63600 35.06100 43.18300
H  -8.19200 36.49400 39.67300
H  -8.91400 38.97800 38.03700
H  -7.82600 39.75000 40.76500
H  -7.14100 39.93300 39.10800
H  -6.95900 38.44000 40.06100
H  -9.20400 37.09600 36.90900
H  -9.88400 35.71400 37.66600
H  -8.01900 34.45900 37.04800
H  -7.18900 35.32600 38.18100
H  -11.17000 44.38800 40.44900
H  -11.31800 43.81700 38.82500
H  -10.03800 43.17100 39.92700
H  -15.95300 43.25700 41.79000
H  -15.59600 44.82600 42.26500
H  -14.97300 43.63500 43.30700
H  -17.35200 39.39100 42.21700
H  -16.97900 37.25500 44.05100
H  -17.50000 40.63400 43.86600
H  -16.07700 40.23500 44.74400
H  -17.56400 39.22400 45.00500
H  -18.68800 37.38900 42.25000
H  -17.93300 35.90500 42.39000
H  -17.37800 35.98900 40.06400
H  -16.36600 37.32300 40.54000
H  -18.09700 37.63400 40.08600
H  -13.84600 32.93300 44.15400
H  -13.27300 31.89700 42.77100
H  -14.83400 32.51100 42.77600
H  -10.02000 33.87700 39.40000
H  -5.99100 32.20000 40.52000
H  -6.50800 32.96800 42.07600
H  -5.88200 33.98300 40.74900

