158

Mg 17.09800 -1.71300 27.74800
C  16.27700 0.49600 30.36200
C  19.22800 -3.38100 29.92900
C  18.39600 -3.40900 25.04700
C  15.65400 0.55700 25.52200
N  17.64100 -1.47300 29.92100
C  17.04900 -0.54700 30.80000
C  17.47100 -0.88100 32.21700
C  18.43400 -2.20000 32.11600
C  18.49600 -2.33800 30.59100
C  19.82500 -2.03100 32.80800
C  16.17700 -1.12500 33.06600
C  16.00600 -0.29400 34.39100
H  17.27200 -0.06300 35.24600
N  18.47000 -3.28800 27.47200
C  19.25600 -3.78000 28.50600
C  19.99800 -4.96500 28.03900
C  19.88400 -4.87300 26.59600
C  18.90200 -3.85600 26.29900
C  20.86400 -5.81600 28.92300
C  20.66300 -5.72900 25.54700
O  20.53400 -5.58000 24.32900
C  21.75000 -6.77000 26.05800
N  17.05400 -1.38300 25.49300
C  17.59100 -2.34200 24.66100
C  17.36600 -1.88900 23.20200
C  16.26100 -0.79700 23.39300
C  16.31000 -0.53600 24.89700
C  18.73000 -1.23900 22.54300
C  14.87200 -1.25900 22.99800
C  14.18400 -2.28600 23.92300
N  16.24300 0.16700 27.82700
C  15.66900 0.94200 26.82800
C  15.07800 2.17000 27.45700
C  15.35200 2.04100 28.84700
C  15.94800 0.75900 29.00900
C  14.46500 3.24900 26.70500
C  15.28500 2.64500 30.12100
O  14.87100 3.76000 30.42400
C  15.91400 1.71600 31.14800
C  17.04000 2.43600 31.87100
O  18.20400 2.67200 31.46000
O  16.49600 3.04800 32.99000
C  17.30400 3.92800 33.90700
H  19.94000 -3.94300 30.53700
H  18.80400 -3.98400 24.21300
H  15.27500 1.29800 24.81600
H  18.11500 -0.10300 32.62600
H  17.93300 -3.10400 32.46300
H  19.82500 -1.24200 33.56100
H  20.66700 -1.88400 32.13200
H  20.02800 -3.00100 33.26200
H  16.07500 -2.18800 33.28600
H  15.26600 -0.90900 32.50800
H  15.14300 -0.67300 34.93900
H  15.90100 0.77100 34.18200
H  20.37700 -5.79100 29.89800
H  21.87600 -5.41300 28.94400
H  20.74600 -6.88100 28.72600
H  21.13400 -7.58600 26.43700
H  22.35000 -6.37600 26.87900
H  22.36500 -7.04800 25.20300
H  16.98500 -2.71200 22.59700
H  16.61600 0.10400 22.89300
H  19.66800 -1.29300 23.09500
H  18.63600 -0.18000 22.30400
H  18.82800 -1.68100 21.55100
H  14.83700 -1.68500 21.99500
H  14.24800 -0.36900 23.08500
H  13.54400 -1.78000 24.64500
H  14.87000 -2.97600 24.41400
H  13.57100 -3.00000 23.37400
H  13.65200 2.91000 26.06300
H  15.20700 3.73000 26.06700
H  13.99600 3.94200 27.40400
H  15.21400 1.55200 31.96800
H  16.90600 3.69000 34.89400
H  17.15000 5.00300 33.82600
H  18.36300 3.69200 33.79800
Mg 47.50200 34.50900 26.56200
C  45.72100 33.47100 29.37900
C  48.33900 37.34300 28.25200
C  48.89300 35.60800 23.74400
C  46.30400 31.70000 24.87200
N  47.08100 35.20500 28.59100
C  46.47600 34.61700 29.62800
C  46.73200 35.34700 30.91600
C  47.22200 36.76900 30.45800
C  47.57700 36.43300 28.98800
C  46.05700 37.79600 30.51700
C  47.84000 34.62600 31.77200
C  47.52700 34.39300 33.25600
H  46.57000 35.42200 33.86200
N  48.44300 36.14700 26.05600
C  48.75500 37.21500 26.91500
C  49.51800 38.15900 26.21100
C  49.72200 37.68800 24.90800
C  48.99000 36.42700 24.84300
C  50.03900 39.40900 26.90000
C  50.53000 38.30300 23.75300
O  50.67400 37.64600 22.74800
C  51.20600 39.65000 23.88000
N  47.43900 33.85200 24.59500
C  48.24000 34.43300 23.68200
C  48.18100 33.65400 22.32500
C  47.64000 32.24500 22.85800
C  46.96500 32.64100 24.15800
C  47.32000 34.44400 21.21700
C  48.73300 31.18000 23.14300
C  48.28800 29.73100 22.84600
N  46.27700 32.83000 26.96200
C  45.91800 31.75300 26.19900
C  45.09100 30.89300 26.99600
C  44.96800 31.54200 28.20700
C  45.70900 32.71700 28.15500
C  44.52400 29.57400 26.60400
C  44.41400 31.38200 29.51900
O  43.76100 30.43600 29.98100
C  44.75700 32.66500 30.27100
C  45.20300 32.32900 31.63900
O  46.21900 31.74300 31.93600
O  44.18900 32.60900 32.54900
C  44.14400 31.77200 33.72100
H  48.54800 38.23800 28.84200
H  49.29900 35.80000 22.74900
H  45.92500 30.88400 24.25300
H  45.82100 35.40600 31.51100
H  48.05600 37.18200 31.02600
H  45.47200 37.90200 29.60400
H  46.37600 38.78100 30.85800
H  45.37200 37.44700 31.29100
H  48.80800 35.11800 31.67200
H  47.96300 33.60700 31.40500
H  48.52200 34.40400 33.70000
H  47.20200 33.35200 33.28700
H  51.12400 39.36200 27.00400
H  49.61900 39.45500 27.90500
H  49.76400 40.33600 26.39600
H  52.00600 39.56500 24.61500
H  50.49800 40.42400 24.17700
H  51.65400 39.82800 22.90300
H  49.20800 33.59400 21.96400
H  46.82900 31.78500 22.29300
H  48.12600 34.81500 20.58500
H  46.66600 35.24200 21.56900
H  46.65900 33.75900 20.68600
H  48.94400 31.26200 24.20900
H  49.64500 31.46800 22.61900
H  48.51900 29.03700 23.65400
H  48.70700 29.43000 21.88700
H  47.22600 29.75300 22.59900
H  44.34200 29.47700 25.53300
H  43.54600 29.39300 27.05000
H  45.22800 28.82200 26.95900
H  43.80000 33.18200 30.19500
H  43.36700 31.02600 33.55600
H  43.86900 32.37300 34.58700
H  45.09900 31.33900 34.02000

