158

Mg 26.08000 1.47600 28.99900
C  27.71000 0.85800 31.94300
C  23.08300 1.55400 30.90600
C  24.38900 2.05500 26.18500
C  28.95600 1.07300 27.21100
N  25.48100 1.20500 31.23300
C  26.37900 1.03900 32.27600
C  25.67800 1.16200 33.59800
C  24.13800 0.96100 33.17300
C  24.22200 1.16600 31.67400
C  23.43600 -0.37200 33.57000
C  26.02000 2.46300 34.37200
C  26.45700 2.28000 35.85200
H  26.15000 3.31100 36.97400
N  23.99100 1.83600 28.54700
C  23.00000 1.80500 29.46900
C  21.74100 2.08300 28.81600
C  22.03200 2.34800 27.45700
C  23.53300 2.06200 27.29900
C  20.46200 2.24500 29.59600
C  21.10100 2.75300 26.25300
O  21.53300 2.92900 25.13800
C  19.60100 2.93900 26.56100
N  26.63900 1.51000 26.97100
C  25.76000 1.78400 25.96400
C  26.47100 1.79100 24.65600
C  28.02000 1.57500 25.00400
C  27.91000 1.45800 26.48500
C  25.89100 0.71900 23.60600
C  28.92700 2.76900 24.49000
C  29.92600 2.48300 23.41000
N  27.91500 0.81300 29.37400
C  28.95700 0.73600 28.57400
C  30.14100 0.33700 29.37900
C  29.66900 0.44500 30.65400
C  28.32400 0.77900 30.63700
C  31.47900 -0.01600 28.94000
C  30.13500 0.42500 32.03600
O  31.21400 0.24200 32.58400
C  28.84000 0.65900 32.92400
C  28.68500 -0.46300 33.81400
O  28.23900 -1.54200 33.40200
O  29.08800 -0.20900 35.11200
C  28.86900 -1.25800 36.15500
H  22.13300 1.56800 31.44400
H  23.89700 2.27900 25.23700
H  29.91000 0.91900 26.70300
H  25.89800 0.27000 34.18500
H  23.62600 1.77300 33.69100
H  22.39400 -0.11400 33.75800
H  23.81900 -0.78500 34.50300
H  23.46400 -0.97400 32.66200
H  25.11800 3.07400 34.34300
H  26.81200 3.01400 33.86600
H  27.53500 2.19700 35.71400
H  26.09200 1.32200 36.22200
H  19.85300 1.34900 29.47300
H  19.74100 3.01700 29.32600
H  20.52400 2.58000 30.63100
H  18.99100 3.15200 25.68300
H  19.54100 3.69400 27.34500
H  19.20800 2.05200 27.05700
H  26.40800 2.73800 24.12000
H  28.37400 0.64700 24.55600
H  24.98600 0.23600 23.97400
H  26.59100 -0.07500 23.34600
H  25.75400 1.28900 22.68700
H  29.43300 3.25000 25.32700
H  28.32300 3.57300 24.06900
H  29.79900 1.43300 23.14900
H  30.95400 2.65300 23.72700
H  29.71400 3.09600 22.53300
H  31.88200 0.86100 28.43300
H  31.26900 -0.82800 28.24400
H  32.07200 -0.30900 29.80600
H  29.13900 1.50100 33.54800
H  28.07600 -0.82700 36.76700
H  29.76200 -1.25400 36.78000
H  28.71500 -2.26700 35.77400
Mg -10.31900 16.90100 41.65900
C  -6.90600 16.08200 41.40500
C  -9.65200 20.09200 41.13500
C  -13.61900 17.27500 40.99100
C  -11.01200 13.24200 41.58400
N  -8.44600 17.98100 41.45500
C  -7.19500 17.47600 41.33300
C  -6.20800 18.72500 41.03800
C  -7.15500 19.91200 41.65400
C  -8.50900 19.33700 41.46900
C  -6.96800 20.47500 43.09500
C  -5.99700 18.91000 39.51200
C  -4.52100 18.60600 38.98300
H  -4.38400 17.71900 37.74400
N  -11.46700 18.48100 41.11900
C  -10.98800 19.73500 40.91700
C  -11.99200 20.48600 40.43200
C  -13.23100 19.73500 40.39900
C  -12.85500 18.41900 40.84900
C  -11.87900 21.92600 40.14700
C  -14.64100 20.23900 40.00900
O  -14.76900 21.47400 39.88000
C  -15.97000 19.37800 39.96000
N  -12.06800 15.40000 41.48300
C  -13.25700 15.90600 41.22100
C  -14.33200 14.83000 41.35800
C  -13.55400 13.47000 41.28800
C  -12.12900 14.01500 41.43900
C  -15.25300 14.93600 42.60500
C  -13.77700 12.61000 40.04800
C  -13.82500 11.10500 40.24300
N  -9.26900 15.07000 41.74400
C  -9.67400 13.73200 41.68200
C  -8.49200 12.90100 41.79500
C  -7.39400 13.78400 41.64900
C  -7.91800 15.07000 41.59400
C  -8.50700 11.40100 42.01800
C  -5.91900 13.78900 41.51600
O  -5.07700 12.93300 41.55100
C  -5.60200 15.39400 41.39500
C  -4.69400 15.66900 42.47500
O  -3.47000 15.44600 42.33600
O  -5.24800 16.35300 43.55200
C  -4.38200 17.02700 44.49900
H  -9.52200 21.17000 41.02100
H  -14.69900 17.43300 40.95200
H  -11.17200 12.17600 41.41100
H  -5.31700 18.63100 41.66000
H  -6.90200 20.74000 40.99200
H  -5.94900 20.36300 43.46500
H  -7.61700 19.93200 43.78200
H  -7.31100 21.50600 43.00600
H  -6.10900 19.95600 39.22800
H  -6.64000 18.32800 38.85200
H  -3.86700 18.25700 39.78200
H  -4.08100 19.56400 38.70700
H  -12.70300 22.49600 40.57700
H  -11.98000 22.00500 39.06500
H  -11.01800 22.50800 40.47700
H  -15.82300 18.76900 39.06700
H  -16.86700 19.96400 39.76200
H  -16.30000 18.92400 40.89400
H  -14.97500 14.87400 40.47900
H  -13.77900 12.87000 42.16900
H  -14.65100 14.76900 43.49800
H  -15.93300 14.08500 42.59100
H  -15.80700 15.84900 42.82500
H  -12.99300 12.77400 39.30900
H  -14.66900 12.89200 39.48800
H  -13.12400 10.60500 39.57400
H  -14.84800 10.77300 40.06600
H  -13.53500 10.77500 41.24000
H  -9.45800 10.93700 42.28000
H  -7.73000 11.10300 42.72100
H  -8.16900 10.98700 41.06800
H  -4.95400 15.50700 40.52600
H  -4.70600 16.78600 45.51100
H  -4.44700 18.09600 44.29400
H  -3.30900 16.83800 44.48500

