158

Mg 0.30800 43.09200 26.53100
C  2.60700 43.09400 29.06300
C  -2.20400 42.51000 28.65200
C  -1.73400 42.33400 23.94600
C  3.02500 43.31500 24.22100
N  0.30300 42.75100 28.59800
C  1.30000 42.91800 29.53300
C  0.78100 42.89300 30.97100
C  -0.64500 42.36100 30.76600
C  -0.90800 42.47000 29.23300
C  -0.79400 40.89300 31.42700
C  0.75000 44.33100 31.61700
C  1.22100 44.26500 33.03800
H  0.87300 42.97100 33.77400
N  -1.70700 42.59400 26.30500
C  -2.61800 42.59300 27.33600
C  -3.93500 42.51000 26.75900
C  -3.80300 42.44100 25.37100
C  -2.34500 42.40000 25.14500
C  -5.20700 42.34500 27.53500
C  -4.81000 42.44200 24.22200
O  -4.52000 42.39500 23.01900
C  -6.23800 42.57300 24.51000
N  0.64300 42.56600 24.35300
C  -0.41100 42.31800 23.54900
C  0.04800 42.17900 22.13600
C  1.57500 42.65500 22.15500
C  1.77500 42.84400 23.65900
C  -0.07100 40.67200 21.62700
C  1.81800 44.06500 21.46800
C  1.26300 45.31100 22.20000
N  2.37400 43.32900 26.57600
C  3.38300 43.38100 25.57400
C  4.67200 43.54600 26.20900
C  4.39900 43.42900 27.62100
C  3.00600 43.34500 27.74600
C  5.96700 43.69200 25.53000
C  5.02000 43.36300 28.94900
O  6.19300 43.44000 29.26800
C  3.87700 43.26700 29.95300
C  4.10500 42.03300 30.81700
O  4.21700 40.90000 30.45600
O  4.05200 42.40000 32.16200
C  4.38700 41.36000 33.08400
H  -3.05700 42.26900 29.29000
H  -2.37100 41.91100 23.16600
H  3.90100 43.35800 23.57000
H  1.37400 42.14700 31.49900
H  -1.40200 43.03300 31.17100
H  -1.19800 40.19900 30.69000
H  -1.57900 41.05500 32.16500
H  0.10500 40.37100 31.75600
H  -0.27800 44.69000 31.66800
H  1.33500 45.03300 31.02200
H  0.77300 45.06300 33.63000
H  2.31000 44.30000 33.03700
H  -5.65200 41.36700 27.35500
H  -5.96400 43.06700 27.23000
H  -5.01200 42.35000 28.60800
H  -6.58900 42.06500 25.40900
H  -6.93400 42.25400 23.73400
H  -6.49400 43.62100 24.66400
H  -0.49700 42.70400 21.35200
H  2.26400 41.93600 21.71200
H  0.89500 40.24900 21.90300
H  -0.07500 40.83200 20.54900
H  -0.95600 40.17000 22.01800
H  1.32300 44.07100 20.49700
H  2.87200 44.31500 21.34800
H  0.95300 46.14400 21.56800
H  2.05300 45.56900 22.90500
H  0.49700 44.86900 22.83800
H  5.96300 43.55700 24.44800
H  6.69100 43.02600 25.99800
H  6.34300 44.70900 25.64600
H  3.82500 44.10800 30.64400
H  3.84000 40.41700 33.07200
H  4.27800 41.77600 34.08600
H  5.46400 41.30500 32.92400
Mg -6.15800 25.24700 25.82700
C  -4.44900 26.52500 28.66300
C  -7.50900 22.94600 27.87600
C  -7.51500 23.72800 23.05500
C  -4.26000 27.31900 23.88000
N  -6.08100 24.90300 27.96600
C  -5.29900 25.50900 28.93600
C  -5.83500 25.18600 30.36700
C  -6.58400 23.87600 30.07800
C  -6.74800 23.89400 28.52500
C  -5.95000 22.55900 30.55200
C  -6.69300 26.37300 30.93300
C  -6.46400 26.71500 32.45500
H  -6.12800 25.68300 33.42100
N  -7.42600 23.64800 25.51200
C  -7.82900 22.79600 26.51500
C  -8.83300 21.84900 25.97900
C  -8.79000 21.99800 24.52500
C  -7.95200 23.19700 24.26900
C  -9.71500 21.04100 26.94100
C  -9.46900 21.15000 23.38900
O  -9.32800 21.42300 22.17500
C  -10.24400 20.02800 23.81600
N  -5.91300 25.44800 23.83700
C  -6.56800 24.74200 22.87100
C  -6.16500 25.31000 21.41900
C  -5.24100 26.50700 21.71800
C  -5.07600 26.36400 23.20500
C  -5.51800 24.30800 20.45200
C  -5.76800 27.95300 21.36700
C  -4.75300 28.71900 20.51800
N  -4.58500 26.65600 26.11800
C  -3.93500 27.46400 25.24300
C  -3.10700 28.33200 25.99000
C  -3.26300 28.05700 27.34200
C  -4.18200 27.01100 27.37200
C  -2.13300 29.32200 25.26800
C  -2.84800 28.39600 28.71800
O  -2.21300 29.34400 29.19000
C  -3.68300 27.49600 29.63000
C  -2.73100 26.92400 30.51100
O  -2.22300 25.87500 30.27500
O  -2.54400 27.67700 31.65200
C  -1.72400 27.08800 32.61800
H  -7.92400 22.22300 28.58200
H  -7.91400 23.30600 22.13000
H  -3.71600 28.04300 23.27000
H  -5.03700 24.95300 31.07300
H  -7.59700 23.89200 30.48000
H  -6.64700 22.06900 31.23300
H  -5.03900 22.63700 31.14600
H  -5.71100 21.93700 29.68900
H  -7.73700 26.08300 30.82400
H  -6.50900 27.31000 30.40700
H  -7.35900 27.21000 32.83400
H  -5.75400 27.54100 32.41000
H  -9.18100 20.14200 27.25200
H  -10.61600 20.70300 26.43000
H  -9.96900 21.58700 27.85000
H  -11.10800 20.47000 24.31400
H  -9.69600 19.44100 24.55300
H  -10.50000 19.29300 23.05300
H  -7.03200 25.64400 20.84900
H  -4.30300 26.27300 21.21400
H  -6.06900 23.39900 20.20800
H  -4.60800 23.81300 20.79400
H  -5.33100 24.78000 19.48800
H  -6.07300 28.48200 22.27000
H  -6.73200 27.89400 20.86200
H  -4.57400 29.69600 20.96600
H  -5.12600 29.09900 19.56600
H  -3.77000 28.25800 20.42000
H  -2.78900 30.07300 24.82900
H  -1.62700 28.85300 24.42400
H  -1.35200 29.69100 25.93300
H  -4.36700 28.18100 30.13200
H  -0.70900 26.81600 32.32900
H  -2.25300 26.37400 33.25100
H  -1.59300 27.91800 33.31200

