158

Mg 49.67200 45.49800 42.88400
C  46.15800 45.88500 41.89200
C  49.54100 42.43400 41.50900
C  52.94300 45.37900 43.19300
C  49.70800 48.98500 43.12800
N  47.99000 44.36200 41.72300
C  46.65900 44.61700 41.53300
C  45.91800 43.47200 40.90200
C  46.97900 42.30800 41.05400
C  48.28700 43.08500 41.45800
C  46.61100 41.29500 42.15600
C  45.67700 43.77900 39.38800
C  44.59800 42.97000 38.72100
H  44.69900 42.76300 37.21600
N  51.05700 44.03000 42.48600
C  50.81000 42.80100 41.94900
C  51.99600 41.95200 42.02900
C  53.03100 42.73400 42.56100
C  52.38900 44.11800 42.78500
C  52.12200 40.52600 41.47300
C  54.37800 42.23500 42.86600
O  54.68300 41.07900 42.54500
C  55.37800 43.10400 43.49000
N  51.16200 46.99000 43.12100
C  52.44700 46.69600 43.26900
C  53.29400 47.98500 43.62800
C  52.23100 49.18300 43.41300
C  50.91900 48.37800 43.25200
C  53.90400 48.05500 45.09500
C  52.40900 50.28200 42.31900
C  52.44800 51.75400 42.74700
N  48.23500 47.12100 42.81200
C  48.46900 48.44600 42.93600
C  47.22000 49.20200 42.90900
C  46.28800 48.17500 42.58500
C  46.97500 47.00000 42.36100
C  46.97700 50.70300 43.11800
C  44.86700 47.92000 42.42100
O  43.88500 48.62100 42.64500
C  44.71500 46.39600 41.88600
C  43.78800 45.56700 42.58700
O  42.73100 45.08900 42.16100
O  44.30700 45.30200 43.87600
C  43.56300 44.33300 44.64000
H  49.53700 41.41100 41.12700
H  54.01400 45.33700 43.40200
H  49.71900 50.04700 43.38100
H  44.94900 43.38400 41.39400
H  47.24100 41.81400 40.11900
H  47.26600 41.18700 43.02000
H  46.55700 40.30200 41.70900
H  45.66700 41.67700 42.54600
H  46.57300 43.65500 38.78000
H  45.38300 44.82200 39.27400
H  43.66400 43.51900 38.83900
H  44.44800 41.99100 39.17700
H  52.86200 40.41500 40.68100
H  51.18900 40.26100 40.97500
H  52.29900 39.79100 42.25900
H  54.93500 43.72000 44.27300
H  55.90800 43.67200 42.72500
H  56.03900 42.39200 43.98300
H  54.09700 47.95000 42.89200
H  52.01200 49.59300 44.39900
H  54.94700 47.74400 45.04100
H  53.31700 47.31900 45.64400
H  53.85500 49.01300 45.61400
H  51.68100 50.17200 41.51500
H  53.34900 49.94100 41.88500
H  52.00000 52.30100 41.91700
H  53.49600 52.00400 42.91300
H  51.98800 51.87700 43.72800
H  47.47700 51.00200 44.03900
H  45.89400 50.82300 43.16400
H  47.36600 51.16600 42.21200
H  44.23200 46.49600 40.91400
H  43.88700 44.40800 45.67700
H  43.51700 43.28600 44.33900
H  42.52400 44.66300 44.66000
Mg 0.62500 42.87800 25.82900
C  2.53200 42.93100 28.89200
C  -2.05400 41.78200 27.49400
C  -0.81800 42.43500 22.90100
C  3.77500 43.64500 24.18000
N  0.35000 42.19100 27.99300
C  1.18300 42.50400 29.04000
C  0.37900 42.44000 30.36700
C  -0.97900 41.74600 29.90500
C  -0.93200 41.96000 28.34400
C  -1.08700 40.22300 30.33000
C  0.18100 43.90900 30.96800
C  0.62600 44.21800 32.45100
H  0.75400 43.03100 33.43800
N  -1.25800 42.34400 25.25600
C  -2.22000 41.87300 26.07900
C  -3.37300 41.54200 25.22300
C  -3.02600 41.80000 23.90900
C  -1.60300 42.11500 23.98000
C  -4.64400 41.01300 25.81300
C  -3.87000 41.64900 22.61000
O  -3.39700 41.82100 21.46600
C  -5.35700 41.17900 22.68400
N  1.34100 43.04700 23.97300
C  0.49700 42.83700 22.84800
C  1.19400 42.97300 21.48500
C  2.62700 43.47400 21.96900
C  2.60500 43.37200 23.46600
C  1.25900 41.61000 20.59600
C  2.90100 45.02600 21.56600
C  1.76300 46.06700 21.76800
N  2.73100 43.24400 26.41200
C  3.84800 43.62300 25.59000
C  5.02700 43.83500 26.47100
C  4.47200 43.57600 27.79200
C  3.10800 43.20600 27.66200
C  6.40300 44.12700 26.03600
C  4.94100 43.41000 29.14700
O  6.09500 43.43200 29.63300
C  3.63900 43.12200 29.90500
C  3.94100 41.84300 30.64500
O  3.89700 40.70500 30.16900
O  4.42600 42.07300 31.92000
C  4.76900 40.90000 32.72400
H  -3.00300 41.57800 27.99500
H  -1.21100 42.38300 21.88300
H  4.68900 43.80300 23.60400
H  0.93500 41.78900 31.04100
H  -1.71800 42.36600 30.41200
H  -1.27900 39.55700 29.48900
H  -1.96700 40.06800 30.95500
H  -0.22200 39.84500 30.87600
H  -0.83200 44.30400 31.04500
H  0.76300 44.59900 30.35700
H  -0.08900 44.91100 32.89400
H  1.58500 44.73600 32.41100
H  -5.44800 41.53100 25.29100
H  -4.74100 41.32900 26.85200
H  -4.65300 39.92500 25.74800
H  -6.01500 41.86500 23.21700
H  -5.33200 40.20900 23.18200
H  -5.88200 40.99500 21.74700
H  0.60800 43.68400 20.90300
H  3.43100 42.87300 21.54400
H  0.72800 40.89500 21.22400
H  2.24900 41.20100 20.39600
H  0.66000 41.65900 19.68700
H  3.16100 44.98800 20.50800
H  3.84600 45.30100 22.03500
H  1.92300 46.54500 22.73500
H  0.80200 45.59100 21.96200
H  1.65600 46.82700 20.99500
H  6.51000 43.66600 25.05500
H  7.07200 43.70900 26.78900
H  6.49700 45.20200 25.88400
H  3.45500 43.95000 30.58900
H  5.83300 40.66100 32.74400
H  4.18600 40.03100 32.41900
H  4.51000 41.18000 33.74500

