158

Mg 1.10000 7.43600 24.59000
C  1.65900 9.55600 27.44000
C  1.71900 4.70900 26.67100
C  0.77100 5.47100 21.95500
C  1.60800 10.22600 22.55300
N  1.89900 7.25800 26.80300
C  1.82600 8.19000 27.75400
C  1.78600 7.49900 29.07300
C  2.13600 6.01800 28.81600
C  1.94400 5.95600 27.31200
C  3.46000 5.49400 29.33700
C  0.54400 7.78500 29.94300
C  0.81300 7.75400 31.51600
H  1.93400 6.88100 32.12300
N  1.22100 5.37600 24.35100
C  1.40100 4.39200 25.27300
C  1.17900 3.03700 24.70600
C  0.82600 3.24900 23.33100
C  0.89400 4.75700 23.12600
C  1.18300 1.78600 25.52300
C  0.34600 2.16600 22.30700
O  0.22800 2.41400 21.10500
C  0.15900 0.77000 22.75900
N  1.16600 7.81400 22.60300
C  0.82200 6.86000 21.66200
C  0.85600 7.36900 20.22000
C  1.20400 8.90700 20.35400
C  1.35100 9.01600 21.92900
C  1.70400 6.56700 19.19300
C  0.14600 9.85200 19.78800
C  0.62900 10.79100 18.67200
N  1.38000 9.55900 24.90800
C  1.60300 10.59300 23.96400
C  1.70400 11.93500 24.64000
C  1.70500 11.53500 26.00400
C  1.53700 10.09000 26.10600
C  1.85900 13.27100 24.01900
C  1.83900 12.07500 27.36800
O  2.05900 13.24000 27.72800
C  1.74900 10.88200 28.36200
C  2.89400 10.89000 29.37600
O  4.02600 10.38400 29.26800
O  2.40400 11.20200 30.61300
C  3.18000 10.67600 31.77400
H  1.69600 3.81400 27.29700
H  0.83800 4.84000 21.06500
H  1.86900 11.05900 21.89700
H  2.55000 8.01300 29.65700
H  1.33200 5.46700 29.30400
H  3.97800 6.23000 29.95200
H  3.98800 5.14400 28.45000
H  3.33500 4.63500 29.99600
H  -0.26500 7.12600 29.62800
H  0.31800 8.83100 29.73600
H  -0.10000 7.29400 31.89400
H  0.95200 8.78600 31.83800
H  1.86300 2.07000 26.32700
H  1.53500 0.87000 25.05000
H  0.18400 1.63500 25.93200
H  -0.35900 0.73400 23.71700
H  1.20300 0.52100 22.94800
H  -0.29000 0.10500 22.02100
H  -0.18200 7.34100 19.88900
H  2.19400 9.06000 19.92500
H  2.37400 5.82300 19.62500
H  2.31100 7.14800 18.49900
H  0.97500 6.06600 18.55600
H  -0.25800 10.49400 20.57100
H  -0.66800 9.22000 19.43200
H  1.03000 11.68000 19.15900
H  -0.23100 11.13900 18.09900
H  1.35600 10.36200 17.98200
H  1.70800 13.20800 22.94200
H  2.91900 13.46000 24.19000
H  1.21300 14.00500 24.50200
H  0.88400 10.91100 29.02600
H  2.41100 10.49400 32.52500
H  3.78100 11.47300 32.21300
H  3.80500 9.80600 31.56900
Mg 17.58000 -1.51400 27.10700
C  16.68100 0.43500 29.91600
C  19.23900 -3.53900 29.20200
C  18.88100 -2.94300 24.43100
C  15.72300 0.61800 25.04100
N  18.04100 -1.42400 29.36400
C  17.49200 -0.60800 30.36400
C  17.74900 -1.20600 31.76000
C  18.47100 -2.53700 31.41000
C  18.60900 -2.51500 29.89100
C  19.77200 -2.88900 32.20800
C  16.46400 -1.42500 32.63700
C  16.57700 -0.72300 34.03300
H  17.97800 -0.53600 34.58200
N  18.90100 -2.97600 26.87800
C  19.42200 -3.78200 27.84200
C  20.11700 -4.93100 27.28100
C  20.06800 -4.70900 25.85800
C  19.25000 -3.48400 25.65000
C  20.94200 -5.88600 28.18800
C  20.65900 -5.62500 24.76000
O  20.42800 -5.39300 23.58100
C  21.34700 -6.91600 25.00700
N  17.21300 -1.35900 25.00400
C  18.00900 -1.93800 24.08100
C  17.84800 -1.42900 22.61700
C  16.82300 -0.27400 22.93100
C  16.52500 -0.40400 24.38800
C  19.18100 -0.90400 22.02300
C  15.55800 -0.39800 21.99200
C  15.23400 0.74900 21.01600
N  16.48600 0.22400 27.31900
C  15.70200 0.90400 26.42500
C  15.04200 2.00900 27.07700
C  15.32900 1.80700 28.42400
C  16.20500 0.67500 28.59500
C  14.11400 3.03500 26.50400
C  15.05600 2.31700 29.75800
O  14.28900 3.18900 30.14800
C  15.93800 1.47400 30.80900
C  16.84100 2.52500 31.39800
O  17.87600 3.02100 30.89200
O  16.42800 2.75800 32.73700
C  17.31300 3.51400 33.63100
H  19.63900 -4.25200 29.92600
H  19.37000 -3.34900 23.54300
H  15.26600 1.35900 24.38200
H  18.51700 -0.56600 32.19400
H  17.78600 -3.36800 31.57300
H  19.96000 -2.22800 33.05400
H  20.58000 -2.95600 31.47900
H  19.59600 -3.85100 32.68900
H  16.26300 -2.49500 32.70100
H  15.61300 -0.88700 32.22000
H  15.98500 -1.21900 34.80300
H  16.30900 0.32100 33.87200
H  20.99900 -6.90600 27.80800
H  20.49200 -6.07400 29.16300
H  21.95100 -5.53500 28.40600
H  22.28800 -6.61200 25.46700
H  21.63400 -7.40200 24.07500
H  20.80800 -7.48500 25.76500
H  17.56600 -2.06700 21.77900
H  17.17100 0.73100 22.68900
H  19.92600 -0.71300 22.79600
H  19.14700 0.07600 21.54600
H  19.50600 -1.72000 21.37700
H  14.67100 -0.39500 22.62600
H  15.52200 -1.35500 21.47100
H  14.22600 1.08300 21.26100
H  15.24400 0.36400 19.99600
H  15.93900 1.57600 21.09800
H  14.28500 4.03200 26.91000
H  13.07900 2.80900 26.76100
H  14.25400 3.09500 25.42500
H  15.36300 1.04700 31.63100
H  17.33500 2.88800 34.52200
H  16.88300 4.47200 33.92200
H  18.35800 3.51000 33.31800

