158

Mg 25.58300 0.32100 29.64500
C  27.60200 0.18800 32.47800
C  22.86600 0.80500 31.67400
C  23.69100 0.23800 26.83600
C  28.35800 -0.54000 27.66100
N  25.28000 0.43100 31.87000
C  26.26500 0.38900 32.82700
C  25.81700 0.90200 34.23600
C  24.22500 0.81300 34.00200
C  24.10900 0.73300 32.43300
C  23.67000 -0.41100 34.81500
C  26.29200 2.39500 34.69300
C  27.16500 2.45300 35.96800
H  26.78000 3.31000 37.24600
N  23.53800 0.43300 29.33500
C  22.57500 0.67900 30.33300
C  21.24400 0.80300 29.66900
C  21.52200 0.69100 28.26500
C  22.95200 0.39900 28.06500
C  19.97700 1.11700 30.46700
C  20.57200 0.77800 27.16500
O  20.85100 0.63000 25.99700
C  19.13100 1.20400 27.50900
N  26.00100 -0.02600 27.50500
C  25.07200 0.09100 26.54900
C  25.64200 0.07400 25.17300
C  27.15700 -0.24300 25.44200
C  27.17800 -0.24800 26.98700
C  24.91300 -0.90300 24.12900
C  28.07400 0.86600 24.96000
C  29.42800 0.37500 24.30500
N  27.54200 -0.23100 29.93500
C  28.51800 -0.58600 29.06600
C  29.72900 -0.75200 29.70600
C  29.47400 -0.50900 31.03400
C  28.08600 -0.16000 31.20400
C  31.07200 -1.07800 29.02000
C  30.11500 -0.36800 32.28800
O  31.23900 -0.46800 32.68900
C  28.88400 0.05800 33.32500
C  28.82400 -0.94700 34.52400
O  28.11400 -1.92700 34.53800
O  29.54300 -0.44800 35.62100
C  29.24800 -1.09700 36.92800
H  21.95700 1.10300 32.20000
H  23.09600 0.35600 25.92800
H  29.24100 -0.79600 27.07300
H  26.15800 0.15000 34.94800
H  23.76500 1.76200 34.27500
H  24.40500 -1.15700 35.11900
H  22.98100 -0.92300 34.14400
H  23.22200 -0.00100 35.72000
H  25.43300 3.04400 34.86600
H  26.87600 2.86600 33.90200
H  28.14600 2.87300 35.74700
H  27.41500 1.43500 36.26500
H  19.54100 1.93600 29.89400
H  20.01600 1.36200 31.52800
H  19.31100 0.28000 30.25300
H  18.50600 1.04400 26.63100
H  19.27000 2.27400 27.66600
H  18.58400 0.55300 28.19100
H  25.47500 1.07900 24.78500
H  27.48600 -1.24700 25.17300
H  24.18000 -1.52200 24.64700
H  25.59100 -1.56900 23.59600
H  24.21700 -0.43700 23.43200
H  28.34900 1.53700 25.77300
H  27.62500 1.43900 24.14800
H  29.30500 -0.67100 24.02400
H  30.23300 0.63900 24.99200
H  29.63700 0.92600 23.38800
H  31.95100 -0.75600 29.57900
H  31.12500 -0.59700 28.04400
H  31.13800 -2.16500 28.98300
H  29.25400 1.03400 33.63900
H  28.53100 -0.50200 37.49400
H  30.20800 -1.02300 37.43800
H  28.85100 -2.11200 36.88300
Mg 6.49700 53.88600 41.51900
C  5.72000 50.47800 41.31100
C  9.63900 53.08900 40.32000
C  7.05200 57.10500 41.03500
C  3.14400 54.46900 42.51000
N  7.50500 51.98900 40.84400
C  6.97800 50.73200 40.71700
C  8.00200 49.70600 40.18000
C  9.33500 50.51800 40.13400
C  8.80600 51.96800 40.45800
C  10.58900 50.02700 41.00400
C  7.50100 49.23700 38.73900
C  8.09100 49.87500 37.49300
H  7.45200 49.47400 36.21100
N  8.09200 54.98600 40.70500
C  9.27600 54.46400 40.34100
C  10.13800 55.53100 39.95800
C  9.39600 56.68000 40.19100
C  8.13500 56.32000 40.65000
C  11.62100 55.25900 39.59200
C  9.91600 58.07600 39.87900
O  11.07700 58.15500 39.39300
C  9.14300 59.36500 40.10500
N  5.19600 55.49300 41.44400
C  5.76600 56.73400 41.39700
C  4.59800 57.72000 41.66100
C  3.32300 56.93200 42.07000
C  3.87300 55.48700 41.87500
C  4.96100 58.74700 42.80500
C  2.00500 57.31900 41.36800
C  1.59200 56.34600 40.26000
N  4.72400 52.78500 41.93000
C  3.48600 53.13200 42.42900
C  2.71200 51.89000 42.79000
C  3.55900 50.86100 42.38500
C  4.78900 51.39500 41.89400
C  1.36500 51.81600 43.34100
C  3.58500 49.47700 42.34700
O  2.78800 48.60700 42.76800
C  4.90100 49.13800 41.55200
C  4.53300 48.56600 40.23600
O  3.83400 49.10000 39.39800
O  5.02800 47.32600 40.15000
C  4.60000 46.58100 39.02500
H  10.68900 52.84000 40.15300
H  7.14800 58.19300 41.06000
H  2.22200 54.83000 42.97000
H  8.02300 48.81000 40.80100
H  9.85800 50.54500 39.17800
H  10.72600 50.77900 41.78200
H  11.48600 49.90000 40.39700
H  10.47500 49.07400 41.52100
H  6.42900 49.37100 38.59100
H  7.78600 48.18800 38.65600
H  9.12200 49.52100 37.47000
H  8.11800 50.95900 37.60900
H  11.65100 54.35900 38.97700
H  12.17300 54.98500 40.49000
H  12.21500 56.07600 39.18200
H  8.22200 59.34000 39.52300
H  9.71300 60.20600 39.71300
H  8.85300 59.47800 41.15000
H  4.48600 58.19200 40.68500
H  3.03300 57.02900 43.11700
H  5.09000 59.77500 42.46400
H  5.90100 58.32500 43.16100
H  4.18400 58.77500 43.56800
H  2.22700 58.32400 41.01000
H  1.16900 57.48800 42.04700
H  1.98400 55.33000 40.29600
H  1.92900 56.83000 39.34300
H  0.50500 56.35000 40.33100
H  0.82500 52.71200 43.03600
H  1.36500 51.94800 44.42300
H  0.75500 50.95100 43.08100
H  5.44100 48.36600 42.10000
H  5.03200 46.97500 38.10500
H  3.53300 46.46100 38.84100
H  4.94200 45.54800 39.09100

