158

Mg 35.35500 48.93900 25.49500
C  35.95600 47.22300 28.44100
C  33.70900 51.39100 27.22400
C  34.43800 50.37700 22.55100
C  36.74500 46.31900 23.65900
N  34.92400 49.20700 27.56100
C  35.45600 48.53300 28.61900
C  35.33100 49.24300 29.90900
C  34.56600 50.56500 29.46300
C  34.46800 50.42200 27.94000
C  33.17300 50.67000 30.11700
C  36.71100 49.53800 30.52900
C  36.75800 49.37900 32.11000
H  35.40900 49.48700 32.80700
N  34.17400 50.62400 24.95700
C  33.51800 51.43500 25.85600
C  32.60800 52.34700 25.09700
C  32.77500 51.99700 23.69000
C  33.84400 50.96200 23.66200
C  31.72800 53.39800 25.71500
C  32.17000 52.64500 22.40700
O  32.32900 52.26300 21.26500
C  31.15100 53.82400 22.61600
N  35.82600 48.54900 23.45200
C  35.29600 49.29300 22.41600
C  35.65500 48.77100 21.00400
C  36.57500 47.50700 21.32400
C  36.43800 47.44300 22.93000
C  34.37200 48.44500 20.15100
C  38.11300 47.57100 20.98300
C  38.83200 46.25700 20.55800
N  36.07500 47.07900 25.86800
C  36.63500 46.10100 25.02100
C  36.96600 44.94600 25.85000
C  36.79900 45.34500 27.18700
C  36.21400 46.65300 27.15200
C  37.41400 43.57600 25.34400
C  36.96200 44.91200 28.54200
O  37.41400 43.87200 28.96000
C  36.23100 46.09600 29.39800
C  35.08400 45.63600 30.21200
O  34.20800 44.83400 29.91400
O  35.28300 46.04500 31.44100
C  34.41400 45.42000 32.48800
H  33.23100 52.19100 27.79300
H  34.08200 50.73000 21.58100
H  37.13400 45.44800 23.12700
H  34.74700 48.56900 30.53600
H  35.19900 51.42400 29.68500
H  32.75500 49.79400 30.61200
H  32.42300 50.75200 29.33100
H  33.14400 51.56200 30.74400
H  36.97800 50.58300 30.36800
H  37.42300 48.78400 30.19300
H  37.42000 50.15200 32.50100
H  37.19300 48.39500 32.28800
H  31.80900 53.33500 26.80000
H  30.69300 53.13500 25.49700
H  31.96900 54.39700 25.35200
H  31.77000 54.59100 23.08200
H  30.33400 53.49900 23.25900
H  30.78800 54.12200 21.63200
H  36.22900 49.54100 20.48900
H  36.12800 46.62700 20.86000
H  33.45800 48.88800 20.54600
H  34.19200 47.37000 20.15100
H  34.49500 48.71500 19.10200
H  38.60500 48.07900 21.81200
H  38.33600 48.26500 20.17300
H  39.36000 46.47000 19.62800
H  38.22100 45.35500 20.53300
H  39.63300 46.15300 21.29100
H  38.49100 43.59100 25.51000
H  37.14500 43.35100 24.31200
H  37.05900 42.81800 26.04300
H  37.07100 46.44800 29.99700
H  33.54700 46.06400 32.63400
H  34.94200 45.68700 33.40300
H  34.22600 44.34700 32.54200
Mg 9.94500 48.98400 26.55200
C  7.95300 48.63100 29.46900
C  12.57300 50.03900 28.43300
C  11.68300 49.04800 23.71100
C  7.04700 48.18600 24.72800
N  10.08500 49.61800 28.69900
C  9.22800 49.25500 29.70400
C  9.86300 49.54900 31.09600
C  11.35400 50.09800 30.67700
C  11.36100 49.92300 29.19800
C  11.59500 51.52400 31.09700
C  9.83800 48.26200 31.99000
C  8.91600 48.40600 33.26500
H  9.48500 49.28800 34.42400
N  11.84200 49.64000 26.11300
C  12.85200 49.91000 27.03900
C  14.10100 50.04500 26.37300
C  13.94600 49.74500 24.96500
C  12.41600 49.45500 24.89800
C  15.35700 50.39600 27.12500
C  14.92200 49.58200 23.82800
O  14.46500 49.41400 22.67400
C  16.41300 49.36200 24.19700
N  9.39800 48.86600 24.51700
C  10.30100 48.80900 23.51400
C  9.77300 48.41200 22.09400
C  8.38000 47.84900 22.54300
C  8.23100 48.33300 24.02900
C  9.91000 49.71200 21.19500
C  8.18300 46.30500 22.37600
C  9.19800 45.29500 22.73300
N  7.83800 48.56400 26.92900
C  6.76900 48.31900 26.07900
C  5.55500 47.94300 26.91000
C  5.96300 48.07000 28.21300
C  7.38300 48.44400 28.18900
C  4.20300 47.58500 26.36700
C  5.61300 47.98200 29.61200
O  4.56000 47.72300 30.22700
C  6.94900 48.28200 30.44900
C  7.17400 46.90800 31.03800
O  7.80100 45.98600 30.53800
O  6.34700 46.72500 32.15000
C  6.36200 45.38800 32.80200
H  13.46400 50.21800 29.03800
H  12.21500 48.83800 22.78100
H  6.15500 47.93800 24.14900
H  9.32100 50.40500 31.49600
H  12.01200 49.41100 31.20900
H  12.45800 51.48900 31.76200
H  10.77100 51.82500 31.74400
H  11.67000 52.11700 30.18600
H  10.84000 48.15100 32.40500
H  9.56300 47.38500 31.40400
H  8.93400 47.40700 33.70100
H  7.93100 48.85700 33.14200
H  15.03600 51.00600 27.97000
H  15.95400 51.08800 26.53100
H  15.88500 49.50700 27.47000
H  16.53900 48.79500 25.11900
H  17.01600 50.26100 24.31800
H  16.82100 48.86900 23.31400
H  10.50300 47.65500 21.81000
H  7.49900 48.23800 22.03200
H  8.98800 50.04100 20.71600
H  10.76900 49.56400 20.53900
H  10.27000 50.52200 21.83000
H  7.93100 46.15100 21.32700
H  7.26100 46.04800 22.89800
H  8.74600 44.52100 23.35300
H  9.99100 45.73200 23.34000
H  9.50500 44.76500 21.83200
H  4.46600 46.90500 25.55700
H  3.72400 48.51100 26.05000
H  3.55200 47.14100 27.12100
H  6.81100 49.03500 31.22500
H  6.68000 45.50500 33.83800
H  7.01900 44.68800 32.28600
H  5.39900 44.88400 32.87800

