158

Mg 6.34900 55.52200 41.25000
C  3.54100 53.46100 40.83600
C  8.33600 53.18900 40.12200
C  8.76100 57.94800 41.13100
C  4.06700 57.93300 42.31500
N  5.88100 53.64100 40.47900
C  4.70600 52.97900 40.27600
C  5.05000 51.66100 39.56200
C  6.54100 51.43100 39.89900
C  7.02700 52.81400 40.21700
C  6.93500 50.42400 40.97000
C  4.71800 51.83300 38.05300
C  3.93400 50.64300 37.49800
H  4.74100 49.95500 36.35500
N  8.26400 55.58400 40.58800
C  8.92800 54.50500 40.14300
C  10.25300 54.87600 39.87000
C  10.42800 56.22200 40.15900
C  9.10100 56.65400 40.66100
C  11.28200 53.99500 39.38700
C  11.73500 57.06600 39.94100
O  12.86600 56.59400 39.70200
C  11.76000 58.59800 40.04600
N  6.38200 57.69000 41.49100
C  7.57900 58.40400 41.58500
C  7.37600 59.80100 42.33900
C  5.76000 59.80600 42.47200
C  5.34700 58.36300 42.06000
C  8.07900 59.85600 43.68200
C  5.05700 60.92500 41.60300
C  3.87000 61.63800 42.31000
N  4.29500 55.64800 41.71600
C  3.51900 56.68700 42.20200
C  2.15500 56.23800 42.45500
C  2.13600 55.00700 41.90000
C  3.41300 54.70900 41.42500
C  0.96000 57.01700 42.97400
C  1.19800 53.92200 41.64600
O  -0.03500 53.76400 41.75900
C  2.15900 52.84700 40.88400
C  1.51300 52.64400 39.50100
O  1.43500 53.45300 38.59800
O  0.96100 51.35500 39.61300
C  0.26100 50.85000 38.45600
H  9.12100 52.47100 39.87500
H  9.60900 58.60000 41.35000
H  3.38100 58.72100 42.63300
H  4.50300 50.77800 39.89100
H  7.11200 51.14800 39.01400
H  6.03700 50.10500 41.50000
H  7.57500 50.85900 41.73700
H  7.52400 49.57000 40.63500
H  5.60500 51.88900 37.42200
H  4.14800 52.75400 37.93100
H  2.99700 51.04100 37.10900
H  3.61400 49.89200 38.22100
H  10.84600 53.07200 39.00500
H  12.03100 53.64400 40.09700
H  11.80900 54.38400 38.51700
H  12.50500 59.07600 39.41100
H  12.01700 58.71700 41.09900
H  10.80000 59.05200 39.80000
H  7.67000 60.61500 41.67700
H  5.53200 60.00400 43.51900
H  7.99700 58.81300 43.98900
H  7.50600 60.49000 44.35800
H  9.06200 60.28700 43.49200
H  4.66900 60.39300 40.73400
H  5.85500 61.62100 41.34400
H  3.78400 61.29900 43.34200
H  2.95500 61.43000 41.75500
H  4.09800 62.70200 42.25100
H  1.41500 57.96300 43.26500
H  0.59700 56.51300 43.86900
H  0.27900 57.09900 42.12700
H  2.07400 51.88500 41.39000
H  -0.65700 50.49100 38.92100
H  0.78800 50.03000 37.96800
H  0.13500 51.65000 37.72700
Mg -1.08400 34.01400 26.88100
C  -2.86400 32.49500 29.30600
C  0.15000 36.25100 29.28700
C  0.33400 35.92800 24.41100
C  -2.68800 32.17700 24.49400
N  -1.45200 34.33800 29.10900
C  -2.06700 33.42200 29.88400
C  -1.68500 33.63300 31.41100
C  -0.83400 34.98300 31.31900
C  -0.72300 35.25500 29.78300
C  -1.27300 36.18400 32.18000
C  -1.04500 32.30400 31.98900
C  -1.92200 31.59900 33.13600
H  -1.25600 31.41700 34.53500
N  0.09300 35.77700 26.88100
C  0.47000 36.52100 27.98800
C  1.33800 37.56000 27.54900
C  1.38500 37.52300 26.11900
C  0.59400 36.38100 25.72700
C  2.01400 38.51200 28.51300
C  2.10800 38.37900 25.09600
O  2.04700 38.23000 23.88300
C  2.93400 39.53400 25.60400
N  -1.19800 34.03900 24.72800
C  -0.37000 34.83300 23.95600
C  -0.35400 34.38600 22.49600
C  -1.42800 33.21600 22.48900
C  -1.72900 33.03100 24.01500
C  -0.62400 35.40900 21.41400
C  -1.03700 31.98600 21.57400
C  -0.37800 30.74000 22.31800
N  -2.53800 32.67700 26.85800
C  -3.13900 31.98400 25.82500
C  -4.14300 31.16100 26.34200
C  -4.06800 31.22800 27.72400
C  -3.08100 32.20000 28.00500
C  -5.03700 30.18200 25.55700
C  -4.60600 30.77200 28.98700
O  -5.47500 29.92900 29.16900
C  -3.77500 31.56400 30.09200
C  -4.83100 32.23000 30.88100
O  -5.30400 33.30400 30.53800
O  -5.19300 31.47800 32.00500
C  -6.34200 32.03500 32.77900
H  0.67900 36.81300 30.05900
H  0.70600 36.54300 23.58900
H  -3.00200 31.51400 23.68500
H  -2.60600 33.98200 31.87800
H  0.22300 35.00300 31.58800
H  -2.00100 35.83000 32.90900
H  -1.78800 36.89200 31.53000
H  -0.45900 36.76500 32.61400
H  -0.08800 32.57100 32.43600
H  -0.86000 31.51400 31.26100
H  -2.19300 30.58000 32.86100
H  -2.79500 32.18800 33.41500
H  3.06500 38.59500 28.23800
H  1.94100 38.12600 29.52900
H  1.59300 39.51800 28.51500
H  3.03600 40.37200 24.91400
H  3.90400 39.11400 25.86700
H  2.40400 39.87900 26.49200
H  0.64200 33.96500 22.35900
H  -2.42000 33.55600 22.19200
H  -1.02800 36.32300 21.84800
H  -1.27000 34.94700 20.66700
H  0.38400 35.61800 21.05600
H  -0.28500 32.30900 20.85400
H  -1.91100 31.64200 21.01900
H  0.49100 30.46300 21.72100
H  -1.05300 29.88500 22.36300
H  -0.15100 31.10500 23.32000
H  -4.55000 29.70800 24.70400
H  -5.89700 30.64400 25.07200
H  -5.23900 29.36500 26.25000
H  -3.31400 30.75100 30.65300
H  -6.95300 32.75900 32.24000
H  -5.74300 32.47300 33.57700
H  -6.94400 31.21300 33.16500

