158

Mg 47.72200 16.63700 29.31900
C  45.87200 16.36300 32.28200
C  49.96300 18.51900 31.02600
C  49.34000 17.28500 26.43000
C  45.04100 15.32900 27.49400
N  47.81700 17.50000 31.37900
C  47.00300 17.13100 32.38100
C  47.58700 17.66400 33.73700
C  48.77700 18.59300 33.29600
C  48.86100 18.26600 31.81300
C  48.60700 20.09100 33.49300
C  48.05700 16.42100 34.65800
C  47.87800 16.73200 36.14300
H  47.53800 18.17300 36.57300
N  49.49500 17.58700 28.85400
C  50.28600 18.27400 29.70800
C  51.57100 18.64700 29.05900
C  51.44900 18.21300 27.67100
C  50.04500 17.67300 27.56700
C  52.79600 19.26900 29.77500
C  52.42200 18.28200 26.51600
O  52.04100 18.08400 25.36500
C  53.87400 18.59700 26.76600
N  47.23400 16.28000 27.23500
C  48.07900 16.67100 26.19900
C  47.37100 16.51500 24.84800
C  46.05800 15.69700 25.25100
C  46.09000 15.82200 26.73900
C  46.94700 17.84100 24.10000
C  45.98700 14.25600 24.64800
C  45.27400 14.00100 23.29300
N  45.81000 16.02700 29.69000
C  44.81500 15.47800 28.88000
C  43.74500 14.94300 29.67900
C  44.13500 15.21000 31.10500
C  45.39200 15.95300 30.98300
C  42.56800 14.14900 29.14900
C  43.73500 15.12000 32.48200
O  42.73100 14.73000 33.01600
C  44.80300 15.86100 33.30100
C  44.12900 16.91000 34.10000
O  43.72400 18.03300 33.70200
O  44.05900 16.50400 35.39900
C  43.01500 17.27000 36.10800
H  50.74300 19.09500 31.52700
H  49.81500 17.48900 25.46800
H  44.24100 15.05000 26.80500
H  46.69600 18.15700 34.12800
H  49.68200 18.28000 33.81700
H  47.90600 20.14700 34.32600
H  48.18100 20.58600 32.62000
H  49.53500 20.62200 33.70200
H  49.11000 16.23900 34.44300
H  47.43900 15.57200 34.36500
H  48.85600 16.48700 36.55700
H  47.18900 15.96200 36.49300
H  52.51000 19.59700 30.77400
H  53.25200 20.02300 29.13300
H  53.48800 18.44200 29.93300
H  54.09500 18.09400 27.70700
H  54.06400 19.65800 26.92800
H  54.41900 18.20200 25.90800
H  47.98300 16.01400 24.09800
H  45.17900 16.24000 24.90400
H  47.13500 18.66600 24.78700
H  45.94500 17.84100 23.67000
H  47.58700 17.95900 23.22600
H  45.34400 13.76400 25.37900
H  47.01100 13.88700 24.60800
H  45.94800 13.40700 22.67600
H  45.09500 14.93300 22.75600
H  44.25600 13.63600 23.43000
H  42.77100 13.62600 28.21500
H  41.86900 14.97800 29.04200
H  42.14100 13.42500 29.84400
H  45.21400 15.15800 34.02600
H  43.33000 18.23000 36.51500
H  42.80700 16.70900 37.01900
H  42.09600 17.18100 35.52900
Mg 47.07400 25.63400 28.90400
C  47.84400 27.80400 31.44300
C  46.37500 23.22500 31.34700
C  46.59600 23.41600 26.43900
C  48.44700 27.82000 26.64600
N  47.20500 25.53100 31.16700
C  47.33800 26.64400 31.99300
C  47.06300 26.24900 33.51500
C  46.77700 24.69200 33.36100
C  46.77900 24.48000 31.85300
C  47.82800 23.74300 34.04900
C  45.94300 27.13200 34.14900
C  46.24000 27.56300 35.59900
H  45.14000 27.64100 36.67900
N  46.44300 23.67300 28.87900
C  46.22400 22.84600 29.92200
C  45.71500 21.56800 29.41100
C  45.94000 21.62300 28.02400
C  46.34100 22.95600 27.72400
C  45.17700 20.42700 30.26700
C  45.66300 20.51200 26.96700
O  45.93200 20.61400 25.79500
C  45.19300 19.17500 27.49100
N  47.39900 25.63800 26.75000
C  47.07400 24.60200 25.89300
C  47.27300 24.85400 24.42400
C  47.81000 26.35300 24.48000
C  47.83300 26.69100 26.01500
C  48.28100 23.84300 23.73200
C  46.97800 27.51600 23.76600
C  47.85700 28.20600 22.62100
N  47.98100 27.40900 28.99300
C  48.60300 28.12500 27.98900
C  49.24100 29.29600 28.48400
C  48.96100 29.22100 29.84600
C  48.21800 28.02600 30.12100
C  49.92000 30.42200 27.71800
C  48.94600 30.00700 31.07900
O  49.20600 31.20200 31.33300
C  48.34300 29.01000 32.18000
C  49.34600 28.70300 33.24000
O  50.25100 27.88400 33.07700
O  49.14800 29.49800 34.35300
C  49.90300 29.25600 35.59700
H  45.99100 22.48600 32.05300
H  46.37100 22.71400 25.63400
H  48.96000 28.49400 25.95700
H  48.01200 26.31000 34.04700
H  45.79800 24.42600 33.75900
H  48.46700 23.23600 33.32600
H  47.25200 22.91200 34.45500
H  48.36500 24.19800 34.88200
H  45.02500 26.55100 34.05800
H  45.79500 28.03900 33.56200
H  46.62600 28.58300 35.58500
H  47.05800 26.88600 35.84400
H  44.08900 20.40700 30.32700
H  45.47800 20.59800 31.30000
H  45.73700 19.50000 30.14000
H  46.01000 18.81100 28.11400
H  44.95900 18.51200 26.65800
H  44.35100 19.39500 28.14700
H  46.30100 24.83400 23.93100
H  48.83500 26.46500 24.12500
H  48.44700 22.94500 24.32800
H  49.26700 24.26400 23.53300
H  47.89800 23.50600 22.76900
H  46.38200 28.24400 24.31800
H  46.23200 26.96700 23.19200
H  47.51700 29.22800 22.44800
H  47.88800 27.53600 21.76300
H  48.93500 28.15700 22.77300
H  49.19700 31.22500 27.57700
H  50.38500 30.05700 26.80200
H  50.65900 30.74400 28.45200
H  47.51600 29.47000 32.72200
H  49.23600 29.04100 36.43100
H  50.55600 30.09500 35.83400
H  50.38000 28.28600 35.45300

