158

Mg 47.11400 16.02900 28.45200
C  44.88300 15.65900 31.15500
C  48.54400 18.64700 30.12500
C  49.14900 16.41000 25.73100
C  44.96200 13.98900 26.43700
N  46.87900 16.88500 30.51100
C  45.92200 16.54600 31.38900
C  46.20100 17.30200 32.70300
C  47.31900 18.35600 32.37400
C  47.55900 18.00200 30.91200
C  46.72300 19.77600 32.56000
C  46.62300 16.29500 33.78900
C  46.76700 16.95600 35.20500
H  48.11900 16.87800 35.93900
N  48.61000 17.36200 28.03200
C  49.07800 18.32600 28.83900
C  50.17100 18.98200 28.18400
C  50.40100 18.35400 26.96200
C  49.39200 17.27600 26.86800
C  50.85500 20.21100 28.77400
C  51.41300 18.63900 25.85900
O  51.42200 17.95100 24.85500
C  52.46800 19.73200 25.96800
N  47.05000 15.28300 26.37200
C  48.06200 15.52500 25.44900
C  47.87000 14.62600 24.19300
C  46.54300 13.80400 24.53900
C  46.12000 14.41400 25.83900
C  47.79000 15.55500 22.98500
C  46.82400 12.25900 24.64000
C  47.32700 11.52600 23.37500
N  45.32900 15.07100 28.73100
C  44.58100 14.27600 27.85300
C  43.40500 13.80400 28.48900
C  43.48400 14.37800 29.77000
C  44.70100 15.13500 29.85900
C  42.28000 12.90300 27.91700
C  42.80600 14.43100 31.05800
O  41.74500 13.99500 31.37300
C  43.70400 15.21000 31.97600
C  42.88100 16.35200 32.51700
O  42.36900 17.25300 31.88700
O  42.72300 16.22400 33.88900
C  42.00900 17.41900 34.48700
H  48.88300 19.55900 30.62100
H  49.78600 16.33700 24.84700
H  44.25800 13.42800 25.81900
H  45.22000 17.72000 32.93200
H  48.14600 18.19800 33.06600
H  47.00800 20.45400 31.75600
H  47.27800 20.00000 33.47100
H  45.66600 19.89100 32.79800
H  47.55300 15.80200 33.51000
H  45.91600 15.49100 33.99600
H  46.06200 16.47600 35.88300
H  46.50900 18.01400 35.14200
H  50.46000 21.08300 28.25200
H  51.91900 20.43900 28.71200
H  50.59400 20.40900 29.81300
H  52.81000 19.94900 24.95600
H  53.25100 19.33900 26.61700
H  52.02100 20.66000 26.32400
H  48.64400 13.85900 24.17900
H  45.79300 13.83900 23.74800
H  46.82800 15.55000 22.47300
H  48.59100 15.40500 22.26100
H  47.71500 16.58000 23.34800
H  45.95300 11.72100 25.01200
H  47.63800 12.14600 25.35700
H  48.41100 11.46200 23.28000
H  46.90500 12.14800 22.58500
H  46.93500 10.51000 23.32500
H  41.43100 12.77000 28.58800
H  42.76500 11.94700 27.71900
H  41.91500 13.25600 26.95200
H  43.97400 14.54500 32.79600
H  41.56600 17.06300 35.41800
H  41.23500 17.91900 33.90500
H  42.80000 18.14600 34.67400
Mg -8.42900 40.11000 42.90800
C  -7.40500 36.86900 42.06400
C  -5.61400 41.26100 41.24700
C  -9.71500 43.23800 43.12000
C  -11.38800 38.79500 44.12200
N  -6.75800 39.15000 41.67500
C  -6.52300 37.80500 41.54100
C  -5.26000 37.58800 40.73300
C  -4.48500 38.93200 40.84700
C  -5.69400 39.83400 41.26000
C  -3.26000 38.82500 41.87700
C  -5.57600 37.15500 39.26900
C  -5.28700 35.74700 38.72000
H  -4.19400 35.55600 37.64600
N  -7.74900 41.98100 42.39600
C  -6.53300 42.25800 41.66300
C  -6.38300 43.67100 41.45100
C  -7.45900 44.24500 42.08500
C  -8.41700 43.13200 42.57800
C  -5.17900 44.29500 40.73300
C  -7.68300 45.71600 42.12500
O  -7.01100 46.47500 41.51600
C  -8.76400 46.34700 42.96600
N  -10.36900 40.88900 43.45900
C  -10.59800 42.23200 43.55100
C  -12.03800 42.48300 44.06100
C  -12.48000 41.02700 44.49000
C  -11.39500 40.18700 43.97600
C  -12.15600 43.54800 45.23500
C  -13.93000 40.61900 44.08500
C  -14.02900 40.28200 42.57900
N  -9.25900 38.20900 43.09300
C  -10.45600 37.81500 43.73000
C  -10.55100 36.38200 43.66500
C  -9.38200 36.00700 43.04700
C  -8.61100 37.11300 42.69900
C  -11.77500 35.67000 44.17800
C  -8.50800 34.82200 42.71300
O  -8.73400 33.63700 42.91700
C  -7.28300 35.36100 41.89200
C  -6.02600 34.85300 42.47600
O  -5.37800 35.30600 43.44200
O  -5.66100 33.73300 41.83800
C  -4.41000 33.04900 42.19500
H  -4.67200 41.62000 40.82700
H  -10.09600 44.25300 43.25200
H  -12.30400 38.37400 44.54200
H  -4.68900 36.80500 41.23300
H  -4.11400 39.26900 39.88000
H  -3.12900 39.68400 42.53400
H  -2.41800 38.71000 41.19400
H  -3.29300 37.92600 42.49300
H  -5.09700 37.82700 38.55700
H  -6.66000 37.23500 39.18800
H  -6.17400 35.23700 38.34300
H  -4.92700 35.33300 39.66300
H  -5.39700 45.24500 40.24500
H  -4.74100 43.67500 39.95100
H  -4.39100 44.36400 41.48300
H  -8.51800 47.39800 43.12200
H  -8.90500 45.91600 43.95800
H  -9.66000 46.20100 42.36200
H  -12.61800 42.80000 43.19400
H  -12.33800 40.85600 45.55700
H  -11.28000 44.19500 45.19200
H  -12.17900 43.03400 46.19600
H  -12.98300 44.25000 45.13600
H  -14.60300 41.44800 44.30200
H  -14.17600 39.70600 44.62900
H  -13.87300 39.21600 42.41500
H  -13.49200 40.98400 41.94100
H  -15.09500 40.37300 42.37000
H  -11.32600 34.68300 44.28600
H  -12.61000 35.77700 43.48600
H  -12.05000 36.07200 45.15400
H  -7.23400 35.08000 40.84000
H  -3.56600 33.69700 42.43000
H  -4.13200 32.30500 41.44900
H  -4.56300 32.38900 43.04900

