158

Mg 53.38600 23.38000 44.91500
C  50.70800 25.65200 43.74500
C  51.35900 20.83800 43.77400
C  56.06900 21.53300 44.81500
C  55.18500 26.28700 45.57200
N  51.22000 23.36600 43.84900
C  50.34100 24.32900 43.46900
C  49.13300 23.69900 42.84000
C  49.18800 22.23200 43.38900
C  50.68600 22.10400 43.68500
C  48.24400 22.05500 44.57500
C  49.17900 23.93900 41.32400
C  47.88200 24.46900 40.55200
H  47.56700 23.65800 39.22000
N  53.63000 21.38300 44.48500
C  52.74000 20.54900 43.92600
C  53.37800 19.25000 43.77900
C  54.70200 19.41600 44.11000
C  54.83700 20.82900 44.46300
C  52.66200 17.95900 43.49600
C  55.70900 18.31400 44.08100
O  55.40100 17.35200 43.42700
C  57.12000 18.49800 44.74400
N  55.38400 23.86500 44.95800
C  56.25600 22.84800 45.16600
C  57.60500 23.44100 45.69500
C  57.27400 24.94900 45.97300
C  55.85200 25.05900 45.54300
C  58.33000 22.62200 46.79500
C  58.17500 26.02700 45.22300
C  58.53600 27.36400 45.90500
N  52.98500 25.52600 44.86600
C  53.83000 26.53300 45.29300
C  53.12100 27.79600 45.31000
C  51.89100 27.49400 44.73700
C  51.86700 26.09300 44.44600
C  53.78300 29.16600 45.51700
C  50.58200 28.04800 44.40000
O  50.14300 29.21100 44.51300
C  49.80700 26.94200 43.62400
C  49.51700 27.38500 42.23700
O  50.29800 27.48500 41.31000
O  48.09800 27.56000 42.07700
C  47.58200 28.18100 40.87200
H  50.60000 20.08400 43.55600
H  57.03200 21.01900 44.81400
H  55.76100 27.17600 45.84100
H  48.33300 24.28500 43.29100
H  48.97800 21.51200 42.59800
H  48.07000 22.98400 45.11800
H  48.75200 21.47600 45.34700
H  47.30100 21.55100 44.36500
H  49.38600 22.94900 40.91800
H  50.04100 24.53400 41.02300
H  47.98500 25.49500 40.20100
H  47.00100 24.36000 41.18500
H  51.59400 18.01200 43.70900
H  53.04100 17.07000 43.99900
H  52.74500 17.83300 42.41600
H  56.84900 19.00900 45.66800
H  57.78400 18.99100 44.03400
H  57.49700 17.47800 44.81600
H  58.40100 23.29600 44.96500
H  57.28200 25.16900 47.04000
H  58.72000 23.30100 47.55300
H  59.10500 21.95200 46.42400
H  57.70800 21.87500 47.28800
H  57.63600 26.38300 44.34500
H  59.10400 25.47900 45.06600
H  59.60200 27.33200 46.13100
H  58.04600 27.52400 46.86500
H  58.42300 28.21800 45.23700
H  53.40400 29.55900 46.46100
H  53.48500 29.86600 44.73600
H  54.85800 28.98400 45.51200
H  48.81600 26.81500 44.06100
H  47.70800 29.26200 40.92200
H  46.53600 27.89000 40.96500
H  48.00500 27.76400 39.95800
Mg 42.84800 41.63900 26.23400
C  41.74100 43.97100 28.62800
C  43.16800 39.31800 28.74000
C  43.81800 39.53300 23.86700
C  42.21400 44.10500 23.76900
N  42.48700 41.70800 28.49600
C  42.04100 42.77500 29.28300
C  41.99400 42.37200 30.78900
C  42.29600 40.84900 30.76500
C  42.73000 40.56700 29.26900
C  43.39200 40.35400 31.79200
C  40.53200 42.55300 31.29400
C  40.26300 41.99400 32.73100
H  39.54000 42.86300 33.80800
N  43.61200 39.69200 26.24900
C  43.58400 38.89100 27.39600
C  44.02600 37.50200 27.00400
C  44.06800 37.57000 25.52800
C  43.81800 38.94800 25.13700
C  44.18000 36.42000 28.00100
C  44.45900 36.44900 24.58500
O  44.57200 36.65300 23.39800
C  44.62700 35.06700 25.07700
N  42.94200 41.72900 24.18200
C  43.47500 40.78600 23.39700
C  43.46400 41.13500 21.89200
C  42.79000 42.53800 21.90500
C  42.66300 42.83800 23.39800
C  44.86800 41.12100 21.21300
C  41.35100 42.73500 21.14200
C  40.10700 42.10600 21.96000
N  42.17200 43.64300 26.15000
C  42.04300 44.54800 25.09300
C  41.41300 45.74900 25.53800
C  41.30300 45.66700 26.91500
C  41.75600 44.31700 27.22400
C  40.88500 46.83200 24.60200
C  40.85100 46.26900 28.15700
O  40.19500 47.29200 28.27800
C  41.11600 45.24800 29.28800
C  41.95800 45.87700 30.32500
O  43.00500 46.44500 30.12500
O  41.33800 45.75500 31.54300
C  42.15700 46.14100 32.72100
H  42.97800 38.42600 29.34000
H  44.17500 38.82000 23.12000
H  41.87700 44.83300 23.02700
H  42.82200 42.93300 31.22100
H  41.34100 40.34500 30.91000
H  44.20300 39.87800 31.24000
H  43.03500 39.59100 32.48400
H  43.72200 41.20500 32.38800
H  39.91200 42.07700 30.53500
H  40.26300 43.60200 31.42100
H  41.23100 41.83600 33.20600
H  39.76500 41.02500 32.69100
H  43.54300 35.54600 27.86000
H  44.11100 36.67200 29.05900
H  45.21100 36.09500 27.86000
H  43.88400 34.73800 25.80400
H  45.64800 35.05400 25.45800
H  44.54800 34.31100 24.29600
H  42.74600 40.55500 21.31200
H  43.55600 43.25100 21.60100
H  45.31800 42.09800 21.38800
H  44.74100 40.98700 20.13900
H  45.52800 40.37400 21.65600
H  41.54200 42.14300 20.24700
H  41.19300 43.79000 20.91800
H  40.34000 41.41400 22.76900
H  39.38500 41.56800 21.34600
H  39.56700 42.91600 22.44900
H  40.43800 47.59500 25.23900
H  40.18600 46.58900 23.80200
H  41.78000 47.31900 24.21300
H  40.13900 45.05700 29.73300
H  42.38800 47.19900 32.59600
H  43.13700 45.67500 32.82900
H  41.52300 46.08600 33.60600

