158

Mg 43.39200 41.93200 27.00500
C  42.23000 44.45000 29.30200
C  44.67300 40.33100 29.71600
C  44.89600 39.88500 24.84900
C  42.58800 44.21400 24.33700
N  43.40000 42.37900 29.19000
C  42.78000 43.32300 29.87700
C  42.88100 43.09200 31.37000
C  43.64600 41.77900 31.46500
C  43.96800 41.50900 30.04800
C  44.85600 41.91500 32.38700
C  41.46200 43.17400 32.02400
C  41.04100 42.13200 33.15400
H  40.23700 42.70600 34.36300
N  44.40900 40.20300 27.23000
C  44.91700 39.72000 28.40500
C  45.51200 38.39100 28.19400
C  45.64600 38.20900 26.77000
C  44.99900 39.47400 26.19800
C  45.92900 37.42600 29.34600
C  46.20900 37.05000 26.01400
O  46.09900 36.91300 24.76900
C  46.99900 35.96700 26.79500
N  43.75800 42.05200 24.89400
C  44.28400 40.97700 24.23000
C  44.18000 41.20300 22.71800
C  43.47700 42.57900 22.57100
C  43.30300 43.00900 24.02100
C  45.59600 41.15700 21.93700
C  42.17300 42.49700 21.70500
C  40.95500 41.79500 22.36300
N  42.63800 43.93300 26.80000
C  42.36500 44.72900 25.69000
C  41.79600 46.01800 26.11300
C  41.71400 45.82700 27.52100
C  42.24500 44.65000 27.91000
C  41.22300 47.20200 25.26200
C  41.18500 46.57500 28.72000
O  40.52900 47.61700 28.80300
C  41.51600 45.61200 29.91500
C  42.46800 46.34700 30.81700
O  43.58900 46.78500 30.55800
O  41.79300 46.59300 32.00000
C  42.58900 47.41800 32.96700
H  44.96300 39.82100 30.63700
H  45.31100 39.18000 24.12500
H  42.13600 44.87500 23.59500
H  43.49800 43.87400 31.81300
H  43.06000 40.88500 31.68000
H  44.76200 42.68100 33.15600
H  45.76500 42.14900 31.83200
H  45.16500 40.95700 32.80400
H  40.67700 43.22000 31.27000
H  41.36700 44.16500 32.46900
H  41.92800 41.57200 33.44900
H  40.29400 41.48200 32.69600
H  45.30000 36.53900 29.27000
H  45.60500 37.87000 30.28800
H  46.99100 37.18400 29.39300
H  47.97300 36.41700 26.98800
H  47.10400 35.11800 26.11800
H  46.42000 35.60300 27.64400
H  43.48400 40.47300 22.30500
H  44.10800 43.36200 22.14900
H  46.09400 42.12600 21.98700
H  45.46100 40.86700 20.89500
H  46.20200 40.43200 22.47900
H  42.19600 42.10400 20.68900
H  41.95700 43.55700 21.57100
H  40.56500 40.91900 21.84500
H  40.07300 42.43500 22.37300
H  41.32500 41.51400 23.34900
H  41.21500 46.92200 24.20800
H  41.92900 48.03300 25.27100
H  40.30000 47.64100 25.63800
H  40.59100 45.37200 30.43800
H  43.26900 48.16000 32.54800
H  43.24700 46.86400 33.63600
H  41.91900 47.80100 33.73600
Mg 10.21900 47.16300 25.45600
C  8.04700 47.50500 28.27000
C  12.73200 48.33000 27.48200
C  12.34700 46.48200 22.98200
C  7.45900 46.50900 23.50900
N  10.33200 48.02700 27.62800
C  9.41000 47.85800 28.59800
C  9.87200 48.38800 29.95700
C  11.29500 48.97300 29.60200
C  11.51300 48.43200 28.13900
C  11.30900 50.46900 29.64100
C  9.95400 47.27000 31.03800
C  10.74500 47.66600 32.25100
H  10.00900 47.88600 33.58400
N  12.32700 47.39200 25.20300
C  13.17900 47.79400 26.18700
C  14.52400 47.54600 25.72400
C  14.40300 46.90800 24.43400
C  13.01500 46.87500 24.13200
C  15.82300 47.78200 26.65700
C  15.49300 46.43900 23.47800
O  15.33900 45.90700 22.41500
C  16.94000 46.64100 23.77400
N  9.87200 46.73100 23.53600
C  10.94100 46.34700 22.71600
C  10.43300 45.89600 21.31900
C  8.86800 45.96600 21.49500
C  8.68900 46.28200 22.93900
C  11.04000 46.79900 20.12300
C  8.08300 44.78600 21.02300
C  7.23400 45.04500 19.76900
N  8.11400 47.17000 25.73100
C  7.09000 46.86100 24.86700
C  5.80900 46.95100 25.55300
C  6.16500 47.05100 26.88100
C  7.57100 47.22900 26.95800
C  4.52600 46.73200 24.99600
C  5.59700 47.05500 28.20000
O  4.43200 46.82200 28.61500
C  6.85000 47.20600 29.17600
C  7.07500 45.91200 29.93500
O  7.88500 45.03100 29.76200
O  6.17100 45.93600 31.00800
C  6.31200 44.86500 32.01000
H  13.49700 48.69600 28.17000
H  12.98900 46.33000 22.11200
H  6.61700 46.27800 22.85300
H  9.17100 49.11100 30.37400
H  12.11200 48.49400 30.14200
H  12.36900 50.72100 29.67600
H  10.76800 50.73200 30.55000
H  10.79600 50.82600 28.74900
H  10.39100 46.40100 30.54700
H  8.94100 47.09300 31.39800
H  11.47900 48.46200 32.11900
H  11.32700 46.77300 32.47700
H  16.43100 46.88200 26.56200
H  15.55200 47.86500 27.70900
H  16.28400 48.73200 26.38600
H  17.48000 46.76800 22.83500
H  17.12300 45.77000 24.40300
H  17.06900 47.52300 24.40200
H  10.69700 44.84100 21.24200
H  8.55000 46.91700 21.06700
H  10.21700 47.17800 19.51700
H  11.59900 46.16900 19.43100
H  11.63600 47.63400 20.49300
H  7.52700 44.30100 21.82500
H  8.82000 44.09400 20.61400
H  7.33900 46.06600 19.40200
H  6.22600 44.74800 20.05800
H  7.59600 44.39400 18.97300
H  4.63200 46.45400 23.94800
H  3.97800 47.67100 25.07300
H  3.93500 46.05200 25.61000
H  6.71400 48.02300 29.88400
H  6.91600 44.01900 31.68000
H  5.35600 44.40900 32.26700
H  6.66000 45.19100 32.99000

