158

Mg 36.17800 48.42100 26.55300
C  36.40600 46.26900 29.40200
C  34.47400 50.68400 28.48300
C  35.46800 50.11500 23.69200
C  37.09600 45.62200 24.62300
N  35.36300 48.31600 28.61500
C  35.64600 47.46800 29.67900
C  35.36700 48.14500 31.06100
C  34.46800 49.39000 30.62500
C  34.76400 49.50500 29.12300
C  32.92700 49.24700 30.97200
C  36.74900 48.54700 31.78300
C  36.78500 48.33400 33.28900
H  36.52200 49.55600 34.12900
N  35.31100 50.25100 26.16700
C  34.64000 50.98100 27.11800
C  34.12000 52.16700 26.39500
C  34.39800 51.97500 25.05300
C  35.09300 50.73100 24.94300
C  33.45800 53.35600 27.12500
C  34.04000 52.92900 23.80600
O  34.28600 52.63900 22.64200
C  33.23000 54.16300 23.98200
N  36.27700 47.92400 24.39200
C  35.98100 48.85600 23.44600
C  36.05500 48.19600 22.05100
C  36.92900 46.88100 22.36700
C  36.79600 46.77400 23.92200
C  34.64700 47.95700 21.44900
C  38.36900 46.80500 21.80200
C  38.55800 45.84300 20.70500
N  36.76500 46.43000 26.82400
C  37.14800 45.35100 25.96000
C  37.51900 44.19900 26.62200
C  37.37700 44.50200 27.98600
C  36.85600 45.86200 28.09000
C  37.97600 42.91600 26.10200
C  37.51600 44.04200 29.37800
O  37.84700 42.94300 29.68500
C  37.07000 45.23900 30.31800
C  36.12300 44.72200 31.34100
O  34.95300 44.47000 31.10600
O  36.65400 44.73600 32.64700
C  35.55900 44.50100 33.66000
H  33.97500 51.44000 29.09200
H  35.06200 50.49000 22.75000
H  37.45300 44.82300 23.96900
H  34.76400 47.40100 31.58200
H  34.79900 50.28800 31.14500
H  32.70700 48.23800 31.32200
H  32.39500 49.38600 30.03100
H  32.57200 49.97600 31.70100
H  37.05100 49.57000 31.56200
H  37.49700 47.91700 31.30100
H  37.74500 47.88900 33.55300
H  36.06300 47.59200 33.63100
H  33.91100 54.31200 26.86200
H  33.49800 53.23400 28.20800
H  32.41200 53.31900 26.82200
H  32.36600 53.93300 24.60500
H  32.91200 54.57600 23.02500
H  33.75000 54.94200 24.53800
H  36.65400 48.79200 21.36200
H  36.45500 45.94000 22.08400
H  34.55500 48.26300 20.40700
H  33.93000 48.50700 22.05800
H  34.36500 46.90400 21.43200
H  39.16200 46.55200 22.50600
H  38.68400 47.79400 21.46900
H  39.59400 45.50700 20.76400
H  38.47600 46.35800 19.74800
H  37.89900 44.98300 20.82800
H  38.66600 42.36200 26.73700
H  38.46700 43.04900 25.13800
H  37.09500 42.27700 26.03900
H  38.00600 45.68600 30.65400
H  34.68600 45.13900 33.80000
H  36.03500 44.31400 34.62300
H  35.06000 43.55800 33.43600
Mg 16.94300 51.98900 25.64200
C  18.87500 50.66400 28.28400
C  14.64700 53.00100 27.88000
C  15.29800 53.38200 23.07300
C  19.53200 50.84300 23.43200
N  16.74300 51.67400 27.92200
C  17.68300 51.24800 28.77400
C  17.22800 51.42300 30.29600
C  15.82300 52.15100 29.99000
C  15.76600 52.33800 28.56300
C  14.57100 51.28300 30.44300
C  18.24000 52.37800 31.07200
C  18.49400 52.16900 32.59600
H  17.43900 51.34700 33.30200
N  15.18300 53.00500 25.49600
C  14.38000 53.37900 26.56300
C  13.37200 54.33400 26.01100
C  13.42900 54.19100 24.55000
C  14.69400 53.50800 24.32000
C  12.37000 55.11000 26.90000
C  12.48900 54.73100 23.46000
O  12.64400 54.56900 22.23100
C  11.34900 55.56900 23.87400
N  17.31800 52.03100 23.49400
C  16.53800 52.80400 22.71700
C  17.19800 53.00200 21.28600
C  18.51100 52.13300 21.47000
C  18.48200 51.64400 22.90500
C  16.29600 52.48900 20.17700
C  19.72300 53.05800 21.31900
C  20.73100 52.49200 20.35400
N  18.62400 50.66000 25.72800
C  19.57300 50.33400 24.74700
C  20.71600 49.71300 25.38300
C  20.40200 49.83600 26.78200
C  19.16400 50.44900 26.93400
C  22.00900 49.38200 24.73900
C  21.02200 49.52400 28.02000
O  22.09200 48.97000 28.19000
C  20.03400 50.04800 29.10400
C  19.67400 48.95300 30.09200
O  18.98400 47.99300 29.88800
O  20.35600 49.19800 31.20200
C  20.17000 48.30800 32.37800
H  14.02400 53.65600 28.49200
H  14.72400 53.63400 22.17900
H  20.27800 50.47800 22.72200
H  17.25600 50.48300 30.84700
H  15.77900 53.11400 30.49900
H  14.35300 50.61700 29.60800
H  13.68600 51.84900 30.73500
H  14.83300 50.62800 31.27400
H  17.85500 53.38900 30.94000
H  19.22100 52.31900 30.60000
H  18.45200 53.10800 33.14900
H  19.42000 51.60300 32.68500
H  12.69100 55.00900 27.93700
H  11.31600 54.84800 26.80500
H  12.49700 56.17000 26.68100
H  10.79100 55.81700 22.97100
H  11.81200 56.45000 24.31700
H  10.71500 54.89400 24.44900
H  17.43600 54.05800 21.15200
H  18.54700 51.30300 20.76400
H  15.77100 51.56900 20.43400
H  16.78500 52.33500 19.21600
H  15.62800 53.30800 19.91000
H  20.18200 53.35700 22.26100
H  19.46500 54.07600 21.02500
H  20.20200 51.70000 19.82500
H  21.59000 52.12200 20.91300
H  21.01700 53.19700 19.57300
H  22.65600 48.89000 25.46500
H  22.47600 50.29700 24.37400
H  21.79900 48.63300 23.97500
H  20.53800 50.85500 29.63500
H  21.00100 47.61500 32.50200
H  19.20000 47.81600 32.29800
H  20.12800 49.00400 33.21600

