158

Mg 8.04900 2.44100 27.37000
C  9.72500 0.94000 30.29000
C  6.44200 4.59600 29.45200
C  6.18900 3.44600 24.73700
C  9.71700 0.10000 25.43900
N  8.08000 2.61100 29.58100
C  8.89500 2.01800 30.60200
C  8.66100 2.65600 31.90100
C  7.46400 3.55900 31.60200
C  7.34800 3.67800 30.07300
C  6.08400 3.15500 32.23100
C  9.89400 3.26800 32.65300
C  10.47900 2.52700 33.93300
H  11.12000 3.36700 35.07200
N  6.41900 3.68300 27.18400
C  5.95100 4.55900 28.10800
C  4.86000 5.38400 27.59100
C  4.81200 5.08700 26.23500
C  5.84700 3.98400 26.00300
C  4.04700 6.35600 28.46000
C  3.80600 5.57800 25.18400
O  3.74100 5.22400 23.99800
C  2.74800 6.46800 25.68000
N  7.92600 1.86900 25.41400
C  7.12400 2.46100 24.44200
C  7.45300 1.88600 23.05400
C  8.60000 0.90500 23.24000
C  8.73700 0.88800 24.80800
C  6.26000 1.27600 22.26400
C  9.95500 1.14500 22.52800
C  10.44300 0.14800 21.50800
N  9.49300 0.77000 27.73200
C  10.02700 -0.07400 26.79900
C  10.95700 -0.93600 27.49900
C  10.88200 -0.62000 28.85100
C  9.96700 0.46400 28.91700
C  11.78000 -2.06400 26.79200
C  11.35600 -0.94000 30.18700
O  12.15800 -1.78500 30.48600
C  10.75300 0.10700 31.17700
C  10.13100 -0.54200 32.38600
O  8.89100 -0.79000 32.52800
O  11.05200 -0.82300 33.38600
C  10.34800 -1.06000 34.64500
H  5.99000 5.31500 30.13800
H  5.64100 3.93600 23.92900
H  10.19600 -0.57900 24.73100
H  8.14500 1.94200 32.54200
H  7.56000 4.57600 31.98100
H  5.37000 3.91900 32.53900
H  6.31400 2.65200 33.17000
H  5.50000 2.65500 31.45900
H  9.64600 4.25700 33.03800
H  10.62300 3.34500 31.84600
H  11.24100 1.83400 33.57600
H  9.69000 1.98700 34.45700
H  4.47000 6.46100 29.45800
H  3.04000 5.94200 28.52200
H  4.09500 7.29500 27.90900
H  2.04000 5.94500 26.32200
H  2.12700 6.85000 24.86900
H  3.25100 7.33200 26.11400
H  7.79500 2.74000 22.47000
H  8.38800 -0.13100 22.97400
H  5.33200 1.47300 22.80200
H  6.28600 0.20400 22.06900
H  6.39400 1.83000 21.33600
H  10.67500 1.18400 23.34600
H  10.03400 2.14800 22.10800
H  10.75300 0.86100 20.74400
H  9.65600 -0.54800 21.21800
H  11.28800 -0.46500 21.82200
H  11.60600 -3.01600 27.29300
H  12.83300 -1.78500 26.84000
H  11.43500 -2.20200 25.76800
H  11.53600 0.72200 31.61900
H  9.75000 -0.22700 35.01400
H  11.05300 -1.23900 35.45700
H  9.57100 -1.82400 34.61600
Mg 49.29500 45.11800 43.14300
C  45.87100 45.02200 42.49800
C  49.57700 41.85000 42.33300
C  52.66800 45.46500 43.28600
C  49.04600 48.70200 43.26800
N  47.84900 43.70900 42.60100
C  46.51600 43.85300 42.32300
C  45.95700 42.63800 41.65000
C  47.05100 41.58100 41.89700
C  48.28300 42.39500 42.25900
C  46.71400 40.46000 42.97000
C  45.68600 43.00400 40.11000
C  44.32800 42.38600 39.57500
H  44.55500 41.76100 38.13900
N  50.91700 43.81600 42.95400
C  50.81200 42.50100 42.63900
C  52.06100 41.87600 42.60500
C  52.96400 42.84000 43.07800
C  52.19800 44.13600 43.10900
C  52.36400 40.39300 42.30000
C  54.40100 42.66700 43.37000
O  54.99900 41.59100 43.25300
C  55.30200 43.88500 43.74400
N  50.59900 46.85600 43.16300
C  51.95600 46.67400 43.21800
C  52.73500 48.04800 43.32900
C  51.56100 49.08900 43.11900
C  50.33700 48.20600 43.16700
C  53.60800 48.14100 44.60800
C  51.64400 49.94100 41.81300
C  51.72200 51.47400 41.95700
N  47.79400 46.58000 43.09000
C  47.86200 47.99000 43.12700
C  46.53700 48.51500 42.95200
C  45.70300 47.36800 42.79300
C  46.55900 46.21000 42.83000
C  46.04200 49.94600 42.84800
C  44.27800 46.89800 42.65800
O  43.16900 47.44900 42.68200
C  44.38600 45.32700 42.43600
C  43.50400 44.59900 43.49200
O  42.63300 43.71200 43.25200
O  43.86400 45.06000 44.81400
C  43.24600 44.32100 45.94000
H  49.79600 40.78000 42.35000
H  53.72700 45.72400 43.22800
H  49.02700 49.79300 43.23100
H  44.99300 42.37100 42.08100
H  47.32100 41.04000 40.99000
H  46.02600 40.98400 43.63400
H  47.57900 40.26700 43.60400
H  46.34800 39.55800 42.48000
H  46.51000 42.71900 39.45600
H  45.65700 44.09300 40.08400
H  43.54500 43.14200 39.51500
H  44.00900 41.62200 40.28400
H  52.46800 39.81800 43.22100
H  53.32200 40.20900 41.81400
H  51.61700 39.91600 41.66500
H  54.92900 44.39000 44.63500
H  55.44700 44.50500 42.85900
H  56.24400 43.42400 44.03900
H  53.34800 48.22900 42.44600
H  51.60500 49.83100 43.91600
H  53.33400 48.94800 45.28800
H  54.57100 48.25400 44.11000
H  53.64800 47.14500 45.04800
H  50.75600 49.61200 41.27300
H  52.54700 49.61100 41.30100
H  51.24700 52.01500 41.13900
H  52.74200 51.85300 41.89100
H  51.31800 51.95900 42.84600
H  45.65700 50.06700 41.83500
H  46.76600 50.71000 43.13200
H  45.14900 49.93800 43.47200
H  44.06800 45.13500 41.41100
H  43.46500 43.25500 45.89200
H  42.16500 44.38500 45.81500
H  43.55500 44.72300 46.90500

