158

Mg 41.23400 41.16300 26.88000
C  40.27200 43.58400 29.12100
C  42.06300 38.97500 29.36200
C  42.25200 38.75300 24.59100
C  40.71000 43.42900 24.26800
N  41.13700 41.28900 28.94100
C  40.61700 42.34300 29.70200
C  40.66900 41.92700 31.24500
C  41.40100 40.57100 31.30500
C  41.55600 40.25800 29.77200
C  42.65700 40.28800 32.17200
C  39.32000 42.05100 32.01300
C  39.44200 42.66900 33.38900
H  38.65200 42.11900 34.65000
N  41.96800 39.07900 26.95100
C  42.27400 38.45800 28.08900
C  42.66800 37.12000 27.73400
C  42.77600 37.00300 26.32500
C  42.29700 38.27300 25.86900
C  43.14500 36.21800 28.80000
C  43.29300 35.85200 25.48300
O  43.36800 35.91800 24.27700
C  43.75000 34.56400 26.10400
N  41.54100 41.17100 24.76900
C  41.81500 39.98900 24.09000
C  41.78700 40.29700 22.48200
C  41.21300 41.73400 22.46200
C  41.16200 42.16600 23.94600
C  43.17900 40.17700 21.88300
C  39.84900 41.82400 21.68400
C  38.60300 41.39000 22.54100
N  40.69800 43.17700 26.65200
C  40.49300 43.94800 25.54700
C  40.10800 45.30900 25.89200
C  39.97100 45.22000 27.34000
C  40.40700 43.92800 27.74800
C  39.91900 46.47300 24.94400
C  39.59400 45.91000 28.61600
O  39.14200 47.02100 28.85700
C  39.75600 44.87200 29.75500
C  40.78000 45.41200 30.59300
O  41.88200 45.92700 30.27900
O  40.19200 45.50000 31.82500
C  41.01600 46.32700 32.75700
H  42.31100 38.32900 30.20700
H  42.51600 38.13200 23.73200
H  40.23600 44.03500 23.49300
H  41.35700 42.65200 31.68000
H  40.65600 39.84400 31.62900
H  42.64200 40.93100 33.05300
H  43.61800 40.45800 31.68700
H  42.51200 39.32800 32.66700
H  38.94200 41.05100 32.22500
H  38.55600 42.48500 31.36800
H  39.12800 43.71300 33.39000
H  40.48900 42.64200 33.69200
H  43.18800 36.63400 29.80700
H  44.14200 35.85000 28.55900
H  42.41300 35.41100 28.83000
H  43.01400 33.97200 26.65000
H  44.71600 34.75600 26.57200
H  44.17100 34.01000 25.26500
H  41.17900 39.51900 22.02000
H  41.93600 42.40800 22.00100
H  43.38200 40.98900 21.18500
H  43.26700 39.23300 21.34600
H  43.92800 40.06900 22.66900
H  39.81600 41.24000 20.76400
H  39.74100 42.87700 21.42300
H  38.78000 41.19600 23.59900
H  38.20300 40.46200 22.13400
H  37.92100 42.23400 22.43400
H  38.88300 46.62400 24.64300
H  40.50900 46.34200 24.03600
H  40.37900 47.33800 25.42200
H  38.84100 44.71100 30.32500
H  42.08500 46.43700 32.57000
H  40.80200 46.08400 33.79800
H  40.67200 47.36100 32.73200
Mg 16.65400 51.17600 25.36200
C  18.47200 49.97800 28.18600
C  14.26000 52.12200 27.46100
C  15.04200 52.35500 22.62400
C  19.16500 49.75700 23.26000
N  16.27800 50.81900 27.61900
C  17.19200 50.53300 28.56800
C  16.68200 50.88200 29.94500
C  15.21900 51.32000 29.71300
C  15.23700 51.44800 28.15800
C  14.14600 50.43700 30.37700
C  17.52100 51.92900 30.78900
C  18.13200 51.55100 32.11500
H  17.53300 52.13200 33.35200
N  14.93900 52.17000 25.12200
C  14.05000 52.51200 26.13200
C  13.00600 53.35600 25.60600
C  13.14400 53.40000 24.18100
C  14.42600 52.64400 23.94200
C  11.91300 53.86800 26.52100
C  12.20400 54.00200 23.21000
O  12.51600 53.95000 22.03100
C  10.81900 54.47900 23.49900
N  17.18100 51.23500 23.23800
C  16.25200 51.69500 22.32300
C  16.78100 51.54400 20.89800
C  18.09800 50.64700 21.08900
C  18.21100 50.53100 22.57400
C  15.72300 50.95200 19.91000
C  19.30000 51.42300 20.43300
C  20.41200 50.48400 19.97700
N  18.42500 50.01500 25.58200
C  19.31100 49.55800 24.69200
C  20.45100 48.89200 25.38400
C  20.16600 49.10200 26.76600
C  18.90100 49.76300 26.84300
C  21.61400 48.17000 24.64500
C  20.70800 48.93800 28.17200
O  21.72900 48.38300 28.64700
C  19.53200 49.46500 29.08400
C  19.02300 48.49400 30.06700
O  18.01300 47.77300 30.03000
O  19.77700 48.67100 31.19600
C  19.42800 47.76100 32.27400
H  13.52200 52.46700 28.18700
H  14.48900 52.77900 21.78300
H  19.99800 49.32100 22.70400
H  16.69200 49.90900 30.43700
H  15.16000 52.34400 30.08200
H  13.14700 50.60000 29.97300
H  14.16300 50.66500 31.44300
H  14.37700 49.39200 30.17200
H  16.94500 52.84300 30.93900
H  18.19200 52.29700 30.01200
H  19.14500 51.95300 32.13500
H  18.08200 50.46200 32.12300
H  11.82800 54.92400 26.26600
H  12.23000 53.82800 27.56400
H  10.97800 53.32900 26.37200
H  10.43300 53.87700 24.32100
H  10.17300 54.42100 22.62300
H  10.83400 55.47300 23.94700
H  17.07600 52.46700 20.39900
H  17.89300 49.73400 20.53000
H  15.95900 49.97000 19.50100
H  15.46100 51.58300 19.06100
H  14.77900 50.81800 20.43900
H  19.79700 51.96400 21.23700
H  19.04400 52.16400 19.67600
H  20.25100 49.43100 20.20900
H  21.38900 50.86600 20.27200
H  20.48800 50.43000 18.89100
H  21.93300 47.35700 25.29800
H  22.47700 48.83500 24.61300
H  21.42700 47.78000 23.64400
H  19.94400 50.33000 29.60400
H  18.50600 48.14900 32.70700
H  20.15800 47.70600 33.08300
H  19.22900 46.75500 31.90400

