158

Mg 17.76300 -1.93700 28.31700
C  16.61800 0.01100 31.18400
C  19.46000 -3.77400 30.44500
C  19.24800 -3.16200 25.51500
C  16.20900 0.59200 26.36200
N  18.13000 -1.77300 30.64700
C  17.48700 -1.03700 31.53200
C  17.82900 -1.42600 32.91000
C  18.95100 -2.61700 32.69200
C  18.84300 -2.76800 31.14300
C  20.49300 -2.30600 33.04300
C  16.64400 -1.68500 33.88100
C  16.46000 -0.72800 35.15000
H  17.69600 -0.09900 35.74000
N  19.14100 -3.39500 28.02200
C  19.63700 -4.12200 29.06600
C  20.46100 -5.22800 28.51800
C  20.47700 -4.97000 27.05400
C  19.59800 -3.78100 26.73500
C  21.02100 -6.32300 29.35400
C  21.28100 -5.70300 26.01700
O  21.24300 -5.35000 24.79600
C  22.00300 -6.89600 26.42100
N  17.90600 -1.29200 26.22000
C  18.54400 -2.03000 25.27900
C  18.33200 -1.37700 23.91300
C  17.32200 -0.24400 24.20800
C  17.06900 -0.33100 25.67900
C  19.59300 -1.10200 23.09100
C  16.11100 0.01200 23.38900
C  16.20900 1.04200 22.29000
N  16.51400 -0.18500 28.62100
C  15.82800 0.65500 27.75900
C  14.99100 1.63900 28.38700
C  15.31600 1.45000 29.73200
C  16.24600 0.35700 29.82300
C  14.10200 2.67700 27.67000
C  15.03400 1.81100 31.06300
O  14.15200 2.57100 31.41100
C  15.80600 0.99400 32.06000
C  16.63300 1.90100 32.84100
O  17.79400 2.25000 32.64800
O  15.86800 2.46200 33.81900
C  16.37600 3.53200 34.63400
H  19.92300 -4.44300 31.17400
H  19.55700 -3.57900 24.55400
H  15.58700 1.32600 25.84600
H  18.42400 -0.66800 33.41900
H  18.60000 -3.55200 33.12900
H  21.11100 -1.98700 32.20400
H  20.92500 -3.23000 33.42600
H  20.56800 -1.58900 33.86100
H  16.88100 -2.68800 34.23600
H  15.73800 -1.64400 33.27600
H  16.14100 -1.55200 35.78900
H  15.67400 -0.01300 34.90800
H  20.56300 -7.29700 29.18300
H  20.86500 -6.19500 30.42500
H  22.11100 -6.30500 29.38200
H  21.42800 -7.69400 26.89000
H  22.67300 -6.50700 27.18800
H  22.40800 -7.33100 25.50700
H  17.98400 -2.18400 23.26900
H  17.80000 0.73200 24.13300
H  19.55900 -0.07700 22.72100
H  19.67400 -1.69900 22.18300
H  20.47600 -1.33300 23.68700
H  15.26100 0.22500 24.03700
H  15.91400 -0.95800 22.93300
H  17.13900 1.60200 22.18900
H  15.43400 1.77400 22.51300
H  16.01700 0.52000 21.35200
H  13.98600 2.44400 26.61100
H  14.43600 3.70200 27.82900
H  13.15200 2.61300 28.20100
H  15.10600 0.41300 32.66000
H  16.31800 4.52100 34.18000
H  17.43700 3.42100 34.85800
H  15.79200 3.56700 35.55300
Mg 44.08200 5.43800 47.49100
C  41.66600 7.86200 47.27300
C  41.61400 3.13100 47.08100
C  46.56700 3.00400 47.12800
C  46.50800 7.80100 47.59000
N  41.82800 5.52700 47.30200
C  41.06100 6.61000 47.26100
C  39.57800 6.30200 47.00600
C  39.54300 4.75600 47.03100
C  41.03100 4.40500 47.15300
C  38.83900 4.07100 48.16100
C  39.03500 6.80200 45.66500
C  40.03300 6.67400 44.40800
H  39.37400 6.85900 43.06100
N  44.09200 3.40300 47.21900
C  42.96600 2.59300 47.04400
C  43.39900 1.24800 46.77100
C  44.77100 1.20300 46.71200
C  45.23400 2.57100 47.06300
C  42.38700 0.07700 46.57200
C  45.50700 -0.02600 46.52500
O  44.91000 -1.06200 46.22100
C  47.03800 -0.12700 46.48700
N  46.24200 5.40300 47.38400
C  47.05200 4.25400 47.34300
C  48.51700 4.69600 47.34500
C  48.48600 6.22600 47.61400
C  46.96600 6.49300 47.59500
C  49.64900 3.80800 48.19400
C  49.33100 7.08300 46.64000
C  50.87900 7.23800 46.89000
N  44.18000 7.42200 47.39200
C  45.21100 8.30100 47.42700
C  44.67000 9.66900 47.25200
C  43.27800 9.57100 47.34100
C  43.00700 8.17100 47.37300
C  45.47700 10.95100 47.35700
C  42.04300 10.31500 47.49400
O  41.88100 11.49400 47.63100
C  40.90300 9.13100 47.41100
C  40.19700 9.30500 48.67800
O  40.51200 8.80100 49.76700
O  39.16400 10.12100 48.40600
C  38.22500 10.43100 49.48900
H  40.81300 2.39200 47.15100
H  47.36300 2.30900 46.85400
H  47.31800 8.49500 47.82500
H  38.87000 6.67900 47.74300
H  39.31700 4.39400 46.02700
H  37.86600 4.55400 48.25400
H  39.48200 4.14300 49.03800
H  38.72100 3.03500 47.84500
H  38.63200 7.78400 45.91300
H  38.12900 6.28100 45.35500
H  40.58000 5.73200 44.45700
H  40.72800 7.50300 44.54200
H  42.59300 -0.33700 45.58500
H  41.34100 0.37600 46.64900
H  42.49800 -0.64600 47.37900
H  47.59100 0.09200 47.40100
H  47.50500 0.36300 45.63300
H  47.16300 -1.18700 46.26500
H  48.74500 4.58600 46.28400
H  48.98100 6.48000 48.55100
H  50.19800 3.04200 47.64600
H  49.20100 3.29900 49.04800
H  50.42200 4.55900 48.35900
H  48.89500 8.06200 46.44200
H  49.21900 6.58700 45.67600
H  51.29500 6.59600 46.11400
H  51.11500 6.89900 47.89900
H  51.19900 8.26200 46.69800
H  44.77900 11.75400 47.11900
H  46.33500 11.03100 46.68900
H  45.81000 11.09400 48.38500
H  40.37200 9.38500 46.49400
H  38.51400 11.44600 49.76000
H  38.36800 9.84500 50.39700
H  37.20400 10.41700 49.10900

