158

Mg -2.30700 17.37200 27.31700
C  -2.85900 14.96900 29.95500
C  -2.62800 19.85800 29.49800
C  -1.97800 19.37000 24.62700
C  -2.63700 14.52300 25.07200
N  -2.96600 17.39800 29.51100
C  -3.02200 16.31600 30.39900
C  -3.18600 16.86900 31.80800
C  -3.15800 18.41800 31.60800
C  -2.84100 18.56700 30.11300
C  -4.38200 19.22400 32.19900
C  -2.16600 16.37800 32.94300
C  -1.59400 17.40900 33.95700
H  -1.26300 16.91300 35.36500
N  -2.11200 19.38800 27.12300
C  -2.42400 20.24400 28.14300
C  -2.22200 21.61700 27.60400
C  -1.80900 21.49400 26.22700
C  -1.99100 20.03500 25.91500
C  -2.23000 22.85200 28.43300
C  -1.28200 22.48900 25.27900
O  -1.02600 22.28800 24.08700
C  -1.26900 23.88500 25.78400
N  -2.58700 16.99600 25.18800
C  -2.34600 18.04200 24.32800
C  -2.54400 17.55300 22.90700
C  -2.47000 15.99000 23.07000
C  -2.55000 15.78800 24.54900
C  -3.76000 18.17000 22.11600
C  -1.22400 15.42100 22.42100
C  0.09900 15.75500 23.05500
N  -2.55500 15.28200 27.41200
C  -2.62900 14.27500 26.41400
C  -2.71700 12.97500 26.98900
C  -2.72500 13.23100 28.38200
C  -2.75400 14.63000 28.57100
C  -2.74700 11.64900 26.30800
C  -2.78300 12.59500 29.71600
O  -2.56700 11.45800 30.08300
C  -2.94100 13.71400 30.77100
C  -1.82800 13.38900 31.74400
O  -0.65700 13.60600 31.59600
O  -2.37600 12.78400 32.84100
C  -1.55600 12.61300 34.01400
H  -2.61400 20.62900 30.27200
H  -1.74200 20.03100 23.79100
H  -2.63700 13.72200 24.32900
H  -4.17400 16.53300 32.12400
H  -2.24500 18.85700 32.01000
H  -4.96200 18.50100 32.77100
H  -5.08600 19.61000 31.46200
H  -4.03500 20.07900 32.78000
H  -1.27400 15.88300 32.55800
H  -2.69700 15.63800 33.54100
H  -2.25600 18.26100 34.10900
H  -0.63200 17.70700 33.54000
H  -2.42900 22.63900 29.48300
H  -3.13200 23.37900 28.12200
H  -1.35200 23.49400 28.36300
H  -2.22600 24.11500 26.25300
H  -1.05500 24.51400 24.91900
H  -0.53100 24.10300 26.55500
H  -1.61800 17.85100 22.41400
H  -3.35600 15.47600 22.69500
H  -3.76800 19.23500 22.34900
H  -4.71700 17.69300 22.32800
H  -3.60700 17.99300 21.05100
H  -1.10400 15.73400 21.38400
H  -1.25400 14.33600 22.51700
H  0.61100 16.34700 22.29600
H  0.71700 14.86500 23.17400
H  0.05700 16.30600 23.99400
H  -3.29900 11.61000 25.36900
H  -3.15100 10.87800 26.96500
H  -1.70300 11.35300 26.20400
H  -3.92400 13.53600 31.20700
H  -2.26600 12.31800 34.78700
H  -1.04400 13.50700 34.37100
H  -0.91700 11.73500 33.91900
Mg 26.38000 50.05400 26.20600
C  24.47100 51.02700 28.91000
C  28.59800 48.72100 28.47100
C  28.44000 49.31300 23.55100
C  24.31400 51.72200 24.02700
N  26.50900 49.83400 28.40300
C  25.58600 50.29400 29.28600
C  25.91300 49.92800 30.75200
C  27.32200 49.31500 30.59000
C  27.53200 49.32100 29.05800
C  28.37200 50.06500 31.54700
C  24.86900 48.94100 31.26800
C  24.53300 48.95100 32.74700
H  25.36300 49.60500 33.87200
N  28.22800 49.13300 26.02300
C  28.99900 48.66700 27.08700
C  30.17400 48.01500 26.53400
C  30.14700 48.13700 25.09300
C  28.88800 48.84300 24.80400
C  31.23100 47.38300 27.44800
C  31.18900 47.65200 24.08300
O  31.08000 47.81000 22.90000
C  32.50500 47.08400 24.57900
N  26.35700 50.40300 24.11500
C  27.29900 49.99000 23.19600
C  26.93200 50.36600 21.73000
C  25.48700 50.94800 21.90300
C  25.40100 51.08100 23.45200
C  27.99400 51.34500 21.02600
C  24.33300 50.00600 21.48700
C  23.14400 50.67100 20.78000
N  24.76700 51.16400 26.39800
C  24.03400 51.78700 25.41200
C  22.92800 52.43500 25.99000
C  23.09700 52.19100 27.38900
C  24.21300 51.47100 27.58800
C  21.94200 53.28000 25.18400
C  22.53000 52.61300 28.66500
O  21.54500 53.31800 28.89000
C  23.48300 51.89500 29.73800
C  24.01600 52.92100 30.62600
O  25.04600 53.60000 30.33100
O  23.29500 53.03400 31.77700
C  23.62000 54.13300 32.71600
H  29.27300 48.20100 29.15300
H  29.04400 49.16500 22.65400
H  23.71000 52.28100 23.31000
H  25.94200 50.89400 31.25600
H  27.26900 48.28800 30.95000
H  29.12100 50.33900 30.80300
H  28.90000 49.38300 32.21400
H  27.94500 50.94000 32.03600
H  25.21600 47.92200 31.09800
H  23.89800 48.96500 30.77300
H  24.50100 47.95800 33.19700
H  23.50900 49.29300 32.89900
H  32.13100 47.99500 27.38900
H  31.51800 46.42700 27.00900
H  30.81100 47.28000 28.44900
H  33.18600 46.94200 23.74000
H  32.39400 46.15600 25.13900
H  32.87200 47.89300 25.21000
H  26.88800 49.40900 21.21000
H  25.52800 51.92400 21.42000
H  28.85800 51.66500 21.60800
H  27.43800 52.17300 20.58700
H  28.35400 50.72700 20.20300
H  23.85100 49.58600 22.37000
H  24.75400 49.21900 20.86100
H  23.24600 51.73900 20.58600
H  22.26800 50.43900 21.38700
H  23.11800 50.10400 19.84900
H  21.42300 52.50200 24.62500
H  22.39800 54.02400 24.53000
H  21.25200 53.84100 25.81400
H  22.91000 51.25400 30.40800
H  23.85200 55.02800 32.13900
H  24.46200 53.70900 33.26400
H  22.82800 54.36600 33.42900

