158

Mg 1.01600 8.03200 27.92400
C  1.37200 10.21100 30.51900
C  1.39300 5.35900 30.00600
C  1.64900 6.07900 25.21600
C  1.15900 10.80000 25.71200
N  1.49000 7.83800 30.02700
C  1.33100 8.85600 30.92000
C  1.34100 8.31400 32.40500
C  1.48000 6.79100 32.18800
C  1.41800 6.66800 30.63500
C  2.83100 6.19500 32.72000
C  0.15700 8.79100 33.27400
C  0.49700 9.16300 34.76400
H  0.04900 8.12500 35.73600
N  1.28600 5.97300 27.63700
C  1.34100 5.05100 28.58000
C  1.45300 3.78000 28.02200
C  1.62500 3.98200 26.61600
C  1.52200 5.39800 26.44700
C  1.36600 2.50600 28.86300
C  1.72900 2.90000 25.39600
O  1.95400 3.12500 24.25900
C  1.64600 1.46000 25.83400
N  1.23200 8.33800 25.85900
C  1.45800 7.37200 24.87600
C  1.75600 7.88400 23.47600
C  1.34500 9.36300 23.59200
C  1.20400 9.51900 25.15300
C  3.24400 7.58000 23.03800
C  0.15500 9.81900 22.71200
C  -1.28200 9.39700 23.09200
N  1.22700 10.14200 28.01400
C  1.20900 11.07000 27.11100
C  1.42600 12.30300 27.71600
C  1.58000 12.11400 29.06300
C  1.34300 10.69100 29.18600
C  1.41000 13.64000 27.10200
C  1.87200 12.67900 30.42600
O  2.20700 13.82800 30.79200
C  1.63600 11.43700 31.43200
C  2.80300 11.35000 32.28200
O  3.92900 10.95300 31.94200
O  2.57600 11.95800 33.51700
C  3.71300 12.25400 34.37800
H  1.32200 4.60100 30.79000
H  1.97700 5.54100 24.32400
H  1.28400 11.66700 25.06000
H  2.23900 8.78900 32.80000
H  0.64900 6.17400 32.52900
H  3.29800 5.71800 31.85800
H  2.59500 5.46500 33.49400
H  3.56300 6.90400 33.10800
H  -0.51500 7.93400 33.24000
H  -0.32200 9.64000 32.78700
H  0.10900 10.16500 34.94600
H  1.58300 9.21800 34.84000
H  2.18700 1.86500 28.54200
H  0.44700 2.11400 28.42800
H  1.32000 2.56100 29.95100
H  2.50900 1.24400 26.46400
H  1.68000 0.81900 24.95300
H  0.70400 1.21700 26.32600
H  1.10300 7.33900 22.79500
H  2.24300 9.93000 23.34400
H  3.90300 7.39300 23.88700
H  3.60600 8.48000 22.54000
H  3.38200 6.83000 22.26000
H  0.36800 9.38600 21.73400
H  0.23000 10.88800 22.51100
H  -1.76600 8.67400 22.43600
H  -1.84600 10.32800 23.16100
H  -1.35200 9.06300 24.12700
H  0.75900 14.39200 27.54900
H  1.14600 13.58400 26.04600
H  2.39400 14.09500 27.21600
H  0.78100 11.75500 32.02900
H  4.23600 13.13800 34.01400
H  4.46900 11.47800 34.50500
H  3.24800 12.67600 35.26900
Mg -2.79200 34.17000 26.77400
C  -4.66500 32.47800 29.22100
C  -1.92700 36.58400 29.17800
C  -1.24200 35.81300 24.38600
C  -4.09500 32.01600 24.32300
N  -3.33800 34.48400 28.91000
C  -4.02400 33.61100 29.72600
C  -3.92200 34.01000 31.20200
C  -3.32200 35.46800 31.03500
C  -2.84100 35.53800 29.62300
C  -4.34700 36.57600 31.36000
C  -3.10000 33.03000 31.97700
C  -3.82800 32.29400 33.06000
H  -4.30100 33.01900 34.26600
N  -1.69200 35.98100 26.79000
C  -1.46000 36.80300 27.86000
C  -0.49200 37.79100 27.47800
C  -0.30000 37.61900 26.03100
C  -1.07200 36.41800 25.68900
C  -0.07800 38.94600 28.33000
C  0.45700 38.48400 25.10700
O  0.50000 38.22400 23.94900
C  1.12800 39.79600 25.59500
N  -2.64400 33.84700 24.64400
C  -1.90500 34.66500 23.90400
C  -1.64200 34.20800 22.43400
C  -2.42400 32.82500 22.52000
C  -3.10100 32.91000 23.91200
C  -2.12900 35.11800 21.29600
C  -1.51800 31.53000 22.41800
C  -2.04200 30.37500 21.52700
N  -4.12100 32.66400 26.70700
C  -4.43400 31.78300 25.64600
C  -5.27800 30.80300 26.20100
C  -5.37700 30.97600 27.54300
C  -4.66200 32.12600 27.82700
C  -5.75400 29.68700 25.38800
C  -6.01300 30.45700 28.73900
O  -6.74200 29.49700 28.81800
C  -5.57300 31.43500 29.92400
C  -6.82000 32.06500 30.59600
O  -7.35300 33.14100 30.25700
O  -7.24500 31.30300 31.70200
C  -8.03700 32.00100 32.66300
H  -1.62300 37.25900 29.98000
H  -0.72400 36.22200 23.51600
H  -4.32800 31.21800 23.61400
H  -4.88000 34.06000 31.71900
H  -2.54300 35.69100 31.76400
H  -4.56800 37.16400 30.46900
H  -3.86500 37.28500 32.03400
H  -5.22700 36.13200 31.82400
H  -2.27400 33.48600 32.52400
H  -2.57900 32.25400 31.41700
H  -3.29400 31.40500 33.39600
H  -4.71600 31.78200 32.68700
H  0.97900 38.82900 28.57100
H  -0.63000 38.98600 29.26900
H  -0.14900 39.92300 27.85100
H  0.41300 40.58400 25.83200
H  1.81300 40.27900 24.89800
H  1.72700 39.58700 26.48100
H  -0.60000 33.93200 22.27100
H  -3.19000 32.82500 21.74400
H  -2.45100 36.06600 21.72600
H  -2.94600 34.63200 20.76200
H  -1.31900 35.30700 20.59100
H  -1.27100 31.22800 23.43600
H  -0.52700 31.88700 22.13800
H  -2.42100 29.56400 22.14900
H  -1.15000 30.16100 20.93900
H  -2.87700 30.70100 20.90700
H  -5.12300 29.33100 24.57400
H  -6.65500 30.01000 24.86600
H  -6.03800 28.88900 26.07400
H  -4.97200 30.88600 30.64900
H  -8.83500 32.60800 32.23400
H  -7.38400 32.65800 33.23800
H  -8.42200 31.33800 33.43800

