158

Mg 47.43500 25.45900 28.07400
C  48.53300 27.81200 30.53900
C  46.07300 23.63800 30.48500
C  47.07300 22.96300 25.77600
C  49.35100 27.29700 25.71500
N  47.48400 25.70800 30.31100
C  47.73000 26.79800 31.06400
C  47.16600 26.58700 32.52200
C  46.40800 25.27100 32.41200
C  46.65000 24.83400 30.99100
C  46.86000 24.15800 33.46500
C  46.36700 27.79900 33.05300
C  47.00500 28.38900 34.41900
H  45.88200 28.72000 35.43800
N  46.56900 23.62700 28.06900
C  46.06600 23.05800 29.20300
C  45.48000 21.77900 28.84000
C  45.62900 21.64200 27.45200
C  46.44400 22.77200 27.02500
C  44.84800 20.83000 29.81900
C  45.02700 20.61100 26.42700
O  45.32100 20.57300 25.23700
C  44.02800 19.72200 27.00700
N  47.93000 25.31200 25.95300
C  47.74600 24.11700 25.32300
C  48.28500 24.21400 23.88100
C  48.88600 25.68800 23.79700
C  48.68300 26.16300 25.25300
C  49.46300 23.17900 23.55600
C  48.04800 26.56700 22.73800
C  48.70300 26.98800 21.37200
N  48.58100 27.18200 28.03600
C  49.29600 27.79200 27.02800
C  49.91000 29.02900 27.51600
C  49.53800 29.10900 28.83700
C  48.84400 27.90300 29.16900
C  50.80800 29.94800 26.78700
C  49.73600 29.83800 30.04300
O  50.46800 30.81600 30.15000
C  49.04400 29.09500 31.17200
C  49.96600 28.85600 32.33800
O  50.76200 27.98900 32.30000
O  49.87800 29.84400 33.36500
C  50.67600 29.80800 34.62900
H  45.42100 23.10500 31.18000
H  47.03700 22.21700 24.97900
H  50.03600 27.90700 25.12200
H  48.06200 26.44500 33.12700
H  45.33800 25.34400 32.60900
H  47.17300 24.60800 34.40800
H  47.65300 23.50300 33.10400
H  45.97200 23.57500 33.70700
H  45.37100 27.42400 33.28700
H  46.36300 28.60300 32.31700
H  47.46000 29.35100 34.18500
H  47.68900 27.74000 34.96600
H  45.30100 20.94900 30.80300
H  45.07200 19.80900 29.51000
H  43.76200 20.91300 29.77600
H  44.54900 18.96500 27.59300
H  43.54900 19.15000 26.21300
H  43.29100 20.26500 27.59900
H  47.41900 24.01100 23.25200
H  49.94600 25.80100 23.57000
H  50.31100 23.59700 23.01400
H  49.05500 22.37400 22.94500
H  49.82600 22.63300 24.42600
H  47.73300 27.54800 23.09500
H  47.14400 25.99900 22.52200
H  49.77500 26.78900 21.38300
H  48.65000 28.03500 21.07400
H  48.29000 26.35700 20.58500
H  51.74500 29.40300 26.67400
H  50.95200 30.90400 27.29100
H  50.28500 30.03800 25.83500
H  48.22500 29.65600 31.62300
H  51.69800 29.62600 34.29500
H  50.30600 28.95400 35.19600
H  50.58200 30.76800 35.13500
Mg 36.02100 49.22200 24.71800
C  35.99400 47.41800 27.75200
C  33.88900 51.55400 26.14500
C  35.43900 50.58000 21.65800
C  37.68200 46.69500 23.28000
N  34.95400 49.40600 26.70900
C  35.28000 48.63200 27.79700
C  34.84400 49.39000 29.09500
C  33.86600 50.41600 28.53900
C  34.28100 50.50100 27.00800
C  32.37400 50.09900 28.72400
C  36.01400 49.92700 29.89700
C  35.97100 49.91300 31.48400
H  34.71100 49.53200 32.29800
N  34.84600 50.88700 24.00500
C  34.18700 51.84200 24.83100
C  33.85800 53.01600 24.05200
C  34.36500 52.76600 22.74500
C  34.93500 51.37600 22.71800
C  33.34000 54.30600 24.65900
C  34.41000 53.71100 21.50700
O  35.00400 53.46700 20.47900
C  33.72200 55.17500 21.56200
N  36.27700 48.60200 22.71800
C  35.96100 49.28300 21.63300
C  36.60700 48.65700 20.28900
C  37.43000 47.48600 20.91100
C  37.10900 47.55000 22.36200
C  35.50500 48.26200 19.23800
C  38.97700 47.58200 20.54900
C  39.83000 48.60400 21.25000
N  36.79100 47.47600 25.30800
C  37.55100 46.60000 24.66100
C  38.02300 45.57400 25.53700
C  37.44800 45.90200 26.83000
C  36.66000 46.98300 26.60000
C  38.84300 44.40200 25.03700
C  37.37200 45.55300 28.15500
O  38.01600 44.69700 28.78500
C  36.40200 46.44800 28.76600
C  35.25000 45.64500 29.39800
O  34.44400 45.00900 28.74200
O  35.11000 45.86700 30.77700
C  34.07400 45.10500 31.51500
H  33.32200 52.41500 26.50600
H  35.43000 51.01300 20.65600
H  38.46000 46.03100 22.89500
H  34.26600 48.69500 29.70500
H  34.01500 51.41400 28.95200
H  32.04900 49.13200 29.10600
H  31.91200 50.16700 27.73900
H  32.05300 50.88900 29.40300
H  36.03400 51.00200 29.71300
H  36.92400 49.45900 29.52200
H  36.31900 50.78500 32.03700
H  36.72500 49.16400 31.72700
H  32.59700 54.86900 24.09300
H  34.18100 54.99000 24.77700
H  32.96000 54.28500 25.68000
H  32.64500 55.21200 21.72800
H  33.84600 55.76900 20.65700
H  34.26300 55.66800 22.36900
H  37.19100 49.47100 19.85900
H  37.05300 46.52900 20.55100
H  35.66100 48.60700 18.21600
H  34.47500 48.51800 19.49000
H  35.54300 47.17300 19.20100
H  39.06500 47.83500 19.49200
H  39.40100 46.58500 20.66700
H  39.76400 49.58400 20.77800
H  40.86700 48.26800 21.22400
H  39.43300 48.86800 22.23000
H  39.73100 44.58000 24.43100
H  38.22800 43.73400 24.43500
H  39.33000 43.94100 25.89700
H  36.91700 46.97700 29.56800
H  33.10400 45.60200 31.50900
H  34.26900 45.07200 32.58700
H  34.02400 44.04300 31.27600

