158

Mg -2.26200 17.73400 27.38300
C  -3.04600 15.60600 30.09100
C  -2.94400 20.40200 29.49700
C  -2.43700 19.77900 24.70800
C  -2.18200 14.96100 25.32700
N  -2.77500 17.94600 29.54600
C  -2.97900 16.95100 30.44700
C  -3.17600 17.57800 31.86600
C  -3.60800 19.04000 31.56100
C  -3.05800 19.15300 30.13900
C  -5.13600 19.33200 31.56600
C  -1.99900 17.35600 32.89900
C  -1.94200 18.18300 34.23100
H  -1.45400 17.61000 35.54300
N  -2.55400 19.79200 27.14100
C  -2.71700 20.70000 28.12300
C  -2.66300 22.09700 27.60200
C  -2.60700 21.91700 26.21400
C  -2.56400 20.48700 25.95300
C  -2.94200 23.28500 28.41900
C  -2.70200 22.95500 25.13200
O  -2.82900 22.76900 23.93200
C  -2.55900 24.37900 25.57200
N  -2.32200 17.37900 25.24700
C  -2.25300 18.41600 24.40100
C  -2.08300 17.83100 22.99300
C  -1.65100 16.33600 23.20300
C  -2.06500 16.18600 24.68900
C  -3.34800 18.05500 22.16100
C  -0.13000 16.19500 22.94800
C  0.81200 17.06100 23.76900
N  -2.51300 15.64100 27.58000
C  -2.51200 14.64600 26.60200
C  -2.73700 13.41000 27.23500
C  -2.95900 13.78900 28.61200
C  -2.81300 15.13300 28.79400
C  -2.64900 12.02100 26.68800
C  -3.28400 13.23000 29.91900
O  -3.54300 12.09800 30.25900
C  -3.27200 14.41500 30.94200
C  -2.07200 14.14000 31.79000
O  -0.87100 14.03600 31.48400
O  -2.50900 13.89200 33.09100
C  -1.50700 13.32600 34.04500
H  -3.24200 21.27800 30.07700
H  -2.35500 20.43600 23.84000
H  -1.85000 14.19000 24.62800
H  -4.06100 17.07800 32.26000
H  -3.18700 19.84200 32.16700
H  -5.44300 20.05000 32.32600
H  -5.67700 18.38600 31.55100
H  -5.50700 19.94100 30.74200
H  -1.08300 17.63800 32.37900
H  -1.87700 16.29800 33.12700
H  -2.89300 18.69900 34.36100
H  -1.21200 18.98200 34.10200
H  -3.20900 23.12800 29.46400
H  -3.92300 23.57800 28.04400
H  -2.22900 24.10900 28.38900
H  -3.46600 24.69900 26.08600
H  -2.61300 24.98200 24.66600
H  -1.66000 24.70100 26.09600
H  -1.28600 18.40400 22.52000
H  -2.26000 15.78600 22.48600
H  -4.09100 18.63600 22.70700
H  -3.91400 17.12400 22.14400
H  -3.21100 18.43900 21.15000
H  0.08800 16.41500 21.90300
H  0.20300 15.17400 23.13600
H  1.13900 16.51300 24.65300
H  0.32800 17.95900 24.15300
H  1.77800 17.20400 23.28600
H  -3.16300 11.98600 25.72700
H  -3.17000 11.38200 27.40000
H  -1.59500 11.74700 26.63400
H  -4.18900 14.29800 31.51900
H  -0.66200 13.99300 34.21700
H  -1.19300 12.40200 33.56000
H  -2.03500 12.98700 34.93700
Mg 25.47300 1.65400 29.46300
C  27.68400 1.31600 32.37100
C  22.86400 1.70700 31.56100
C  23.59800 2.06400 26.80100
C  28.21500 0.96600 27.52600
N  25.33000 1.41000 31.73400
C  26.30500 1.48000 32.70700
C  25.69600 1.69000 34.05600
C  24.12100 1.59300 33.84900
C  24.10400 1.56100 32.28000
C  23.37800 0.35600 34.45300
C  26.18100 2.87200 34.87300
C  26.76900 2.68700 36.26300
H  26.59300 3.80800 37.31900
N  23.44700 1.93900 29.27700
C  22.50400 1.85500 30.21900
C  21.19900 2.06500 29.76200
C  21.35900 2.20100 28.30300
C  22.85000 2.05300 28.06100
C  19.94800 2.06100 30.66100
C  20.29400 2.31800 27.19500
O  20.55800 2.49800 26.00400
C  18.82900 2.28000 27.65200
N  25.97600 1.72900 27.43100
C  24.96300 2.01800 26.52200
C  25.59000 2.09600 25.08700
C  27.06300 1.61800 25.33100
C  27.09200 1.34000 26.86900
C  24.85700 1.42800 23.86100
C  28.07200 2.68900 24.75300
C  28.29100 3.97700 25.64400
N  27.58600 1.31400 29.82400
C  28.55900 0.91900 28.92600
C  29.81500 0.67300 29.58200
C  29.55000 0.80400 30.93700
C  28.15800 1.20100 31.03600
C  31.15700 0.36600 28.83500
C  30.10700 0.77200 32.19400
O  31.19500 0.47200 32.62400
C  28.94000 1.16000 33.25800
C  28.94100 0.06700 34.18000
O  28.52400 -1.05500 33.92100
O  29.52200 0.43100 35.43500
C  29.35700 -0.65100 36.46000
H  22.14500 1.93400 32.35100
H  22.96800 2.09200 25.90900
H  29.09200 0.68600 26.93800
H  25.95600 0.84900 34.69800
H  23.65900 2.51500 34.20200
H  24.03000 -0.28500 35.04700
H  22.95700 -0.25900 33.65700
H  22.57600 0.75900 35.07100
H  25.55600 3.76400 34.90000
H  27.02700 3.24500 34.29500
H  27.83400 2.75400 36.04000
H  26.64800 1.66900 36.63600
H  20.21900 2.17500 31.71100
H  19.52200 1.06100 30.58800
H  19.20700 2.82400 30.42500
H  18.79000 1.28300 28.09200
H  18.14100 2.38700 26.81300
H  18.60700 3.11300 28.31900
H  25.53800 3.16900 24.90000
H  27.23900 0.68400 24.79600
H  24.00700 0.84900 24.21900
H  25.52900 0.71000 23.39200
H  24.59200 2.14700 23.08600
H  27.68900 3.06800 23.80600
H  28.97000 2.18400 24.39500
H  29.36900 4.11900 25.72200
H  27.80800 3.93200 26.62000
H  27.82900 4.79000 25.08400
H  31.25000 -0.68100 28.54700
H  32.01000 0.43600 29.51000
H  31.35300 0.98600 27.96000
H  29.17100 2.11900 33.72200
H  28.58900 -0.34800 37.17200
H  30.27700 -0.79700 37.02700
H  29.18000 -1.66100 36.09000

