158

Mg 44.65800 3.27700 47.11600
C  42.28500 5.85400 47.02500
C  42.12200 0.93300 47.06200
C  47.00200 0.83600 46.83200
C  47.22200 5.63000 46.74400
N  42.40900 3.46400 47.00700
C  41.63700 4.59700 47.13300
C  40.14400 4.21600 47.14700
C  40.18200 2.57400 47.24800
C  41.64100 2.30400 47.08500
C  39.64800 1.97100 48.55400
C  39.29400 4.69900 45.94100
C  39.88400 4.54600 44.48400
H  38.94700 4.55600 43.25400
N  44.55400 1.17700 46.93700
C  43.40700 0.44000 46.94600
C  43.75400 -0.94800 46.85000
C  45.19200 -1.00700 46.64500
C  45.68500 0.38500 46.84600
C  42.73400 -2.05500 46.88600
C  45.98800 -2.31000 46.41000
O  45.37900 -3.38200 46.42400
C  47.40000 -2.24700 46.10600
N  46.86300 3.25700 46.70500
C  47.61000 2.08800 46.84300
C  49.02900 2.41700 47.18900
C  49.12000 3.93600 46.95000
C  47.68000 4.32300 46.69700
C  49.48400 1.95700 48.60400
C  50.01200 4.51400 45.84000
C  51.19400 3.65700 45.23100
N  44.79100 5.34200 46.94300
C  45.89100 6.22900 46.76100
C  45.34800 7.62700 46.69900
C  43.99500 7.46400 46.93600
C  43.67000 6.09600 46.93700
C  46.14800 8.95700 46.53900
C  42.79200 8.28100 47.04000
O  42.47500 9.45500 46.86000
C  41.58200 7.24400 47.11500
C  40.83100 7.52500 48.36800
O  41.39000 7.77500 49.44600
O  39.50700 7.31700 48.17700
C  38.60900 7.66100 49.23400
H  41.32000 0.19900 47.16100
H  47.79400 0.09200 46.94700
H  47.96000 6.42600 46.86700
H  39.67000 4.58100 48.05800
H  39.55500 2.23000 46.42600
H  38.81100 1.32400 48.29300
H  39.44700 2.90500 49.07900
H  40.41700 1.40700 49.08100
H  39.08800 5.75800 46.09700
H  38.34800 4.18100 46.09300
H  40.38600 3.57900 44.46000
H  40.57300 5.34600 44.21300
H  43.19000 -2.69500 47.64200
H  42.65200 -2.62500 45.96100
H  41.79500 -1.76700 47.35800
H  47.66000 -1.69700 45.20200
H  47.65300 -3.30600 46.04100
H  47.96000 -2.04900 47.01900
H  49.62900 1.92700 46.42200
H  49.33400 4.46400 47.87900
H  49.13000 0.94200 48.78300
H  49.22900 2.63800 49.41600
H  50.56600 2.05700 48.69000
H  50.38900 5.47400 46.19200
H  49.42000 4.76100 44.95900
H  51.40400 2.66300 45.62500
H  52.17300 4.13500 45.25400
H  50.95300 3.51800 44.17700
H  45.87900 9.60600 47.37200
H  46.06000 9.39700 45.54500
H  47.16500 8.59200 46.68300
H  40.86900 7.48000 46.32500
H  37.79600 8.27600 48.84800
H  39.11200 8.10800 50.09100
H  38.17600 6.74200 49.62800
Mg -0.25500 43.28800 24.61100
C  2.02800 42.98700 27.33600
C  -2.73300 42.34800 26.84200
C  -2.33900 43.30800 22.05700
C  2.54400 43.58300 22.42200
N  -0.33500 42.83500 26.87500
C  0.71900 42.82500 27.75000
C  0.28000 42.60300 29.19400
C  -1.27300 42.15100 29.00100
C  -1.49400 42.48300 27.51500
C  -1.66100 40.67400 29.33300
C  0.55400 43.91200 30.05400
C  1.05200 43.63700 31.44100
H  0.80100 42.25400 32.04000
N  -2.27300 43.07600 24.45300
C  -3.05700 42.65400 25.48000
C  -4.38500 42.61700 24.84200
C  -4.40700 42.83200 23.51400
C  -2.92400 43.06500 23.27700
C  -5.56600 42.19500 25.64500
C  -5.54200 42.90400 22.44700
O  -5.35900 43.20800 21.27100
C  -6.92800 42.63800 22.89600
N  0.04600 43.36900 22.55200
C  -0.96400 43.42400 21.68000
C  -0.54900 43.76100 20.19600
C  1.01000 43.91400 20.43000
C  1.21100 43.65700 21.90800
C  -1.05800 42.72700 19.15800
C  1.42100 45.31100 19.90200
C  0.97200 46.51400 20.67700
N  1.85600 43.22100 24.78600
C  2.85400 43.35900 23.80300
C  4.08900 43.38400 24.44400
C  3.85000 43.13000 25.80600
C  2.43800 42.98400 25.97500
C  5.39400 43.46000 23.84400
C  4.48400 42.95700 27.13200
O  5.68100 43.00800 27.46800
C  3.26800 42.97400 28.13700
C  3.49800 41.76300 28.93800
O  2.98800 40.64100 28.71900
O  4.28100 42.17600 30.00000
C  4.65500 41.07200 30.85200
H  -3.50300 42.03500 27.55000
H  -3.03000 43.29500 21.21200
H  3.40800 43.89400 21.83200
H  0.73100 41.66600 29.51900
H  -1.85300 42.93700 29.48300
H  -2.26200 40.70800 30.24200
H  -0.85600 39.99400 29.61300
H  -2.30300 40.24400 28.56500
H  -0.39000 44.45200 30.13500
H  1.17800 44.61000 29.49500
H  0.53500 44.37600 32.05200
H  2.12800 43.78200 31.34400
H  -6.12400 41.44000 25.09200
H  -6.21100 43.06200 25.78700
H  -5.23800 41.82600 26.61700
H  -7.16500 41.57500 22.94300
H  -7.50500 43.10600 22.09900
H  -7.23600 43.23000 23.75800
H  -0.95300 44.75400 20.00400
H  1.55300 43.15700 19.86400
H  -0.22100 42.15400 18.76000
H  -1.52300 43.24900 18.32100
H  -1.75100 41.98900 19.56300
H  1.01200 45.41100 18.89600
H  2.50900 45.33900 19.83800
H  1.85100 46.98700 21.11300
H  0.43400 46.22100 21.57800
H  0.46600 47.23800 20.03900
H  6.05800 43.37600 24.70400
H  5.55500 44.36400 23.25600
H  5.58200 42.70700 23.07800
H  3.30500 43.86800 28.75900
H  5.69200 41.24900 31.13600
H  4.65900 40.03900 30.50400
H  4.05700 41.03100 31.76300

