158

Mg 24.64200 -7.11100 48.67000
C  27.13700 -5.12300 47.05400
C  22.54100 -6.47400 45.91900
C  22.61600 -9.58500 49.69600
C  27.16400 -8.14100 50.94700
N  24.87300 -5.96900 46.72200
C  25.96500 -5.24700 46.32100
C  25.64100 -4.55100 44.96700
C  24.11700 -4.84000 44.61200
C  23.79600 -5.79400 45.84400
C  23.19100 -3.58600 44.59300
C  26.56800 -4.95200 43.80900
C  27.39200 -3.92000 43.09900
H  27.21600 -3.69000 41.64100
N  22.68400 -7.76600 48.14500
C  22.04300 -7.28600 47.03200
C  20.70000 -7.89700 47.05200
C  20.63500 -8.81200 48.19000
C  22.03900 -8.82600 48.68200
C  19.69300 -7.73900 46.00500
C  19.49800 -9.63200 48.79600
O  18.39300 -9.62700 48.30600
C  19.61500 -10.33500 50.10700
N  24.86800 -8.57100 50.17000
C  23.88700 -9.60800 50.33100
C  24.16600 -10.39000 51.63700
C  25.56000 -9.84200 52.12600
C  25.88100 -8.77700 51.06600
C  23.00000 -10.43700 52.70200
C  26.56000 -11.03700 52.31200
C  27.25300 -10.96300 53.66700
N  26.67500 -6.57900 49.11400
C  27.54600 -7.18800 49.95900
C  28.87900 -6.62800 49.83400
C  28.76800 -5.75800 48.72300
C  27.43400 -5.86700 48.27700
C  29.99600 -6.95900 50.76600
C  29.46700 -4.84000 47.86800
O  30.64200 -4.36400 47.98800
C  28.44000 -4.39300 46.73400
C  28.31200 -2.92000 46.97000
O  27.98400 -2.35500 48.03400
O  28.55200 -2.28200 45.79800
C  28.69800 -0.80400 45.88100
H  21.86300 -6.28400 45.08400
H  22.13100 -10.43800 50.17300
H  27.90800 -8.54300 51.63700
H  25.75400 -3.48700 45.17800
H  24.00100 -5.39200 43.67900
H  22.64900 -3.56100 43.64800
H  23.62400 -2.61500 44.83700
H  22.40900 -3.64700 45.35000
H  26.00400 -5.41000 42.99600
H  27.23400 -5.69700 44.24500
H  28.45400 -4.16100 43.07400
H  27.17900 -2.96800 43.58600
H  18.68700 -7.71000 46.42300
H  19.77000 -8.56300 45.29700
H  19.81800 -6.76800 45.52600
H  20.09800 -11.29600 49.92800
H  18.59900 -10.51700 50.45600
H  20.16300 -9.64700 50.75100
H  24.28000 -11.41800 51.29200
H  25.48500 -9.30700 53.07200
H  22.12400 -9.91900 52.31300
H  23.36500 -9.89100 53.57100
H  22.66800 -11.42800 53.01300
H  27.36600 -10.85100 51.60200
H  26.15100 -12.04000 52.18900
H  28.29100 -10.73300 53.42700
H  27.18400 -11.93700 54.15300
H  26.93300 -10.28800 54.46000
H  30.07900 -6.23600 51.57700
H  30.87300 -6.90500 50.12100
H  29.83500 -7.96100 51.16400
H  28.92600 -4.66500 45.79600
H  28.93600 -0.54200 44.85000
H  29.43900 -0.43700 46.59100
H  27.69100 -0.46300 46.12400
Mg 53.56500 24.91400 43.92500
C  50.59200 26.82300 43.19500
C  52.16200 22.28100 42.34400
C  56.51800 23.51000 44.03100
C  54.94800 28.03100 45.14700
N  51.74200 24.76800 42.76000
C  50.66400 25.62100 42.55800
C  49.50600 24.85100 41.94400
C  49.87900 23.41700 42.16200
C  51.37600 23.47600 42.39800
C  49.19400 22.61700 43.35000
C  49.04500 25.32600 40.47900
C  47.60700 24.89000 40.08800
H  47.46100 23.47000 39.56500
N  54.28500 23.07300 43.34100
C  53.49600 22.10800 42.72600
C  54.31700 20.85900 42.71300
C  55.65000 21.12900 43.25300
C  55.53600 22.62800 43.53500
C  53.72200 19.73500 42.02400
C  56.73400 20.17400 43.51400
O  56.52300 18.98400 43.25100
C  58.11500 20.51000 44.11400
N  55.48900 25.68500 44.49900
C  56.52200 24.89100 44.39100
C  57.75100 25.51700 45.14000
C  57.34800 27.02900 45.37400
C  55.90800 26.96800 44.93600
C  58.18000 24.75200 46.41400
C  58.17700 28.13900 44.63800
C  58.22300 28.30000 43.10100
N  52.98200 26.98000 44.18800
C  53.55900 28.00800 44.84600
C  52.62200 28.99300 45.19800
C  51.48900 28.63300 44.53000
C  51.69600 27.38300 43.88100
C  52.91700 30.25200 45.97600
C  50.14700 29.00000 44.23300
O  49.49100 29.97700 44.52800
C  49.48500 27.81500 43.44400
C  48.79800 28.26100 42.22400
O  49.35800 28.61900 41.20200
O  47.42000 28.27600 42.38900
C  46.73200 28.60200 41.13900
H  51.66300 21.36300 42.03000
H  57.51800 23.15500 44.28900
H  55.33600 28.97400 45.53700
H  48.57300 24.94900 42.50000
H  49.66700 22.93300 41.20900
H  48.47400 23.27500 43.83700
H  49.94400 22.37600 44.10300
H  48.71600 21.75000 42.89500
H  49.74200 24.84100 39.79500
H  49.16900 26.38000 40.23400
H  47.20600 25.56600 39.33200
H  47.14400 25.03100 41.06500
H  54.35400 18.84700 41.98500
H  53.45600 19.89200 40.97800
H  52.75100 19.52700 42.47300
H  58.74000 21.16000 43.50100
H  58.75200 19.62600 44.10600
H  58.09400 21.09000 45.03600
H  58.60100 25.51200 44.45800
H  57.49700 27.19900 46.44000
H  57.35300 24.27200 46.93800
H  58.71800 25.43000 47.07700
H  58.88100 23.96300 46.14200
H  59.20900 27.96600 44.94300
H  57.86900 29.07800 45.09900
H  57.60100 29.11100 42.72100
H  57.82600 27.41600 42.60200
H  59.24800 28.48900 42.78300
H  52.03900 30.68400 46.45600
H  53.45100 31.07900 45.50800
H  53.59100 30.08900 46.81700
H  48.66900 27.30400 43.95500
H  46.70500 27.68100 40.55600
H  47.15900 29.31000 40.42900
H  45.68800 28.86700 41.30800

