158

Mg 2.07900 -1.85400 44.06900
C  5.52300 -1.04500 43.72800
C  1.37100 1.11100 42.34000
C  -1.18700 -2.97900 43.56500
C  2.88800 -4.99800 45.24600
N  3.31600 -0.29500 42.95000
C  4.70100 -0.10000 42.99700
C  5.16100 1.16200 42.29500
C  3.78700 1.91900 42.21300
C  2.71600 0.84700 42.49300
C  3.61500 3.10900 43.16900
C  5.78900 0.79800 40.88800
C  7.12400 1.50000 40.60000
H  7.18300 2.48700 39.41600
N  0.33200 -1.04200 43.11700
C  0.22200 0.24500 42.57000
C  -1.18200 0.47000 42.21400
C  -1.90400 -0.65300 42.71100
C  -0.91300 -1.62900 43.09200
C  -1.56600 1.71600 41.54300
C  -3.35400 -0.69700 42.75200
O  -4.06600 0.14000 42.26500
C  -4.10600 -1.75300 43.58800
N  0.96800 -3.81400 44.32100
C  -0.35700 -3.90300 44.15100
C  -0.81100 -5.27100 44.66900
C  0.48400 -5.96500 45.14700
C  1.55300 -4.86800 44.88900
C  -1.95900 -5.20000 45.70500
C  0.79200 -7.33100 44.52200
C  1.20600 -8.55100 45.38100
N  3.77700 -2.84900 44.54100
C  3.93000 -4.05200 45.11700
C  5.34300 -4.19100 45.40600
C  5.99200 -3.06700 44.89200
C  5.00700 -2.23200 44.38500
C  5.95300 -5.40300 46.05300
C  7.31600 -2.39400 44.64700
O  8.41300 -2.74400 44.96000
C  7.02700 -0.98700 44.00700
C  7.35500 0.00700 45.08300
O  7.02900 -0.06700 46.28600
O  7.89400 1.13000 44.52800
C  8.03000 2.26800 45.42100
H  1.14600 1.96600 41.69900
H  -2.19100 -3.39700 43.46500
H  3.05900 -5.91600 45.81200
H  5.77100 1.63700 43.06300
H  3.52100 2.30900 41.23000
H  2.65400 3.07100 43.68200
H  3.70100 3.98400 42.52500
H  4.37900 3.00600 43.93900
H  5.00500 1.12700 40.20700
H  5.84100 -0.28300 40.75400
H  7.73200 0.61800 40.40000
H  7.59000 1.94400 41.48000
H  -2.48600 1.50400 40.99800
H  -0.99500 2.02800 40.66900
H  -1.81600 2.57700 42.16400
H  -5.00000 -1.21800 43.90700
H  -3.55300 -1.87700 44.51900
H  -4.35600 -2.61000 42.96200
H  -1.24000 -5.85400 43.85400
H  0.50200 -6.06900 46.23200
H  -2.02300 -4.14400 45.97000
H  -1.81700 -5.87100 46.55100
H  -2.88700 -5.42000 45.17600
H  1.53800 -7.19300 43.73800
H  -0.11700 -7.59700 43.98300
H  0.55100 -9.39800 45.17700
H  1.17500 -8.31000 46.44400
H  2.20000 -8.93100 45.14600
H  5.61900 -6.26400 45.47400
H  5.60200 -5.44200 47.08400
H  7.02300 -5.19200 46.05900
H  7.62700 -0.80200 43.11600
H  7.40100 2.31900 46.31000
H  7.70300 3.11400 44.81600
H  9.06800 2.40200 45.72600
Mg 26.30600 50.61700 26.80000
C  24.17900 51.97300 29.32600
C  28.45300 49.65600 29.18700
C  28.36800 49.39500 24.29800
C  24.25500 52.16700 24.41100
N  26.22900 50.74200 28.96800
C  25.33800 51.41400 29.81000
C  25.56300 51.09200 31.31600
C  27.09800 50.56900 31.15700
C  27.28400 50.28600 29.69900
C  28.06400 51.51600 31.85100
C  24.58300 50.01000 31.95300
C  24.63400 49.58400 33.45700
H  25.57900 50.40100 34.38600
N  28.07200 49.61300 26.76200
C  28.83500 49.29800 27.88000
C  30.03100 48.64500 27.58000
C  30.02800 48.58300 26.20800
C  28.78400 49.20400 25.63200
C  31.08600 48.13900 28.55800
C  31.03800 47.94900 25.26800
O  30.90400 47.75300 24.05600
C  32.38200 47.64300 25.80800
N  26.25900 50.75800 24.64000
C  27.18100 50.11300 23.90400
C  26.76300 50.26900 22.43400
C  25.36100 51.00600 22.43100
C  25.27500 51.35600 23.89700
C  27.81400 51.03700 21.57200
C  24.21300 50.03100 22.06600
C  24.04400 49.46100 20.65100
N  24.60600 51.82900 26.82600
C  23.91700 52.44600 25.75200
C  22.71100 52.95700 26.21900
C  22.76500 52.83100 27.61800
C  23.95800 52.14000 27.88900
C  21.64600 53.56100 25.38100
C  22.03900 53.06800 28.82100
O  21.08100 53.75800 29.08700
C  22.91500 52.42900 30.01500
C  23.25600 53.45400 30.98500
O  24.13600 54.29500 30.88400
O  22.48500 53.29000 32.12700
C  22.79900 54.21200 33.25900
H  29.13700 49.46600 30.01700
H  29.02600 49.01900 23.51200
H  23.71300 52.48900 23.52000
H  25.42800 52.02900 31.85700
H  27.18700 49.58800 31.62200
H  27.55700 52.37300 32.29600
H  28.76700 51.79200 31.06500
H  28.60100 50.92700 32.59400
H  24.79000 49.10100 31.38800
H  23.57600 50.31900 31.67100
H  24.99200 48.55500 33.48900
H  23.63200 49.71200 33.86600
H  31.95400 48.79100 28.65600
H  31.45200 47.13600 28.33900
H  30.81600 48.03300 29.60800
H  32.86700 48.46900 26.33000
H  32.86800 47.67300 24.83200
H  32.35500 46.68400 26.32400
H  26.82300 49.28300 21.97400
H  25.33600 51.93800 21.86700
H  28.73800 50.82400 22.10900
H  27.61500 52.10800 21.61400
H  27.80400 50.75500 20.51900
H  23.21000 50.45000 22.14300
H  24.36800 49.11800 22.64100
H  23.16900 49.86900 20.14400
H  23.90100 48.39300 20.81700
H  24.97600 49.51300 20.08700
H  22.03200 53.62600 24.36400
H  21.40000 54.50300 25.87100
H  20.78400 52.89600 25.44100
H  22.35800 51.62100 30.48900
H  22.14400 53.76500 34.00700
H  22.33000 55.13800 32.92600
H  23.84100 54.40900 33.51000

