158

Mg 17.20100 -2.25900 27.47900
C  16.54900 -0.00500 30.19100
C  19.13500 -4.09600 29.54400
C  18.51800 -3.77100 24.71700
C  15.70700 0.19900 25.36400
N  17.83600 -2.00700 29.58000
C  17.37200 -1.12000 30.58800
C  17.97400 -1.38000 31.98700
C  18.94900 -2.60200 31.64000
C  18.66200 -2.91200 30.16500
C  20.53700 -2.47600 31.88600
C  16.93100 -1.65400 33.07500
C  17.38200 -1.29500 34.47500
H  18.90200 -1.44700 34.81900
N  18.51200 -3.84200 27.16900
C  19.17500 -4.53800 28.16400
C  19.98900 -5.53900 27.57500
C  19.72600 -5.53000 26.16300
C  18.86400 -4.37700 25.96200
C  20.82100 -6.48100 28.43400
C  20.08400 -6.48700 25.06500
O  19.94700 -6.26500 23.85600
C  20.84500 -7.68100 25.37900
N  16.99200 -1.92100 25.44200
C  17.68700 -2.63600 24.46700
C  17.48100 -2.02300 23.01000
C  16.38900 -0.94800 23.32800
C  16.25700 -0.92500 24.79400
C  18.79000 -1.53600 22.28500
C  15.05300 -1.19700 22.67100
C  14.42800 0.02300 21.99800
N  16.28000 -0.34400 27.64200
C  15.64600 0.51700 26.71900
C  15.04100 1.65200 27.38900
C  15.30600 1.48700 28.73200
C  16.11500 0.28200 28.86100
C  14.03100 2.60700 26.70100
C  15.06600 2.02200 30.01200
O  14.31800 2.95900 30.35600
C  15.86500 1.04500 31.02500
C  16.75600 1.83800 31.93900
O  17.90400 2.17500 31.67600
O  16.09300 2.07600 33.14700
C  16.79700 2.96900 34.08900
H  19.72400 -4.70900 30.22900
H  19.13800 -4.11700 23.88700
H  15.16900 0.88000 24.70100
H  18.55100 -0.49400 32.25300
H  18.64200 -3.39500 32.32200
H  21.05600 -3.39700 32.15000
H  20.72300 -1.69600 32.62500
H  20.90100 -2.18500 30.90000
H  16.76000 -2.73000 33.03900
H  15.95700 -1.21400 32.86400
H  16.90600 -2.06900 35.07800
H  16.97000 -0.36500 34.86700
H  21.27900 -5.89300 29.23000
H  21.63100 -7.00900 27.93100
H  20.25800 -7.18300 29.05000
H  20.24300 -8.24600 26.09100
H  21.76700 -7.28400 25.80300
H  21.16900 -8.39300 24.62000
H  17.04500 -2.80300 22.38500
H  16.69400 0.04600 23.00100
H  18.57800 -0.56600 21.83500
H  18.98900 -2.25000 21.48500
H  19.67300 -1.43100 22.91500
H  14.31800 -1.50600 23.41400
H  15.00300 -1.99400 21.93000
H  13.72300 -0.32400 21.24200
H  15.18900 0.62800 21.50400
H  13.91800 0.65500 22.72500
H  14.36300 2.97000 25.72900
H  14.10000 3.47300 27.36000
H  13.03700 2.17300 26.58800
H  15.10400 0.60200 31.66800
H  17.70000 2.58700 34.56400
H  16.07700 3.17200 34.88200
H  16.96700 3.88600 33.52400
Mg 47.23100 25.43400 28.22200
C  47.83100 27.43700 31.04200
C  46.55200 22.82800 30.34000
C  47.35400 23.50800 25.77100
C  48.13100 28.21400 26.24800
N  47.14900 25.23600 30.43900
C  47.44800 26.16900 31.38600
C  47.08500 25.66200 32.73300
C  46.77700 24.09400 32.52000
C  46.79600 24.05800 30.96700
C  47.71800 23.07600 33.28900
C  45.97500 26.42800 33.55100
C  46.33200 26.76700 34.99100
H  45.19200 26.79200 36.00600
N  46.81500 23.48300 28.02900
C  46.51600 22.52200 29.01400
C  46.06200 21.33900 28.45900
C  46.32700 21.50100 27.09900
C  46.84400 22.86900 26.89000
C  45.49100 20.20700 29.24100
C  46.18300 20.51100 25.95700
O  46.53900 20.78900 24.81000
C  45.52300 19.17500 26.28600
N  47.74900 25.77600 26.27600
C  47.66800 24.77100 25.38700
C  48.02300 25.15900 24.01800
C  47.99300 26.71800 24.15500
C  47.98000 26.95300 25.65800
C  49.39400 24.56200 23.58000
C  46.88700 27.53600 23.46600
C  47.44700 28.89200 23.00200
N  47.85400 27.41400 28.52800
C  48.12400 28.45200 27.64800
C  48.62300 29.57000 28.32500
C  48.47800 29.26500 29.67000
C  48.07800 27.95100 29.75400
C  49.12500 30.83300 27.76800
C  48.70200 29.77900 30.95300
O  49.10700 30.87200 31.32500
C  48.23300 28.58100 31.94100
C  49.30400 28.28400 32.89200
O  50.21600 27.48400 32.75500
O  49.02400 28.93200 34.08000
C  49.75200 28.44900 35.28100
H  46.28400 22.03800 31.04500
H  47.59200 22.72600 25.04700
H  48.31900 29.06100 25.58500
H  48.07000 25.69400 33.19900
H  45.75600 23.91500 32.85800
H  48.26700 22.52400 32.52600
H  46.94000 22.50100 33.79000
H  48.42300 23.56000 33.96600
H  45.06500 25.82900 33.59500
H  45.68000 27.39500 33.14500
H  46.97900 27.64400 35.00600
H  46.97600 25.95800 35.33600
H  44.54900 19.83400 28.83900
H  45.28500 20.43600 30.28600
H  46.20300 19.38300 29.29700
H  46.30200 18.90600 26.99900
H  45.54000 18.66000 25.32500
H  44.54100 19.44100 26.67800
H  47.23300 24.82000 23.34800
H  48.94000 27.14200 23.82100
H  49.92400 24.10000 24.41300
H  50.05300 25.26300 23.06800
H  49.22100 23.74700 22.87700
H  46.14100 27.73000 24.23600
H  46.33800 27.02100 22.67900
H  48.44800 29.17300 23.32900
H  46.81900 29.66100 23.45200
H  47.26900 29.04000 21.93700
H  49.16200 30.85800 26.67800
H  50.17700 30.94400 28.03100
H  48.67000 31.71600 28.21700
H  47.45000 29.07100 32.52000
H  50.15600 27.45700 35.08000
H  49.01300 28.47800 36.08200
H  50.58600 29.14300 35.38800

