158

Mg 41.00500 8.56600 29.92000
C  42.92900 9.75500 32.53300
C  38.76000 7.36000 31.85500
C  39.40400 7.41200 26.99400
C  43.65600 9.74900 27.66900
N  41.00000 8.36000 32.02000
C  41.75700 9.04400 32.96800
C  41.07300 8.98600 34.30000
C  39.78100 8.11200 34.05900
C  39.82000 7.89100 32.57200
C  39.70300 6.77700 34.82300
C  40.66900 10.44900 34.75900
C  40.32400 10.62900 36.23200
H  41.12000 11.57800 37.07300
N  39.31600 7.47200 29.52500
C  38.49000 7.06800 30.55600
C  37.43000 6.27600 29.95700
C  37.64700 6.27500 28.49900
C  38.83900 7.03600 28.29500
C  36.40300 5.58200 30.80300
C  36.86200 5.54600 27.42300
O  36.93400 5.75200 26.18500
C  35.86000 4.50900 27.82300
N  41.49500 8.58100 27.71300
C  40.62700 8.13600 26.73000
C  41.03100 8.31900 25.31700
C  42.35700 9.08900 25.53900
C  42.50800 9.22900 27.09900
C  41.27800 6.99800 24.49700
C  42.44300 10.47800 24.81500
C  41.65500 11.65900 25.47700
N  43.03600 9.38200 30.04900
C  43.92300 9.90600 29.08700
C  45.03000 10.51500 29.81100
C  44.61900 10.49900 31.13600
C  43.43000 9.75100 31.27600
C  46.24000 11.02200 29.11500
C  44.96000 10.99500 32.48000
O  45.93800 11.57400 32.84200
C  43.78700 10.56900 33.45400
C  44.42400 9.69000 34.56200
O  45.16400 8.71800 34.43300
O  44.14600 10.24400 35.75400
C  44.37400 9.38800 36.88800
H  37.97400 6.94800 32.49100
H  38.91400 7.17900 26.04600
H  44.35800 10.21500 26.97500
H  41.71600 8.47700 35.01800
H  38.87700 8.67800 34.28300
H  38.92700 6.86000 35.58400
H  40.57200 6.57100 35.44800
H  39.70000 5.90600 34.16800
H  39.77700 10.78100 34.22800
H  41.52400 11.11200 34.62400
H  40.35500 9.66300 36.73600
H  39.30600 11.01600 36.28700
H  35.37800 5.78900 30.49500
H  36.53800 5.87300 31.84500
H  36.66000 4.52300 30.83000
H  34.97700 5.02900 28.19600
H  36.30000 3.92500 28.63100
H  35.62500 3.90800 26.94500
H  40.22100 8.82700 24.79400
H  43.18400 8.46900 25.19200
H  41.52100 6.18100 25.17600
H  41.99200 7.25000 23.71200
H  40.36500 6.78300 23.94200
H  42.09800 10.25700 23.80500
H  43.48900 10.77200 24.73000
H  42.28400 12.46000 25.86500
H  41.06800 11.30600 26.32500
H  41.04900 12.20100 24.75100
H  46.46900 10.46400 28.20700
H  47.00600 10.77800 29.85200
H  46.26300 12.05900 28.78100
H  43.34900 11.53500 33.70500
H  44.19300 8.32800 36.71100
H  43.76800 9.71000 37.73500
H  45.43300 9.53900 37.09700
Mg -2.86300 34.87900 26.65300
C  -4.42800 32.87600 28.92900
C  -1.85400 37.02600 29.28400
C  -1.65500 37.04900 24.37400
C  -4.38800 32.99200 24.02600
N  -3.37200 35.06700 28.87900
C  -3.73700 33.94500 29.57100
C  -3.50700 34.16100 31.08600
C  -2.66900 35.46500 31.15100
C  -2.71700 35.95700 29.70900
C  -3.14700 36.54600 32.13700
C  -3.03400 32.97100 31.95100
C  -1.95400 33.12400 33.02100
H  -2.15900 32.28800 34.35200
N  -1.90000 36.71400 26.81800
C  -1.55600 37.39900 27.96300
C  -0.78200 38.57700 27.57400
C  -0.70500 38.55100 26.15500
C  -1.45700 37.40000 25.72000
C  -0.28300 39.59100 28.53600
C  -0.06700 39.55800 25.16100
O  -0.08300 39.52800 23.91600
C  0.94200 40.46800 25.69900
N  -3.25200 35.19100 24.40300
C  -2.46000 36.07900 23.74400
C  -2.68600 35.93600 22.20800
C  -3.33700 34.50400 22.11700
C  -3.73500 34.22000 23.60500
C  -3.68000 36.92700 21.65100
C  -2.37600 33.44600 21.47300
C  -0.85800 33.52500 21.76000
N  -4.26700 33.29800 26.51900
C  -4.72100 32.57500 25.37900
C  -5.40000 31.41500 25.87200
C  -5.41700 31.48100 27.25800
C  -4.61500 32.64400 27.56700
C  -6.12800 30.41000 25.03000
C  -5.81000 30.86900 28.53500
O  -6.44900 29.86600 28.79400
C  -5.29400 31.83700 29.66900
C  -6.41700 32.36400 30.45900
O  -7.30800 33.05300 30.02300
O  -6.30700 31.93400 31.79800
C  -7.28000 32.08800 32.87800
H  -1.29300 37.57400 30.04400
H  -1.34600 37.75200 23.59700
H  -4.62600 32.26900 23.24300
H  -4.48800 34.36900 31.51300
H  -1.61500 35.23600 31.30800
H  -2.56800 37.46900 32.11900
H  -3.04800 36.05800 33.10600
H  -4.18300 36.78100 31.89200
H  -2.58500 32.24900 31.26800
H  -3.92500 32.53500 32.40300
H  -1.98900 34.14200 33.40900
H  -0.98500 32.98600 32.54200
H  0.80200 39.69700 28.56400
H  -0.57600 39.42300 29.57200
H  -0.67700 40.54900 28.19500
H  0.35600 41.18300 26.27700
H  1.38900 40.95400 24.83200
H  1.59700 39.80000 26.25900
H  -1.75300 36.10100 21.66900
H  -4.26500 34.50400 21.54500
H  -4.50500 36.64200 20.99700
H  -3.06400 37.61900 21.07600
H  -4.12900 37.51300 22.45300
H  -2.43400 33.57000 20.39200
H  -2.76900 32.47200 21.76400
H  -0.76700 34.06600 22.70200
H  -0.40600 34.19500 21.02800
H  -0.35100 32.57000 21.62300
H  -6.35600 29.62500 25.75100
H  -5.42700 29.92300 24.35200
H  -6.96100 30.82400 24.46300
H  -4.64500 31.33200 30.38300
H  -6.80900 32.64500 33.68700
H  -7.70500 31.14000 33.20900
H  -7.99400 32.85100 32.56800

