158

Mg 46.46000 24.20800 28.50400
C  46.89900 26.47500 31.03600
C  45.16400 21.94800 30.79400
C  46.61900 21.69700 26.11600
C  48.02400 26.37500 26.28900
N  46.06600 24.26800 30.64200
C  46.27300 25.33300 31.43200
C  45.71900 25.08600 32.80900
C  45.40400 23.53100 32.80200
C  45.54700 23.24800 31.31900
C  46.30700 22.63800 33.73200
C  44.49300 25.99000 33.29100
C  44.71500 26.76100 34.66600
H  43.88600 26.39600 35.91600
N  45.84400 22.20100 28.41600
C  45.36100 21.46100 29.50600
C  44.96800 20.10600 29.06100
C  45.45000 20.04800 27.73300
C  46.02100 21.39600 27.32600
C  44.21400 19.14100 29.88600
C  45.27400 18.83800 26.73700
O  45.55100 18.96700 25.53500
C  44.71500 17.47300 27.20800
N  47.24200 23.97200 26.50700
C  47.15000 22.87600 25.70300
C  47.90100 23.04000 24.35700
C  48.13400 24.63200 24.37000
C  47.69500 25.07600 25.77000
C  49.26700 22.11900 24.30700
C  47.48100 25.39500 23.28500
C  45.94100 25.63900 23.33400
N  47.30000 26.09900 28.56200
C  47.77800 26.91900 27.56500
C  48.15400 28.25300 28.12900
C  47.84800 28.07000 29.51100
C  47.33800 26.77200 29.70700
C  48.67000 29.44900 27.43000
C  47.84300 28.67600 30.75400
O  48.27000 29.79900 31.05300
C  47.20300 27.67200 31.79800
C  48.37600 27.45400 32.76700
O  49.54000 27.19300 32.40600
O  47.95600 27.38300 34.01700
C  48.99000 27.12900 35.05600
H  44.75500 21.23600 31.51300
H  46.89500 20.90800 25.41300
H  48.57300 27.04900 25.62800
H  46.48300 25.31300 33.55400
H  44.40000 23.28200 33.14600
H  46.88700 23.30200 34.37200
H  46.88600 21.92800 33.14100
H  45.68700 21.98900 34.35000
H  43.63900 25.33400 33.45600
H  44.30300 26.77600 32.56000
H  44.62500 27.84300 34.57600
H  45.76800 26.66400 34.93000
H  44.84200 18.25400 29.97400
H  43.28900 18.88900 29.36700
H  43.85600 19.52000 30.84300
H  44.95300 16.77800 26.40200
H  43.63400 17.57200 27.10700
H  44.87500 17.12200 28.22700
H  47.28600 22.68100 23.53200
H  49.20500 24.76000 24.20900
H  49.21600 21.36100 25.08800
H  50.14200 22.75100 24.46300
H  49.21400 21.61000 23.34500
H  47.68500 24.81900 22.38200
H  48.03400 26.33200 23.22000
H  45.82300 26.69900 23.56100
H  45.39500 25.18800 24.16300
H  45.38600 25.37700 22.43400
H  47.90900 30.22000 27.31000
H  49.20400 29.20700 26.51100
H  49.29500 29.94800 28.17100
H  46.34400 28.14800 32.27100
H  49.47600 26.17700 34.84000
H  48.36300 27.12100 35.94700
H  49.73900 27.91800 35.13000
Mg -2.37600 34.13500 26.71600
C  -3.49700 32.38900 29.71600
C  -0.79600 36.32000 28.73400
C  -2.22200 36.12400 24.06000
C  -4.26700 31.75600 24.94400
N  -2.25900 34.36300 29.01000
C  -2.59000 33.46600 29.98000
C  -2.01100 33.86300 31.38200
C  -1.35800 35.23900 31.07600
C  -1.39700 35.29900 29.51400
C  -1.81100 36.52000 31.80600
C  -1.06700 32.79900 32.03800
C  -1.54000 32.23100 33.38400
H  -0.62400 32.41800 34.60300
N  -1.51200 35.92100 26.39900
C  -0.89400 36.63800 27.35100
C  -0.43200 37.86900 26.74800
C  -0.86200 37.94000 25.38600
C  -1.59500 36.62900 25.23000
C  0.44600 38.89700 27.46800
C  -0.59500 39.10600 24.33000
O  -1.05200 39.06200 23.17200
C  0.19100 40.33800 24.71700
N  -3.11400 33.95700 24.78600
C  -2.85800 34.91700 23.81700
C  -3.34500 34.49400 22.43900
C  -3.89700 33.02600 22.79200
C  -3.75800 32.86100 24.31000
C  -4.32500 35.52300 21.91200
C  -3.16400 31.83300 22.08300
C  -3.89000 31.08400 20.97900
N  -3.67500 32.46600 27.17300
C  -4.31900 31.55200 26.31100
C  -5.01900 30.52300 27.06600
C  -4.73500 30.81400 28.40700
C  -3.94200 32.00600 28.41500
C  -5.67100 29.31300 26.49500
C  -4.91200 30.35000 29.68100
O  -5.46600 29.36700 30.15500
C  -4.08200 31.30000 30.62500
C  -5.06600 31.79600 31.67700
O  -6.00300 32.58500 31.45200
O  -4.86700 31.23700 32.91000
C  -5.69700 31.60200 34.03800
H  -0.15600 36.93300 29.37100
H  -2.16400 36.89200 23.28700
H  -4.77800 30.96200 24.39600
H  -2.93200 34.05900 31.93100
H  -0.31200 35.20400 31.37900
H  -2.59400 36.17900 32.48400
H  -2.15300 37.20800 31.03300
H  -1.09200 37.02900 32.44800
H  -0.06300 33.17800 32.22800
H  -1.02200 32.02300 31.27400
H  -1.69900 31.15600 33.29900
H  -2.53600 32.65400 33.51800
H  1.50900 38.89000 27.22600
H  0.37000 38.82500 28.55300
H  0.02400 39.88600 27.28500
H  -0.42800 41.02500 25.29400
H  0.56100 40.71200 23.76200
H  1.05700 40.19000 25.36200
H  -2.51900 34.37800 21.73700
H  -4.97000 32.97800 22.61100
H  -5.33300 35.19300 22.16600
H  -4.15500 35.64600 20.84200
H  -4.18500 36.52500 22.31600
H  -3.04800 31.05200 22.83500
H  -2.15000 32.10400 21.79100
H  -4.20000 30.12800 21.40000
H  -3.18900 30.88700 20.16700
H  -4.80700 31.58300 20.66800
H  -5.38300 29.03000 25.48200
H  -6.74800 29.47000 26.44900
H  -5.46000 28.62500 27.31400
H  -3.25800 30.81200 31.14500
H  -5.23900 32.50000 34.45200
H  -5.68400 30.78300 34.75700
H  -6.71500 31.89600 33.78200

