158

Mg 44.39600 4.89800 46.77700
C  42.43600 7.65700 47.02700
C  41.50400 3.07800 46.09300
C  46.22500 2.09000 45.97700
C  47.23800 6.84600 46.54300
N  42.21700 5.38600 46.72500
C  41.71100 6.59200 46.79000
C  40.16400 6.60600 46.64400
C  39.87800 5.07700 46.25500
C  41.27400 4.43300 46.43800
C  38.72100 4.54400 47.17500
C  39.59000 7.56600 45.50400
C  40.37300 7.82500 44.17000
H  39.81000 7.14800 42.89600
N  43.95900 2.82500 46.30900
C  42.69000 2.30600 46.02500
C  42.74600 0.91000 45.63400
C  44.12700 0.56400 45.56800
C  44.87100 1.84500 45.99800
C  41.54100 0.05500 45.42200
C  44.67700 -0.82400 45.29400
O  43.88300 -1.69700 45.08500
C  46.10200 -1.23100 45.22500
N  46.44900 4.49000 46.33400
C  46.96000 3.28300 46.10800
C  48.49600 3.35500 46.10800
C  48.79500 4.82700 46.49700
C  47.43900 5.44200 46.51300
C  49.09700 2.27800 47.04400
C  49.78200 5.60900 45.48000
C  51.28800 5.16300 45.53700
N  44.87600 6.90500 46.84200
C  46.03800 7.56000 46.73700
C  45.85400 8.97400 46.90300
C  44.44100 9.11200 47.05800
C  43.91000 7.79700 47.03000
C  46.81300 10.03600 46.91200
C  43.31000 10.02000 47.30000
O  43.28700 11.23000 47.67800
C  42.01000 9.12400 47.25000
C  41.18500 9.24800 48.42600
O  41.11600 8.43800 49.37900
O  40.38000 10.35400 48.32300
C  39.47800 10.72600 49.42700
H  40.56200 2.61600 45.79100
H  46.83900 1.21500 45.75700
H  48.08500 7.51900 46.69100
H  39.69000 6.86300 47.59100
H  39.55000 5.04900 45.21600
H  38.12900 5.42200 47.43700
H  39.14800 4.10200 48.07500
H  38.21200 3.83100 46.52700
H  39.49700 8.58500 45.87800
H  38.59200 7.20800 45.25300
H  41.37600 7.42600 44.31900
H  40.35200 8.91400 44.15000
H  41.53400 -0.01000 44.33400
H  40.55400 0.40100 45.72800
H  41.67900 -0.94400 45.83600
H  46.25900 -2.27000 44.93400
H  46.51200 -1.14300 46.23100
H  46.62400 -0.57200 44.53100
H  48.80000 3.02900 45.11300
H  49.15300 4.86800 47.52600
H  50.17900 2.27700 46.91200
H  48.74300 1.30100 46.71600
H  48.75400 2.27800 48.07900
H  49.70900 6.67300 45.70600
H  49.43300 5.44800 44.46000
H  51.79000 5.08000 44.57300
H  51.49800 4.27600 46.13500
H  51.84300 5.93200 46.07500
H  46.82600 10.57100 47.86100
H  46.49900 10.78700 46.18700
H  47.87200 9.91100 46.68600
H  41.43300 9.56900 46.43900
H  40.17200 11.15100 50.15100
H  38.90800 9.84100 49.70900
H  38.90400 11.61200 49.15400
Mg 1.58000 41.77600 25.54000
C  3.69300 41.83300 28.31500
C  -1.09000 41.12300 27.48500
C  -0.04700 41.06000 22.68200
C  4.53700 42.40300 23.60900
N  1.37500 41.59000 27.64100
C  2.35100 41.59700 28.66400
C  1.75100 41.57000 30.10800
C  0.27400 41.14700 29.76400
C  0.13400 41.42300 28.23200
C  -0.23500 39.64800 30.17400
C  1.99600 42.92500 30.76800
C  2.10400 42.85900 32.31700
H  0.73100 43.00600 32.97300
N  -0.32000 41.28300 25.10800
C  -1.25800 41.07600 26.08100
C  -2.51300 40.67700 25.42500
C  -2.29500 40.65100 24.03800
C  -0.84200 40.94500 23.84800
C  -3.81400 40.37600 26.19000
C  -3.28200 40.27200 22.93300
O  -2.77500 40.14500 21.83300
C  -4.72100 40.06000 23.14700
N  2.09100 41.88100 23.42600
C  1.30000 41.38100 22.51800
C  2.02300 41.54200 21.15000
C  3.32300 42.31400 21.42500
C  3.36500 42.14300 22.86300
C  2.35700 40.11200 20.65100
C  3.20600 43.75800 21.03900
C  4.25400 44.44000 20.16400
N  3.64500 41.95300 25.81900
C  4.69800 42.27600 24.96500
C  5.97300 42.35200 25.65900
C  5.61800 42.12200 26.96700
C  4.21200 42.04900 27.01400
C  7.35000 42.63600 25.14500
C  6.11200 41.98900 28.33800
O  7.29000 41.86600 28.70800
C  4.86500 41.86000 29.31300
C  5.04900 40.67800 30.28900
O  4.86000 39.52500 30.04500
O  5.52800 41.17400 31.51300
C  5.33000 40.30000 32.69600
H  -1.95300 40.96400 28.13400
H  -0.56100 40.70400 21.78600
H  5.46900 42.59100 23.07200
H  2.28800 40.91500 30.79400
H  -0.37600 41.80800 30.33800
H  -0.92700 39.72300 31.01300
H  0.54800 38.95100 30.47200
H  -0.85100 39.25100 29.36600
H  1.10100 43.51900 30.58300
H  2.89300 43.44700 30.43400
H  2.78300 43.65000 32.63200
H  2.51200 41.88100 32.57200
H  -4.52900 41.13000 25.86300
H  -3.60100 40.43400 27.25800
H  -4.11900 39.36000 25.94000
H  -5.07100 41.06200 23.39600
H  -4.91500 39.27400 23.87700
H  -5.11400 39.73500 22.18400
H  1.39100 42.05200 20.42300
H  4.02500 41.77800 20.78600
H  2.99900 39.57500 21.34900
H  2.95200 40.21600 19.74400
H  1.56200 39.46500 20.27900
H  3.11500 44.40800 21.90900
H  2.19700 43.88000 20.64500
H  5.02700 43.73900 19.84900
H  4.62800 45.34400 20.64600
H  3.76700 44.82800 19.27000
H  7.38500 42.65100 24.05600
H  7.95300 41.93200 25.71900
H  7.63600 43.58500 25.59800
H  4.76900 42.81300 29.83500
H  4.66900 40.83300 33.37900
H  6.33500 40.20900 33.10900
H  4.90800 39.29600 32.65600

