158

Mg 42.70200 41.30800 26.19000
C  41.61700 43.74300 28.58600
C  43.69500 39.35600 28.72400
C  43.89500 39.17400 23.82800
C  42.38300 43.88700 23.83300
N  42.82100 41.59900 28.47000
C  42.18700 42.61800 29.22800
C  42.09200 42.22400 30.73200
C  42.79200 40.82800 30.74300
C  43.19900 40.57300 29.21500
C  43.92600 40.43500 31.68000
C  40.69900 42.15800 31.26600
C  40.35200 43.10400 32.42900
H  39.82100 42.41900 33.69600
N  43.61100 39.48700 26.25600
C  43.86100 38.84200 27.36700
C  44.40600 37.54500 27.02400
C  44.46200 37.43200 25.62700
C  44.00200 38.76600 25.15200
C  44.84300 36.50100 28.03300
C  45.01900 36.35300 24.71800
O  45.05400 36.42600 23.47600
C  45.37300 35.00400 25.31400
N  43.21700 41.53100 24.16400
C  43.56800 40.43500 23.38800
C  43.58100 40.79000 21.87900
C  42.85000 42.18400 21.90500
C  42.76400 42.58700 23.39100
C  45.00600 40.87000 21.30500
C  41.42300 42.15200 21.15200
C  40.19500 41.55800 21.85500
N  42.20000 43.46100 26.18700
C  42.03100 44.26800 25.11400
C  41.43800 45.53900 25.48500
C  41.26200 45.38500 26.89800
C  41.66300 44.07700 27.24200
C  41.20800 46.64600 24.55200
C  40.74000 45.96500 28.12300
O  40.09200 47.00800 28.28100
C  40.95900 44.89600 29.27600
C  41.87300 45.56500 30.22300
O  43.11800 45.56300 30.16100
O  41.10600 46.10200 31.23300
C  41.76000 46.74000 32.41300
H  43.96800 38.66800 29.52700
H  43.94600 38.42000 23.04000
H  42.18200 44.60500 23.03600
H  42.72300 42.86900 31.34400
H  42.09500 39.99100 30.78100
H  44.81300 40.11900 31.13000
H  43.76700 39.56100 32.31200
H  44.00500 41.24400 32.40600
H  40.44100 41.13400 31.53500
H  40.12500 42.41100 30.37400
H  39.69300 43.94100 32.19800
H  41.32900 43.52600 32.66600
H  44.64500 36.69700 29.08700
H  45.92000 36.34200 27.97900
H  44.53000 35.47500 27.84300
H  46.11800 35.18800 26.08800
H  45.90300 34.41600 24.56400
H  44.44500 34.52500 25.62400
H  43.10500 40.00900 21.28600
H  43.44400 42.98500 21.46500
H  45.74800 40.38900 21.94300
H  45.42100 41.79800 20.91300
H  44.92300 40.21400 20.43800
H  41.50900 41.58900 20.22300
H  41.00800 43.12900 20.90400
H  40.33800 40.94400 22.74400
H  39.64600 40.92600 21.15700
H  39.68400 42.44200 22.23800
H  42.24300 46.89500 24.31600
H  40.51400 47.39200 24.93800
H  40.81800 46.33700 23.58200
H  39.98000 44.78700 29.74100
H  41.63900 46.02700 33.22800
H  41.20300 47.63800 32.68200
H  42.83300 46.92500 32.36200
Mg 17.02700 52.82200 26.39600
C  19.27600 51.53500 28.76800
C  14.75800 53.19300 28.93200
C  14.77500 53.81100 24.11700
C  19.18600 51.87100 23.83400
N  17.05500 52.46300 28.48600
C  18.08700 51.97300 29.31300
C  17.79300 52.28000 30.75900
C  16.23800 52.35000 30.77600
C  16.01400 52.69700 29.29500
C  15.52500 51.05300 31.21100
C  18.58000 53.55700 31.24100
C  19.03800 53.54700 32.70800
H  18.20300 52.83200 33.75900
N  14.98900 53.44600 26.49000
C  14.24700 53.52800 27.64500
C  13.06500 54.24600 27.33200
C  12.97300 54.28900 25.88100
C  14.27700 53.85900 25.41900
C  12.15900 54.75800 28.38000
C  11.79600 54.77800 24.94300
O  11.80400 54.62700 23.73600
C  10.69900 55.56500 25.46500
N  17.09100 52.93400 24.29600
C  15.96300 53.30300 23.58100
C  16.18700 53.20100 22.05200
C  17.69700 52.68300 21.96800
C  18.03400 52.53700 23.41300
C  15.22000 52.35900 21.27300
C  18.56200 53.73700 21.16900
C  19.32700 54.82200 22.02400
N  18.92300 51.93100 26.24200
C  19.66400 51.56400 25.12600
C  20.80200 50.73000 25.66700
C  20.74700 50.88700 27.03600
C  19.55500 51.48800 27.33300
C  21.83100 50.14800 24.84000
C  21.41000 50.45300 28.27500
O  22.40500 49.82800 28.46300
C  20.48400 51.06700 29.51400
C  20.20400 49.96600 30.47500
O  19.32900 49.09400 30.30900
O  20.90000 50.10700 31.62400
C  20.58900 49.17800 32.68400
H  14.03000 53.40000 29.71900
H  14.04900 54.07200 23.34400
H  19.85900 51.48100 23.06800
H  18.07000 51.34400 31.24300
H  15.94000 53.08000 31.52800
H  15.42400 51.13700 32.29300
H  16.05200 50.11900 31.01600
H  14.55800 51.04900 30.70800
H  17.96800 54.41500 30.96000
H  19.49100 53.58700 30.64300
H  19.14100 54.55900 33.09900
H  20.06300 53.21000 32.86000
H  12.59600 54.64600 29.37200
H  11.11800 54.43600 28.39000
H  12.01300 55.81700 28.16500
H  10.23100 54.72400 25.97700
H  10.03500 55.87000 24.65600
H  11.00900 56.32500 26.18200
H  16.09800 54.20500 21.63900
H  17.72800 51.69500 21.50800
H  15.73400 51.63000 20.64700
H  14.61800 52.93900 20.57400
H  14.57800 51.76400 21.92300
H  17.99800 54.33300 20.45200
H  19.38700 53.28600 20.61600
H  19.81500 54.39900 22.90200
H  18.81900 55.69000 22.44400
H  20.11000 55.18100 21.35700
H  22.30700 51.03800 24.42700
H  21.48400 49.34900 24.18600
H  22.64300 49.69200 25.40700
H  21.02300 51.86600 30.02200
H  19.61600 49.34800 33.14400
H  21.36200 49.24500 33.45000
H  20.61000 48.17400 32.26000

