158

Mg 0.68200 -0.57500 44.02100
C  4.12100 -0.44500 43.24300
C  0.23600 2.45800 42.31800
C  -2.50400 -1.25200 43.75800
C  1.33400 -3.84800 45.15500
N  1.96700 0.80000 43.02700
C  3.31900 0.70400 42.86000
C  3.87600 1.91100 42.02800
C  2.70000 2.94400 42.32000
C  1.55900 2.04500 42.62400
C  2.95300 4.10600 43.38600
C  4.10900 1.53400 40.50700
C  5.51900 1.85200 40.02500
H  5.59500 1.95200 38.46200
N  -0.92500 0.53600 43.31600
C  -0.93000 1.70900 42.58000
C  -2.27600 2.08400 42.29100
C  -3.12800 0.95500 42.59700
C  -2.11700 -0.00100 43.24100
C  -2.69700 3.33400 41.68600
C  -4.58900 0.86200 42.22100
O  -5.04200 1.68900 41.49300
C  -5.46800 -0.28600 42.55900
N  -0.48300 -2.43700 44.26000
C  -1.80500 -2.35700 44.21800
C  -2.37500 -3.67600 44.63200
C  -1.15300 -4.41500 45.39900
C  0.01900 -3.57200 44.84100
C  -3.66600 -3.57100 45.45000
C  -1.08300 -6.00100 44.93600
C  -0.75200 -6.92800 46.10300
N  2.37000 -1.89100 44.25800
C  2.47900 -3.11400 44.81300
C  3.83300 -3.54600 44.79200
C  4.54800 -2.51800 44.20600
C  3.61100 -1.54900 43.90200
C  4.42900 -4.95200 45.14000
C  5.86100 -2.10000 43.78900
O  7.00700 -2.55000 43.98500
C  5.60000 -0.64500 43.16100
C  6.36400 0.41500 43.80300
O  6.05200 1.03600 44.80400
O  7.53900 0.56700 43.21100
C  8.44400 1.64100 43.66900
H  0.09300 3.50800 42.05200
H  -3.56400 -1.47900 43.89100
H  1.52900 -4.81600 45.62200
H  4.73500 2.43900 42.44200
H  2.48200 3.47900 41.39600
H  3.22100 5.08000 42.97600
H  3.90100 3.85500 43.86100
H  2.18900 4.22900 44.15400
H  3.49600 2.10400 39.80900
H  3.91900 0.48300 40.28700
H  6.32000 1.21100 40.39400
H  5.83000 2.85800 40.30700
H  -2.87300 3.29900 40.61100
H  -1.97300 4.11700 41.91000
H  -3.57600 3.72700 42.19700
H  -6.47900 -0.05600 42.22300
H  -5.54800 -0.35400 43.64400
H  -5.13700 -1.23100 42.13000
H  -2.57600 -4.11500 43.65500
H  -1.17600 -4.28300 46.48100
H  -3.68300 -2.71000 46.11900
H  -3.81400 -4.44600 46.08400
H  -4.54500 -3.53000 44.80700
H  -0.18300 -6.14600 44.33900
H  -1.99800 -6.35100 44.45700
H  -1.64700 -7.40900 46.49700
H  -0.43800 -6.42400 47.01700
H  -0.05000 -7.71900 45.84000
H  3.52900 -5.56500 45.08700
H  4.77600 -5.03000 46.17000
H  5.33500 -5.17800 44.57800
H  5.84200 -0.67500 42.09900
H  7.87400 2.48400 44.06000
H  9.14400 1.89400 42.87300
H  9.02900 1.34800 44.54100
Mg 25.71800 0.17300 28.86300
C  27.81400 -0.02800 31.71800
C  22.97300 0.28500 30.82700
C  23.77000 0.48600 25.98400
C  28.42300 -0.61700 26.85700
N  25.48700 0.12400 30.99400
C  26.48000 0.27800 31.99800
C  25.80600 0.48100 33.33900
C  24.32000 0.50400 33.01500
C  24.23600 0.28500 31.51700
C  23.38000 -0.27800 33.89000
C  26.49400 1.73800 34.03300
C  25.74900 2.38400 35.24300
H  26.48000 2.79800 36.51800
N  23.65200 0.42400 28.47100
C  22.66900 0.31000 29.45900
C  21.41200 0.27600 28.76300
C  21.64600 0.36700 27.37300
C  23.10700 0.42700 27.21900
C  20.16300 0.09000 29.54900
C  20.67400 0.35700 26.19500
O  20.98200 0.50600 25.00200
C  19.19800 0.12300 26.44500
N  26.10300 0.13800 26.69800
C  25.16200 0.35500 25.73900
C  25.71200 0.23100 24.30200
C  27.28300 -0.06600 24.62500
C  27.27500 -0.22500 26.11400
C  25.02700 -0.95400 23.54900
C  28.35500 1.02000 24.29000
C  27.94000 2.53900 24.46500
N  27.77600 -0.23900 29.15300
C  28.71900 -0.58200 28.23000
C  29.96500 -0.85000 28.93300
C  29.65700 -0.61800 30.32700
C  28.33200 -0.25400 30.42500
C  31.24200 -1.29500 28.32400
C  30.17200 -0.58600 31.68100
O  31.21900 -0.89600 32.19700
C  29.01100 -0.10200 32.56900
C  28.91900 -1.13200 33.60900
O  28.52000 -2.30500 33.38400
O  29.20400 -0.62500 34.82100
C  28.99700 -1.34500 36.09600
H  22.11800 0.48800 31.47500
H  23.17400 0.60100 25.07600
H  29.30800 -0.87500 26.27200
H  26.04400 -0.38600 33.95600
H  24.04800 1.54300 33.19800
H  22.36000 0.06600 33.71800
H  23.62800 -0.10800 34.93800
H  23.46500 -1.34100 33.66200
H  26.76800 2.53500 33.34200
H  27.40000 1.31800 34.47100
H  25.04600 1.63100 35.59800
H  25.27600 3.28100 34.84300
H  20.31200 -0.23900 30.57800
H  19.61700 -0.67900 29.00200
H  19.56100 0.99500 29.62100
H  18.64300 0.78600 27.10900
H  19.12100 -0.78700 27.04000
H  18.61400 -0.05300 25.54200
H  25.68600 1.19500 23.79300
H  27.49100 -1.00400 24.11000
H  24.51700 -1.63000 24.23600
H  25.67300 -1.46500 22.83500
H  24.19100 -0.51300 23.00600
H  28.49100 0.91500 23.21400
H  29.33900 0.86900 24.73400
H  27.35900 2.86400 25.32800
H  27.51100 2.96500 23.55800
H  28.86900 3.10600 24.52800
H  31.31900 -2.37000 28.48500
H  32.10600 -0.75700 28.71400
H  31.28100 -1.13000 27.24800
H  29.28600 0.88700 32.93600
H  28.30300 -2.16600 35.91900
H  28.47600 -0.54300 36.62000
H  29.87500 -1.76300 36.58800

