158

Mg 25.31600 1.78000 30.04100
C  27.59200 1.63700 32.94400
C  22.71200 2.18700 32.36500
C  23.33200 1.36300 27.60300
C  28.13600 1.18000 28.07400
N  25.26100 2.00300 32.31900
C  26.25500 1.91900 33.20300
C  25.73800 2.35900 34.65700
C  24.16000 2.39800 34.57600
C  24.02000 2.22000 32.98600
C  23.41400 1.27100 35.40800
C  26.48400 3.71000 35.06000
C  27.02000 3.71300 36.50500
H  26.40700 4.65400 37.55500
N  23.26200 1.94300 29.98000
C  22.33500 2.10500 31.02800
C  21.05700 2.10100 30.54200
C  21.15400 1.80500 29.11900
C  22.59100 1.66200 28.80400
C  19.85900 2.37000 31.38700
C  20.07700 1.58500 28.09800
O  20.24500 1.28300 26.96500
C  18.69300 1.72100 28.46100
N  25.71600 1.50600 28.11800
C  24.66800 1.35800 27.26300
C  25.12400 1.41500 25.67900
C  26.70000 1.59700 25.90500
C  26.89000 1.49600 27.44500
C  24.71400 0.14100 24.90700
C  27.22500 2.98000 25.43700
C  26.66800 3.51800 24.12800
N  27.40600 1.41800 30.37800
C  28.41300 1.14400 29.47600
C  29.63000 0.87600 30.15500
C  29.38000 1.09100 31.50400
C  28.02000 1.41600 31.60000
C  30.92900 0.64500 29.43000
C  29.96600 1.18500 32.82700
O  31.12300 0.99800 33.21800
C  28.82600 1.64200 33.80400
C  28.73200 0.63900 34.88000
O  28.20200 -0.48000 34.92700
O  29.30500 1.18500 36.03700
C  29.15300 0.35700 37.18000
H  22.03300 2.39900 33.19400
H  22.64100 1.33800 26.75800
H  28.93600 1.08700 27.33700
H  25.99000 1.60100 35.39800
H  23.62200 3.30800 34.83800
H  24.14100 0.90100 36.13200
H  23.15700 0.46700 34.71800
H  22.49800 1.60000 35.89800
H  25.74800 4.51100 34.98100
H  27.25400 3.95200 34.32800
H  28.09500 3.88200 36.56500
H  26.81300 2.76600 37.00400
H  19.90600 2.47700 32.47100
H  19.18100 1.52100 31.30100
H  19.30200 3.24800 31.06100
H  18.54700 2.71400 28.88800
H  18.51800 0.92100 29.18000
H  18.11600 1.65100 27.53900
H  24.61500 2.22300 25.15400
H  27.28700 0.83200 25.39700
H  24.13600 0.28900 23.99500
H  23.97200 -0.32500 25.55500
H  25.50200 -0.60200 24.78300
H  28.29400 2.94300 25.23000
H  26.91800 3.63600 26.25100
H  27.36800 4.21900 23.67300
H  25.82500 4.14900 24.40800
H  26.42000 2.75300 23.39200
H  31.52900 0.00600 30.07800
H  31.47100 1.54200 29.13100
H  30.66100 0.04300 28.56200
H  28.90200 2.64300 34.22900
H  30.06800 0.60000 37.72000
H  29.18900 -0.69500 36.89500
H  28.25800 0.61100 37.74800
Mg 36.50200 48.58100 24.78200
C  36.70400 46.63500 27.76100
C  34.93200 51.11600 26.55000
C  35.61500 49.96000 21.88300
C  37.33600 45.56900 22.97500
N  35.92900 48.80300 26.92800
C  36.19400 47.96700 27.96700
C  35.66500 48.61800 29.21000
C  35.23200 50.06500 28.87700
C  35.36100 50.01100 27.35800
C  33.78300 50.48000 29.32400
C  36.49200 48.40900 30.47600
C  36.37700 49.43700 31.69300
H  35.15400 49.36700 32.61100
N  35.67300 50.37700 24.31600
C  35.02800 51.25700 25.15500
C  34.49200 52.41300 24.39200
C  34.81800 52.06400 23.05300
C  35.38100 50.76100 23.05800
C  33.87200 53.59200 25.11300
C  34.56200 52.84100 21.79200
O  34.84000 52.42700 20.67000
C  33.89700 54.20600 21.78400
N  36.40000 47.89400 22.80800
C  36.14400 48.71700 21.76800
C  36.52000 48.11500 20.39200
C  37.48700 46.99900 20.88700
C  37.06600 46.79300 22.30800
C  35.31000 47.65700 19.59900
C  38.98700 47.34600 20.67000
C  39.58100 47.08100 19.30600
N  36.95800 46.51800 25.26600
C  37.21900 45.43400 24.39900
C  37.53900 44.28600 25.19400
C  37.36000 44.68800 26.48100
C  37.03500 46.09000 26.52400
C  37.79700 42.96100 24.63000
C  37.27600 44.14400 27.82500
O  37.42900 43.02900 28.27000
C  36.82700 45.43600 28.70700
C  35.45700 45.05400 29.26700
O  34.40400 45.19300 28.67800
O  35.61300 44.52800 30.50600
C  34.36200 44.35700 31.28900
H  34.40700 51.89900 27.10100
H  35.42700 50.38400 20.89400
H  37.86000 44.85200 22.34000
H  34.75600 48.07400 29.46700
H  35.99400 50.80200 29.12900
H  33.97300 51.44500 29.79300
H  33.47100 49.77500 30.09500
H  33.05100 50.46600 28.51700
H  37.53800 48.11700 30.38500
H  36.09500 47.53400 30.98900
H  36.49600 50.43500 31.27100
H  37.26300 49.29900 32.31400
H  33.14600 54.12100 24.49700
H  34.62300 54.36000 25.29600
H  33.42200 53.18600 26.01900
H  34.46000 54.86800 22.44200
H  32.89500 53.92000 22.10400
H  33.84800 54.69200 20.81000
H  37.03400 48.91100 19.85300
H  37.11400 46.13600 20.33600
H  34.43200 47.57000 20.23900
H  35.57000 46.73100 19.08600
H  35.08600 48.31600 18.76000
H  39.69500 46.94600 21.39600
H  39.02400 48.41200 20.89700
H  38.77100 46.81400 18.62700
H  40.38300 46.35600 19.43900
H  40.08200 47.89200 18.77700
H  38.60900 42.95700 23.90400
H  36.97800 42.49500 24.08200
H  38.09000 42.35000 25.48500
H  37.49000 45.68100 29.53700
H  34.48600 43.72100 32.16600
H  33.57700 43.83000 30.74600
H  33.97700 45.34100 31.55500

