158

Mg -2.00700 16.79800 26.91000
C  -2.55600 14.53200 29.61400
C  -2.60300 19.31600 29.00100
C  -1.79100 18.79600 24.26200
C  -2.24100 14.02000 24.73700
N  -2.55900 16.85600 29.09000
C  -2.53500 15.89500 30.01600
C  -2.59500 16.44200 31.43300
C  -2.58800 18.01700 31.20800
C  -2.61000 18.05200 29.64000
C  -3.61800 18.81600 32.06200
C  -1.53100 15.92300 32.35900
C  -0.92600 16.69400 33.51700
H  -0.66000 15.91900 34.92400
N  -2.21700 18.79800 26.69300
C  -2.39300 19.69900 27.72000
C  -2.36100 20.98800 27.12700
C  -2.09400 20.88100 25.74400
C  -1.99300 19.39300 25.49900
C  -2.77700 22.16900 27.99100
C  -1.90000 21.90100 24.64600
O  -1.75900 21.73100 23.40800
C  -1.70500 23.42500 25.03500
N  -1.82000 16.44500 24.78000
C  -1.81600 17.44600 23.90300
C  -1.91700 16.89500 22.49500
C  -1.73900 15.42600 22.64300
C  -1.99300 15.28900 24.11800
C  -3.29800 17.34900 21.92600
C  -0.33100 14.84900 22.26200
C  -0.31100 13.39300 21.73900
N  -2.24400 14.73900 27.04900
C  -2.32900 13.76000 26.07400
C  -2.59400 12.48100 26.68400
C  -2.64900 12.73400 28.03300
C  -2.42600 14.10700 28.21400
C  -2.76700 11.17300 25.95200
C  -2.85100 12.07900 29.29800
O  -3.21200 10.96600 29.54600
C  -2.82800 13.22000 30.44100
C  -1.80700 12.72100 31.31500
O  -0.58300 12.85600 31.18700
O  -2.40000 12.03300 32.33500
C  -1.42800 11.60000 33.31600
H  -2.76500 20.15600 29.68000
H  -1.90200 19.49400 23.43000
H  -2.50600 13.24300 24.01700
H  -3.50000 16.06800 31.91100
H  -1.65100 18.48700 31.50800
H  -3.14400 19.65500 32.57200
H  -4.03300 18.26300 32.90500
H  -4.47400 19.11300 31.45600
H  -0.71000 15.70800 31.67500
H  -1.79700 14.96900 32.81400
H  -1.50400 17.60800 33.65200
H  0.08200 16.93400 33.18000
H  -3.16800 22.91300 27.29600
H  -1.88100 22.51200 28.50800
H  -3.50700 21.94200 28.76800
H  -2.66200 23.91300 25.21600
H  -1.34400 23.96500 24.16000
H  -1.01500 23.44600 25.87900
H  -1.08900 17.20000 21.85500
H  -2.47800 14.97300 21.98200
H  -4.09800 17.12300 22.63100
H  -3.40700 16.80800 20.98600
H  -3.19700 18.41500 21.72500
H  0.28300 14.92200 23.16100
H  0.06300 15.53200 21.51000
H  0.19900 13.30500 20.77900
H  -1.31300 13.02100 21.52600
H  0.25100 12.73100 22.39800
H  -2.19300 11.07900 25.03000
H  -3.80200 11.12200 25.61500
H  -2.64500 10.30200 26.59700
H  -3.73800 13.52400 30.95800
H  -0.74300 10.90200 32.83400
H  -1.98600 11.09400 34.10300
H  -0.88400 12.39900 33.82000
Mg 27.68900 50.51600 27.00700
C  25.52200 51.02400 29.63500
C  30.12900 49.72400 29.19300
C  29.56300 50.03400 24.35800
C  25.07700 51.72200 24.78300
N  27.80300 50.30100 29.19200
C  26.79000 50.55400 30.03200
C  27.23600 50.30500 31.44700
C  28.79300 50.15900 31.39600
C  28.92200 49.96000 29.84100
C  29.55700 51.37200 31.96000
C  26.46900 49.22200 32.36800
C  27.03800 49.08400 33.77600
H  26.10200 49.41100 35.00200
N  29.52600 49.80600 26.84100
C  30.38600 49.50100 27.84500
C  31.57700 49.05200 27.25600
C  31.41900 49.10200 25.88300
C  30.12800 49.61200 25.61700
C  32.85100 48.47100 27.95200
C  32.36600 48.69100 24.83300
O  32.16300 48.78800 23.66700
C  33.77300 48.18600 25.22700
N  27.40500 51.11900 24.89800
C  28.31100 50.61800 24.04100
C  27.88300 50.78100 22.54000
C  26.36300 51.17600 22.69300
C  26.27500 51.35100 24.19400
C  28.79400 51.83300 21.83300
C  25.34800 50.11900 22.11300
C  25.36800 48.68400 22.69600
N  25.76700 51.41700 27.12300
C  24.86200 51.72800 26.14900
C  23.60100 52.15000 26.84200
C  23.80200 51.88300 28.25700
C  25.13900 51.41700 28.31000
C  22.45100 52.65200 26.02900
C  23.14800 51.90700 29.58100
O  22.04300 52.34600 29.96300
C  24.35500 51.42200 30.49500
C  24.61000 52.56200 31.43300
O  25.08600 53.62300 30.94300
O  24.21300 52.38500 32.74100
C  24.63700 53.40400 33.68800
H  30.98400 49.47800 29.82800
H  30.22200 50.08200 23.48800
H  24.25400 51.71100 24.06500
H  26.86100 51.22800 31.89000
H  29.05800 49.21800 31.87900
H  30.17200 51.73400 31.13600
H  30.15100 51.14100 32.84400
H  28.95700 52.26100 32.15800
H  26.45200 48.25400 31.86600
H  25.43900 49.57400 32.43400
H  27.84100 49.80000 33.95300
H  27.48600 48.11000 33.97300
H  33.05400 47.40100 27.98700
H  32.72300 48.80700 28.98100
H  33.77600 49.04700 27.89500
H  34.16300 49.03600 25.78800
H  34.41000 48.06400 24.35100
H  33.63000 47.20700 25.68300
H  28.02700 49.88300 21.94000
H  26.17600 52.18000 22.31200
H  29.53000 52.22100 22.53700
H  28.17400 52.65500 21.47600
H  29.25600 51.39200 20.94900
H  25.59100 49.99600 21.05700
H  24.32500 50.47900 22.21500
H  25.99100 48.70200 23.59100
H  25.83300 48.00100 21.98500
H  24.40900 48.29500 23.03900
H  21.56500 52.59800 26.66200
H  22.25300 52.08600 25.11900
H  22.84200 53.65600 25.86000
H  24.02700 50.50700 30.98800
H  24.19400 54.34000 33.34900
H  25.70700 53.59400 33.60300
H  24.40700 53.27800 34.74600

