158

Mg 24.48000 -4.85900 46.10100
C  26.77400 -2.82400 44.31100
C  22.03100 -3.75000 43.84500
C  22.51300 -7.55400 46.93100
C  27.21500 -6.32800 47.68800
N  24.36000 -3.33000 44.50700
C  25.44300 -2.64600 43.94000
C  24.93600 -1.74400 42.80800
C  23.38400 -1.69900 43.16700
C  23.23900 -3.01900 43.85400
C  23.02700 -0.50600 44.04600
C  25.37300 -2.24900 41.43800
C  26.31900 -1.30100 40.69500
H  26.03500 -0.82000 39.19900
N  22.53700 -5.51300 45.51400
C  21.66800 -4.87300 44.59100
C  20.43900 -5.65400 44.47400
C  20.55700 -6.73800 45.48000
C  21.93300 -6.65000 46.07800
C  19.27600 -5.18400 43.63600
C  19.47200 -7.83100 45.72900
O  18.33900 -7.81500 45.12900
C  19.71400 -9.17000 46.58900
N  24.87500 -6.81500 46.93300
C  23.86300 -7.68800 47.30700
C  24.38600 -8.87800 48.18200
C  25.87400 -8.36500 48.43800
C  26.04600 -7.10300 47.56800
C  23.53800 -9.24400 49.41200
C  26.98800 -9.39200 47.82000
C  27.38100 -10.61300 48.70600
N  26.61500 -4.51000 46.21700
C  27.57900 -5.16200 46.94100
C  28.88400 -4.57300 46.64700
C  28.64500 -3.64100 45.62800
C  27.24000 -3.67200 45.35800
C  30.14800 -5.19500 47.24800
C  29.21500 -2.67000 44.72800
O  30.31900 -2.22100 44.56000
C  27.99900 -2.06500 43.87500
C  27.87300 -0.65800 44.17300
O  27.71600 -0.18200 45.30400
O  27.99900 0.08100 43.07800
C  27.67500 1.55400 43.23800
H  21.26200 -3.34400 43.18400
H  21.80100 -8.25800 47.36600
H  27.98900 -6.77600 48.31600
H  25.31100 -0.76600 43.10700
H  22.65700 -1.64700 42.35700
H  22.30600 -0.69800 44.84100
H  22.72600 0.34200 43.43000
H  23.96300 -0.27500 44.55400
H  24.40200 -2.25000 40.94200
H  25.78600 -3.24300 41.60800
H  27.34500 -1.67000 40.67700
H  26.43900 -0.35600 41.22500
H  18.37700 -5.65800 44.02800
H  19.39300 -5.36700 42.56800
H  19.11500 -4.10600 43.67400
H  20.66500 -9.64000 46.33900
H  18.83500 -9.74400 46.29300
H  19.59600 -8.93400 47.64600
H  24.28200 -9.66200 47.43200
H  26.15000 -8.13200 49.46700
H  23.18900 -10.27200 49.31300
H  22.65400 -8.60600 49.43000
H  24.00000 -9.16600 50.39600
H  27.87200 -8.88900 47.42900
H  26.54500 -9.79000 46.90700
H  26.62600 -11.35000 48.43300
H  27.53600 -10.37700 49.75900
H  28.31900 -11.04700 48.36000
H  31.00100 -4.65500 46.83700
H  30.12300 -6.26000 47.01400
H  30.21400 -5.10800 48.33200
H  28.29600 -2.19600 42.83500
H  27.57300 2.04300 42.26900
H  28.44000 2.08500 43.80300
H  26.76500 1.68300 43.82400
Mg 54.64600 23.98900 44.95300
C  52.13600 26.14900 43.89600
C  52.71800 21.28200 43.93600
C  57.51200 22.01200 44.95700
C  56.72000 26.71600 45.61900
N  52.61500 23.79100 44.10900
C  51.81700 24.82300 43.67700
C  50.45100 24.27400 43.25200
C  50.53200 22.69800 43.63300
C  52.05500 22.50300 43.89400
C  49.62900 22.26500 44.88300
C  50.17700 24.46800 41.70300
C  48.73000 24.83800 41.41400
H  48.15800 24.61100 40.05800
N  55.00900 22.00800 44.56100
C  54.03300 21.00100 44.31400
C  54.58900 19.71000 44.33500
C  56.02400 19.92400 44.35100
C  56.26000 21.36300 44.58700
C  53.75300 18.50300 43.99500
C  57.05200 18.85600 44.14500
O  56.72200 17.66900 44.09700
C  58.43100 19.26300 43.84600
N  56.82300 24.39800 45.12400
C  57.75400 23.36600 45.23400
C  59.08200 23.82800 45.95300
C  58.84400 25.42100 46.03500
C  57.36400 25.50500 45.63200
C  59.18200 23.07500 47.39600
C  59.70800 26.23500 45.10900
C  61.25200 25.79900 44.87800
N  54.49700 26.05600 44.83900
C  55.42000 27.01500 45.23500
C  54.63200 28.29900 45.21300
C  53.35300 27.94400 44.68900
C  53.36900 26.62800 44.41700
C  55.15600 29.68300 45.65200
C  52.05600 28.50800 44.47900
O  51.55500 29.61000 44.70600
C  51.17300 27.37500 43.86400
C  50.84200 27.79100 42.52900
O  51.61600 27.89100 41.62400
O  49.57100 28.23200 42.62600
C  48.98400 28.92900 41.41200
H  52.07500 20.42100 43.74200
H  58.31000 21.27200 45.04600
H  57.30000 27.62000 45.81400
H  49.74500 24.85700 43.84300
H  50.20500 22.08500 42.79400
H  49.49500 21.18500 44.82400
H  48.60200 22.62600 44.83300
H  49.99000 22.49400 45.88600
H  50.31700 23.49500 41.23200
H  51.00400 25.12300 41.43000
H  48.67000 25.90300 41.64000
H  48.00300 24.38200 42.08500
H  53.38700 18.55400 42.97000
H  52.93600 18.69100 44.69300
H  54.19200 17.57800 44.36900
H  58.99200 18.52600 43.27200
H  58.98300 19.34800 44.78200
H  58.34100 20.16000 43.23300
H  60.01700 23.64100 45.42500
H  58.94100 25.74900 47.07000
H  59.29900 23.80300 48.19800
H  59.96600 22.32000 47.44900
H  58.22900 22.62000 47.66600
H  59.85000 27.24100 45.50100
H  59.13000 26.41300 44.20200
H  61.40600 24.94800 44.21400
H  61.78900 25.67200 45.81800
H  61.80200 26.53500 44.29100
H  56.23500 29.73100 45.50300
H  55.05500 29.87000 46.72100
H  54.64500 30.38000 44.98700
H  50.30300 27.07400 44.44800
H  49.69600 28.99500 40.59000
H  48.60400 29.94100 41.55300
H  48.12800 28.34000 41.08400

