158

Mg 36.24600 49.50400 25.78700
C  36.22700 47.43800 28.61500
C  34.95200 52.14300 27.85100
C  35.63400 51.33100 22.98300
C  37.12400 46.68800 23.89900
N  35.58900 49.70700 27.92300
C  35.74300 48.77500 28.88400
C  35.49400 49.29300 30.30700
C  34.82700 50.66800 30.01800
C  35.17200 50.89500 28.53700
C  33.41000 50.96500 30.50800
C  36.74200 49.43200 31.13600
C  36.55600 48.87300 32.57300
H  35.25300 49.13000 33.29300
N  35.54300 51.45400 25.50500
C  35.06800 52.37500 26.42300
C  34.78900 53.60400 25.79000
C  34.89600 53.35300 24.36000
C  35.30800 51.99300 24.28500
C  34.25800 54.81200 26.59200
C  34.65500 54.28400 23.11600
O  34.81300 54.00200 21.96300
C  33.86100 55.56100 23.44500
N  36.56100 49.12200 23.77800
C  36.14100 49.98900 22.81800
C  36.36400 49.39000 21.43400
C  37.15300 48.13600 21.76100
C  36.92700 47.93700 23.23400
C  35.11600 49.22500 20.47900
C  38.65900 48.15700 21.31100
C  39.02100 47.03600 20.31400
N  36.78300 47.58900 26.14000
C  37.02900 46.54700 25.30800
C  37.26100 45.32000 25.96700
C  36.98800 45.61500 27.29000
C  36.67600 46.97800 27.37000
C  37.61800 44.02200 25.28100
C  36.91300 45.08500 28.61700
O  37.13400 44.00800 29.05200
C  36.43200 46.32800 29.56500
C  35.26400 45.77700 30.40000
O  34.12100 45.74800 30.01600
O  35.67500 45.30900 31.67200
C  34.56100 44.78500 32.51900
H  34.63400 52.91900 28.55100
H  35.52400 51.86800 22.03900
H  37.43600 45.86400 23.25500
H  34.77100 48.61000 30.75300
H  35.31200 51.44400 30.61000
H  32.97400 50.03400 30.87000
H  32.74500 51.23500 29.68800
H  33.32700 51.78500 31.22100
H  37.17000 50.43400 31.16500
H  37.62700 48.96000 30.70700
H  37.11600 49.56700 33.19900
H  36.83100 47.82100 32.64900
H  34.45100 55.75700 26.08400
H  34.77800 54.99500 27.53200
H  33.21000 54.69100 26.86500
H  33.13500 55.29000 24.21100
H  33.42100 55.81700 22.48100
H  34.49600 56.41300 23.68800
H  36.97000 50.09900 20.86900
H  36.61200 47.27400 21.37100
H  34.25400 49.46700 21.10100
H  34.94100 48.18100 20.22000
H  35.26400 49.85400 19.60200
H  39.27200 47.88200 22.16900
H  38.97200 49.17400 21.07500
H  39.14000 47.59900 19.38800
H  38.15800 46.38200 20.18500
H  39.91000 46.54900 20.71400
H  38.67300 43.99500 25.00900
H  36.96600 43.92500 24.41300
H  37.45000 43.15400 25.91900
H  37.24700 46.55900 30.25100
H  34.82300 45.09100 33.53100
H  34.36800 43.71300 32.54100
H  33.63100 45.28400 32.24400
Mg 6.22800 54.55000 41.33000
C  5.89700 51.10700 41.10200
C  9.31200 54.23100 39.99900
C  6.19900 57.76200 40.98400
C  2.81500 54.62800 42.51600
N  7.38900 52.77000 40.40500
C  7.07500 51.48500 40.43700
C  8.17000 50.69100 39.68600
C  9.38600 51.65400 39.91000
C  8.69900 52.99900 40.13500
C  10.24300 51.36600 41.16800
C  7.86000 50.28900 38.28200
C  6.91700 51.33100 37.54000
H  6.20300 50.91100 36.27800
N  7.55000 55.82000 40.63700
C  8.86000 55.54300 40.17500
C  9.67200 56.71400 40.06400
C  8.78700 57.82100 40.45100
C  7.46400 57.16700 40.70800
C  11.10200 56.77000 39.69900
C  9.13700 59.28500 40.51100
O  10.25600 59.65700 40.16300
C  8.28900 60.40200 41.09100
N  4.66400 55.98100 41.57400
C  5.02100 57.28800 41.55000
C  3.86900 58.16500 42.09600
C  2.79900 57.22100 42.55600
C  3.38100 55.86500 42.14900
C  4.33000 59.24300 43.17900
C  1.39400 57.51000 41.90000
C  1.21800 57.06000 40.45300
N  4.66600 53.24200 41.76200
C  3.44100 53.38300 42.36400
C  2.92500 52.13600 42.72500
C  3.88800 51.17900 42.28600
C  4.89500 51.89400 41.70100
C  1.53900 51.96000 43.28600
C  4.24200 49.81500 42.24000
O  3.61700 48.85200 42.73600
C  5.53700 49.73300 41.40400
C  5.12900 48.95700 40.23500
O  4.41900 49.36500 39.30300
O  5.72400 47.65700 40.37800
C  5.45800 46.71300 39.23900
H  10.33000 54.19100 39.60600
H  6.24500 58.84800 41.09800
H  1.80200 54.70600 42.91700
H  8.23300 49.75600 40.24200
H  10.06500 51.71000 39.05900
H  10.24200 52.15600 41.91900
H  11.30500 51.37200 40.92000
H  10.08900 50.37600 41.59900
H  7.42700 49.29000 38.33100
H  8.74200 50.30700 37.64200
H  7.50000 52.24800 37.45300
H  6.15600 51.74400 38.20200
H  11.42000 57.76300 39.38300
H  11.31600 56.05000 38.90900
H  11.72700 56.41200 40.51700
H  7.36700 60.66700 40.57300
H  8.90500 61.30100 41.11800
H  7.96900 60.10000 42.08800
H  3.47600 58.76100 41.27200
H  2.69700 57.29400 43.63900
H  3.97000 59.03600 44.18700
H  4.02200 60.24000 42.86600
H  5.39600 59.03100 43.25800
H  1.30900 58.59700 41.86900
H  0.61600 57.06000 42.51600
H  2.20300 57.00100 39.99000
H  0.62200 57.81100 39.93500
H  0.78700 56.06000 40.49900
H  1.57400 52.01900 44.37400
H  1.13300 50.97400 43.06500
H  0.85700 52.68300 42.83900
H  6.24700 49.17600 42.01500
H  5.88900 47.18400 38.35600
H  4.38700 46.51500 39.27800
H  5.98200 45.77600 39.43100

