158

Mg 16.80600 -1.60800 27.74200
C  15.45500 0.59400 30.20500
C  18.78300 -2.96800 30.23300
C  18.35700 -3.33500 25.33200
C  15.33100 0.53900 25.40500
N  17.16600 -1.13600 29.94800
C  16.40500 -0.33100 30.72700
C  16.59100 -0.71600 32.20700
C  17.86400 -1.61700 32.22700
C  17.98900 -1.90300 30.65500
C  19.11700 -1.02000 32.74100
C  15.42000 -1.22000 33.05800
C  15.15800 -0.51100 34.38300
H  16.41100 0.06100 35.17100
N  18.24900 -3.07400 27.76700
C  18.88000 -3.54200 28.89200
C  19.67300 -4.67600 28.53200
C  19.56700 -4.88800 27.17000
C  18.69200 -3.78600 26.69600
C  20.53200 -5.43300 29.50200
C  20.21300 -5.89400 26.21300
O  19.97900 -5.87200 25.01300
C  21.14600 -6.98500 26.76700
N  17.05200 -1.27700 25.73500
C  17.59700 -2.21700 24.91900
C  17.30500 -1.88000 23.41600
C  16.24900 -0.72600 23.45200
C  16.27200 -0.42800 24.96100
C  18.45300 -1.58000 22.47100
C  14.80400 -1.05400 22.88800
C  13.79800 -1.63300 23.91400
N  15.57600 0.25100 27.73100
C  14.90700 0.81000 26.65700
C  13.93600 1.74800 27.18000
C  14.12400 1.71100 28.59100
C  15.13900 0.78200 28.83300
C  12.83300 2.47700 26.38300
C  13.52900 2.16500 29.76300
O  12.54400 2.87100 30.06500
C  14.46800 1.52400 30.93100
C  15.24800 2.58500 31.58100
O  16.35200 2.95500 31.21000
O  14.68500 2.90000 32.80500
C  15.35900 3.90900 33.68400
H  19.39200 -3.50500 30.96400
H  18.72500 -3.99500 24.54300
H  14.86100 0.99600 24.53100
H  16.94800 0.23200 32.61000
H  17.74200 -2.58400 32.71500
H  19.38600 -1.35100 33.74400
H  19.00000 0.06000 32.64900
H  19.91500 -1.37500 32.09000
H  15.52700 -2.29500 33.20500
H  14.48900 -1.14900 32.49600
H  14.89900 -1.26100 35.13000
H  14.39600 0.24100 34.17800
H  21.53600 -5.29400 29.10100
H  20.29800 -6.49400 29.59200
H  20.59000 -5.02200 30.50900
H  20.66300 -7.67900 27.45400
H  22.05400 -6.56200 27.19900
H  21.67400 -7.44400 25.93100
H  16.84300 -2.83300 23.15900
H  16.58300 0.07100 22.78700
H  18.35900 -0.55600 22.10900
H  18.43100 -2.20700 21.57900
H  19.44500 -1.67800 22.91100
H  14.96500 -1.61800 21.96900
H  14.42400 -0.08100 22.57400
H  13.22100 -0.75800 24.21500
H  14.35500 -2.07600 24.73900
H  13.17800 -2.33700 23.35900
H  13.15700 3.50600 26.22400
H  11.88300 2.49100 26.91700
H  12.58600 1.91400 25.48400
H  13.81200 0.99300 31.62100
H  15.96800 3.32900 34.37700
H  14.72800 4.58300 34.26300
H  16.01900 4.57600 33.12800
Mg 43.35200 4.80700 47.10600
C  41.50900 7.87700 46.90300
C  40.27400 3.17900 46.51100
C  45.00100 2.12200 46.30800
C  46.27000 6.67600 46.86200
N  41.11000 5.48600 46.59300
C  40.65700 6.76000 46.74100
C  39.16400 6.77900 46.73100
C  38.76200 5.30000 46.84700
C  40.08400 4.52200 46.64000
C  38.08200 4.95500 48.13700
C  38.36600 7.52300 45.55700
C  39.14400 8.02000 44.37800
H  38.82700 7.39100 43.02000
N  42.76700 2.92300 46.56300
C  41.49900 2.39600 46.34400
C  41.53900 0.95400 46.25500
C  42.90300 0.62600 45.97700
C  43.62300 1.92800 46.26100
C  40.32400 0.12300 46.28800
C  43.51900 -0.67100 45.52500
O  42.75400 -1.61400 45.45600
C  44.95300 -0.92100 45.25400
N  45.45600 4.43100 46.69600
C  45.86600 3.24500 46.49300
C  47.38700 3.17200 46.12400
C  47.77800 4.64100 46.21300
C  46.42100 5.33000 46.57900
C  48.23500 2.31300 47.17000
C  48.38300 5.15600 44.86100
C  49.76600 5.76200 44.99700
N  43.85800 6.86300 47.03800
C  45.07100 7.46300 47.03300
C  44.90500 8.93800 47.17500
C  43.45700 9.06800 47.16200
C  42.87000 7.78700 47.06900
C  45.84400 10.03200 46.91000
C  42.42400 10.11200 47.11200
O  42.52700 11.33200 47.07300
C  41.06200 9.32900 47.08500
C  40.19100 9.62900 48.23900
O  40.15500 8.92200 49.21000
O  39.31800 10.66600 47.90700
C  38.35000 11.07600 48.93100
H  39.34100 2.61100 46.51000
H  45.72600 1.32400 46.13400
H  47.19200 7.25700 46.93300
H  38.84700 7.33000 47.61700
H  38.21500 5.12900 45.92100
H  38.70100 4.49600 48.90800
H  37.23400 4.31000 47.90800
H  37.73600 5.82700 48.69200
H  37.96300 8.43300 46.00400
H  37.44400 6.98400 45.34000
H  40.20300 7.80400 44.51200
H  39.08800 9.10600 44.29600
H  39.76600 0.24000 45.35900
H  39.67400 0.49400 47.08100
H  40.51100 -0.93600 46.46900
H  45.44400 -0.76700 46.21500
H  45.38500 -0.27100 44.49300
H  45.05100 -1.94200 44.88700
H  47.45400 2.82000 45.09400
H  48.40700 4.82900 47.08300
H  48.31900 1.27900 46.83500
H  47.68900 2.44000 48.10500
H  49.23300 2.75100 47.15700
H  47.78100 5.83800 44.26100
H  48.54900 4.38200 44.11200
H  49.86500 6.17800 45.99900
H  50.00000 6.54100 44.27200
H  50.40800 4.90100 44.80900
H  45.59400 10.68000 46.06900
H  46.79000 9.64000 46.53700
H  46.10900 10.68700 47.74000
H  40.61700 9.62600 46.13500
H  38.58700 12.00900 49.44100
H  38.19200 10.29500 49.67500
H  37.44300 11.30400 48.37200

