158

Mg -2.26200 17.73400 27.38300
C  -3.04600 15.60600 30.09100
C  -2.94400 20.40200 29.49700
C  -2.43700 19.77900 24.70800
C  -2.18200 14.96100 25.32700
N  -2.77500 17.94600 29.54600
C  -2.97900 16.95100 30.44700
C  -3.17600 17.57800 31.86600
C  -3.60800 19.04000 31.56100
C  -3.05800 19.15300 30.13900
C  -5.13600 19.33200 31.56600
C  -1.99900 17.35600 32.89900
C  -1.94200 18.18300 34.23100
H  -1.45400 17.61000 35.54300
N  -2.55400 19.79200 27.14100
C  -2.71700 20.70000 28.12300
C  -2.66300 22.09700 27.60200
C  -2.60700 21.91700 26.21400
C  -2.56400 20.48700 25.95300
C  -2.94200 23.28500 28.41900
C  -2.70200 22.95500 25.13200
O  -2.82900 22.76900 23.93200
C  -2.55900 24.37900 25.57200
N  -2.32200 17.37900 25.24700
C  -2.25300 18.41600 24.40100
C  -2.08300 17.83100 22.99300
C  -1.65100 16.33600 23.20300
C  -2.06500 16.18600 24.68900
C  -3.34800 18.05500 22.16100
C  -0.13000 16.19500 22.94800
C  0.81200 17.06100 23.76900
N  -2.51300 15.64100 27.58000
C  -2.51200 14.64600 26.60200
C  -2.73700 13.41000 27.23500
C  -2.95900 13.78900 28.61200
C  -2.81300 15.13300 28.79400
C  -2.64900 12.02100 26.68800
C  -3.28400 13.23000 29.91900
O  -3.54300 12.09800 30.25900
C  -3.27200 14.41500 30.94200
C  -2.07200 14.14000 31.79000
O  -0.87100 14.03600 31.48400
O  -2.50900 13.89200 33.09100
C  -1.50700 13.32600 34.04500
H  -3.24200 21.27800 30.07700
H  -2.35500 20.43600 23.84000
H  -1.85000 14.19000 24.62800
H  -4.06100 17.07800 32.26000
H  -3.18700 19.84200 32.16700
H  -5.44300 20.05000 32.32600
H  -5.67700 18.38600 31.55100
H  -5.50700 19.94100 30.74200
H  -1.08300 17.63800 32.37900
H  -1.87700 16.29800 33.12700
H  -2.89300 18.69900 34.36100
H  -1.21200 18.98200 34.10200
H  -3.20900 23.12800 29.46400
H  -3.92300 23.57800 28.04400
H  -2.22900 24.10900 28.38900
H  -3.46600 24.69900 26.08600
H  -2.61300 24.98200 24.66600
H  -1.66000 24.70100 26.09600
H  -1.28600 18.40400 22.52000
H  -2.26000 15.78600 22.48600
H  -4.09100 18.63600 22.70700
H  -3.91400 17.12400 22.14400
H  -3.21100 18.43900 21.15000
H  0.08800 16.41500 21.90300
H  0.20300 15.17400 23.13600
H  1.13900 16.51300 24.65300
H  0.32800 17.95900 24.15300
H  1.77800 17.20400 23.28600
H  -3.16300 11.98600 25.72700
H  -3.17000 11.38200 27.40000
H  -1.59500 11.74700 26.63400
H  -4.18900 14.29800 31.51900
H  -0.66200 13.99300 34.21700
H  -1.19300 12.40200 33.56000
H  -2.03500 12.98700 34.93700
Mg 17.07800 -0.93700 28.32100
C  16.01100 0.99700 31.07400
C  19.16000 -2.59200 30.52000
C  18.63400 -2.26700 25.65400
C  15.43200 1.38800 26.26000
N  17.61500 -0.76100 30.52800
C  16.98800 0.01500 31.47100
C  17.37400 -0.33400 32.85400
C  18.49700 -1.45200 32.65300
C  18.40000 -1.62500 31.11200
C  19.88600 -1.13300 33.19600
C  16.08600 -1.00300 33.54300
C  15.69700 -0.36800 34.89100
H  16.75000 0.45200 35.71900
N  18.42500 -2.43900 28.08200
C  19.15900 -2.99400 29.12300
C  19.84300 -4.15300 28.52400
C  19.81400 -4.03100 27.15900
C  18.95600 -2.88600 26.87700
C  20.40800 -5.25600 29.42400
C  20.49900 -4.88100 26.07400
O  20.30100 -4.57500 24.89200
C  21.39800 -6.04500 26.45100
N  17.11500 -0.44500 26.23700
C  17.83100 -1.18400 25.32800
C  17.59100 -0.67100 23.91900
C  16.50300 0.41400 24.12700
C  16.35600 0.49700 25.66400
C  18.87000 -0.30500 23.11400
C  15.20000 0.14100 23.35600
C  15.27100 0.62800 21.92300
N  15.87700 0.78700 28.55200
C  15.15100 1.56500 27.62200
C  14.26500 2.56800 28.27400
C  14.64200 2.35800 29.68600
C  15.59300 1.29300 29.78600
C  13.37700 3.53600 27.64100
C  14.34500 2.83600 30.98300
O  13.61700 3.74600 31.42200
C  15.27800 2.03100 32.03000
C  16.25000 2.98300 32.71100
O  17.36400 3.14000 32.32700
O  15.67700 3.57200 33.78600
C  16.40600 4.51800 34.55500
H  19.70100 -3.34100 31.10300
H  19.06900 -2.61900 24.71600
H  14.86200 1.94600 25.51400
H  17.72700 0.53400 33.41200
H  18.18300 -2.40300 33.08400
H  20.21000 -1.88500 33.91700
H  19.90100 -0.12100 33.59900
H  20.54500 -1.11200 32.32900
H  16.16100 -2.05400 33.82000
H  15.25600 -0.88400 32.84700
H  15.41300 -1.12600 35.62200
H  14.80800 0.22300 34.67000
H  20.71000 -6.05000 28.74200
H  19.70600 -5.60900 30.17900
H  21.34900 -4.98000 29.90100
H  20.71800 -6.78300 26.87600
H  22.22600 -5.81900 27.12200
H  21.89700 -6.41200 25.55400
H  17.05500 -1.38100 23.28900
H  16.92500 1.31800 23.68900
H  19.10800 0.74600 22.94900
H  18.83400 -0.78300 22.13600
H  19.73600 -0.73300 23.61900
H  14.40800 0.65100 23.90500
H  14.93600 -0.90700 23.21900
H  14.88700 -0.11300 21.22200
H  16.28600 0.87000 21.60900
H  14.61000 1.47500 21.73900
H  12.34200 3.26300 27.85000
H  13.49800 3.52800 26.55700
H  13.59500 4.56200 27.93700
H  14.60000 1.63400 32.78500
H  17.47200 4.29300 34.59600
H  16.00500 4.39500 35.56200
H  16.12800 5.52600 34.24900

