158

Mg 17.27400 -1.18300 27.36500
C  16.13800 0.50600 30.25100
C  19.27000 -2.97400 29.45700
C  18.84100 -2.39500 24.62800
C  15.71200 1.26600 25.44800
N  17.61100 -1.18600 29.69200
C  17.06200 -0.46900 30.63400
C  17.61400 -0.67200 31.97800
C  18.62600 -1.84600 31.66400
C  18.52100 -2.03300 30.15100
C  20.08900 -1.59700 32.28500
C  16.56900 -1.03300 33.03400
C  16.53500 -0.13900 34.30000
H  17.83200 0.23100 34.87900
N  18.70300 -2.62300 27.05500
C  19.44500 -3.28800 28.05300
C  20.30300 -4.27400 27.40700
C  20.12900 -4.17800 26.01400
C  19.10900 -3.09300 25.79700
C  21.17300 -5.25800 28.21400
C  20.73600 -4.97100 24.85900
O  20.35000 -4.88300 23.70200
C  21.87500 -5.96100 25.23500
N  17.38700 -0.59500 25.39400
C  18.15200 -1.19900 24.45000
C  18.08200 -0.42000 23.04700
C  17.07800 0.70200 23.44700
C  16.69900 0.47500 24.89600
C  19.45700 -0.02000 22.32700
C  15.80500 0.72700 22.51700
C  16.12700 0.74600 20.99100
N  16.04800 0.50400 27.69400
C  15.41500 1.32000 26.84300
C  14.65400 2.28600 27.52600
C  14.89800 2.06700 28.88500
C  15.79600 0.92700 28.92500
C  14.02100 3.43300 26.91900
C  14.63600 2.56200 30.19500
O  13.98800 3.52700 30.54300
C  15.30800 1.51300 31.19300
C  16.13000 2.34400 32.13200
O  17.33600 2.50900 32.10900
O  15.26500 2.94600 32.99300
C  15.78100 4.11200 33.72100
H  19.91000 -3.54900 30.12900
H  19.51500 -2.59100 23.79200
H  15.30700 2.10400 24.87700
H  18.07700 0.26700 32.28200
H  18.28400 -2.79000 32.08800
H  20.48700 -2.39600 32.91000
H  19.88800 -0.73200 32.91700
H  20.78000 -1.30600 31.49400
H  16.58900 -2.07000 33.36800
H  15.62800 -0.81700 32.52800
H  16.01200 -0.79000 35.00100
H  16.11900 0.79000 33.91000
H  21.10300 -6.32100 27.98100
H  20.74900 -5.31700 29.21700
H  22.18400 -4.88100 28.36500
H  21.54100 -6.86800 25.73900
H  22.50000 -5.47500 25.98400
H  22.53300 -6.08400 24.37500
H  17.66900 -1.22600 22.44100
H  17.65000 1.61300 23.27100
H  20.26400 0.20000 23.02600
H  19.32500 0.85200 21.68700
H  19.86400 -0.92800 21.88300
H  15.21400 1.59200 22.82100
H  15.22900 -0.15700 22.79400
H  16.06100 -0.31500 20.74900
H  17.04300 1.30900 20.81400
H  15.27900 1.18300 20.46300
H  14.51500 3.76500 26.00500
H  14.03900 4.25000 27.64100
H  13.02200 3.14300 26.59600
H  14.53000 0.96000 31.71800
H  14.95000 4.80400 33.58500
H  16.61100 4.68600 33.31000
H  16.05000 3.92900 34.76200
Mg 42.45600 41.06200 26.66900
C  41.73800 43.58700 29.02600
C  43.85200 39.21700 29.25000
C  43.21700 38.85200 24.39100
C  41.72400 43.41100 24.18000
N  42.77800 41.34300 28.94000
C  42.28500 42.43800 29.66100
C  42.39900 42.17100 31.17600
C  43.39900 40.91800 31.15200
C  43.38700 40.44800 29.66700
C  44.93500 41.18800 31.63000
C  40.92900 41.93000 31.80600
C  40.61000 42.90400 32.90700
H  39.98200 42.44700 34.28000
N  43.38500 39.24500 26.73800
C  43.84800 38.64300 27.92900
C  44.33800 37.27800 27.59500
C  44.07700 37.10400 26.19700
C  43.55700 38.43100 25.69400
C  45.03500 36.33500 28.57200
C  44.33500 35.84400 25.30700
O  44.21900 35.90100 24.09600
C  44.60500 34.59900 25.89400
N  42.50600 41.24200 24.62000
C  42.76300 40.09600 23.87400
C  42.53000 40.25500 22.37000
C  41.95800 41.68300 22.32900
C  42.13200 42.20400 23.76600
C  43.85000 40.03900 21.52300
C  40.48400 41.76300 21.79000
C  40.00200 43.18400 21.36200
N  41.68900 43.00700 26.60700
C  41.42500 43.87000 25.55200
C  40.99700 45.16800 25.97400
C  41.00300 45.05400 27.37900
C  41.52100 43.76100 27.65900
C  40.68900 46.36800 25.18700
C  40.61900 45.76400 28.68100
O  40.10300 46.83200 28.97500
C  41.17900 44.78100 29.74300
C  42.28500 45.51700 30.35500
O  43.23100 45.93500 29.75500
O  42.12400 45.69300 31.71700
C  43.10600 46.57400 32.46500
H  44.15100 38.56700 30.07600
H  43.22500 38.04800 23.65200
H  41.43500 44.15000 23.43000
H  42.96800 42.99900 31.59800
H  43.00800 40.06300 31.70200
H  44.85600 42.16100 32.11400
H  45.50900 41.18200 30.70300
H  45.27900 40.46200 32.36700
H  40.90200 40.96000 32.30200
H  40.05500 41.92500 31.15500
H  39.84600 43.58500 32.53000
H  41.46900 43.53500 33.13700
H  46.09700 36.47000 28.77800
H  44.86100 35.26700 28.44400
H  44.61800 36.55200 29.55600
H  43.89900 34.49100 26.71800
H  45.61300 34.53900 26.30300
H  44.34900 33.80600 25.19100
H  41.76400 39.56000 22.02700
H  42.57700 42.30300 21.68000
H  44.62300 40.80500 21.58900
H  43.51000 40.03600 20.48700
H  44.21200 39.04500 21.78500
H  39.94700 41.46800 22.69100
H  40.31900 40.96300 21.06800
H  39.40600 43.54700 22.19900
H  39.35800 43.28200 20.48900
H  40.92100 43.76800 21.30300
H  41.22100 47.20100 25.64600
H  39.63000 46.61300 25.26500
H  41.10400 46.26400 24.18500
H  40.45400 44.59100 30.53400
H  43.51700 45.93300 33.24500
H  42.71400 47.53500 32.79800
H  43.99900 46.81500 31.88800

