158

Mg 53.04700 23.19100 44.34200
C  50.44400 25.37600 43.33900
C  51.42100 20.61300 42.97600
C  55.87400 21.47300 44.68400
C  54.76100 25.94900 45.79700
N  51.23800 23.04600 43.19500
C  50.29400 24.04700 42.95000
C  48.98000 23.41700 42.43100
C  49.28500 21.89900 42.49400
C  50.77100 21.81000 42.87700
C  48.38800 21.15800 43.48800
C  48.67600 23.86100 40.89900
C  49.78100 23.82400 39.90000
H  49.55600 24.35000 38.48600
N  53.57900 21.25600 43.82300
C  52.73600 20.31900 43.32200
C  53.45300 19.06000 43.21600
C  54.81200 19.32900 43.67100
C  54.82300 20.79000 44.05500
C  52.80200 17.84900 42.65500
C  55.97200 18.29200 43.59400
O  55.90400 17.25100 42.98600
C  57.24100 18.61900 44.32200
N  55.23900 23.78100 44.75000
C  56.09500 22.81200 44.98000
C  57.32500 23.20200 45.83500
C  56.91400 24.71100 46.11400
C  55.52700 24.82700 45.57400
C  57.83100 22.37800 46.95500
C  57.85900 25.82900 45.57100
C  58.58800 26.57700 46.69400
N  52.75000 25.29900 44.65000
C  53.45800 26.19400 45.36400
C  52.61600 27.37900 45.54600
C  51.41000 27.11400 44.78500
C  51.64600 25.87200 44.13800
C  52.98300 28.56700 46.27600
C  50.13800 27.73500 44.35200
O  49.65900 28.82100 44.58400
C  49.51400 26.56100 43.40100
C  49.20000 27.08400 42.02900
O  49.88500 26.97500 41.03700
O  47.94100 27.70900 42.04200
C  47.36000 28.07000 40.73200
H  50.87000 19.73200 42.63900
H  56.66000 20.87700 45.15200
H  55.29000 26.74200 46.33000
H  48.19600 23.76800 43.10200
H  49.15700 21.33300 41.57200
H  47.96400 20.31800 42.93800
H  47.59800 21.80000 43.87800
H  48.75600 20.69200 44.40300
H  48.30700 24.88500 40.94900
H  47.84400 23.20500 40.64500
H  50.29200 22.87100 40.03600
H  50.51300 24.56800 40.21400
H  53.50000 17.01700 42.56100
H  52.55300 18.00200 41.60500
H  52.13500 17.32100 43.33500
H  57.09700 18.86900 45.37300
H  57.68000 19.43400 43.74600
H  57.97500 17.81600 44.25300
H  58.15400 23.28500 45.13200
H  56.81800 24.82600 47.19400
H  57.79400 23.09300 47.77600
H  58.86300 22.04800 46.83700
H  57.15800 21.54300 47.15100
H  57.37700 26.40300 44.77900
H  58.66400 25.31100 45.04800
H  59.59800 26.27000 46.96600
H  57.97000 26.67900 47.58500
H  58.57100 27.62500 46.39400
H  52.02900 28.94100 46.64800
H  53.46500 29.30700 45.63700
H  53.53400 28.42600 47.20600
H  48.60300 26.21800 43.89200
H  47.14900 29.11700 40.51600
H  46.40500 27.54400 40.73600
H  47.92100 27.58900 39.93200
Mg 47.45600 16.31600 27.93100
C  45.27000 15.69800 30.68900
C  49.54400 17.77800 30.34300
C  49.09700 17.80700 25.51300
C  45.12300 15.09300 25.87300
N  47.35400 16.76700 30.26000
C  46.46100 16.30700 31.13200
C  46.80900 16.56800 32.61500
C  48.02500 17.57300 32.41100
C  48.38100 17.33900 30.95500
C  47.73100 19.06000 32.73400
C  47.02800 15.23100 33.44000
C  46.69800 15.30600 34.91500
H  46.27600 16.62900 35.62600
N  49.19700 17.41700 27.92800
C  49.96800 17.81100 29.00000
C  51.22100 18.29900 28.48600
C  51.02800 18.47700 27.04600
C  49.69000 17.87600 26.78400
C  52.39200 18.69400 29.34000
C  51.97000 18.99700 25.91700
O  51.68200 19.10200 24.70600
C  53.34300 19.29600 26.31800
N  47.13500 16.51700 26.02700
C  47.90800 17.26700 25.14300
C  47.44900 17.17300 23.63100
C  46.41600 15.98600 23.80000
C  46.15800 15.87000 25.34000
C  46.73700 18.48600 23.14100
C  46.97000 14.62700 23.19600
C  45.94400 13.71600 22.61300
N  45.58300 15.53600 28.14500
C  44.76100 14.96400 27.21800
C  43.58900 14.39800 27.80600
C  43.74100 14.64900 29.19200
C  44.99200 15.35400 29.35000
C  42.43100 13.70800 27.14400
C  43.11500 14.50600 30.48000
O  42.09100 13.91200 30.78500
C  44.05500 15.19900 31.48000
C  43.32200 16.24100 32.29100
O  42.75200 17.19400 31.86500
O  43.31200 15.77700 33.59700
C  42.65200 16.72200 34.55100
H  50.31700 18.32900 30.88300
H  49.49700 18.29300 24.62100
H  44.47700 14.60800 25.13800
H  45.93600 17.07300 33.02900
H  48.90400 17.20800 32.94200
H  46.70900 19.29500 33.03000
H  48.05300 19.64800 31.87500
H  48.33200 19.48500 33.53800
H  48.09900 15.05700 33.33600
H  46.43400 14.42500 33.00800
H  47.63600 15.03400 35.39900
H  46.02600 14.52400 35.26800
H  53.21700 18.04700 29.04200
H  52.20700 18.49400 30.39600
H  52.70800 19.73700 29.33000
H  53.75200 18.37200 26.72900
H  53.46900 20.06000 27.08500
H  53.84900 19.67100 25.42800
H  48.27800 16.86600 22.99300
H  45.42700 16.19100 23.39100
H  47.09500 19.34000 23.71600
H  45.64900 18.42600 23.16800
H  47.00700 18.67800 22.10300
H  47.59100 14.14600 23.95200
H  47.59200 14.96200 22.36500
H  46.19500 13.36500 21.61200
H  45.02300 14.30000 22.60000
H  45.89400 12.84400 23.26500
H  42.22200 14.09200 26.14500
H  41.52300 13.86300 27.72700
H  42.66200 12.64200 27.13400
H  44.41300 14.48400 32.22100
H  42.94200 17.73700 34.28000
H  42.89700 16.47500 35.58400
H  41.58200 16.54800 34.43500

