158

Mg 54.98500 23.76300 45.12500
C  52.48000 26.00800 44.08200
C  52.88700 21.16900 43.91100
C  57.50300 21.51400 45.38100
C  57.10600 26.47600 45.86100
N  52.89200 23.66900 44.00500
C  52.08600 24.68000 43.80300
C  50.72900 24.16800 43.21400
C  50.75500 22.67500 43.64800
C  52.22900 22.47000 43.83000
C  49.82100 22.27200 44.85300
C  50.42000 24.42200 41.70400
C  48.99600 24.36500 41.19000
H  48.97200 24.16700 39.63100
N  55.15400 21.66100 44.72200
C  54.17300 20.78500 44.30400
C  54.63400 19.41700 44.13000
C  55.99500 19.46000 44.57000
C  56.34200 20.87800 44.89200
C  53.79700 18.21400 43.71800
C  56.92500 18.25800 44.62700
O  56.47400 17.15300 44.24100
C  58.40100 18.34800 45.00400
N  57.00100 23.98600 45.54100
C  57.81900 22.85600 45.65900
C  59.25400 23.33600 46.04200
C  59.14700 24.98400 46.14200
C  57.68400 25.21100 45.83000
C  59.98300 22.53000 47.21300
C  60.11600 25.78400 45.21300
C  60.77100 27.02700 45.75900
N  54.84900 25.84200 45.00800
C  55.75800 26.84100 45.48400
C  55.05100 28.12000 45.49700
C  53.80300 27.84700 44.90500
C  53.70100 26.48500 44.68200
C  55.59000 29.38200 46.08700
C  52.54000 28.45600 44.51600
O  52.13100 29.61600 44.56100
C  51.61900 27.27100 43.91700
C  51.39900 27.57600 42.42400
O  52.30300 27.73000 41.58800
O  50.10100 27.86000 42.21800
C  49.72900 28.23100 40.85400
H  52.26600 20.35100 43.54000
H  58.43700 20.96200 45.51200
H  57.71000 27.32000 46.19800
H  49.98300 24.70700 43.79900
H  50.39600 21.99000 42.88100
H  50.41200 22.08400 45.74900
H  49.30800 21.34200 44.60900
H  49.03800 22.99800 45.07400
H  50.92200 23.62000 41.16200
H  50.92900 25.36500 41.50500
H  48.44100 25.28700 41.36500
H  48.49300 23.50700 41.63700
H  53.79700 17.99600 42.65000
H  52.77400 18.32800 44.07700
H  54.15000 17.30200 44.19900
H  58.79100 17.33300 45.08100
H  58.43700 18.76200 46.01100
H  59.00600 18.84900 44.24800
H  59.76700 23.11500 45.10600
H  59.25400 25.21500 47.20200
H  60.98900 22.30000 46.86300
H  59.45200 21.60900 47.45500
H  60.03400 23.19100 48.07800
H  59.50600 26.20100 44.41200
H  60.79800 25.07400 44.74600
H  61.79400 26.96600 45.38700
H  60.73500 27.05400 46.84800
H  60.32800 27.89400 45.26800
H  56.68000 29.37300 46.07200
H  55.22300 29.41900 47.11300
H  55.15300 30.24900 45.59300
H  50.58900 27.21300 44.26900
H  50.35800 27.77000 40.09300
H  49.76000 29.30900 40.69500
H  48.72500 27.86500 40.64000
Mg -5.25800 25.06500 26.14100
C  -4.03300 26.54500 28.98300
C  -7.27700 23.08900 28.11600
C  -6.20700 23.61100 23.38900
C  -2.88000 27.13900 24.27400
N  -5.64600 24.85000 28.40500
C  -4.98700 25.53200 29.34100
C  -5.57100 25.19300 30.78700
C  -6.47300 23.90600 30.46500
C  -6.51000 23.99100 28.90800
C  -5.98300 22.53700 30.87200
C  -6.37400 26.41700 31.30300
C  -6.00200 26.90700 32.75500
H  -5.69400 25.94100 33.82800
N  -6.54100 23.53800 25.78200
C  -7.34200 22.91800 26.71500
C  -8.27200 22.00600 26.02700
C  -7.98000 22.10300 24.61700
C  -6.82100 23.11500 24.55200
C  -9.35600 21.19100 26.77100
C  -8.57300 21.39200 23.47700
O  -8.11200 21.50300 22.37700
C  -9.71100 20.34800 23.67000
N  -4.56500 25.29300 24.10500
C  -5.18000 24.55300 23.16700
C  -4.71400 24.95200 21.76400
C  -3.60400 26.10500 22.02100
C  -3.63100 26.20900 23.59200
C  -4.13700 23.73000 20.99400
C  -3.91700 27.41900 21.31900
C  -3.09800 27.89900 20.09500
N  -3.71700 26.54900 26.46700
C  -2.89900 27.28600 25.65700
C  -2.10600 28.26500 26.48000
C  -2.58100 27.98000 27.73400
C  -3.57300 27.00200 27.70900
C  -1.08600 29.24400 25.95300
C  -2.25700 28.23100 29.04500
O  -1.29700 28.97400 29.45000
C  -3.25900 27.40200 29.97800
C  -2.49200 26.57200 30.89500
O  -2.26100 25.39900 30.67900
O  -2.18600 27.32400 32.00300
C  -1.10900 26.71500 32.78000
H  -7.97400 22.53500 28.74800
H  -6.56000 23.28000 22.41100
H  -2.23700 27.88700 23.80500
H  -4.83000 24.98300 31.55900
H  -7.49300 24.06400 30.81700
H  -6.71500 22.13900 31.57400
H  -5.01300 22.60000 31.36400
H  -5.93200 21.92300 29.97300
H  -7.40500 26.06100 31.28600
H  -6.36000 27.30700 30.67500
H  -6.91900 27.40300 33.07400
H  -5.30800 27.73600 32.61500
H  -10.14500 21.89300 27.04000
H  -8.89600 20.80900 27.68300
H  -9.82400 20.32100 26.31100
H  -10.68900 20.71800 23.98000
H  -9.19600 19.57600 24.24100
H  -9.90500 20.11200 22.62400
H  -5.53200 25.42100 21.21700
H  -2.62800 25.73000 21.71300
H  -4.30100 23.64300 19.92000
H  -4.48900 22.81500 21.46900
H  -3.08900 23.70300 21.29400
H  -3.77600 28.22300 22.04200
H  -4.98300 27.40800 21.09100
H  -2.90600 28.97100 20.13400
H  -3.69400 27.69700 19.20500
H  -2.18800 27.31900 19.93800
H  -1.26500 30.24200 26.35400
H  -1.07200 29.32500 24.86600
H  -0.09700 28.86400 26.20900
H  -3.92800 28.15700 30.39100
H  -0.25300 26.74600 32.10500
H  -1.28500 25.64300 32.86600
H  -0.81400 27.16800 33.72600

