158

Mg 2.36700 -0.61900 43.00800
C  5.79900 0.31500 42.70000
C  1.60600 2.58700 41.98400
C  -0.69800 -1.70000 42.79500
C  3.53100 -3.92800 43.78200
N  3.62800 1.21900 42.40400
C  5.00000 1.43400 42.48400
C  5.38700 2.84700 41.98000
C  3.99700 3.58800 42.07300
C  2.97800 2.39700 42.16900
C  3.72200 4.67600 43.20600
C  6.03800 2.77500 40.65900
C  5.73900 1.68000 39.59700
H  5.83000 2.02000 38.05100
N  0.64900 0.33700 42.42500
C  0.50500 1.68000 42.06500
C  -0.93200 1.97900 41.94300
C  -1.59900 0.74200 42.13300
C  -0.57300 -0.28200 42.45100
C  -1.54500 3.28200 41.71800
C  -3.11100 0.48100 42.00100
O  -3.78400 1.43000 41.62600
C  -3.78200 -0.90300 42.22900
N  1.51100 -2.59800 43.16100
C  0.15700 -2.69300 43.15500
C  -0.35400 -4.11300 43.50500
C  1.04800 -4.83400 43.84100
C  2.10700 -3.73400 43.58900
C  -1.42100 -4.22800 44.59100
C  1.34700 -6.19300 42.93400
C  0.60400 -7.41800 43.42100
N  4.24900 -1.67500 43.31000
C  4.53900 -2.98100 43.58900
C  5.93900 -3.14300 43.65100
C  6.40200 -1.90200 43.29100
C  5.39200 -1.02600 43.17300
C  6.81100 -4.31900 43.99700
C  7.63000 -1.23000 43.11500
O  8.78400 -1.65300 43.21900
C  7.27000 0.19800 42.70500
C  7.95600 1.20500 43.56200
O  8.78100 2.04400 43.22000
O  7.39900 1.26200 44.79600
C  8.07000 2.12300 45.82100
H  1.43000 3.64600 41.78700
H  -1.66300 -2.19300 42.65700
H  3.93900 -4.91600 44.00500
H  6.09800 3.31900 42.65800
H  3.84400 4.16500 41.16100
H  2.79400 4.56500 43.76700
H  3.72300 5.70700 42.85300
H  4.50000 4.63600 43.96900
H  7.11800 2.86800 40.76400
H  5.67800 3.56900 40.00500
H  4.67700 1.47100 39.72500
H  6.35600 0.82000 39.86000
H  -1.76600 3.45700 40.66500
H  -0.67500 3.86000 42.03000
H  -2.36100 3.42600 42.42600
H  -3.31100 -1.38000 43.08800
H  -3.53400 -1.32300 41.25400
H  -4.82800 -0.64300 42.39100
H  -0.76000 -4.42700 42.54400
H  1.10900 -5.14200 44.88500
H  -0.93800 -4.27800 45.56700
H  -2.10600 -5.05700 44.41100
H  -1.96700 -3.29500 44.45200
H  2.42500 -6.35400 42.91000
H  0.98900 -5.94400 41.93500
H  0.30500 -7.30400 44.46300
H  1.11300 -8.37800 43.34300
H  -0.31700 -7.62000 42.87400
H  6.56000 -5.24700 43.48300
H  6.92500 -4.50700 45.06400
H  7.81800 -4.22200 43.59100
H  7.73000 0.27800 41.72100
H  9.04000 2.46700 45.46200
H  8.18900 1.60200 46.77100
H  7.40800 2.97900 45.95500
Mg 47.23600 35.53100 28.45900
C  45.54600 33.65500 31.10000
C  47.36900 38.08200 30.70000
C  48.03900 37.44400 25.89300
C  46.49600 32.88200 26.25200
N  46.42200 35.85100 30.71700
C  46.03900 34.88800 31.55300
C  46.24100 35.35800 33.00200
C  46.35200 36.93600 32.72600
C  46.83500 36.97000 31.36500
C  45.02700 37.64600 32.95500
C  47.39400 34.75400 33.75100
C  47.22600 34.67500 35.31100
H  46.00600 35.44900 35.90500
N  47.67300 37.49800 28.25700
C  47.77100 38.39600 29.36300
C  48.36000 39.64000 28.89100
C  48.60300 39.43800 27.49400
C  48.20000 38.09700 27.16300
C  48.68800 40.78800 29.73300
C  49.34300 40.43700 26.50500
O  49.64200 40.11200 25.41100
C  49.76200 41.82900 26.96000
N  47.19300 35.18900 26.35900
C  47.61200 36.18000 25.52400
C  47.43000 35.70000 24.05500
C  47.16200 34.24000 24.19800
C  47.00500 34.07700 25.69400
C  46.28000 36.54400 23.47300
C  48.20300 33.25000 23.60100
C  47.54500 32.15700 22.73200
N  46.37000 33.58900 28.61900
C  46.20100 32.63700 27.64900
C  45.64800 31.42600 28.26100
C  45.35100 31.76900 29.56600
C  45.73700 33.13800 29.72300
C  45.23100 30.24300 27.55000
C  44.77900 31.30200 30.85800
O  44.27000 30.20000 31.08300
C  44.84100 32.46600 31.82800
C  45.46500 31.99100 33.08200
O  46.65500 31.69800 33.20300
O  44.50900 31.66300 34.07900
C  44.99400 31.12500 35.35400
H  47.42900 39.00700 31.27700
H  48.29500 38.13600 25.08800
H  46.23700 32.03300 25.61700
H  45.38200 35.00600 33.57300
H  47.12000 37.40400 33.34300
H  45.07200 38.10900 33.94100
H  44.18200 36.95900 32.97900
H  44.97900 38.44200 32.21100
H  48.24600 35.38200 33.49200
H  47.74200 33.77200 33.43100
H  48.10700 35.19100 35.69200
H  47.20100 33.63800 35.64500
H  48.05700 41.63300 29.45700
H  49.76100 40.97700 29.76200
H  48.54800 40.63000 30.80300
H  49.06900 42.34000 27.62700
H  49.93600 42.40500 26.05100
H  50.72900 41.68800 27.44200
H  48.34700 35.97400 23.53400
H  46.23400 33.91700 23.72600
H  46.04100 37.21700 24.29500
H  45.33400 36.01700 23.34600
H  46.64300 37.01100 22.55700
H  48.76500 32.70200 24.35700
H  48.96900 33.68800 22.96100
H  46.55000 32.42700 22.37700
H  47.53100 31.20200 23.25600
H  48.15000 32.03700 21.83300
H  46.05100 29.94300 26.89800
H  44.34200 30.37300 26.93200
H  45.05300 29.36200 28.16600
H  43.78900 32.62700 32.06000
H  45.95000 31.56100 35.64500
H  45.04400 30.04700 35.50600
H  44.27800 31.49800 36.08600

