158

Mg 1.05700 8.07400 27.70700
C  1.96900 10.42300 30.15500
C  1.42000 5.60500 30.00800
C  0.80000 5.95800 25.23400
C  1.29300 10.66400 25.24600
N  1.52600 8.03500 29.92300
C  1.78600 9.14800 30.71200
C  1.69400 8.75500 32.18500
C  2.00500 7.18100 32.08800
C  1.65900 6.85800 30.61500
C  3.47000 6.75100 32.49700
C  0.32500 9.10400 32.83000
C  0.07700 8.91000 34.31600
H  1.18800 8.26200 35.12400
N  0.89700 6.00400 27.62100
C  1.07500 5.16000 28.67700
C  0.95200 3.82300 28.24700
C  0.59200 3.87700 26.87400
C  0.76800 5.28900 26.47100
C  0.93300 2.59300 29.14700
C  0.16300 2.79600 26.00200
O  -0.20300 3.04400 24.85700
C  0.02600 1.43800 26.53800
N  1.19900 8.28100 25.56500
C  1.00100 7.25200 24.78200
C  0.87600 7.65700 23.36000
C  0.76000 9.23100 23.39200
C  1.08600 9.41900 24.84800
C  2.17000 7.22600 22.63100
C  -0.55500 9.80600 22.91100
C  -0.49800 10.85000 21.73300
N  1.47700 10.08400 27.65100
C  1.56200 10.94400 26.60200
C  2.02500 12.23600 27.14400
C  2.26800 12.04900 28.50300
C  1.93300 10.74500 28.76300
C  2.12500 13.42600 26.28300
C  2.59000 12.74600 29.68800
O  3.05600 13.82900 29.91100
C  2.41400 11.68900 30.80600
C  3.62700 11.43900 31.64100
O  4.53800 10.66700 31.36000
O  3.57100 12.18700 32.80300
C  4.73300 12.06400 33.63100
H  1.55100 4.85300 30.78900
H  0.56500 5.26100 24.42700
H  1.43000 11.41800 24.46800
H  2.45200 9.32200 32.72500
H  1.27600 6.68100 32.72600
H  3.83000 6.24000 31.60500
H  3.28600 5.98700 33.25100
H  4.16200 7.48500 32.91200
H  -0.47100 8.55600 32.32500
H  0.24200 10.17300 32.63100
H  -0.88000 8.41800 34.48700
H  -0.08200 9.81200 34.90700
H  -0.11800 2.32100 29.24300
H  1.35900 2.85200 30.11600
H  1.63100 1.79300 28.90300
H  -0.43600 0.90600 25.70600
H  -0.64100 1.42000 27.40000
H  1.03700 1.03200 26.56600
H  -0.03500 7.19500 22.97900
H  1.54600 9.78700 22.88100
H  2.53100 6.29900 23.07600
H  2.94500 7.99100 22.58900
H  2.00200 6.85300 21.62100
H  -1.01100 10.38200 23.71600
H  -1.24000 9.05700 22.51200
H  -0.79800 11.69100 22.35900
H  -1.11800 10.45200 20.93000
H  0.53800 10.97100 21.41800
H  1.12500 13.71400 25.96000
H  2.74200 13.25900 25.40000
H  2.53500 14.27500 26.83100
H  1.66800 11.95700 31.55400
H  4.73900 12.72200 34.50000
H  5.62200 12.44100 33.12600
H  5.00500 11.04000 33.88700
Mg 8.56400 48.87900 25.00200
C  6.53900 49.40300 27.90100
C  11.10800 50.37500 26.86600
C  10.51300 48.37900 22.43600
C  5.71200 48.40200 23.14900
N  8.77100 49.83800 27.15700
C  7.88600 49.72300 28.21600
C  8.50900 50.16300 29.59600
C  9.82200 50.84300 29.07000
C  9.90500 50.38100 27.57900
C  9.88200 52.36100 29.16800
C  8.80600 49.09800 30.67800
C  8.33300 49.54700 32.04600
H  8.14300 48.50200 33.07300
N  10.56500 49.27200 24.69700
C  11.44800 49.79500 25.59700
C  12.79100 49.55800 25.04700
C  12.64200 48.80100 23.80300
C  11.23200 48.80200 23.59000
C  13.98100 50.02700 25.75400
C  13.59400 48.08100 22.79300
O  13.26900 47.41500 21.85700
C  15.10200 48.22800 22.96900
N  8.22900 48.45600 23.08800
C  9.17900 48.28200 22.16700
C  8.61800 47.92000 20.76500
C  7.03300 47.97600 21.00900
C  7.00100 48.18000 22.52900
C  9.06700 48.97300 19.72200
C  6.31400 46.60200 20.63200
C  5.46200 46.59600 19.38000
N  6.54100 48.88400 25.38400
C  5.49900 48.64100 24.56800
C  4.25600 48.77200 25.28600
C  4.61100 49.02100 26.61500
C  6.00800 49.13400 26.66500
C  2.88700 48.72900 24.63600
C  4.11800 49.25800 27.94400
O  2.92600 49.22900 28.35700
C  5.37600 49.48900 28.85400
C  5.36500 48.50600 29.88300
O  5.82900 47.32600 29.71300
O  4.55200 48.90500 30.94100
C  4.27100 47.84500 32.01800
H  11.86300 50.76600 27.55100
H  11.14800 48.13600 21.58200
H  4.80900 48.38500 22.53500
H  8.00500 51.06200 29.95000
H  10.75700 50.52400 29.53100
H  9.13000 52.82900 29.80300
H  9.57900 52.61300 28.15100
H  10.90800 52.65600 29.38500
H  9.88000 48.94800 30.78900
H  8.46200 48.08700 30.45900
H  7.42800 50.07700 31.74800
H  9.08900 50.17800 32.51300
H  14.65100 50.66500 25.17800
H  14.59500 49.21500 26.14600
H  13.70700 50.61100 26.63300
H  15.30200 49.29800 23.02400
H  15.58800 47.72100 22.13600
H  15.31700 47.83500 23.96200
H  8.90800 46.92600 20.42500
H  6.54000 48.83700 20.55700
H  9.88900 49.53900 20.15900
H  8.22800 49.54600 19.32700
H  9.38400 48.34400 18.89000
H  5.62500 46.25600 21.40200
H  7.12900 45.89100 20.76300
H  5.47900 47.59200 18.93700
H  4.43500 46.37600 19.67100
H  5.79800 45.79200 18.72500
H  2.10300 49.21500 25.21700
H  2.60600 47.67700 24.58500
H  2.81200 49.06700 23.60200
H  5.20100 50.49200 29.24400
H  3.64600 48.27700 32.79900
H  5.19800 47.54000 32.50300
H  3.66400 47.07100 31.55000

