158

Mg 35.80300 48.62700 25.22400
C  35.89400 47.06600 28.26300
C  34.32800 51.27800 26.64700
C  35.20800 49.73400 22.14300
C  37.11200 45.61800 23.76000
N  35.35300 49.17800 27.20700
C  35.56700 48.41200 28.33300
C  35.22600 49.14500 29.72300
C  34.61700 50.40900 29.06100
C  34.84400 50.36300 27.57700
C  33.24900 50.96000 29.59500
C  36.54700 49.18300 30.63600
C  36.27200 48.92300 32.12500
H  35.89500 50.15600 32.96600
N  34.92400 50.37700 24.51000
C  34.38600 51.33600 25.23500
C  34.06000 52.49500 24.34100
C  34.27500 52.01100 23.00500
C  34.84200 50.64100 23.15700
C  33.52300 53.75100 24.88900
C  33.86400 52.55100 21.60100
O  34.02000 52.01800 20.51200
C  33.16100 53.85900 21.52400
N  36.18200 47.76300 23.21300
C  35.69000 48.43200 22.15900
C  35.75000 47.54700 20.89300
C  36.76800 46.46500 21.28100
C  36.76800 46.56900 22.83900
C  34.34500 46.95300 20.53800
C  38.26200 46.61300 20.76600
C  38.46600 46.05800 19.36800
N  36.43300 46.73500 25.83600
C  36.94900 45.61300 25.14400
C  37.09300 44.47600 25.99200
C  36.61300 44.94000 27.27800
C  36.25100 46.33100 27.13100
C  37.53400 43.06100 25.58100
C  36.34500 44.60400 28.71100
O  36.50500 43.56000 29.38100
C  35.96000 46.00400 29.36500
C  34.65400 45.78300 30.09000
O  33.58000 45.93500 29.60300
O  34.97100 45.47700 31.43000
C  33.69700 45.13300 32.16900
H  33.90000 52.18100 27.08600
H  34.96800 50.19500 21.18300
H  37.45600 44.67100 23.33800
H  34.44400 48.54000 30.18200
H  35.37100 51.10300 29.43000
H  32.43100 50.93000 28.87500
H  33.31200 52.02100 29.83600
H  32.93900 50.42000 30.49000
H  36.96200 50.18800 30.56800
H  37.33100 48.56200 30.20400
H  37.25700 48.63800 32.49600
H  35.65700 48.05400 32.36000
H  33.44700 54.49300 24.09400
H  34.30500 54.18900 25.50800
H  32.61800 53.54300 25.46100
H  32.23500 53.78100 22.09300
H  33.07900 54.25100 20.51000
H  33.71200 54.66800 22.00300
H  36.11100 48.11600 20.03600
H  36.42900 45.46100 21.02400
H  33.89400 47.38000 19.64200
H  33.68700 47.20000 21.37100
H  34.38500 45.86500 20.49400
H  38.95300 46.10300 21.43700
H  38.59200 47.64800 20.85100
H  38.47300 46.80600 18.57500
H  37.63600 45.37800 19.18000
H  39.37200 45.45400 19.40100
H  37.71600 43.12300 24.50800
H  36.90300 42.19000 25.76000
H  38.47400 42.88700 26.10400
H  36.68100 46.21200 30.15600
H  33.87500 44.95000 33.22900
H  33.10100 44.28600 31.82800
H  33.08300 46.03200 32.13200
Mg 8.78700 47.86600 26.99100
C  7.28800 47.54500 30.16000
C  11.76400 48.41500 28.52700
C  9.89900 48.85200 24.09000
C  5.46800 47.64300 25.65900
N  9.43700 47.97700 29.16300
C  8.68600 47.68900 30.22800
C  9.55000 47.80200 31.52300
C  10.95900 48.35200 30.98900
C  10.72300 48.26100 29.47500
C  11.42800 49.82300 31.44300
C  9.68800 46.53100 32.43400
C  9.48300 46.90300 33.91300
H  9.64100 45.84300 34.94800
N  10.56700 48.33900 26.35400
C  11.69400 48.58600 27.16200
C  12.79700 48.75100 26.24600
C  12.32400 48.79100 24.95200
C  10.89600 48.76000 25.04400
C  14.23700 48.69000 26.74700
C  13.09700 48.82600 23.55200
O  12.51400 48.90300 22.45900
C  14.58700 48.83000 23.59100
N  7.86000 48.03200 25.10200
C  8.54700 48.60500 24.07300
C  7.63100 48.92000 22.86500
C  6.23100 48.44600 23.35300
C  6.52400 47.96400 24.79900
C  7.74700 50.39000 22.34400
C  5.63800 47.37200 22.36800
C  5.12000 47.83700 21.03700
N  6.78800 47.62900 27.68600
C  5.61300 47.53900 27.04000
C  4.55300 47.49800 28.04300
C  5.20200 47.52900 29.24100
C  6.56900 47.64400 28.97700
C  3.07800 47.33700 27.76100
C  4.90900 47.56300 30.63000
O  3.85600 47.48000 31.19800
C  6.29900 47.43900 31.27600
C  6.33400 46.11100 31.95100
O  6.64400 45.01800 31.46400
O  5.96000 46.32800 33.17900
C  6.14300 45.23100 34.12700
H  12.73700 48.60000 28.98500
H  10.27000 49.19900 23.12400
H  4.45700 47.76600 25.26500
H  9.14400 48.60200 32.14100
H  11.75300 47.61800 31.12600
H  12.48700 49.79900 31.69900
H  10.89200 50.13800 32.33700
H  11.18300 50.60600 30.72500
H  10.67600 46.08300 32.32800
H  8.91600 45.83000 32.11400
H  8.49000 47.33500 34.03800
H  10.26500 47.63100 34.12700
H  14.59800 49.64300 26.36000
H  14.83600 47.82500 26.46400
H  14.25100 48.65800 27.83600
H  14.99300 49.58000 24.27000
H  15.03500 48.98000 22.60800
H  14.86600 47.83300 23.93100
H  7.94200 48.29100 22.03100
H  5.59400 49.32600 23.45100
H  8.32100 51.06000 22.98500
H  6.76200 50.73200 22.02600
H  8.17000 50.39400 21.33900
H  4.76900 46.96900 22.88800
H  6.28600 46.51300 22.19700
H  5.39300 48.88700 20.92700
H  4.03100 47.79200 21.01100
H  5.63800 47.30000 20.24200
H  2.64300 46.71900 28.54600
H  2.90400 46.76300 26.85100
H  2.76000 48.38000 27.75600
H  6.42400 48.27800 31.96100
H  6.27500 45.64900 35.12500
H  7.02500 44.63100 33.90600
H  5.30600 44.55600 34.30800

