158

Mg 45.43100 4.65000 47.54200
C  43.43100 7.47900 47.43000
C  42.71200 2.77800 46.40500
C  47.34400 1.86700 47.70600
C  48.12500 6.53600 48.28300
N  43.37700 5.12700 46.82500
C  42.73500 6.29500 46.93400
C  41.20600 6.19500 46.55400
C  41.03800 4.65000 46.70100
C  42.50100 4.14000 46.54800
C  40.37300 4.06700 47.98400
C  40.93100 6.77500 45.14500
C  39.70100 7.68900 45.05800
H  38.62200 7.34600 44.02800
N  45.04000 2.56300 47.11800
C  43.87600 1.98700 46.71700
C  44.09800 0.53700 46.47100
C  45.42500 0.25200 46.74000
C  46.02000 1.59400 47.26700
C  42.94900 -0.38000 46.24200
C  46.09900 -1.07000 46.41500
O  45.47500 -1.98900 45.90700
C  47.60400 -1.24700 46.54900
N  47.45400 4.27800 47.77500
C  47.96000 3.01500 47.94600
C  49.42000 3.05200 48.44500
C  49.75400 4.62000 48.54300
C  48.36400 5.17500 48.21000
C  49.72700 2.28100 49.77500
C  50.84400 5.13300 47.57300
C  51.75900 6.30600 48.19900
N  45.75600 6.63900 47.77400
C  46.91400 7.28000 48.15900
C  46.58400 8.66400 48.49400
C  45.22600 8.80300 48.21100
C  44.78000 7.55500 47.78000
C  47.56400 9.69000 49.06400
C  44.12700 9.67800 48.24000
O  43.97900 10.83300 48.72700
C  42.88900 8.84400 47.65800
C  41.84500 8.96300 48.78300
O  42.04200 8.71800 49.95800
O  40.71100 9.39900 48.28200
C  39.67800 9.75900 49.26300
H  41.81400 2.22200 46.12500
H  47.85600 0.90900 47.81800
H  48.95800 7.14000 48.65000
H  40.66800 6.70300 47.35400
H  40.49500 4.25500 45.84300
H  40.07500 4.87100 48.65600
H  41.04000 3.40500 48.53700
H  39.43800 3.62900 47.63600
H  40.81400 5.90100 44.50300
H  41.78700 7.39100 44.87100
H  40.18000 8.64700 44.85500
H  39.22700 7.77000 46.03700
H  43.03600 -0.98000 45.33600
H  41.96500 0.08300 46.16900
H  42.83100 -1.01200 47.12200
H  47.87600 -2.26200 46.26000
H  47.93200 -1.22800 47.58800
H  48.09000 -0.45200 45.98300
H  49.98000 2.62900 47.61100
H  50.10100 4.85200 49.54900
H  48.79000 2.05400 50.28500
H  50.33000 2.75400 50.55100
H  50.20300 1.31200 49.62700
H  50.44200 5.38200 46.59100
H  51.50200 4.27600 47.42700
H  52.70700 6.54200 47.71400
H  51.95200 6.00500 49.22900
H  51.15700 7.20200 48.04500
H  48.21000 9.26800 49.83400
H  46.96200 10.48800 49.49700
H  48.24300 10.16100 48.35400
H  42.44200 9.27200 46.76100
H  39.40500 10.79300 49.05100
H  39.85200 9.71200 50.33800
H  38.81400 9.11500 49.10100
Mg 0.57600 44.36300 26.32000
C  2.83400 44.27100 29.06300
C  -1.94900 43.70400 28.68700
C  -1.44500 43.80000 23.84000
C  3.35700 44.55100 24.21000
N  0.50000 44.01200 28.69200
C  1.52000 44.20500 29.56300
C  1.05500 44.05500 30.96100
C  -0.43900 43.57700 30.79200
C  -0.70800 43.78300 29.30300
C  -0.63400 42.07800 31.30400
C  1.23100 45.43300 31.72700
C  1.60400 45.41800 33.24300
H  1.06000 44.23000 34.04400
N  -1.48500 44.08800 26.23700
C  -2.32200 43.77100 27.34500
C  -3.63600 43.89200 26.88300
C  -3.60800 43.74900 25.41800
C  -2.16800 43.87600 25.11100
C  -4.86400 44.12000 27.82300
C  -4.75400 43.60000 24.42700
O  -4.59100 43.50300 23.25200
C  -6.18100 43.50700 25.03300
N  0.94900 43.96600 24.33500
C  -0.06500 43.86900 23.51500
C  0.47500 43.90500 22.05100
C  1.79700 44.68600 22.19200
C  2.07900 44.39000 23.67900
C  0.51400 42.51600 21.38600
C  1.70500 46.16300 21.91400
C  2.40000 46.60900 20.60000
N  2.63600 44.38700 26.50800
C  3.66300 44.49400 25.57200
C  4.94800 44.63800 26.16000
C  4.63900 44.48800 27.52800
C  3.24600 44.35800 27.70800
C  6.26300 44.67300 25.47200
C  5.29500 44.48600 28.81000
O  6.47200 44.51400 29.09300
C  4.14000 44.25300 29.85000
C  4.33900 43.01400 30.70800
O  4.47800 41.90200 30.22200
O  4.22000 43.28200 32.02000
C  4.32900 42.14300 32.98600
H  -2.65600 43.39900 29.46100
H  -2.10200 43.74100 22.97000
H  4.17400 44.92700 23.59100
H  1.54600 43.24100 31.49600
H  -1.16100 44.09900 31.42000
H  0.26900 41.47500 31.40400
H  -1.22600 41.50900 30.58700
H  -1.21400 42.22700 32.21500
H  0.32000 46.00000 31.53400
H  1.94300 45.99500 31.12300
H  1.12700 46.33300 33.59300
H  2.68300 45.55000 33.32600
H  -5.47900 43.22900 27.95500
H  -5.49300 44.89400 27.38500
H  -4.61200 44.60500 28.76700
H  -6.24100 42.93600 25.96000
H  -6.73500 42.82100 24.39200
H  -6.68700 44.47200 25.04700
H  -0.26600 44.47500 21.48900
H  2.52800 44.15600 21.58200
H  -0.11500 41.81400 21.93300
H  1.47900 42.02200 21.49500
H  0.23800 42.66200 20.34100
H  2.06100 46.74600 22.76300
H  0.72400 46.58300 21.69300
H  3.15800 47.35800 20.83100
H  1.69900 47.16900 19.98100
H  2.98600 45.88800 20.03100
H  6.13600 45.52100 24.79900
H  6.55200 43.73600 24.99600
H  7.01500 44.96500 26.20500
H  4.05100 45.10600 30.52300
H  5.25300 41.59000 32.81600
H  3.48900 41.46300 32.83800
H  4.41200 42.54900 33.99300

