158

Mg 35.91200 2.50900 30.52600
C  33.72200 3.60100 32.90200
C  38.40000 2.47400 32.96700
C  38.19300 1.65200 28.05100
C  33.49700 2.78100 28.05000
N  36.03500 3.08600 32.67800
C  34.99500 3.35000 33.44400
C  35.37100 3.42800 34.95800
C  36.86600 3.21400 34.92700
C  37.13400 2.89200 33.45500
C  37.72200 4.32400 35.50100
C  34.60400 2.30500 35.69100
C  34.07700 2.79700 37.08900
H  34.97400 3.65500 38.00700
N  37.94500 2.17900 30.50400
C  38.77400 2.18200 31.61400
C  40.10500 1.72000 31.12600
C  40.03500 1.29700 29.79500
C  38.68600 1.69100 29.39000
C  41.34800 1.48200 32.06700
C  41.13000 0.61300 28.82100
O  40.90600 0.07300 27.75700
C  42.50600 0.49700 29.30700
N  35.82500 2.14800 28.40200
C  36.86100 1.91500 27.60100
C  36.63300 1.83000 26.09600
C  35.01000 2.09200 26.11900
C  34.72400 2.28300 27.65800
C  37.40100 2.97900 25.41700
C  34.20300 0.86300 25.59800
C  33.00600 1.25700 24.64900
N  34.00600 3.00300 30.43300
C  33.13100 3.14600 29.38500
C  31.85600 3.64700 29.87700
C  32.05100 3.85000 31.23000
C  33.34400 3.47200 31.50700
C  30.74100 4.13700 28.98600
C  31.40100 4.24200 32.45200
O  30.21600 4.59900 32.59600
C  32.47400 4.16900 33.57600
C  32.64500 5.60900 34.07000
O  33.27800 6.51400 33.51600
O  32.01500 5.77500 35.27700
C  32.17700 7.11900 35.90400
H  39.09000 2.35500 33.80600
H  38.85800 1.24000 27.28900
H  32.76000 2.93700 27.25900
H  35.09100 4.42000 35.31300
H  37.13400 2.25700 35.37500
H  38.26900 3.82700 36.30300
H  37.16800 5.13800 35.96800
H  38.50000 4.58300 34.78400
H  35.20200 1.40000 35.80000
H  33.69900 2.04400 35.14200
H  33.67000 1.98300 37.68800
H  33.22900 3.45800 36.90900
H  41.47700 0.40300 32.15100
H  41.10800 1.69800 33.10800
H  42.08600 2.18400 31.68100
H  43.11500 0.25200 28.43700
H  42.41000 -0.26700 30.07800
H  42.85500 1.40400 29.80000
H  36.87200 0.84600 25.69200
H  34.81200 2.99100 25.53500
H  37.29700 2.85100 24.33900
H  38.43500 2.92400 25.75700
H  36.92700 3.93900 25.62000
H  33.88700 0.28300 26.46500
H  34.91600 0.28500 25.01100
H  33.25900 0.92100 23.64400
H  33.07000 2.34200 24.56900
H  32.03800 0.95500 25.04800
H  30.74900 3.51700 28.08900
H  31.00100 5.17000 28.75700
H  29.72300 4.01100 29.35300
H  31.97300 3.54400 34.31500
H  32.80200 7.02500 36.79200
H  31.22000 7.54100 36.21400
H  32.66700 7.91000 35.33600
Mg 26.71900 49.22000 26.40900
C  24.79900 50.52700 29.17300
C  29.01600 48.16000 28.88400
C  28.73800 48.23400 24.01500
C  24.50200 50.76900 24.27100
N  26.79700 49.24800 28.81300
C  25.85100 49.80800 29.63500
C  26.23500 49.55000 31.13000
C  27.63500 48.93100 31.01400
C  27.85900 48.70500 29.48900
C  28.86600 49.58800 31.83000
C  25.18000 48.80600 31.95200
C  24.53900 49.41300 33.19700
H  24.02100 48.54400 34.26700
N  28.62100 48.30900 26.38600
C  29.42000 47.89400 27.52500
C  30.60700 47.17000 27.01900
C  30.52500 47.19400 25.62700
C  29.30600 47.98400 25.26700
C  31.74400 46.61100 27.92100
C  31.52000 46.67300 24.55200
O  31.42900 46.94400 23.34900
C  32.69900 45.80000 25.02900
N  26.55000 49.35800 24.44500
C  27.53500 48.88000 23.64500
C  27.25800 49.32400 22.18500
C  25.84800 49.89700 22.24700
C  25.57400 50.02500 23.71500
C  28.20800 50.33000 21.67500
C  24.75500 48.93900 21.62500
C  23.63700 49.68400 20.90200
N  25.01900 50.47400 26.66200
C  24.23500 50.95800 25.64500
C  23.14900 51.77400 26.26700
C  23.32900 51.62900 27.62200
C  24.44100 50.75100 27.79900
C  22.00100 52.38900 25.47000
C  22.83700 51.95500 28.90600
O  21.88900 52.71800 29.18400
C  23.66400 51.18500 29.98700
C  24.16300 52.23900 30.87100
O  25.17200 52.96500 30.79100
O  23.23900 52.37300 31.86100
C  23.43100 53.46800 32.76600
H  29.83400 47.77900 29.50000
H  29.41300 48.04300 23.17800
H  23.75200 51.23600 23.63000
H  26.32300 50.53700 31.58500
H  27.70600 47.91400 31.40000
H  29.26700 48.85600 32.53200
H  28.53300 50.47800 32.36400
H  29.67900 49.91100 31.17900
H  25.54200 47.80500 32.18600
H  24.35200 48.68300 31.25400
H  23.65600 49.99300 32.92900
H  25.26400 50.10800 33.62100
H  32.70800 46.83500 27.46400
H  31.72400 45.52200 27.86700
H  31.79100 47.14500 28.87000
H  32.31400 44.99900 25.66100
H  33.32900 46.44800 25.63900
H  33.34000 45.48000 24.20900
H  27.27000 48.48600 21.48900
H  25.71700 50.88500 21.80600
H  28.81100 50.83100 22.43200
H  27.76400 51.09100 21.03300
H  28.84000 49.84900 20.92800
H  24.32000 48.35500 22.43600
H  25.07100 48.16400 20.92700
H  23.56700 49.42100 19.84600
H  23.80400 50.75900 20.83700
H  22.63500 49.57400 21.31700
H  21.10000 52.39500 26.08200
H  21.67300 51.83100 24.59200
H  22.33800 53.39900 25.23600
H  22.98000 50.49600 30.48300
H  23.43800 54.40500 32.20900
H  24.34400 53.39000 33.35500
H  22.60400 53.55000 33.47100

