158

Mg 47.56000 34.32600 28.22400
C  45.76500 32.48300 30.47900
C  47.49600 37.02800 30.33700
C  48.59600 36.46600 25.62400
C  47.11000 31.82000 25.82700
N  46.61400 34.74500 30.04100
C  46.06300 33.75700 30.89500
C  45.98500 34.29400 32.30100
C  46.12800 35.86300 32.01900
C  46.83300 35.87400 30.74200
C  44.70900 36.55900 31.95700
C  47.04900 33.67400 33.32700
C  47.88200 34.59700 34.18300
H  47.06800 35.34600 35.31400
N  48.17200 36.38000 28.07100
C  48.13400 37.26400 29.11800
C  48.80300 38.50400 28.77200
C  49.11100 38.37600 27.38700
C  48.61400 37.03700 26.93800
C  49.06700 39.71100 29.80500
C  49.74300 39.40100 26.50500
O  50.04800 39.16200 25.35400
C  50.11900 40.70200 27.00700
N  47.67400 34.23300 25.99100
C  48.17300 35.17500 25.18600
C  48.36600 34.74400 23.73700
C  48.28100 33.16900 23.91400
C  47.66200 33.02800 25.36600
C  47.27200 35.29400 22.82200
C  49.57600 32.37000 23.78800
C  49.50400 31.03700 23.02300
N  46.69400 32.42100 28.11900
C  46.60500 31.54200 27.10100
C  45.89000 30.35200 27.53300
C  45.50200 30.68000 28.88400
C  46.09700 31.92000 29.14200
C  45.46500 29.23500 26.64700
C  44.84200 30.22800 30.13300
O  44.34800 29.18400 30.41100
C  44.82600 31.50400 31.14600
C  45.18300 31.14400 32.57900
O  46.08300 30.42800 32.96700
O  44.20500 31.68500 33.42700
C  44.21000 31.27600 34.82000
H  47.54100 37.87500 31.02500
H  49.14200 37.00500 24.84700
H  47.13200 30.94600 25.17200
H  45.03500 33.96500 32.72200
H  46.83800 36.32100 32.70800
H  44.85200 37.31700 31.18700
H  44.46500 37.01600 32.91700
H  43.92600 35.87600 31.62900
H  47.73400 33.05200 32.75100
H  46.53200 33.00700 34.01700
H  48.58500 35.15100 33.56000
H  48.59500 34.03900 34.79100
H  48.74400 40.69700 29.46900
H  50.14300 39.85800 29.90400
H  48.67100 39.49300 30.79700
H  50.82700 40.55000 27.82200
H  49.26900 41.26600 27.39000
H  50.59500 41.29000 26.22200
H  49.32500 35.11700 23.37600
H  47.58900 32.77600 23.17000
H  46.71000 36.05400 23.36600
H  46.54600 34.62400 22.36200
H  47.63800 35.71600 21.88700
H  49.86200 32.16400 24.82000
H  50.37000 32.98300 23.36400
H  50.03100 31.10100 22.07100
H  48.45200 30.79100 22.87700
H  49.83300 30.23800 23.68800
H  45.56900 28.27100 27.14400
H  45.93500 29.28000 25.66400
H  44.43300 29.32300 26.30700
H  43.86500 32.01800 31.12300
H  43.77300 32.14100 35.31700
H  45.19500 31.23000 35.28500
H  43.72100 30.36400 35.16400
Mg -10.25800 16.92000 42.28300
C  -6.77200 16.45600 42.02500
C  -9.95700 19.99300 40.80800
C  -13.61700 17.02100 42.09900
C  -10.50500 13.45700 43.09300
N  -8.49600 18.06600 41.54900
C  -7.19100 17.76400 41.69900
C  -6.30800 18.87400 41.23000
C  -7.35600 19.94800 40.79500
C  -8.70300 19.29000 40.94200
C  -7.26200 21.31800 41.51200
C  -5.28900 18.63900 40.11000
C  -5.56900 17.63200 38.87800
H  -5.21100 18.11000 37.48400
N  -11.61600 18.35200 41.67800
C  -11.27700 19.58700 41.08200
C  -12.52500 20.29000 40.86400
C  -13.64200 19.47400 41.30200
C  -12.96400 18.20200 41.70700
C  -12.59200 21.70000 40.24600
C  -15.10600 19.87200 41.23100
O  -15.36900 20.93600 40.65400
C  -16.17200 18.98300 41.79500
N  -11.88100 15.42800 42.59300
C  -13.13800 15.78900 42.50200
C  -14.13100 14.58500 42.72800
C  -13.08200 13.48000 43.21400
C  -11.75800 14.13600 42.92500
C  -15.29800 14.89300 43.76900
C  -13.22200 12.01000 42.67700
C  -12.70400 10.92000 43.66600
N  -8.97800 15.23500 42.48900
C  -9.24100 13.93500 42.84000
C  -7.98200 13.24700 43.14100
C  -6.95000 14.26800 42.85900
C  -7.63900 15.40400 42.43400
C  -7.68000 11.77200 43.53200
C  -5.52900 14.49500 42.89600
O  -4.71200 13.68000 43.26800
C  -5.34300 15.94000 42.23200
C  -4.41000 16.71400 43.10900
O  -3.43200 17.27800 42.78400
O  -4.93700 16.69400 44.34300
C  -4.20000 17.57100 45.35900
H  -9.91400 20.94500 40.27500
H  -14.70900 17.01800 42.05900
H  -10.45900 12.44200 43.49400
H  -5.76300 19.20400 42.11500
H  -7.15300 20.27100 39.77400
H  -6.91200 22.05700 40.79100
H  -6.53900 21.10800 42.30100
H  -8.21400 21.62400 41.94400
H  -4.39400 18.33700 40.65400
H  -5.03400 19.66200 39.83300
H  -6.62900 17.37700 38.87700
H  -5.00700 16.71700 39.06600
H  -13.20600 21.70600 39.34600
H  -11.64900 22.04900 39.82600
H  -12.85200 22.50500 40.93400
H  -16.27400 18.14200 41.10900
H  -17.07100 19.59700 41.73300
H  -15.79700 18.70200 42.77900
H  -14.53900 14.22700 41.78200
H  -13.28400 13.54900 44.28300
H  -15.93400 14.02400 43.93600
H  -15.94800 15.71500 43.47000
H  -14.86100 15.08000 44.74900
H  -12.65800 11.85800 41.75700
H  -14.20100 11.63400 42.38100
H  -12.17700 11.38100 44.50100
H  -12.04400 10.17400 43.22300
H  -13.39000 10.25200 44.18700
H  -6.87000 11.83200 44.25900
H  -7.45000 11.16800 42.65500
H  -8.61300 11.39100 43.94800
H  -4.74000 15.69400 41.35800
H  -4.01600 17.03700 46.29100
H  -4.78900 18.43800 45.65800
H  -3.22600 17.98100 45.09000

