158

Mg 46.39300 24.62200 28.53200
C  46.90800 26.60900 31.11400
C  45.70100 21.93200 30.70400
C  46.29200 22.51200 25.77100
C  47.74100 27.07400 26.44900
N  46.25500 24.28100 30.63200
C  46.51500 25.29300 31.53500
C  46.16800 24.81200 33.00600
C  45.90500 23.31000 32.85700
C  45.98000 23.14900 31.33100
C  46.87700 22.34700 33.58900
C  45.00900 25.59200 33.67600
C  44.62300 25.09800 35.11400
H  44.72800 26.24000 36.15000
N  46.04300 22.56800 28.29400
C  45.76100 21.66000 29.32100
C  45.52900 20.42200 28.73500
C  45.80900 20.51700 27.35800
C  46.02800 21.91600 27.04500
C  45.02800 19.16900 29.47300
C  45.92100 19.45700 26.28900
O  46.16300 19.69800 25.09100
C  45.72100 17.96600 26.64800
N  47.05500 24.70900 26.37100
C  46.78800 23.76900 25.48900
C  46.88700 24.29400 23.98400
C  47.19800 25.80000 24.25400
C  47.42400 25.85200 25.74000
C  47.82500 23.53600 23.03300
C  45.88800 26.74200 23.89100
C  44.47800 26.37700 24.38600
N  47.17200 26.48000 28.65600
C  47.75300 27.38700 27.81200
C  48.04100 28.61800 28.44900
C  47.74600 28.41900 29.77000
C  47.21800 27.09400 29.82000
C  48.76300 29.78200 27.85600
C  47.74400 28.96000 31.07300
O  48.12100 30.03800 31.47400
C  47.16700 27.85000 32.04900
C  48.13700 27.69100 33.13900
O  49.26800 27.19700 33.03600
O  47.73800 28.40200 34.23400
C  48.72200 28.51200 35.32500
H  45.57900 21.14900 31.45700
H  46.17900 21.95300 24.83900
H  47.99000 27.83500 25.70700
H  47.08500 24.98900 33.56800
H  44.92000 23.03800 33.23900
H  46.79800 21.44600 32.98100
H  46.60900 22.07300 34.61000
H  47.87900 22.76800 33.50300
H  44.21900 25.34300 32.96700
H  45.13500 26.67000 33.57300
H  45.34700 24.34600 35.42800
H  43.58200 24.78000 35.16600
H  44.82400 19.41900 30.51400
H  45.74300 18.34700 29.48600
H  44.11300 18.81800 28.99600
H  46.05000 17.24600 25.89900
H  44.69400 17.74700 26.93800
H  46.34800 17.73700 27.50900
H  45.88200 24.28900 23.56000
H  48.12600 26.13100 23.78900
H  47.18500 23.44500 22.15600
H  47.97900 22.56800 23.50800
H  48.71700 24.09300 22.74400
H  45.79300 26.75600 22.80600
H  46.06900 27.78600 24.14800
H  44.56200 25.62700 25.17300
H  43.92100 25.93400 23.56000
H  44.01900 27.25600 24.83700
H  49.15400 30.36000 28.69400
H  48.10100 30.43600 27.28900
H  49.48600 29.45200 27.11100
H  46.31800 28.41200 32.43700
H  49.63900 27.98600 35.06200
H  48.36300 27.96500 36.19700
H  48.94000 29.55500 35.55400
Mg 35.98100 49.33100 25.87600
C  35.85900 48.00400 29.01200
C  34.90800 52.43300 27.14400
C  35.83000 50.53300 22.75000
C  36.45700 46.08300 24.55300
N  35.43000 50.10400 27.85800
C  35.63900 49.40900 28.99300
C  35.59200 50.29000 30.28800
C  35.18500 51.71900 29.65600
C  35.12000 51.42600 28.15400
C  34.04800 52.56600 30.29600
C  36.90800 50.38100 31.07500
C  36.62300 50.25900 32.60200
H  35.23900 50.57800 33.23100
N  35.40500 51.21400 25.06200
C  34.97800 52.30800 25.72300
C  34.73000 53.38700 24.80300
C  34.98600 52.81700 23.53100
C  35.46300 51.48200 23.72700
C  34.29000 54.79800 25.22300
C  34.79400 53.47100 22.22600
O  35.05800 52.94600 21.13700
C  34.30100 54.91500 22.10000
N  36.01100 48.39900 23.92800
C  35.93800 49.15400 22.77600
C  36.21000 48.32900 21.55100
C  36.28700 46.86400 22.17800
C  36.29600 47.13600 23.65400
C  35.23100 48.43600 20.37200
C  37.56500 46.02600 21.73700
C  39.00300 46.59800 21.97500
N  36.13600 47.44400 26.59800
C  36.40100 46.22800 25.98500
C  36.63700 45.19200 26.92800
C  36.39800 45.83400 28.18800
C  36.09700 47.18900 27.92300
C  37.00800 43.74700 26.60600
C  36.52600 45.72600 29.67800
O  36.67000 44.78600 30.45400
C  36.12300 47.12700 30.20500
C  34.90500 46.92800 31.05200
O  33.81800 46.58200 30.65300
O  35.27000 46.90900 32.36200
C  34.21300 46.62400 33.33200
H  34.56100 53.43400 27.40900
H  35.96000 50.89200 21.72700
H  36.64200 45.06900 24.19100
H  34.79900 49.88300 30.91600
H  35.92700 52.50400 29.80300
H  33.79600 52.19300 31.28900
H  33.17400 52.57900 29.64500
H  34.30300 53.61500 30.44900
H  37.46600 51.29100 30.85600
H  37.53300 49.55600 30.73300
H  37.35700 50.94100 33.03200
H  36.99800 49.28100 32.90400
H  34.72900 55.58400 24.60800
H  34.59800 55.07700 26.23000
H  33.21000 54.84900 25.08200
H  33.47600 55.10000 22.78800
H  34.04200 55.00500 21.04500
H  35.04400 55.62900 22.45400
H  37.15100 48.70700 21.15100
H  35.45400 46.19100 21.97400
H  34.39500 49.09700 20.60100
H  34.80700 47.51200 19.97600
H  35.68500 49.05800 19.60000
H  37.40300 45.83300 20.67600
H  37.51200 45.07800 22.27200
H  38.95800 47.39300 22.72000
H  39.49500 46.87100 21.04100
H  39.67100 45.75800 22.16400
H  37.39200 43.62600 25.59300
H  36.29100 42.94200 26.77000
H  37.81900 43.42900 27.26000
H  36.86100 47.63700 30.82400
H  33.47800 47.42800 33.29000
H  34.59500 46.61300 34.35200
H  33.64100 45.70600 33.20200

