158

Mg -2.36700 17.43500 26.54800
C  -3.18300 15.15400 29.17600
C  -2.45500 19.95700 28.79500
C  -2.20200 19.47800 23.92800
C  -2.92900 14.64100 24.22200
N  -2.77500 17.52700 28.76300
C  -3.03000 16.50500 29.62100
C  -3.00000 17.09200 31.03600
C  -2.82200 18.64800 30.83500
C  -2.75100 18.72100 29.40400
C  -3.98900 19.57300 31.40300
C  -1.96300 16.45400 31.99800
C  -1.57700 17.19100 33.23300
H  -1.11200 16.34100 34.43900
N  -2.23700 19.47400 26.38100
C  -2.28000 20.34300 27.42500
C  -2.06700 21.65500 26.85300
C  -1.99100 21.56700 25.39900
C  -2.17300 20.14000 25.20100
C  -1.97100 22.97200 27.75600
C  -1.77500 22.62200 24.42100
O  -1.71000 22.40800 23.22700
C  -1.72700 24.08200 24.79200
N  -2.73200 17.07100 24.36200
C  -2.48000 18.15700 23.55500
C  -2.53600 17.77300 22.05500
C  -2.67200 16.20800 22.13500
C  -2.76800 15.92400 23.69000
C  -3.70800 18.53200 21.32400
C  -1.50000 15.47500 21.54400
C  -0.16000 15.70000 22.30100
N  -2.97000 15.31900 26.61200
C  -3.04400 14.32000 25.59800
C  -3.33800 13.09400 26.25900
C  -3.41500 13.31500 27.66500
C  -3.20900 14.71300 27.82400
C  -3.46300 11.76700 25.55300
C  -3.56200 12.72800 28.97600
O  -3.78300 11.61300 29.36200
C  -3.54000 13.90700 30.01100
C  -2.34200 13.53400 30.85800
O  -1.17200 13.58100 30.50100
O  -2.72400 12.87400 32.01100
C  -1.70900 12.37800 32.90300
H  -2.35200 20.76000 29.52800
H  -2.00200 20.05600 23.02400
H  -2.98800 13.79900 23.53000
H  -4.00600 17.00900 31.44700
H  -1.96400 19.12000 31.31300
H  -4.51000 19.86000 30.48900
H  -3.55500 20.42300 31.92800
H  -4.69600 19.06900 32.06200
H  -1.00200 16.41600 31.48400
H  -2.35800 15.49200 32.32500
H  -2.33300 17.93500 33.48600
H  -0.71900 17.78900 32.92500
H  -1.04000 23.52900 27.64700
H  -1.93600 22.67100 28.80300
H  -2.80200 23.62800 27.49400
H  -2.60500 24.21700 25.42400
H  -1.79600 24.67300 23.87900
H  -0.80000 24.25500 25.33900
H  -1.55500 18.03300 21.65800
H  -3.53300 15.85900 21.56500
H  -4.51200 17.79600 21.32700
H  -3.51600 18.76000 20.27600
H  -4.03400 19.36400 21.94900
H  -1.36800 15.84000 20.52500
H  -1.75000 14.43400 21.34000
H  -0.06300 16.60900 22.89600
H  0.44800 15.93600 21.42800
H  0.26000 14.90200 22.91300
H  -4.12400 11.87300 24.69300
H  -3.79600 10.99200 26.24400
H  -2.62100 11.26700 25.07400
H  -4.44300 13.94200 30.62100
H  -2.11100 11.90000 33.79600
H  -1.20800 13.29900 33.20200
H  -0.97100 11.70600 32.46500
Mg 27.34200 50.52200 26.86700
C  25.05700 51.64800 29.45500
C  29.52000 49.67100 29.20900
C  29.31300 49.78500 24.34600
C  24.89700 51.75200 24.57800
N  27.24900 50.65200 29.05300
C  26.18500 50.94600 29.90500
C  26.59100 50.64400 31.31500
C  28.07300 50.19100 31.20200
C  28.28900 50.11500 29.74000
C  29.04700 51.25200 31.93300
C  25.74300 49.65300 32.15600
C  25.07500 50.08600 33.48600
H  25.91100 50.23800 34.68700
N  29.21600 49.84600 26.77100
C  29.94000 49.42200 27.84000
C  31.18000 48.78300 27.38600
C  31.20600 48.82900 25.96300
C  29.91300 49.52900 25.64000
C  32.10000 48.17500 28.32500
C  32.10300 48.23600 24.93700
O  31.90900 48.39100 23.75100
C  33.22100 47.42200 25.35000
N  27.19600 50.81300 24.77100
C  28.13200 50.31600 23.94100
C  27.68300 50.57800 22.48600
C  26.20700 50.88000 22.59000
C  26.01800 51.14800 24.09100
C  28.42700 51.67000 21.66400
C  25.18500 49.80400 22.07700
C  25.41200 48.34500 22.36600
N  25.50100 51.62900 26.98500
C  24.62500 52.09100 25.98100
C  23.59700 52.89300 26.55500
C  23.76600 52.70100 27.93300
C  24.87700 51.96100 28.12100
C  22.59100 53.71600 25.82100
C  23.11300 52.94900 29.19900
O  22.17000 53.59700 29.53200
C  24.00500 52.29800 30.24700
C  24.52900 53.40800 31.08500
O  25.58800 54.02400 30.90500
O  23.73700 53.46000 32.23800
C  24.03000 54.40000 33.28600
H  30.19000 49.27300 29.97400
H  29.91900 49.44800 23.50300
H  24.07700 52.04600 23.92000
H  26.50500 51.61200 31.80900
H  28.28000 49.17200 31.52800
H  28.54900 52.15100 32.29700
H  29.84800 51.54800 31.25600
H  29.59900 50.75400 32.72900
H  26.26300 48.70400 32.28400
H  24.95800 49.36700 31.45600
H  24.30700 49.40400 33.85200
H  24.70600 51.09100 33.28300
H  32.13500 47.08900 28.23900
H  31.82200 48.15400 29.37800
H  33.04900 48.70900 28.26300
H  33.61800 47.12100 24.38000
H  32.81800 46.49500 25.76000
H  33.93800 48.03700 25.89400
H  27.90200 49.61300 22.02900
H  25.87300 51.76200 22.04300
H  28.89800 51.22100 20.78900
H  29.26700 52.00900 22.27000
H  27.84600 52.57900 21.51300
H  25.17400 49.90500 20.99200
H  24.16900 50.06100 22.37500
H  25.76800 47.78600 21.50000
H  24.45400 47.91200 22.65500
H  26.08700 48.17300 23.20500
H  22.38800 53.17400 24.89700
H  23.00900 54.69700 25.59400
H  21.68800 53.89600 26.40400
H  23.46500 51.51300 30.77600
H  23.09900 54.91500 33.52500
H  24.76000 55.13800 32.95300
H  24.47600 53.87600 34.13200

