158

Mg 40.64700 9.62200 30.17900
C  42.66400 11.10100 32.74800
C  38.68600 8.40300 32.61800
C  39.09100 7.98100 27.77500
C  43.07400 10.47300 27.76000
N  40.68200 9.79200 32.40300
C  41.56300 10.48500 33.24400
C  41.14700 10.37400 34.75900
C  39.93700 9.33800 34.64700
C  39.66400 9.22300 33.15600
C  40.20100 7.93900 35.29300
C  40.92100 11.74600 35.38200
C  40.02500 11.68000 36.63100
H  40.46400 12.45200 37.89400
N  39.11200 8.35300 30.18700
C  38.36000 7.99500 31.27200
C  37.25800 7.07500 30.86800
C  37.33200 7.07200 29.46400
C  38.58100 7.82100 29.06500
C  36.30700 6.46400 31.87000
C  36.25500 6.44400 28.53500
O  36.28000 6.57900 27.34700
C  35.10900 5.68600 29.00300
N  41.02100 9.23500 27.96600
C  40.19100 8.63300 27.17500
C  40.40000 8.75400 25.69200
C  41.71600 9.63900 25.71800
C  41.96000 9.79200 27.21800
C  40.59300 7.41000 24.98600
C  41.46900 11.09500 25.07000
C  42.62600 11.79400 24.22000
N  42.55300 10.45100 30.15900
C  43.37600 10.72700 29.11500
C  44.52200 11.46500 29.67000
C  44.33500 11.60500 31.01900
C  43.13900 10.95400 31.31600
C  45.54300 12.09600 28.85000
C  44.86000 12.26600 32.23700
O  45.75500 13.06300 32.32900
C  43.80000 11.90800 33.44400
C  44.68100 11.30200 34.46000
O  45.12800 10.17900 34.42800
O  44.99500 12.18200 35.45700
C  45.79700 11.69400 36.59400
H  38.12200 7.96800 33.44500
H  38.36800 7.54200 27.08500
H  43.79500 10.87300 27.04300
H  41.97000 9.99500 35.36600
H  39.04300 9.83100 35.02900
H  41.12000 7.98700 35.87700
H  40.42900 7.19100 34.53300
H  39.35400 7.69900 35.93600
H  40.39600 12.35200 34.64400
H  41.82900 12.24700 35.71900
H  39.98500 10.62200 36.88900
H  38.98200 11.90800 36.41100
H  36.55100 6.68400 32.91000
H  36.01900 5.43400 31.65900
H  35.30500 6.85600 31.69800
H  34.35500 5.53500 28.23000
H  34.59800 6.28700 29.75600
H  35.53500 4.74600 29.35300
H  39.52400 9.23400 25.25600
H  42.61100 9.20200 25.27400
H  39.68000 7.16500 24.44400
H  40.81400 6.63700 25.72300
H  41.41800 7.38500 24.27400
H  41.23500 11.71200 25.93700
H  40.53100 11.07000 24.51600
H  42.32700 12.01500 23.19500
H  43.53700 11.20400 24.31700
H  42.86000 12.74700 24.69300
H  45.25500 13.10500 28.55400
H  45.75400 11.53800 27.93700
H  46.47800 12.12300 29.40800
H  43.43100 12.90100 33.70000
H  45.12800 11.27900 37.34800
H  46.27800 12.53700 37.09100
H  46.55400 10.99200 36.24500
Mg 46.50700 25.68800 28.64600
C  47.88300 27.78300 31.24200
C  45.57900 23.47100 31.21100
C  45.95500 23.49600 26.29800
C  48.09200 27.81300 26.34600
N  46.78900 25.65300 30.97900
C  47.16000 26.71600 31.74000
C  46.80300 26.43200 33.27100
C  46.40300 24.88700 33.18800
C  46.17100 24.67900 31.69500
C  47.41000 23.93300 33.84200
C  45.75200 27.49900 33.84000
C  46.21600 28.25900 35.13500
H  45.31200 28.02700 36.37100
N  45.75100 23.75300 28.74300
C  45.44000 23.00900 29.79900
C  44.89300 21.79100 29.29100
C  45.07600 21.72400 27.89200
C  45.66000 22.98500 27.59200
C  44.38800 20.60600 30.19400
C  44.56800 20.68400 26.87600
O  44.71500 20.96200 25.67700
C  43.85100 19.36400 27.28200
N  46.99700 25.68100 26.54600
C  46.61100 24.60900 25.81500
C  47.16700 24.81600 24.30600
C  47.52900 26.30100 24.31000
C  47.59900 26.65500 25.81800
C  48.27500 23.77600 23.84700
C  46.61700 27.17300 23.32400
C  47.33300 27.69100 22.04500
N  47.58700 27.47100 28.70200
C  48.14400 28.22600 27.72600
C  48.80500 29.41800 28.18800
C  48.79200 29.26400 29.61300
C  48.03400 28.09100 29.87100
C  49.47500 30.38200 27.22400
C  49.21100 29.91600 30.86700
O  49.88600 30.89300 31.05600
C  48.52000 28.92800 31.94900
C  49.51700 28.47500 33.04100
O  50.30800 27.56900 32.86100
O  49.30900 29.18500 34.21000
C  50.08700 28.64400 35.42700
H  45.25700 22.77800 31.99100
H  45.80900 22.89400 25.39900
H  48.39500 28.50700 25.56000
H  47.67900 26.52400 33.91200
H  45.46200 24.91600 33.73700
H  48.39700 24.28900 33.54600
H  47.29100 22.89600 33.53000
H  47.35600 24.03000 34.92600
H  44.84600 26.93000 34.04800
H  45.51500 28.26500 33.10200
H  46.27900 29.28800 34.78200
H  47.17000 27.95200 35.56200
H  43.41400 20.33500 29.78600
H  44.38100 20.86400 31.25300
H  44.97400 19.68900 30.12300
H  44.50700 18.81100 27.95400
H  43.84800 18.75100 26.38100
H  42.79200 19.46200 27.52400
H  46.40300 24.74200 23.53200
H  48.57800 26.46300 24.05900
H  47.71100 23.11700 23.18700
H  48.70000 23.30200 24.73200
H  49.09700 24.38600 23.47200
H  46.20300 27.98200 23.92700
H  45.81700 26.51100 22.99300
H  48.40300 27.49900 22.12300
H  47.21500 28.77200 22.11600
H  46.86500 27.40800 21.10200
H  49.68900 31.31900 27.73700
H  48.77000 30.57600 26.41600
H  50.28200 29.79800 26.78100
H  47.67600 29.41700 32.43400
H  50.64700 27.72600 35.24800
H  49.38900 28.38800 36.22500
H  50.73200 29.50000 35.62400

