158

Mg 17.34300 -1.56500 28.53600
C  16.73500 0.42800 31.34600
C  19.35800 -3.60800 30.37100
C  18.65000 -2.88500 25.71200
C  15.95300 1.01500 26.48700
N  17.75000 -1.64900 30.66100
C  17.47800 -0.72500 31.62900
C  18.06100 -1.15100 32.93300
C  19.01600 -2.38400 32.62300
C  18.68400 -2.56900 31.12800
C  20.55600 -2.05100 32.86500
C  16.76900 -1.44700 33.71600
C  16.70100 -0.80200 35.09000
H  17.93700 -0.21600 35.76900
N  18.53900 -3.14800 28.12100
C  19.28000 -3.89800 29.00100
C  19.97300 -4.95100 28.30200
C  19.74500 -4.82100 26.92500
C  18.94800 -3.57500 26.86100
C  20.77300 -6.12000 29.04200
C  20.29200 -5.67600 25.73200
O  20.20700 -5.37100 24.55600
C  20.96500 -7.04600 26.00300
N  17.33200 -0.96900 26.37000
C  17.94700 -1.69100 25.46700
C  17.86800 -1.07400 24.07800
C  16.84500 0.11200 24.32000
C  16.62500 0.03700 25.80400
C  19.27800 -0.58800 23.53600
C  15.56500 0.28700 23.32800
C  14.20000 -0.07400 23.89000
N  16.40200 0.30300 28.78500
C  15.86400 1.16000 27.86700
C  15.12300 2.23000 28.54300
C  15.55400 2.03900 29.90700
C  16.24500 0.79800 30.04800
C  14.22300 3.23300 28.00200
C  15.42900 2.62300 31.19900
O  14.81300 3.58300 31.60000
C  16.20000 1.58200 32.25500
C  17.15200 2.43200 32.97500
O  18.23300 2.65700 32.45700
O  16.63400 3.01200 34.06300
C  17.45800 4.02800 34.67000
H  19.90100 -4.31500 31.00200
H  19.06500 -3.39300 24.83900
H  15.66900 1.79700 25.78000
H  18.56900 -0.24100 33.25200
H  18.74200 -3.28600 33.17000
H  21.20700 -2.26200 32.01700
H  20.89000 -2.66000 33.70400
H  20.61600 -0.97800 33.05000
H  16.68400 -2.49500 34.00600
H  15.85200 -1.16000 33.20100
H  16.27700 -1.54000 35.77100
H  16.01900 0.04400 35.00400
H  21.79600 -5.97800 28.69500
H  20.37000 -7.12600 28.92700
H  20.80900 -5.91100 30.11200
H  20.27300 -7.62900 26.61100
H  21.99000 -7.05500 26.37200
H  20.91600 -7.46200 24.99700
H  17.48700 -1.76200 23.32300
H  17.35100 1.04100 24.05600
H  19.13200 0.39700 23.09300
H  19.78000 -1.31400 22.89700
H  19.84300 -0.49200 24.46200
H  15.72100 -0.20900 22.37000
H  15.61300 1.33200 23.02300
H  13.77900 0.71600 24.51200
H  14.22400 -0.87300 24.63200
H  13.55700 -0.42300 23.08300
H  14.65800 4.23200 28.02300
H  13.30100 3.19700 28.58300
H  14.01300 3.03700 26.95000
H  15.52900 1.24300 33.04300
H  18.46400 3.63400 34.81600
H  17.04500 4.37000 35.61900
H  17.56100 4.90500 34.03100
Mg 26.22500 50.10600 26.37900
C  24.10500 51.09300 28.94400
C  28.52600 49.16000 28.73400
C  28.54400 49.57000 23.82500
C  24.10600 51.43400 24.01800
N  26.25100 49.98100 28.65700
C  25.28400 50.44400 29.49400
C  25.72500 50.22900 30.93000
C  27.23500 49.73300 30.80500
C  27.33800 49.49900 29.31600
C  28.34000 50.67700 31.49500
C  24.76200 49.30100 31.73800
C  24.46000 49.78900 33.17900
H  25.51100 50.09500 34.24300
N  28.26900 49.44900 26.30400
C  28.97700 49.05700 27.41100
C  30.30200 48.69800 26.97000
C  30.19800 48.62000 25.54600
C  28.97200 49.23800 25.14200
C  31.43200 48.34900 27.92000
C  31.38200 48.17000 24.60500
O  31.21700 48.25500 23.38400
C  32.53900 47.52500 25.17000
N  26.32300 50.48000 24.23700
C  27.36800 50.12200 23.42600
C  26.95300 50.13600 21.92000
C  25.50600 50.52800 22.04900
C  25.27800 50.84500 23.49100
C  27.85200 50.99800 20.99400
C  24.41000 49.77000 21.22100
C  23.28500 48.91000 21.89600
N  24.38600 50.92500 26.41800
C  23.67600 51.45100 25.35700
C  22.44200 51.93500 25.87600
C  22.59500 51.92400 27.27200
C  23.78700 51.21200 27.55500
C  21.37100 52.56500 25.07400
C  21.93200 52.28100 28.54300
O  20.94000 52.93600 28.80900
C  22.90400 51.73600 29.69200
C  23.14600 52.89900 30.60500
O  23.80500 53.86400 30.37500
O  22.55600 52.58800 31.80200
C  22.91000 53.42800 32.93100
H  29.28800 48.88500 29.46600
H  29.29500 49.30600 23.07800
H  23.33800 51.66100 23.27600
H  25.70200 51.21700 31.39000
H  27.39900 48.73700 31.21700
H  28.74300 50.22400 32.40000
H  27.86300 51.56800 31.90300
H  29.21100 50.85700 30.86500
H  25.13100 48.27600 31.76700
H  23.75300 49.20400 31.33700
H  23.92100 48.90000 33.50500
H  23.71600 50.58500 33.19100
H  31.22600 48.63500 28.95100
H  32.44000 48.68000 27.67200
H  31.37500 47.26300 27.98300
H  33.03800 48.36900 25.64600
H  33.13000 47.22500 24.30400
H  32.09500 46.76400 25.81200
H  27.07200 49.07100 21.72400
H  25.54100 51.50500 21.56800
H  27.43300 51.98500 20.79600
H  27.98500 50.38400 20.10300
H  28.83400 51.23300 21.40300
H  24.96800 49.15100 20.51800
H  23.93400 50.53000 20.60200
H  23.52500 48.44500 22.85200
H  22.89600 48.10800 21.26900
H  22.39800 49.53000 22.03000
H  20.47800 53.02800 25.49300
H  21.05100 51.76800 24.40300
H  21.85600 53.33600 24.47600
H  22.39900 51.04100 30.36300
H  23.92500 53.18800 33.24700
H  22.12500 53.38500 33.68600
H  22.77400 54.46500 32.62600

