158

Mg 29.24200 58.87700 41.10300
C  26.08300 57.45600 40.46800
C  30.80600 56.20100 39.67500
C  32.04900 60.62600 41.39000
C  27.44700 61.95800 41.79800
N  28.48500 57.11100 40.04300
C  27.16300 56.66700 40.01900
C  27.10000 55.36700 39.26400
C  28.59200 54.94000 39.18100
C  29.38500 56.15400 39.64800
C  28.94300 53.73000 40.04200
C  26.40700 55.66100 37.85400
C  25.08900 55.02300 37.42300
H  25.03000 54.40500 36.05900
N  31.19200 58.43600 40.63300
C  31.67400 57.26100 40.11800
C  33.17100 57.41000 40.06100
C  33.52900 58.73300 40.56300
C  32.22800 59.31000 40.94700
C  34.09900 56.42500 39.39900
C  35.00600 59.23500 40.71000
O  35.84900 58.42200 40.53600
C  35.36400 60.61900 41.06900
N  29.64100 61.01000 41.27500
C  30.88000 61.38900 41.57900
C  30.89500 62.90100 41.94400
C  29.42000 63.34500 41.78900
C  28.75100 62.03200 41.56600
C  31.57300 63.30600 43.28000
C  29.24200 64.49500 40.75800
C  28.42500 65.64400 41.35800
N  27.21900 59.57000 41.23800
C  26.67400 60.82400 41.54600
C  25.23000 60.73600 41.64700
C  24.93700 59.44200 41.27200
C  26.21200 58.77100 41.01200
C  24.30800 61.78900 41.80500
C  23.85800 58.52700 41.03600
O  22.63000 58.69600 41.13900
C  24.58300 57.16300 40.46800
C  24.25000 56.09600 41.48600
O  24.62800 56.15400 42.62300
O  23.69900 54.96700 40.89600
C  23.68100 53.75700 41.74300
H  31.26600 55.23700 39.44700
H  32.98700 61.08900 41.70400
H  26.93600 62.89300 42.03500
H  26.46000 54.63100 39.75000
H  28.87300 54.60200 38.18400
H  29.96100 53.58100 40.40300
H  28.61900 52.73400 39.74000
H  28.26400 53.69100 40.89400
H  27.10200 55.42600 37.04800
H  26.21000 56.73200 37.82400
H  24.39700 55.86400 37.37000
H  24.79800 54.29600 38.18000
H  33.58400 55.46400 39.38900
H  34.96500 56.23800 40.03400
H  34.40000 56.71900 38.39400
H  35.01600 61.32800 40.31800
H  36.43900 60.78400 41.14200
H  35.02700 60.82100 42.08500
H  31.53500 63.33400 41.17500
H  28.96000 63.62300 42.73800
H  31.91700 62.39400 43.76900
H  30.84100 63.76000 43.94800
H  32.45800 63.89800 43.04500
H  28.75900 64.05600 39.88500
H  30.16500 64.94200 40.39100
H  28.99800 66.54000 41.12100
H  28.21300 65.67300 42.42600
H  27.48500 65.61700 40.80700
H  24.39600 62.49800 40.98200
H  24.51500 62.26000 42.76600
H  23.26900 61.46200 41.81800
H  24.12700 56.85200 39.52800
H  22.62700 53.55000 41.93100
H  24.30400 53.77800 42.63700
H  24.17300 53.00700 41.12500
Mg 8.66200 47.59100 24.65800
C  6.24200 48.19600 27.23900
C  11.07600 48.72100 26.75200
C  10.81000 47.50500 22.08200
C  5.96700 47.35700 22.41000
N  8.63100 48.60700 26.68700
C  7.57000 48.41800 27.60000
C  8.00000 48.61500 29.03400
C  9.48200 49.20100 28.78900
C  9.82100 48.75100 27.35200
C  9.48800 50.77700 28.94600
C  8.10300 47.35300 29.89500
C  8.22000 47.56700 31.44300
H  7.58700 46.42300 32.18100
N  10.61800 47.85400 24.51500
C  11.46900 48.31000 25.49300
C  12.76600 48.25100 24.96800
C  12.75800 47.73800 23.61400
C  11.32500 47.65500 23.37700
C  14.05000 48.53500 25.86200
C  13.83000 47.45200 22.66400
O  13.68200 47.14300 21.48500
C  15.30200 47.63000 23.12500
N  8.36400 47.58700 22.53800
C  9.46300 47.53600 21.70000
C  9.00300 47.53100 20.22300
C  7.48500 47.05300 20.34200
C  7.21800 47.43700 21.78400
C  9.18100 48.92200 19.57900
C  7.27000 45.55600 19.98400
C  5.96400 45.22200 19.24500
N  6.50600 47.69300 24.75300
C  5.58500 47.52600 23.78700
C  4.25600 47.48500 24.42300
C  4.48000 47.74200 25.73600
C  5.84900 47.92600 25.91800
C  2.96900 47.30600 23.69200
C  3.77100 47.91600 27.01100
O  2.58100 47.81700 27.30100
C  4.87600 48.29600 28.03700
C  4.66700 47.39500 29.17800
O  4.77200 46.18800 29.17700
O  4.41900 48.16400 30.29700
C  4.12900 47.47000 31.54500
H  11.88800 49.10800 27.37300
H  11.46200 47.35800 21.21800
H  5.08300 47.04400 21.85200
H  7.36800 49.33500 29.55400
H  10.20300 48.79000 29.49600
H  9.60200 51.01800 30.00200
H  8.60800 51.18800 28.45000
H  10.34800 51.06600 28.34200
H  8.92900 46.71600 29.57800
H  7.25600 46.70600 29.66800
H  7.81000 48.52900 31.75100
H  9.28100 47.55000 31.69400
H  13.83300 49.02800 26.81000
H  14.69200 49.29900 25.42500
H  14.59700 47.61700 26.07700
H  15.57500 47.04600 24.00400
H  15.54200 48.69000 23.20200
H  15.98700 47.18200 22.40500
H  9.46900 46.74800 19.62600
H  6.93800 47.63100 19.59700
H  9.52700 49.63300 20.32900
H  8.26400 49.23700 19.08100
H  9.90700 48.73300 18.78900
H  7.18400 44.98900 20.91100
H  8.19000 45.21500 19.50800
H  5.39900 44.31900 19.47500
H  6.08900 45.19500 18.16200
H  5.30000 46.06400 19.44400
H  2.42400 46.60000 24.31800
H  3.18600 46.97300 22.67700
H  2.47300 48.27200 23.59600
H  4.68900 49.34400 28.27200
H  4.95200 47.83400 32.16000
H  4.13000 46.38400 31.46000
H  3.24600 47.91200 32.00800

