158

Mg -2.03000 17.02800 25.82800
C  -2.15000 14.75200 28.47100
C  -2.12700 19.63200 28.13500
C  -2.33200 19.11500 23.32100
C  -2.12200 14.28200 23.64100
N  -2.27700 17.16000 28.00000
C  -2.30300 16.07100 28.88200
C  -2.61300 16.53000 30.29800
C  -2.55300 18.12400 30.15000
C  -2.33500 18.37700 28.69400
C  -3.82400 18.94400 30.65000
C  -1.54200 16.09300 31.29700
C  -1.51100 16.83300 32.65800
H  -1.22400 16.06200 33.97100
N  -2.24800 19.16600 25.74700
C  -2.08800 20.01900 26.77300
C  -2.22900 21.39400 26.25500
C  -2.25600 21.31900 24.84500
C  -2.28000 19.86200 24.55000
C  -2.45200 22.62100 27.07900
C  -2.30900 22.35500 23.79000
O  -2.47000 22.12800 22.62300
C  -2.10100 23.73400 24.17300
N  -2.20500 16.76300 23.83600
C  -2.28000 17.82300 22.92000
C  -2.24700 17.27600 21.49200
C  -2.01300 15.72300 21.64200
C  -2.17000 15.54700 23.12100
C  -3.54700 17.59300 20.73600
C  -0.59300 15.23000 21.09000
C  -0.57700 14.23500 19.92800
N  -2.07100 14.94500 25.97500
C  -2.00900 14.03900 25.00700
C  -1.95800 12.74900 25.56400
C  -2.03300 12.99500 26.91200
C  -2.02300 14.36200 27.15100
C  -1.77100 11.44800 24.86800
C  -1.89600 12.38300 28.16000
O  -1.76600 11.22400 28.44700
C  -1.99100 13.45200 29.26500
C  -0.86000 13.29900 30.24100
O  0.23600 13.82900 30.11000
O  -1.26400 12.51600 31.29400
C  -0.25100 12.21900 32.26500
H  -1.85300 20.43800 28.81900
H  -2.44100 19.75900 22.44500
H  -2.18200 13.43300 22.95600
H  -3.58700 16.23900 30.69200
H  -1.69600 18.57800 30.64800
H  -4.21400 19.46900 29.77900
H  -3.57600 19.66700 31.42800
H  -4.66200 18.28300 30.87200
H  -0.58600 16.24100 30.79500
H  -1.71700 15.07300 31.64200
H  -2.43800 17.39900 32.74700
H  -0.61900 17.44000 32.50800
H  -3.44400 22.97500 26.79500
H  -1.67600 23.38600 27.04100
H  -2.49800 22.33300 28.12900
H  -1.16200 23.91700 24.69400
H  -2.91600 24.06900 24.81600
H  -2.02200 24.40300 23.31700
H  -1.44400 17.74200 20.92100
H  -2.73100 15.10300 21.10500
H  -4.35000 18.21100 21.14000
H  -4.05000 16.64500 20.54600
H  -3.19900 17.97700 19.77700
H  -0.06000 14.86900 21.97000
H  -0.10400 16.18400 20.89800
H  0.17600 13.45600 20.05000
H  -0.35500 14.69700 18.96600
H  -1.52800 13.72500 19.78100
H  -1.36900 10.70600 25.55600
H  -1.09800 11.60900 24.02500
H  -2.79900 11.17100 24.63200
H  -2.94100 13.27400 29.76800
H  -0.65900 12.05100 33.26100
H  0.54900 12.95900 32.29500
H  0.36400 11.35300 32.01900
Mg -11.18600 17.30900 42.20200
C  -7.92400 18.30600 42.24800
C  -12.14300 20.64500 41.94500
C  -14.51500 16.36500 41.93300
C  -10.27900 13.95700 41.99300
N  -10.16000 19.21900 42.17300
C  -8.83000 19.37000 42.13900
C  -8.39400 20.86700 42.02800
C  -9.71900 21.61700 42.28600
C  -10.76900 20.43800 42.12100
C  -9.72200 22.43800 43.56800
C  -7.77900 21.15000 40.64700
C  -6.38100 21.84800 40.78300
H  -5.35700 21.14800 39.87800
N  -13.01300 18.36400 41.83300
C  -13.20000 19.72600 41.76400
C  -14.55600 20.06100 41.50100
C  -15.28200 18.80400 41.56900
C  -14.25000 17.75000 41.73600
C  -15.15000 21.48000 41.23300
C  -16.78300 18.73400 41.46900
O  -17.46400 19.76000 41.59100
C  -17.46200 17.45900 41.36200
N  -12.27100 15.52200 41.78600
C  -13.59100 15.33700 42.02100
C  -14.03700 13.93300 42.13800
C  -12.72900 13.15900 42.05300
C  -11.67500 14.28700 41.95500
C  -14.86200 13.64400 43.35400
C  -12.70000 12.23000 40.68600
C  -12.62200 10.68900 40.94100
N  -9.43600 16.28800 42.15700
C  -9.15400 14.92300 42.07000
C  -7.76200 14.73400 42.11800
C  -7.19100 16.06100 42.14500
C  -8.28200 16.93500 42.25600
C  -7.03700 13.47300 42.16500
C  -5.97500 16.77800 42.13800
O  -4.83200 16.28600 42.01800
C  -6.36400 18.30300 42.35400
C  -5.83600 18.82800 43.64400
O  -6.11800 18.41000 44.77800
O  -4.91900 19.76600 43.32500
C  -4.12000 20.36100 44.44000
H  -12.55800 21.63000 41.72400
H  -15.57700 16.11400 41.98000
H  -9.99100 12.90800 41.89600
H  -7.79400 21.24400 42.85700
H  -10.04600 22.28200 41.48700
H  -9.07600 23.28800 43.35200
H  -9.43000 21.84000 44.43200
H  -10.76600 22.73600 43.66400
H  -8.43100 21.80700 40.07100
H  -7.69100 20.29600 39.97500
H  -6.05200 21.84400 41.82200
H  -6.45200 22.91100 40.55200
H  -16.11500 21.51300 40.72800
H  -14.32700 21.93900 40.68500
H  -15.25600 21.93600 42.21700
H  -18.39100 17.64500 40.82400
H  -17.49300 17.00400 42.35200
H  -16.87500 16.79100 40.73100
H  -14.75600 13.76000 41.33700
H  -12.62100 12.57000 42.96400
H  -14.77500 14.50400 44.01800
H  -14.59900 12.77700 43.96000
H  -15.89000 13.50500 43.01900
H  -11.87500 12.53800 40.04400
H  -13.59200 12.30600 40.06500
H  -12.55100 10.58400 42.02300
H  -11.76800 10.31200 40.37800
H  -13.43800 10.11500 40.50300
H  -5.99000 13.60200 42.43900
H  -7.10200 12.96200 41.20400
H  -7.55300 12.84200 42.88800
H  -5.83800 18.72400 41.49700
H  -3.50700 21.12900 43.96900
H  -3.43600 19.65000 44.90500
H  -4.77400 20.78300 45.20300

