158

Mg 17.54700 -0.97200 26.68600
C  16.70400 1.18200 29.41100
C  19.56100 -2.63100 28.86700
C  18.44800 -2.95600 24.14000
C  15.91800 1.24700 24.54200
N  17.92600 -0.79200 28.88900
C  17.51700 0.12400 29.78200
C  18.00000 -0.13000 31.21600
C  19.16000 -1.15700 30.92500
C  18.90300 -1.59000 29.46400
C  20.58800 -0.57500 31.09500
C  16.89900 -0.69900 32.13200
C  16.78000 -0.03200 33.47000
H  17.91200 0.68700 34.15900
N  18.78700 -2.65600 26.52300
C  19.43400 -3.18500 27.55000
C  20.16200 -4.42600 27.12400
C  19.95900 -4.43200 25.68600
C  18.99500 -3.32600 25.39000
C  20.89300 -5.37300 28.02300
C  20.45100 -5.51700 24.68600
O  20.23800 -5.44700 23.47700
C  21.20100 -6.68300 25.25300
N  17.32100 -0.78000 24.63200
C  17.69600 -1.81200 23.75600
C  17.42400 -1.42900 22.33100
C  16.36200 -0.34200 22.53200
C  16.60200 0.21900 24.00700
C  18.87800 -0.98900 21.75100
C  14.87700 -0.64800 22.24900
C  14.13900 -1.42300 23.42000
N  16.57600 0.90400 26.86000
C  15.85900 1.53200 25.91800
C  15.06100 2.54000 26.52500
C  15.37000 2.48900 27.89000
C  16.32700 1.50000 28.02200
C  14.27000 3.59400 25.77800
C  15.07500 3.08000 29.18600
O  14.32100 4.01200 29.50700
C  15.91400 2.27000 30.24800
C  16.77800 3.12900 31.07000
O  17.84400 3.58000 30.69100
O  16.23900 3.34000 32.30400
C  16.89600 4.44700 33.00000
H  20.17500 -3.30400 29.47000
H  18.72100 -3.53100 23.25200
H  15.29600 1.81500 23.84700
H  18.34400 0.75300 31.75500
H  19.03200 -2.00900 31.59300
H  20.53500 0.34300 31.67900
H  21.20200 -0.42600 30.20700
H  21.06800 -1.28000 31.77400
H  17.22900 -1.71300 32.35700
H  16.00500 -0.58200 31.52000
H  16.52800 -0.87600 34.11300
H  15.87700 0.57600 33.42500
H  21.92400 -5.45800 27.68100
H  20.47900 -6.38100 27.98000
H  20.87900 -4.93000 29.01900
H  20.64500 -7.20300 26.03300
H  22.18200 -6.33100 25.57300
H  21.32600 -7.29800 24.36200
H  17.03700 -2.25800 21.73800
H  16.64200 0.43800 21.82400
H  18.87200 0.09500 21.63700
H  19.18300 -1.51500 20.84600
H  19.73700 -1.14400 22.40400
H  14.74600 -1.19800 21.31700
H  14.38400 0.28100 21.96300
H  14.59000 -1.20200 24.38700
H  14.10500 -2.47800 23.14600
H  13.10900 -1.06700 23.38600
H  14.85100 4.07500 24.99200
H  13.88400 4.29800 26.51600
H  13.32400 3.21600 25.38900
H  15.19100 1.77700 30.89800
H  16.63100 5.39100 32.52300
H  17.97700 4.44400 32.86200
H  16.58000 4.60500 34.03100
Mg 0.32000 43.38300 26.70000
C  2.90000 43.04600 29.18700
C  -1.81800 42.32500 29.06100
C  -1.90200 43.01100 24.28900
C  2.95400 43.74100 24.38700
N  0.54600 42.93200 28.83800
C  1.64900 42.87300 29.70900
C  1.22300 42.95500 31.15300
C  -0.20900 42.36900 31.08800
C  -0.58100 42.62600 29.59400
C  -0.38300 40.96700 31.75000
C  1.36300 44.38900 31.78800
C  1.19900 44.42400 33.30600
H  1.00600 43.13600 34.11300
N  -1.65400 42.96900 26.72200
C  -2.37000 42.49600 27.76800
C  -3.74800 42.21100 27.33600
C  -3.76100 42.50500 25.95100
C  -2.38400 42.78800 25.61800
C  -4.80000 41.80700 28.32500
C  -4.96700 42.39500 24.93700
O  -4.91000 42.64700 23.75600
C  -6.25600 41.84900 25.48100
N  0.54000 43.37400 24.60200
C  -0.57300 43.22800 23.86900
C  -0.20800 43.33300 22.34500
C  1.24100 43.88400 22.40200
C  1.60400 43.66100 23.89600
C  -0.33100 41.86200 21.70600
C  1.22900 45.41000 22.07900
C  1.87700 45.81300 20.70700
N  2.55000 43.39200 26.70200
C  3.42900 43.45000 25.67500
C  4.76200 43.53200 26.21200
C  4.61100 43.35900 27.59900
C  3.25300 43.23600 27.81700
C  5.99900 43.90300 25.43000
C  5.35100 43.33100 28.78200
O  6.56300 43.52300 28.94900
C  4.24700 43.15200 29.92700
C  4.55800 41.87300 30.69600
O  4.90000 40.87400 30.08600
O  4.35600 42.04700 32.03800
C  4.84600 41.10700 33.00200
H  -2.49600 41.98900 29.84900
H  -2.54200 42.93800 23.40700
H  3.62400 43.97200 23.55600
H  1.91700 42.26700 31.63500
H  -0.87400 43.09200 31.56200
H  -0.69000 40.28400 30.95800
H  -1.22800 40.98900 32.43800
H  0.45800 40.53900 32.29500
H  0.65400 45.07400 31.32300
H  2.28600 44.85100 31.44000
H  0.43000 45.10500 33.67000
H  2.19000 44.76400 33.60600
H  -5.61000 42.50100 28.10400
H  -4.57200 42.05500 29.36200
H  -4.98400 40.73900 28.21000
H  -6.17000 40.77800 25.66600
H  -6.90300 41.99300 24.61600
H  -6.72900 42.31700 26.34500
H  -0.80200 43.97200 21.69200
H  1.87500 43.27500 21.75800
H  0.63900 41.40800 21.91300
H  -0.47700 41.98500 20.63200
H  -1.17600 41.34400 22.16000
H  1.84600 45.86100 22.85600
H  0.22200 45.81100 22.19600
H  1.39400 46.68700 20.26900
H  1.98400 45.04600 19.94000
H  2.86500 46.21700 20.93000
H  6.18500 43.09700 24.72000
H  6.86000 43.90300 26.09900
H  5.80600 44.79400 24.83400
H  4.35600 43.89200 30.72000
H  5.02300 41.62400 33.94500
H  5.78100 40.62700 32.71500
H  4.17000 40.25600 33.08500

