158

Mg 16.16700 -1.74300 27.64800
C  15.46000 0.51000 30.29200
C  18.33000 -3.40200 29.81800
C  17.59200 -3.14100 25.00400
C  14.37600 0.39400 25.51700
N  16.95600 -1.32800 29.69900
C  16.39800 -0.50300 30.61900
C  16.77100 -0.91500 32.01000
C  17.81800 -2.02800 31.84100
C  17.66200 -2.32800 30.37200
C  19.29000 -1.93300 32.34800
C  15.55400 -1.23300 32.97800
C  15.72400 -0.52500 34.36000
H  17.01700 -0.05600 34.83800
N  17.72200 -3.15900 27.41800
C  18.44600 -3.76500 28.41500
C  19.26200 -4.73100 27.78700
C  19.06100 -4.70600 26.35800
C  18.15700 -3.63200 26.20600
C  20.03900 -5.57100 28.68500
C  19.56800 -5.58600 25.21400
O  19.27900 -5.47500 24.03200
C  20.42600 -6.66500 25.59200
N  16.02200 -1.38000 25.58900
C  16.71300 -2.11100 24.69800
C  16.61000 -1.50800 23.28600
C  15.36200 -0.59900 23.40000
C  15.17700 -0.55500 24.91800
C  17.81900 -0.69400 22.76800
C  14.18500 -1.06600 22.54500
C  13.68600 -0.11600 21.45900
N  15.02100 0.00700 27.80400
C  14.32900 0.73000 26.85600
C  13.57800 1.73100 27.48400
C  14.02200 1.75400 28.85200
C  14.92700 0.68100 28.95600
C  12.63200 2.70500 26.84200
C  13.89800 2.44600 30.05100
O  13.14800 3.35800 30.45400
C  14.80800 1.60800 31.10400
C  15.76900 2.59200 31.72600
O  16.71100 3.09100 31.16400
O  15.38900 2.82800 33.00900
C  16.05800 3.99900 33.60400
H  18.83800 -3.87500 30.66100
H  18.00800 -3.56900 24.09000
H  13.89200 1.00200 24.75000
H  17.13500 0.07400 32.28700
H  17.40800 -2.88600 32.37500
H  20.00300 -1.69800 31.55800
H  19.44400 -2.92500 32.77300
H  19.52900 -1.26300 33.17400
H  15.50400 -2.32100 33.02800
H  14.66700 -0.87200 32.45600
H  15.36600 -1.33800 34.99200
H  15.04800 0.32800 34.41400
H  20.93300 -5.82500 28.11500
H  19.42100 -6.42200 28.97100
H  20.36600 -5.08100 29.60200
H  20.76300 -7.25500 24.74000
H  19.93900 -7.28000 26.34900
H  21.32800 -6.26400 26.05400
H  16.44000 -2.33300 22.59400
H  15.47400 0.43600 23.07700
H  18.72500 -1.25500 23.00000
H  17.91300 0.30600 23.19200
H  17.76700 -0.66700 21.68000
H  13.27400 -1.35300 23.07000
H  14.50500 -1.85900 21.87000
H  12.98400 0.67600 21.72100
H  13.15200 -0.73300 20.73600
H  14.48500 0.38700 20.91500
H  11.62200 2.48500 27.18700
H  12.55900 2.71400 25.75400
H  12.85000 3.75800 27.02200
H  14.12500 1.30900 31.89900
H  16.48800 3.68000 34.55300
H  15.28800 4.73700 33.83200
H  16.88500 4.41400 33.03000
Mg 43.64700 42.07300 26.39000
C  42.47600 44.24900 28.84100
C  44.41000 39.77200 28.73500
C  44.69500 39.97800 23.85000
C  43.35000 44.66100 24.02800
N  43.30000 42.01800 28.53400
C  42.80600 43.04100 29.32600
C  42.82500 42.53600 30.76900
C  43.61100 41.19200 30.75100
C  43.86000 41.00000 29.28500
C  44.95700 41.03600 31.62200
C  41.35000 42.43800 31.39200
C  41.26600 41.96500 32.86800
H  40.42900 42.80500 33.93500
N  44.46300 40.11800 26.33300
C  44.58400 39.32300 27.38600
C  45.38100 38.20000 26.99400
C  45.48800 38.22300 25.54100
C  44.77400 39.43400 25.13400
C  46.01500 37.26000 28.04700
C  46.13400 37.25300 24.57200
O  46.09300 37.30600 23.33800
C  46.77200 36.03700 25.07200
N  44.11900 42.29500 24.23600
C  44.38300 41.26800 23.44000
C  44.41000 41.70300 21.96400
C  43.73600 43.06700 22.00400
C  43.75800 43.40700 23.49600
C  45.83500 41.63300 21.34000
C  42.23200 43.05600 21.47600
C  41.01400 42.78900 22.46100
N  43.02900 44.07300 26.37600
C  43.02100 44.99800 25.35700
C  42.37100 46.20400 25.86200
C  42.09100 45.96700 27.23900
C  42.69400 44.70700 27.47200
C  42.10100 47.50400 25.10400
C  41.49900 46.53100 28.45900
O  40.88800 47.55200 28.64900
C  41.79900 45.41500 29.53800
C  42.62900 46.11800 30.60100
O  43.45100 47.01000 30.43600
O  42.25000 45.63300 31.78300
C  42.83300 46.31000 32.94800
H  44.55000 39.03600 29.52900
H  44.92900 39.31600 23.01300
H  43.22000 45.50900 23.35300
H  43.48900 43.29300 31.18800
H  43.05500 40.36300 31.19000
H  44.93600 40.22300 32.34800
H  45.07400 41.97700 32.15900
H  45.79800 40.83000 30.96000
H  40.79300 41.68500 30.83400
H  40.84000 43.40000 31.35900
H  42.24700 41.78100 33.30500
H  40.76600 41.01800 33.07100
H  46.72100 37.82700 28.65400
H  46.48600 36.39700 27.57600
H  45.28300 36.89300 28.76600
H  47.52800 36.32800 25.80200
H  47.27900 35.56600 24.23000
H  46.00500 35.37400 25.47100
H  43.76900 40.97700 21.46200
H  44.38300 43.81100 21.53800
H  46.47000 42.50800 21.48200
H  45.71500 41.35800 20.29200
H  46.41900 40.87300 21.86000
H  42.18900 42.26700 20.72600
H  41.99400 44.03000 21.04900
H  41.39400 42.59800 23.46400
H  40.51800 41.86900 22.15100
H  40.31900 43.62700 22.50900
H  41.16800 47.39500 24.55200
H  42.91000 47.67100 24.39300
H  42.07000 48.32400 25.82200
H  40.84600 45.11500 29.97400
H  43.83100 46.70400 32.75400
H  42.96400 45.68700 33.83300
H  42.28700 47.17900 33.31500

