158

Mg 26.56000 50.29100 26.94000
C  24.56900 51.53500 29.55300
C  29.03300 49.70500 29.17000
C  28.41700 49.10300 24.43900
C  24.11200 51.58700 24.72700
N  26.81400 50.84100 29.09700
C  25.76500 51.01900 29.95500
C  26.14900 50.68800 31.38100
C  27.63300 50.58900 31.21700
C  27.86400 50.30700 29.70200
C  28.52100 51.68200 31.82400
C  25.47200 49.42000 32.03100
C  24.56100 49.69100 33.27000
H  24.82900 48.75800 34.44800
N  28.52700 49.55700 26.85900
C  29.34700 49.42600 27.85200
C  30.57600 48.79500 27.32700
C  30.47500 48.81000 25.96300
C  29.03000 49.14400 25.67000
C  31.75400 48.61800 28.23300
C  31.51000 48.60600 24.91500
O  31.25800 48.65400 23.69700
C  32.90400 48.12000 25.27200
N  26.44300 50.55500 24.85400
C  27.30600 49.87600 24.01900
C  26.79400 49.93100 22.54400
C  25.37500 50.60000 22.72300
C  25.30400 51.02800 24.17100
C  27.76600 50.70000 21.60700
C  24.23900 49.62300 22.27900
C  23.97400 48.45800 23.24600
N  24.73100 51.34800 27.06500
C  23.79500 51.64700 26.12900
C  22.66100 52.19900 26.68100
C  22.88900 52.05100 28.09700
C  24.16800 51.69300 28.21100
C  21.49100 52.77800 25.98000
C  22.28900 52.17400 29.36400
O  21.19300 52.53800 29.77800
C  23.48300 51.90700 30.42200
C  23.66400 53.03600 31.30000
O  24.36600 54.00600 31.04100
O  22.92700 52.86900 32.47100
C  23.13800 53.88900 33.58100
H  29.72600 49.34500 29.93300
H  28.89700 48.70300 23.54400
H  23.33600 51.92100 24.03600
H  25.79700 51.44700 32.08000
H  28.04200 49.67400 31.64600
H  29.13000 51.41900 32.68900
H  27.80500 52.44200 32.13700
H  29.08000 52.15200 31.01500
H  26.22600 48.74000 32.42700
H  24.91300 48.90100 31.25200
H  23.50700 49.51000 33.05700
H  24.73500 50.69800 33.65000
H  31.54300 48.65500 29.30100
H  32.40100 49.45400 27.96500
H  32.24300 47.70200 27.90200
H  33.51600 48.90700 25.71300
H  33.30300 47.89600 24.28300
H  32.80600 47.19000 25.83300
H  26.60800 48.91400 22.19900
H  25.35700 51.49100 22.09600
H  28.60100 51.03400 22.22200
H  27.37000 51.62500 21.18700
H  28.07000 50.03600 20.79700
H  24.41500 49.13700 21.32000
H  23.37900 50.29200 22.23300
H  24.22100 47.56000 22.68000
H  22.89600 48.46200 23.40900
H  24.39200 48.58300 24.24500
H  21.49400 52.13200 25.10200
H  21.67400 53.78300 25.60200
H  20.66500 52.55900 26.65600
H  23.24700 51.00100 30.98000
H  23.60700 54.76900 33.14000
H  23.85900 53.47700 34.28700
H  22.21800 54.28300 34.01300
Mg -12.10800 38.03600 42.00100
C  -10.22100 35.16300 40.97300
C  -9.93600 40.00700 40.42200
C  -14.22400 40.49900 42.70000
C  -14.50300 35.66900 43.25100
N  -10.35700 37.59500 40.74500
C  -9.64200 36.40100 40.60300
C  -8.27400 36.58700 39.97100
C  -8.10100 38.16800 40.18600
C  -9.59900 38.62300 40.39500
C  -7.15200 38.63400 41.31800
C  -8.16300 35.99000 38.62300
C  -6.94400 35.04800 38.38700
H  -5.85400 35.68200 37.43300
N  -12.15200 40.02800 41.58100
C  -11.10200 40.66100 40.92400
C  -11.42800 42.11300 40.98300
C  -12.70400 42.24300 41.57200
C  -13.09500 40.93700 41.93600
C  -10.50700 43.19800 40.35900
C  -13.39200 43.64400 41.87600
O  -12.76700 44.64800 41.63700
C  -14.65700 43.65200 42.56300
N  -14.16400 38.08300 42.65800
C  -14.77800 39.26200 43.00600
C  -15.98900 38.98900 43.93600
C  -16.20300 37.42100 43.72900
C  -14.82900 37.03200 43.20900
C  -15.70500 39.44500 45.31200
C  -17.51500 37.00100 42.90300
C  -18.80100 36.65500 43.75900
N  -12.33800 35.83400 42.22400
C  -13.43200 35.06400 42.62200
C  -13.13100 33.63200 42.51000
C  -11.87000 33.67400 41.85000
C  -11.47000 34.97600 41.65800
C  -13.90600 32.48000 42.97700
C  -10.82700 32.82600 41.26800
O  -10.88200 31.59100 41.19600
C  -9.74000 33.76300 40.68100
C  -8.46100 33.44400 41.40600
O  -7.57100 32.73600 40.94900
O  -8.35200 34.08800 42.57800
C  -6.93600 34.11200 43.15200
H  -9.14500 40.64300 40.01800
H  -14.99200 41.20700 43.01900
H  -15.32800 35.04300 43.59600
H  -7.55500 36.17200 40.67700
H  -7.64100 38.47100 39.24500
H  -6.66200 37.80700 41.83300
H  -7.68100 39.13400 42.12900
H  -6.42300 39.35900 40.95500
H  -7.98700 36.87100 38.00600
H  -9.10800 35.54700 38.30700
H  -7.38900 34.13300 37.99500
H  -6.54300 34.80000 39.37000
H  -11.14800 43.82600 39.74000
H  -9.65700 42.80400 39.80200
H  -10.04300 43.81800 41.12600
H  -15.13800 44.63000 42.53700
H  -14.30100 43.33000 43.54200
H  -15.37600 42.97300 42.10400
H  -16.85100 39.55700 43.58600
H  -16.19700 36.85900 44.66300
H  -16.18700 40.39400 45.54600
H  -14.63900 39.66000 45.39500
H  -16.03100 38.66000 45.99400
H  -17.21300 36.15100 42.29100
H  -17.76400 37.80600 42.21200
H  -19.08900 35.66900 43.39300
H  -19.59400 37.39200 43.63400
H  -18.57700 36.69400 44.82500
H  -14.32000 31.92700 42.13400
H  -14.68600 32.60900 43.72800
H  -13.30600 31.69700 43.44100
H  -9.64900 33.51100 39.62400
H  -6.27600 34.73400 42.54800
H  -6.51300 33.11000 43.21900
H  -6.83900 34.59500 44.12400

