158

Mg -0.38100 7.52300 26.11700
C  0.35500 9.49000 28.82100
C  -0.27300 4.65200 28.32300
C  -0.91600 5.41400 23.52500
C  -0.21500 10.21600 24.02900
N  0.00700 7.11300 28.32400
C  0.24700 8.13700 29.22400
C  0.11100 7.53500 30.65600
C  0.14500 5.97200 30.46200
C  -0.07800 5.88600 28.97200
C  1.48600 5.36600 30.89200
C  -1.09700 8.02500 31.55200
C  -0.95900 8.33900 33.03800
H  0.35800 7.88800 33.68600
N  -0.50900 5.28800 25.92300
C  -0.45200 4.37000 26.96500
C  -0.55400 3.02300 26.40400
C  -0.76900 3.17300 25.02600
C  -0.74600 4.66300 24.77600
C  -0.73900 1.77200 27.18600
C  -0.95200 2.07100 23.94400
O  -1.10000 2.32200 22.80000
C  -0.89000 0.58200 24.25800
N  -0.44800 7.77700 24.04000
C  -0.75200 6.77800 23.17700
C  -0.84500 7.34000 21.67800
C  -0.84000 8.89600 21.91900
C  -0.54000 9.00100 23.43000
C  0.25300 6.87500 20.66100
C  -2.03800 9.69400 21.26300
C  -3.27500 9.69200 22.19700
N  0.05600 9.48600 26.33400
C  0.13800 10.45600 25.40900
C  0.51100 11.72400 26.00300
C  0.68200 11.40300 27.38700
C  0.32000 10.04200 27.51400
C  0.63700 13.02200 25.27800
C  0.98100 11.90300 28.74100
O  1.40700 12.97700 29.13500
C  0.58800 10.68000 29.70200
C  1.81400 10.56400 30.57200
O  2.91900 10.35800 30.14300
O  1.49700 10.68100 31.94700
C  2.65700 10.82600 32.82500
H  -0.30000 3.85200 29.06600
H  -1.13600 4.71200 22.71700
H  -0.19400 11.06600 23.34400
H  1.01800 7.78400 31.20700
H  -0.67000 5.55300 31.05300
H  1.97300 4.82000 30.08400
H  1.45800 4.81600 31.83300
H  2.25400 6.13300 30.99400
H  -1.85700 7.25500 31.42200
H  -1.43500 8.96800 31.12200
H  -1.84100 8.18100 33.66000
H  -0.87500 9.42500 33.03800
H  0.11100 1.10700 27.03800
H  -1.66500 1.24900 26.94700
H  -0.76900 1.76800 28.27600
H  -0.95400 -0.02800 23.35700
H  -1.74000 0.31700 24.88600
H  0.04500 0.39500 24.78600
H  -1.78300 7.12600 21.16700
H  0.03800 9.35300 21.46200
H  1.08200 6.31600 21.09600
H  0.66100 7.68800 20.05900
H  -0.27300 6.21500 19.97100
H  -2.24300 9.17200 20.32800
H  -1.71200 10.69500 20.98000
H  -3.36000 10.62400 22.75600
H  -3.22600 8.88100 22.92400
H  -4.16500 9.42600 21.62600
H  1.13800 12.89700 24.31800
H  1.22400 13.64200 25.95600
H  -0.31900 13.51200 25.09200
H  -0.31700 10.99000 30.22300
H  3.48300 10.14300 32.62200
H  2.37400 10.77200 33.87600
H  2.85700 11.88500 32.66500
Mg -11.64800 16.28000 41.60800
C  -8.82600 14.25700 41.13700
C  -9.83800 18.96700 40.40400
C  -14.56100 18.02300 41.22700
C  -13.52900 13.48700 42.53400
N  -9.61700 16.54400 40.68500
C  -8.60200 15.58900 40.67300
C  -7.28900 16.25400 40.15600
C  -7.57800 17.75300 40.35100
C  -9.15400 17.77800 40.33500
C  -7.01700 18.30200 41.69300
C  -7.07800 15.80900 38.70400
C  -5.65000 15.43300 38.20600
H  -5.08300 16.17200 36.98100
N  -12.15700 18.22800 40.94000
C  -11.25300 19.17700 40.60600
C  -11.96600 20.43700 40.49400
C  -13.32600 20.19600 40.67000
C  -13.41200 18.76900 40.97200
C  -11.27100 21.67800 40.03200
C  -14.41200 21.28800 40.81500
O  -14.07800 22.41000 40.65800
C  -15.87000 20.99100 41.19900
N  -13.74900 15.73500 41.74700
C  -14.71200 16.67700 41.54900
C  -16.10200 16.08000 41.74600
C  -15.76800 14.85000 42.56700
C  -14.24000 14.63400 42.27800
C  -17.13400 16.95500 42.50400
C  -16.66400 13.68400 41.97800
C  -17.13900 12.73200 43.07600
N  -11.31800 14.27300 41.82000
C  -12.12700 13.26500 42.38600
C  -11.35500 12.13600 42.61800
C  -10.05800 12.48800 42.21900
C  -10.07200 13.72600 41.65400
C  -11.83200 10.88100 43.20300
C  -8.64400 12.07000 42.15400
O  -8.10700 11.09200 42.64200
C  -7.80300 13.15500 41.46500
C  -6.78400 13.71000 42.37700
O  -7.09400 14.20400 43.45100
O  -5.52500 13.71400 41.74300
C  -4.47100 14.33500 42.49600
H  -9.42000 19.92200 40.08100
H  -15.48800 18.56500 41.02900
H  -13.99800 12.60100 42.96800
H  -6.36500 16.02000 40.68500
H  -7.23600 18.35500 39.50900
H  -6.83400 17.46300 42.36400
H  -7.74800 19.00700 42.08800
H  -6.02600 18.72700 41.53200
H  -7.35500 16.61100 38.02100
H  -7.79800 14.99800 38.60300
H  -5.51600 14.35400 38.13100
H  -4.92500 15.57600 39.00700
H  -10.25700 21.58000 39.64200
H  -11.05800 22.28200 40.91400
H  -11.90100 22.24100 39.34400
H  -16.02500 20.29100 42.02000
H  -16.42400 20.70100 40.30600
H  -16.31400 21.93500 41.51600
H  -16.37500 15.94600 40.69900
H  -15.95200 14.87900 43.64200
H  -17.48100 16.50400 43.43400
H  -17.93500 17.05900 41.77200
H  -16.72700 17.93600 42.75000
H  -15.96500 13.11200 41.36700
H  -17.55300 14.14200 41.54700
H  -16.85900 11.68000 43.01800
H  -18.21200 12.57800 42.96300
H  -17.00600 13.15300 44.07200
H  -12.69400 10.42800 42.71300
H  -11.90800 11.15000 44.25700
H  -11.08200 10.11100 43.02100
H  -7.27700 12.81700 40.57200
H  -4.76400 15.12100 43.19200
H  -3.67900 14.79800 41.90700
H  -4.16500 13.40100 42.96800

