158

Mg 16.81500 51.74300 26.41900
C  18.82700 50.52200 29.03900
C  14.62200 52.79900 28.98100
C  14.59800 52.53700 23.97800
C  18.96500 50.44100 24.06700
N  16.67900 51.58700 28.77800
C  17.56400 50.92100 29.54900
C  17.10400 50.99400 31.01600
C  15.70100 51.53400 30.93400
C  15.62500 51.95100 29.48000
C  14.57000 50.52200 31.30300
C  18.02400 51.71300 32.02200
C  18.12500 51.19200 33.47800
H  17.36200 51.91100 34.49100
N  14.90400 52.54300 26.47900
C  14.28600 53.11400 27.61900
C  13.19700 53.93000 27.16100
C  13.12400 53.85000 25.73800
C  14.25100 52.95100 25.32800
C  12.41100 54.76600 28.12700
C  12.12200 54.54900 24.87500
O  12.29000 54.63100 23.64800
C  10.94000 55.33400 25.41800
N  16.69500 51.31200 24.39500
C  15.64900 51.76700 23.58100
C  16.03700 51.65200 22.13500
C  17.60800 51.25000 22.16800
C  17.76900 50.99700 23.63100
C  15.19100 50.61700 21.29100
C  18.70700 52.28900 21.70000
C  19.70300 51.71400 20.67000
N  18.59600 50.67900 26.43200
C  19.38000 50.28900 25.40000
C  20.57800 49.72000 25.98900
C  20.42800 49.68700 27.38100
C  19.13700 50.35400 27.62300
C  21.71800 49.06700 25.26200
C  20.98200 49.42800 28.61400
O  22.03500 48.92000 28.89900
C  20.03400 49.90000 29.79700
C  19.77800 48.86900 30.81500
O  19.09600 47.86200 30.68400
O  20.40900 49.11400 31.99500
C  20.23800 48.15000 33.14300
H  13.97800 53.23800 29.74700
H  14.07500 53.09800 23.20100
H  19.72400 50.10300 23.35800
H  17.00500 49.92600 31.21100
H  15.59800 52.39500 31.59400
H  13.99600 50.10400 30.47500
H  14.02200 50.87600 32.17600
H  15.04200 49.64400 31.74300
H  17.63500 52.73100 32.01900
H  19.00800 51.90200 31.59300
H  19.17200 51.19500 33.78300
H  17.82500 50.14400 33.51100
H  12.02300 55.72600 27.78700
H  13.00400 54.98300 29.01600
H  11.57300 54.17400 28.49400
H  10.09200 55.49700 24.75300
H  11.32600 56.31300 25.70000
H  10.47800 54.76700 26.22600
H  15.95700 52.65500 21.71600
H  17.73300 50.32200 21.60900
H  14.13700 50.83900 21.46000
H  15.45800 49.63200 21.67300
H  15.36300 50.75100 20.22300
H  19.24500 52.71700 22.54600
H  18.16900 53.03100 21.11100
H  19.89100 52.43600 19.87500
H  19.51900 50.69500 20.33200
H  20.57400 51.55900 21.30800
H  22.02700 49.86300 24.58300
H  21.36900 48.23800 24.64600
H  22.34000 48.84100 26.12800
H  20.59500 50.74500 30.19500
H  20.64300 48.63900 34.02900
H  20.84900 47.26100 32.98300
H  19.17500 47.93200 33.24900
Mg -6.30400 25.22700 25.71300
C  -4.77000 26.46600 28.62000
C  -7.87000 22.78600 27.74100
C  -7.16800 23.50800 22.96400
C  -4.11300 27.19200 23.80600
N  -6.41800 24.81000 27.93600
C  -5.68700 25.48600 28.92000
C  -5.96600 24.91100 30.33300
C  -6.71300 23.50400 29.97200
C  -7.09900 23.74100 28.45200
C  -5.76800 22.31900 30.30300
C  -6.72200 25.94400 31.19200
C  -6.47200 26.12900 32.67900
H  -5.71700 24.99000 33.37500
N  -7.68800 23.55600 25.37900
C  -8.20600 22.69000 26.35500
C  -9.02900 21.72500 25.72000
C  -8.78600 21.91800 24.28600
C  -7.85700 23.02600 24.13900
C  -9.85600 20.69700 26.41400
C  -9.36100 21.05400 23.11400
O  -8.93300 21.28000 21.98300
C  -10.39600 19.96300 23.34000
N  -5.79800 25.47400 23.65100
C  -6.20200 24.48800 22.75100
C  -5.63200 24.70700 21.38200
C  -4.70600 25.96600 21.65200
C  -4.98600 26.34600 23.10700
C  -4.97000 23.46200 20.79900
C  -4.90800 27.17000 20.68500
C  -3.57900 27.88300 20.15800
N  -4.66200 26.57900 26.10500
C  -3.89700 27.29300 25.19100
C  -2.98600 28.17000 25.99800
C  -3.31900 27.88000 27.35400
C  -4.32600 26.92800 27.36300
C  -1.92000 28.99200 25.41400
C  -3.00000 28.11500 28.77900
O  -2.12800 28.76500 29.28000
C  -3.89700 27.23800 29.60200
C  -2.95600 26.41000 30.44200
O  -2.38400 25.41300 29.98100
O  -2.78400 26.95800 31.61300
C  -2.05000 26.15700 32.63300
H  -8.24800 21.93400 28.31000
H  -7.44300 22.97100 22.05400
H  -3.54600 27.89200 23.18800
H  -5.06400 24.64200 30.88200
H  -7.58200 23.34900 30.61100
H  -5.54400 21.79600 29.37400
H  -6.34600 21.56400 30.83600
H  -4.86000 22.63400 30.81600
H  -7.76400 25.66500 31.04000
H  -6.71900 26.91200 30.69100
H  -7.45200 26.21400 33.14900
H  -5.80600 26.97500 32.84600
H  -9.27600 19.79700 26.61700
H  -10.74800 20.45800 25.83600
H  -10.26000 21.22100 27.28000
H  -10.74400 19.58900 22.37700
H  -11.17400 20.45200 23.92600
H  -9.86300 19.16800 23.86100
H  -6.37400 25.02800 20.65200
H  -3.66700 25.69800 21.46200
H  -3.90400 23.66100 20.69200
H  -5.41900 23.10800 19.87100
H  -5.12500 22.68200 21.54500
H  -5.53400 27.93200 21.15000
H  -5.42500 26.84200 19.78300
H  -3.62100 28.90300 20.54000
H  -3.58200 27.75400 19.07600
H  -2.71600 27.33200 20.53100
H  -2.25700 30.02700 25.34700
H  -1.72500 28.70600 24.38000
H  -0.98500 28.98300 25.97400
H  -4.50900 27.86900 30.24700
H  -0.98900 26.39500 32.70200
H  -2.17200 25.07800 32.54600
H  -2.42500 26.43400 33.61900

