158

Mg 25.58800 0.12600 29.07400
C  27.34700 -0.22400 32.07000
C  22.68900 0.25500 30.97600
C  23.91000 0.61100 26.26500
C  28.46800 -0.51400 27.24200
N  25.05700 0.09500 31.35000
C  25.96000 -0.16900 32.33600
C  25.12200 -0.09800 33.68900
C  23.62500 -0.05000 33.27500
C  23.79100 0.04000 31.82300
C  22.68900 -1.24800 33.58200
C  25.43100 1.23300 34.45800
C  25.88800 1.02000 35.95000
H  25.68600 2.22100 36.87500
N  23.58600 0.37400 28.66800
C  22.56200 0.36300 29.54700
C  21.29000 0.54800 28.80900
C  21.64800 0.67400 27.45300
C  23.10200 0.56900 27.39800
C  19.94100 0.58000 29.43900
C  20.72900 0.84100 26.25400
O  21.14400 0.88200 25.13800
C  19.29100 0.88900 26.45400
N  26.03500 -0.26500 27.03000
C  25.26000 0.31400 26.08400
C  25.93000 0.43400 24.74300
C  27.31400 -0.20700 24.97500
C  27.25600 -0.36000 26.49700
C  25.18400 -0.05900 23.53100
C  28.58500 0.56100 24.45500
C  29.50400 -0.40300 23.57300
N  27.48500 -0.18200 29.49700
C  28.57500 -0.54600 28.67900
C  29.74800 -0.74800 29.50000
C  29.44100 -0.52700 30.87000
C  27.99500 -0.25100 30.77600
C  31.18400 -1.22000 29.00900
C  29.84700 -0.53800 32.25100
O  30.93300 -0.85100 32.77800
C  28.50100 -0.29000 33.09900
C  28.33500 -1.39900 34.13500
O  27.92400 -2.56400 33.85400
O  28.85500 -1.07000 35.38700
C  28.81400 -1.95300 36.53800
H  21.80000 0.34200 31.60400
H  23.43100 0.93400 25.33800
H  29.37300 -0.81500 26.70900
H  25.44600 -0.95400 34.28000
H  23.02900 0.83300 33.50300
H  22.77500 -1.79700 34.52000
H  22.75400 -2.03200 32.82700
H  21.68300 -0.84200 33.47300
H  24.56600 1.89700 34.46800
H  26.23700 1.74400 33.93200
H  26.93200 0.71400 35.89200
H  25.29000 0.25600 36.44800
H  19.95300 0.51300 30.52700
H  19.44700 -0.23500 28.91000
H  19.44300 1.48800 29.09700
H  18.98100 1.68600 27.13100
H  19.14900 -0.11000 26.86500
H  18.82900 0.96500 25.47000
H  25.99500 1.51300 24.59800
H  27.31200 -1.27100 24.73700
H  25.11100 0.77100 22.82900
H  24.23600 -0.52700 23.79800
H  25.69200 -0.89300 23.04700
H  29.17700 0.83800 25.32800
H  28.43300 1.46300 23.86300
H  28.92500 -1.05200 22.91500
H  30.18200 -1.03000 24.15200
H  30.14800 0.16900 22.90400
H  31.39700 -0.98400 27.96700
H  31.25100 -2.27500 29.27400
H  31.86900 -0.63100 29.61900
H  28.69600 0.53600 33.78300
H  28.60700 -3.01600 36.41600
H  28.07500 -1.60200 37.25800
H  29.67200 -1.89400 37.20800
Mg 15.77700 51.45100 25.60200
C  17.23600 50.31600 28.60000
C  12.93600 52.19700 27.38500
C  14.27000 52.01000 22.73500
C  18.54400 50.10500 23.90300
N  15.14900 51.18100 27.75700
C  15.99300 50.91100 28.82300
C  15.43100 51.44000 30.18200
C  13.95100 51.75400 29.81000
C  14.01500 51.78900 28.24000
C  12.69500 50.89000 30.25600
C  16.26800 52.69800 30.60400
C  16.07300 53.24900 31.95500
H  14.88500 52.79800 32.86400
N  13.87100 51.96600 25.12500
C  12.85000 52.29800 26.01600
C  11.65100 52.59300 25.26900
C  11.95000 52.37200 23.89200
C  13.42900 52.10500 23.84700
C  10.34600 52.93400 25.91300
C  11.07400 52.39600 22.62500
O  11.47800 52.04700 21.54900
C  9.64700 52.78700 22.75700
N  16.33100 51.06100 23.54000
C  15.58200 51.54600 22.51900
C  16.23800 51.37000 21.16400
C  17.54800 50.57400 21.59700
C  17.53300 50.58500 23.11600
C  15.28000 50.72900 20.11800
C  18.84800 51.12700 20.97000
C  19.34500 50.24700 19.83600
N  17.54900 50.34300 26.11200
C  18.59400 49.89900 25.32300
C  19.62400 49.34300 26.16300
C  19.14400 49.41100 27.44200
C  17.85600 50.03000 27.40900
C  20.91600 48.90500 25.63500
C  19.44600 49.20700 28.80500
O  20.50700 48.86800 29.36800
C  18.24600 49.82600 29.55600
C  17.55400 48.99600 30.62500
O  16.74800 48.10000 30.50900
O  18.11400 49.30900 31.84800
C  17.83700 48.41900 32.96200
H  12.07900 52.41600 28.02600
H  13.82500 52.21100 21.75900
H  19.41400 49.78100 23.32700
H  15.40600 50.64200 30.92500
H  13.83700 52.81100 30.04900
H  12.32900 50.41100 29.34900
H  11.92800 51.47600 30.76200
H  13.06500 50.12300 30.93600
H  16.32200 53.43300 29.80100
H  17.31000 52.37700 30.59100
H  15.91900 54.29700 31.69800
H  17.03000 53.06700 32.44300
H  9.98500 53.82000 25.39100
H  10.55300 53.31300 26.91400
H  9.59000 52.15000 25.89400
H  9.61400 53.85900 22.95100
H  9.18900 52.12500 23.49200
H  9.21300 52.58300 21.77800
H  16.51000 52.33400 20.73500
H  17.40400 49.57600 21.18400
H  14.42100 50.31900 20.64900
H  15.76200 49.90100 19.59900
H  14.81600 51.54800 19.56800
H  19.69900 51.29900 21.62900
H  18.54800 52.07300 20.52000
H  20.13000 49.61800 20.25500
H  19.90200 50.86200 19.12800
H  18.60000 49.76400 19.20300
H  21.33200 49.84500 25.27200
H  20.88600 48.12800 24.87200
H  21.58700 48.43500 26.35500
H  18.61400 50.74000 30.02200
H  17.21000 48.95000 33.67900
H  18.73800 48.10100 33.48800
H  17.30000 47.49000 32.77100

