158

Mg 35.90700 49.62800 25.63400
C  35.76300 47.96400 28.61500
C  34.14100 52.23900 27.07200
C  35.57400 50.91400 22.51400
C  37.02200 46.63700 24.02400
N  35.16500 50.09900 27.65200
C  35.20900 49.29200 28.74200
C  34.76000 50.01200 29.93000
C  34.17100 51.33400 29.46200
C  34.50100 51.17800 27.96900
C  32.70100 51.59900 29.85900
C  35.86800 50.15700 30.97600
C  35.31500 50.37900 32.38400
H  33.82800 50.27900 32.68500
N  35.10200 51.36400 24.92600
C  34.35300 52.29800 25.64300
C  33.97300 53.35400 24.70000
C  34.32100 52.93800 23.40400
C  34.91900 51.57800 23.58300
C  33.17400 54.53400 25.12800
C  34.11300 53.69200 22.11100
O  34.41900 53.27000 20.99700
C  33.38900 55.02000 22.06900
N  36.42100 48.91800 23.54100
C  36.18900 49.67400 22.49200
C  36.68100 49.06800 21.16400
C  37.30100 47.73500 21.66700
C  36.81800 47.71300 23.15700
C  35.52200 48.94600 20.09600
C  38.84200 47.50000 21.60600
C  39.74300 48.63300 22.24400
N  36.33100 47.76300 26.17200
C  36.84100 46.66200 25.48500
C  37.01400 45.55500 26.36100
C  36.66000 46.02600 27.61100
C  36.22900 47.35900 27.43900
C  37.46300 44.18900 25.94000
C  36.49600 45.68600 29.01200
O  36.62600 44.59400 29.55700
C  35.95700 46.93700 29.72200
C  34.72500 46.56700 30.37600
O  33.71100 46.11000 29.90700
O  34.88200 46.64900 31.77200
C  33.83800 45.97700 32.52800
H  33.65200 53.10300 27.52600
H  35.36400 51.27900 21.50700
H  37.36500 45.76700 23.46000
H  33.97400 49.33100 30.25800
H  34.71000 52.17500 29.89800
H  32.61500 52.45100 30.53400
H  32.29700 50.78700 30.46400
H  31.95500 51.77600 29.08500
H  36.52100 50.96200 30.64000
H  36.53900 49.29800 30.96100
H  35.65400 51.36300 32.70900
H  35.80100 49.78100 33.15400
H  33.36100 54.54000 26.20100
H  32.11600 54.31900 24.97900
H  33.45300 55.55700 24.87500
H  33.30600 55.44100 21.06700
H  33.91600 55.76200 22.66900
H  32.34100 54.95000 22.36200
H  37.37600 49.73100 20.64800
H  36.73600 46.93900 21.18400
H  34.60500 49.20700 20.62500
H  35.37500 47.95300 19.67100
H  35.68800 49.61300 19.25000
H  39.04800 47.34300 20.54700
H  39.06600 46.53500 22.06100
H  39.17900 49.36400 22.82400
H  40.43300 49.10100 21.54200
H  40.25700 48.12600 23.06000
H  38.37700 43.85700 26.43200
H  37.84000 44.22500 24.91800
H  36.64900 43.48500 26.11500
H  36.65800 47.10600 30.53900
H  33.78700 46.58900 33.42800
H  33.92100 44.92200 32.78900
H  32.84800 46.17200 32.11600
Mg -10.10800 18.15600 42.96300
C  -6.82500 16.91800 42.75500
C  -8.91500 21.22000 41.80400
C  -13.19900 19.05800 42.62300
C  -11.15000 14.76300 43.38900
N  -8.12200 18.99100 42.36100
C  -6.93500 18.26700 42.44400
C  -5.75100 19.16300 42.05100
C  -6.43400 20.55900 42.09400
C  -7.89800 20.25800 42.00500
C  -6.05100 21.45000 43.25100
C  -5.03900 18.76200 40.72800
C  -5.75800 18.27800 39.49400
H  -5.39200 18.74400 38.06900
N  -10.99300 19.96200 42.30800
C  -10.32100 21.09800 41.96000
C  -11.27600 22.16100 41.83800
C  -12.59300 21.60100 41.92000
C  -12.31800 20.13900 42.27300
C  -10.86600 23.52300 41.54000
C  -13.90100 22.32600 41.76300
O  -13.95200 23.54300 41.60100
C  -15.13600 21.52300 41.89900
N  -11.89100 16.95700 42.70200
C  -13.02600 17.63700 42.83900
C  -14.21100 16.68200 43.00300
C  -13.57700 15.29200 43.16300
C  -12.11300 15.64800 43.02800
C  -15.16200 17.14400 44.19300
C  -14.04400 14.13000 42.17400
C  -14.74100 12.97900 43.00700
N  -9.25000 16.18500 43.09200
C  -9.75100 14.93600 43.30800
C  -8.69800 13.93000 43.38400
C  -7.48600 14.64100 43.15500
C  -7.90400 15.99500 42.98200
C  -8.92000 12.38200 43.68300
C  -6.05200 14.56000 43.06700
O  -5.34100 13.62200 43.22200
C  -5.58400 16.04000 42.73800
C  -4.38400 16.46400 43.56200
O  -3.22200 16.17400 43.34000
O  -4.83300 17.15600 44.68400
C  -3.78400 17.34900 45.71800
H  -8.52100 22.23700 41.76000
H  -14.27300 19.24700 42.68900
H  -11.52600 13.77600 43.66500
H  -5.04300 19.04500 42.87100
H  -6.14600 21.20700 41.26600
H  -5.39100 20.85100 43.87800
H  -6.91700 21.61700 43.89100
H  -5.64400 22.43600 43.02500
H  -4.48500 17.88900 41.07300
H  -4.35900 19.57700 40.47900
H  -6.81400 18.53500 39.58300
H  -5.59800 17.20000 39.52500
H  -9.99900 23.78900 42.14400
H  -11.59900 24.32600 41.61200
H  -10.45900 23.47500 40.53000
H  -15.52200 21.45800 42.91700
H  -15.05100 20.58400 41.35300
H  -15.86200 22.11400 41.34100
H  -14.85500 16.64900 42.12400
H  -13.87800 14.98200 44.16300
H  -14.77800 18.07100 44.61800
H  -15.27600 16.43000 45.00900
H  -16.15100 17.37100 43.79500
H  -13.19700 13.69700 41.64300
H  -14.84500 14.45100 41.50800
H  -15.64300 12.72300 42.45100
H  -15.00300 13.07400 44.06100
H  -14.11500 12.08900 42.93600
H  -9.52500 12.25300 44.58100
H  -7.99900 11.80800 43.79000
H  -9.42600 12.01500 42.79000
H  -5.10100 15.95500 41.76500
H  -2.85600 17.84000 45.42800
H  -3.57100 16.40600 46.22100
H  -4.22900 18.03900 46.43400

