158

Mg 35.09100 3.14400 30.00400
C  32.75700 4.16600 32.43600
C  37.51900 3.23200 32.33500
C  37.31200 2.44400 27.57400
C  32.59300 3.38400 27.73300
N  35.07400 3.75500 32.12000
C  34.06500 3.97500 32.89500
C  34.51400 3.97700 34.37300
C  36.12900 3.89600 34.28800
C  36.26000 3.63200 32.82200
C  36.90300 5.19700 34.67100
C  33.84400 2.79700 35.23800
C  33.46300 3.07800 36.64300
H  34.37200 4.16600 37.27400
N  37.16400 2.92900 29.89900
C  37.94000 2.84100 31.02900
C  39.33700 2.41300 30.73800
C  39.27500 2.16200 29.32000
C  37.91100 2.50200 28.84600
C  40.46700 2.39400 31.88100
C  40.34000 1.63000 28.39000
O  40.12300 1.29200 27.21600
C  41.59200 1.25900 28.97000
N  34.96000 2.90400 27.89000
C  36.01800 2.63800 27.09300
C  35.57700 2.47800 25.63100
C  34.00200 2.69500 25.67600
C  33.86800 3.00500 27.16800
C  36.26900 3.59700 24.80100
C  33.14600 1.47000 25.26100
C  31.80300 1.80200 24.54800
N  33.09900 3.77900 29.99400
C  32.20800 3.77400 28.96900
C  30.92000 4.23100 29.45500
C  31.06300 4.32600 30.86600
C  32.42300 4.10800 31.12500
C  29.62400 4.46300 28.58900
C  30.36700 4.69800 32.04900
O  29.17300 4.99400 32.21100
C  31.44400 4.44600 33.19700
C  31.46100 5.57800 34.13000
O  31.82700 6.68500 33.81100
O  30.82500 5.30200 35.31600
C  30.49400 6.37300 36.21800
H  38.30300 3.11300 33.08500
H  38.03800 2.12400 26.82300
H  31.79200 3.53700 27.00700
H  34.17600 4.95500 34.71400
H  36.45600 3.01800 34.84600
H  36.34300 5.87700 35.31200
H  37.13700 5.80600 33.79700
H  37.78700 4.98900 35.27400
H  34.66300 2.07800 35.23200
H  32.97400 2.35500 34.75400
H  33.41300 2.18300 37.26300
H  32.43300 3.43100 36.58000
H  40.29500 1.47500 32.44100
H  40.31400 3.24000 32.55100
H  41.48000 2.59700 31.53200
H  41.26100 0.61900 29.78800
H  42.21500 2.05400 29.38100
H  42.13100 0.64500 28.24900
H  35.84600 1.46300 25.33800
H  33.74400 3.45000 24.93400
H  36.91400 3.06800 24.09900
H  36.92400 4.22000 25.40900
H  35.68500 4.29200 24.19900
H  33.10100 0.75400 26.08100
H  33.73400 0.83800 24.59600
H  32.18600 1.74300 23.53000
H  31.42900 2.80000 24.77800
H  31.06600 1.03800 24.79400
H  29.67200 5.29500 27.88700
H  28.68700 4.69800 29.09500
H  29.38900 3.60200 27.96300
H  31.00800 3.58800 33.70900
H  31.01900 6.17500 37.15300
H  29.45900 6.31900 36.55400
H  30.76800 7.31600 35.74600
Mg 48.11100 25.69100 28.05000
C  49.12200 27.89200 30.62400
C  47.71500 23.23800 30.40800
C  47.32200 23.56800 25.60400
C  49.69200 27.84800 25.73400
N  48.37200 25.62800 30.30200
C  48.65700 26.66800 31.13100
C  48.40200 26.31300 32.62800
C  48.10400 24.73400 32.53000
C  48.10500 24.47400 30.97500
C  48.85900 23.69000 33.32900
C  47.32600 27.32100 33.25700
C  46.59900 26.88800 34.51200
H  46.60000 27.82000 35.78900
N  47.51800 23.70200 28.07800
C  47.52000 22.80300 29.09300
C  46.89400 21.54000 28.64000
C  46.61400 21.73900 27.24500
C  47.19000 23.02800 26.90600
C  46.75400 20.36800 29.51700
C  45.87200 20.85500 26.30400
O  45.67700 21.15600 25.14800
C  45.44900 19.52700 26.79500
N  48.36700 25.71500 25.99500
C  47.88700 24.77700 25.20600
C  48.15200 25.08300 23.68700
C  48.85300 26.44800 23.74000
C  48.97200 26.73900 25.26100
C  49.01600 23.99600 22.92100
C  48.14100 27.63700 22.99400
C  48.98200 28.36300 21.99900
N  49.10000 27.55600 28.10400
C  49.72100 28.30200 27.10200
C  50.22500 29.55600 27.59000
C  50.00600 29.40400 28.96400
C  49.34500 28.16700 29.26000
C  50.89100 30.63300 26.77900
C  50.19100 30.04700 30.22700
O  50.79600 31.07500 30.44500
C  49.61500 29.13500 31.32800
C  50.70900 28.91000 32.33300
O  51.77600 28.32800 32.16300
O  50.29900 29.33800 33.55900
C  51.02800 28.77700 34.68600
H  47.36300 22.52000 31.15100
H  46.91300 22.98900 24.77400
H  50.11200 28.51400 24.97700
H  49.34200 26.40900 33.17200
H  47.05100 24.62200 32.78500
H  48.22400 23.28600 34.11700
H  49.74100 24.03600 33.86800
H  49.27300 22.85100 32.77100
H  46.64100 27.39600 32.41200
H  47.85100 28.25000 33.48000
H  47.06400 25.92700 34.73200
H  45.57700 26.67700 34.19600
H  47.20300 19.47400 29.08300
H  45.68900 20.23400 29.71000
H  47.19600 20.51300 30.50200
H  44.66100 19.61300 27.54300
H  46.30400 18.97400 27.18500
H  45.05500 18.88600 26.00600
H  47.19800 25.15700 23.16400
H  49.85400 26.27000 23.35000
H  50.07000 23.88000 23.17300
H  48.86000 24.09500 21.84700
H  48.54600 23.04400 23.16500
H  47.85000 28.37800 23.73800
H  47.41200 27.18000 22.32400
H  49.95100 27.86900 21.93100
H  49.07100 29.43200 22.19500
H  48.45800 28.32500 21.04400
H  50.18400 30.99400 26.03100
H  51.68800 30.12000 26.24200
H  51.26400 31.48900 27.34100
H  48.85500 29.72900 31.83600
H  50.31400 28.79300 35.50900
H  51.76500 29.45800 35.11000
H  51.37600 27.76200 34.49200

