158

Mg 35.13400 49.10600 26.54600
C  35.56300 46.91800 29.26000
C  34.01200 51.54200 28.66600
C  34.24100 50.99400 23.82500
C  35.85600 46.52200 24.43300
N  34.79200 49.31900 28.73200
C  35.16700 48.22700 29.61000
C  34.88700 48.73500 31.01000
C  34.40200 50.24000 30.87000
C  34.37200 50.39200 29.38100
C  33.03300 50.48500 31.55200
C  36.12700 48.59600 31.86900
C  36.01500 48.03100 33.34100
H  36.46600 49.11800 34.36200
N  34.35600 51.00800 26.30700
C  33.93200 51.85200 27.33600
C  33.60700 53.17400 26.76300
C  33.64500 53.11300 25.37300
C  34.06300 51.63300 25.10000
C  33.51500 54.43700 27.63500
C  33.52100 54.19200 24.35600
O  33.68200 53.97000 23.17100
C  33.11600 55.63200 24.69500
N  35.08500 48.85600 24.41400
C  34.61200 49.70500 23.49100
C  34.48300 49.04600 22.09600
C  35.27100 47.70400 22.33900
C  35.51200 47.68300 23.81200
C  33.06000 48.79900 21.46700
C  36.58100 47.43400 21.46100
C  36.93900 45.96800 21.03300
N  35.58600 47.15600 26.75800
C  35.88700 46.25500 25.76000
C  36.13600 44.96400 26.41200
C  35.98500 45.18800 27.76000
C  35.68100 46.51300 27.89000
C  36.33800 43.61200 25.78200
C  36.06500 44.53800 29.08000
O  36.34100 43.41800 29.44300
C  35.70800 45.67700 30.09800
C  34.43100 45.39500 30.79300
O  33.37500 45.05500 30.22000
O  34.55300 45.41700 32.19400
C  33.43500 44.82900 32.94400
H  33.52300 52.30300 29.27700
H  33.92200 51.57500 22.95700
H  36.00500 45.59100 23.88200
H  34.06700 48.10400 31.35200
H  35.05300 51.03400 31.23500
H  32.80700 49.64700 32.21100
H  32.32800 50.43800 30.72300
H  32.86000 51.46300 32.00100
H  36.66300 49.54400 31.89400
H  36.86800 47.97100 31.36900
H  36.64600 47.15400 33.48300
H  35.01100 47.72600 33.63600
H  34.32100 55.13300 27.40200
H  33.39600 54.32800 28.71300
H  32.58800 54.92300 27.32900
H  33.23900 56.26000 23.81200
H  33.70900 56.16300 25.43900
H  32.08800 55.69200 25.05300
H  35.01800 49.63900 21.35300
H  34.66400 46.81200 22.18100
H  33.10200 49.43300 20.58100
H  32.19500 49.01900 22.09200
H  32.86600 47.83500 20.99500
H  37.35900 47.73900 22.16000
H  36.64900 48.08300 20.58700
H  38.00200 45.80300 21.20800
H  36.76900 45.83500 19.96500
H  36.41200 45.20100 21.60100
H  37.39100 43.62300 25.49700
H  35.77700 43.32600 24.89200
H  36.24300 42.88300 26.58600
H  36.50500 45.93000 30.79700
H  32.49300 45.26400 32.60900
H  33.66600 45.32900 33.88500
H  33.44400 43.74000 32.99900
Mg 0.41200 43.87800 26.23500
C  1.96300 43.98500 29.36700
C  -2.50200 43.16500 27.99900
C  -1.00200 43.16600 23.30800
C  3.62400 44.23100 24.72700
N  -0.21800 43.54200 28.51000
C  0.61300 43.79600 29.52600
C  -0.21400 43.64200 30.90800
C  -1.60600 43.18600 30.43400
C  -1.42900 43.31800 28.91100
C  -1.96700 41.80100 30.90600
C  -0.23800 45.01800 31.66500
C  -0.43400 44.97100 33.22700
H  -0.81700 43.68200 34.00700
N  -1.52700 43.42100 25.74200
C  -2.59600 43.17400 26.57500
C  -3.74500 42.78900 25.67900
C  -3.33500 42.91400 24.32200
C  -1.90000 43.15400 24.43400
C  -5.10900 42.46200 26.16500
C  -4.15800 42.71900 22.99200
O  -3.71800 42.86800 21.87200
C  -5.60800 42.28400 23.01300
N  1.19500 43.75300 24.33400
C  0.40100 43.46600 23.29900
C  1.18600 43.44200 21.96200
C  2.55200 44.11300 22.36500
C  2.49500 44.06800 23.90400
C  1.34200 42.15000 21.18300
C  2.75900 45.49900 21.85200
C  3.46600 45.56600 20.48100
N  2.46200 44.07000 26.81200
C  3.63400 44.15900 26.12700
C  4.68000 44.33700 27.13600
C  4.08600 44.25700 28.40500
C  2.70700 44.10500 28.15300
C  6.16200 44.52500 26.80800
C  4.33400 44.18700 29.82100
O  5.36400 44.17200 30.48500
C  3.01300 44.11600 30.49000
C  3.13900 42.99300 31.38400
O  3.16700 41.84000 31.03000
O  3.01100 43.39300 32.68300
C  3.03500 42.22200 33.56900
H  -3.36500 43.02800 28.65500
H  -1.51700 42.98400 22.36300
H  4.53400 44.47300 24.17500
H  0.30500 42.95700 31.57800
H  -2.35300 43.93600 30.69000
H  -2.96400 41.80200 31.34600
H  -1.21900 41.32700 31.54200
H  -1.98900 41.16600 30.02000
H  -0.93200 45.76000 31.26900
H  0.73900 45.49500 31.58700
H  -1.03600 45.79500 33.60900
H  0.57000 45.25500 33.54300
H  -5.94500 43.08500 25.84800
H  -5.16800 42.12100 27.19900
H  -5.40200 41.50700 25.72900
H  -6.26700 43.02900 23.45900
H  -5.81200 41.33600 23.50900
H  -5.88400 42.04100 21.98600
H  0.62400 44.16000 21.36500
H  3.40200 43.45100 22.20300
H  2.28100 42.13100 20.62900
H  0.54900 42.03900 20.44300
H  1.37100 41.26900 21.82400
H  3.32900 46.15800 22.50700
H  1.82500 46.05400 21.75700
H  2.68700 45.75700 19.74200
H  3.82500 44.59000 20.15400
H  4.22300 46.35000 20.46300
H  6.81800 43.92300 27.43700
H  6.30900 45.58000 27.04000
H  6.42200 44.40600 25.75600
H  2.89400 45.01900 31.08800
H  3.89900 41.57700 33.40500
H  2.14700 41.59700 33.46900
H  3.04000 42.41500 34.64100

