158

Mg 1.87300 -1.02000 43.88800
C  5.22100 -0.39000 43.59800
C  1.19800 2.06500 42.39000
C  -1.34500 -1.91600 43.30600
C  2.59300 -4.36600 44.88000
N  3.09300 0.57300 42.89200
C  4.49700 0.69600 42.99600
C  4.95400 1.88900 42.30900
C  3.66400 2.69700 42.13500
C  2.51400 1.73300 42.48300
C  3.57600 4.04600 42.89300
C  5.58800 1.40800 40.90700
C  6.92600 1.93600 40.49000
H  7.17900 2.17100 39.03500
N  0.10600 -0.00500 43.09800
C  0.04800 1.22700 42.61600
C  -1.34000 1.52000 42.24400
C  -2.09300 0.36000 42.44400
C  -1.10100 -0.59700 42.96800
C  -1.79200 2.87200 41.69900
C  -3.49100 0.14600 41.91900
O  -4.13100 1.08600 41.45700
C  -4.23100 -1.12100 42.20800
N  0.82600 -2.96800 44.02900
C  -0.54400 -2.95400 43.85900
C  -1.12700 -4.38200 44.13700
C  0.11200 -5.17300 44.60000
C  1.28100 -4.13300 44.48400
C  -2.24100 -4.41200 45.20300
C  0.55000 -6.44400 43.84500
C  0.48000 -7.73900 44.59800
N  3.57600 -2.18400 44.20500
C  3.66400 -3.46700 44.67600
C  5.09300 -3.72300 44.90600
C  5.69900 -2.53800 44.49600
C  4.77200 -1.65000 44.06300
C  5.72400 -5.02600 45.45000
C  7.09000 -1.89900 44.34900
O  8.18500 -2.27500 44.68100
C  6.78900 -0.47500 43.76600
C  7.39700 0.55800 44.56800
O  7.37500 0.57500 45.74900
O  8.05100 1.47900 43.79700
C  8.63900 2.58700 44.60400
H  1.02200 3.09700 42.07800
H  -2.29900 -2.42500 43.14800
H  2.80800 -5.38200 45.21600
H  5.72800 2.41900 42.86400
H  3.52800 2.92900 41.07900
H  3.63400 4.80800 42.11700
H  4.49900 4.07900 43.47200
H  2.62400 4.15900 43.41100
H  4.95300 1.59500 40.04100
H  5.78400 0.33700 40.87900
H  7.64300 1.20300 40.85900
H  7.15000 2.79500 41.12300
H  -2.25800 2.78800 40.71700
H  -1.04900 3.66700 41.75800
H  -2.66700 3.12200 42.30000
H  -5.30100 -1.01300 42.03300
H  -4.06500 -1.34100 43.26200
H  -3.73700 -1.89300 41.61700
H  -1.48100 -4.76900 43.18100
H  0.02700 -5.37700 45.66700
H  -2.93900 -3.59800 45.00500
H  -1.77900 -4.44500 46.18900
H  -2.72100 -5.38000 45.05800
H  1.56400 -6.36500 43.45200
H  -0.14300 -6.49800 43.00500
H  1.47000 -8.13500 44.37200
H  -0.15800 -8.52100 44.18700
H  0.43900 -7.54800 45.67100
H  6.08400 -5.56700 44.57500
H  5.05700 -5.56200 46.12500
H  6.53900 -4.77700 46.12900
H  7.29600 -0.27800 42.82100
H  9.34500 3.15400 43.99800
H  8.99700 2.39600 45.61600
H  7.82200 3.26300 44.86000
Mg 8.69500 4.20300 27.90400
C  9.97300 2.56600 30.84600
C  6.94300 6.35400 30.04700
C  7.40000 5.60700 25.24500
C  10.27900 1.82400 25.98300
N  8.47700 4.46500 30.18900
C  9.12300 3.68000 31.09100
C  8.85300 4.20500 32.51700
C  7.67800 5.27800 32.31600
C  7.74800 5.44900 30.76000
C  6.30500 4.75600 32.74200
C  10.10800 4.89500 33.13900
C  10.50700 4.26800 34.52400
H  10.89200 5.15900 35.72000
N  7.37800 5.79900 27.70000
C  6.79800 6.59900 28.66300
C  6.01200 7.65000 28.03000
C  6.12200 7.47400 26.56800
C  6.95300 6.24100 26.41900
C  5.27000 8.80800 28.75800
C  5.44400 8.08200 25.38100
O  5.52400 7.65800 24.24800
C  4.58600 9.30000 25.71800
N  8.71400 3.70300 25.92200
C  8.14600 4.49000 24.99100
C  8.47500 3.98100 23.53900
C  9.65800 2.96400 23.71800
C  9.53000 2.76500 25.28300
C  7.25800 3.44100 22.79200
C  11.06700 3.44900 23.32500
C  11.93900 2.37100 22.51500
N  9.78200 2.48000 28.24900
C  10.40700 1.61500 27.37600
C  11.28000 0.72700 28.12700
C  11.15600 1.08900 29.47600
C  10.21400 2.18000 29.48000
C  12.15600 -0.34100 27.60900
C  11.63700 0.80400 30.82300
O  12.50300 0.05000 31.24800
C  10.92400 1.79900 31.70400
C  10.14700 0.98900 32.70500
O  9.21100 0.26900 32.35400
O  10.73200 1.15100 33.91300
C  10.17500 0.31000 34.99200
H  6.40700 6.96500 30.77700
H  7.06800 6.01700 24.28800
H  10.90100 1.22200 25.31700
H  8.45600 3.39500 33.12900
H  7.91600 6.26400 32.71400
H  6.40400 3.72500 33.08300
H  5.68400 4.67900 31.84900
H  5.89800 5.38500 33.53300
H  9.96300 5.97400 33.20000
H  10.94700 4.91600 32.44300
H  11.43500 3.74000 34.30600
H  9.80700 3.52000 34.89600
H  5.81600 9.75100 28.74500
H  5.08700 8.62900 29.81800
H  4.28100 8.96400 28.32500
H  3.73000 9.02900 26.33600
H  4.15400 9.60800 24.76600
H  5.27300 10.05000 26.11000
H  8.71400 4.75900 22.81300
H  9.53200 1.96300 23.30400
H  7.50900 2.48700 22.32800
H  7.23100 4.15700 21.97000
H  6.35700 3.51700 23.40100
H  11.51200 3.78200 24.26200
H  11.03200 4.35000 22.71300
H  12.21700 2.74900 21.53100
H  11.45200 1.40700 22.65800
H  12.91300 2.28200 22.99500
H  12.61900 -0.07500 26.65900
H  11.57200 -1.25900 27.66000
H  13.01300 -0.39200 28.28200
H  11.62900 2.49600 32.15700
H  9.23200 -0.18400 34.75900
H  9.96700 1.00300 35.80700
H  10.92000 -0.42200 35.30500

