158

Mg 54.04100 24.55100 44.49700
C  51.36100 26.69400 44.00400
C  51.94600 21.95200 43.50200
C  56.75800 22.61300 44.18500
C  56.06200 27.24300 45.37100
N  51.92900 24.34500 43.80200
C  51.00600 25.37600 43.83700
C  49.52800 24.82600 43.71000
C  49.79200 23.30400 43.95100
C  51.30600 23.18900 43.65500
C  49.37000 22.68400 45.47100
C  48.75700 25.02200 42.40300
C  49.66200 24.93800 41.14000
H  49.02700 24.74600 39.72900
N  54.31500 22.54200 43.80400
C  53.34600 21.65600 43.52000
C  53.99600 20.35500 43.20000
C  55.35700 20.51700 43.55600
C  55.54800 21.92300 43.83800
C  53.30800 19.12300 42.69900
C  56.36900 19.31000 43.38400
O  55.95600 18.21400 42.93100
C  57.78400 19.34300 43.67400
N  56.17900 24.90000 44.69800
C  57.13500 23.92000 44.58600
C  58.59900 24.44400 44.85600
C  58.25600 25.78700 45.59000
C  56.72400 26.04200 45.19900
C  59.32600 23.42100 45.76300
C  59.17400 26.98700 45.11000
C  59.63600 27.90400 46.21600
N  53.87400 26.61800 44.66100
C  54.76900 27.62200 45.04400
C  54.00400 28.87500 45.15400
C  52.71500 28.56100 44.70200
C  52.69600 27.17200 44.38400
C  54.43700 30.19500 45.57600
C  51.44000 29.14800 44.50700
O  51.05800 30.28600 44.70100
C  50.52300 27.99100 43.99900
C  50.00000 28.23400 42.64600
O  50.78100 28.24100 41.67400
O  48.68600 28.67300 42.65800
C  48.03100 28.93400 41.33200
H  51.22500 21.19000 43.20000
H  57.63400 21.97000 44.07900
H  56.76300 28.03700 45.63700
H  49.02000 25.26300 44.56900
H  49.26000 22.67900 43.23400
H  49.23400 23.53100 46.14400
H  50.07100 21.94700 45.86100
H  48.38100 22.22900 45.42100
H  48.37600 26.04100 42.46000
H  47.96200 24.27800 42.45200
H  50.33000 24.10400 41.35700
H  50.21600 25.87300 41.22300
H  53.76400 18.64900 41.83000
H  52.41600 19.51200 42.20900
H  53.06500 18.37800 43.45700
H  58.27800 18.37200 43.69400
H  57.97300 19.80600 44.64300
H  58.00800 20.00800 42.84000
H  59.14600 24.66900 43.94100
H  58.35500 25.67200 46.67000
H  59.73500 23.82100 46.69100
H  60.23800 23.13200 45.23900
H  58.79700 22.49300 45.97900
H  58.65000 27.62800 44.40100
H  60.05300 26.67900 44.54500
H  60.13600 27.36000 47.01700
H  58.87100 28.54000 46.66200
H  60.35700 28.63600 45.85100
H  54.44500 30.14700 46.66500
H  53.64700 30.91000 45.35000
H  55.43900 30.43500 45.21900
H  49.68000 27.87500 44.68000
H  48.28100 29.87800 40.84700
H  46.96200 28.97000 41.54100
H  48.31000 28.17300 40.60400
Mg 2.01200 42.19400 24.28700
C  2.90100 42.36100 27.67000
C  -1.06600 40.99300 25.31900
C  1.35900 41.27200 21.17400
C  5.37300 42.81100 23.59600
N  1.12800 41.57100 26.20900
C  1.56400 41.94700 27.48000
C  0.56400 41.66800 28.53800
C  -0.65100 41.07800 27.75700
C  -0.18400 41.24000 26.35100
C  -1.03000 39.64100 28.11500
C  0.23700 42.90800 29.44300
C  -0.90100 42.95800 30.48200
H  -1.73000 41.71400 30.83500
N  0.28400 41.37600 23.27500
C  -0.91300 41.03500 23.90400
C  -1.82100 40.67200 22.87400
C  -1.11000 40.69800 21.59000
C  0.20300 41.14300 21.95300
C  -3.15400 40.10700 23.16500
C  -1.56900 40.47100 20.16300
O  -0.90600 40.62400 19.13200
C  -3.01200 40.04000 19.95000
N  3.21600 41.96500 22.66100
C  2.72700 41.55100 21.44000
C  3.79700 41.63100 20.38200
C  4.91800 42.45700 21.04600
C  4.55100 42.35600 22.56300
C  4.23600 40.18600 19.87300
C  5.07500 43.87200 20.61500
C  3.98700 44.94700 20.74500
N  3.82200 42.67400 25.34700
C  5.09400 42.90500 24.98800
C  5.93300 43.24500 26.13100
C  5.12900 43.05600 27.23800
C  3.86200 42.68000 26.70700
C  7.33800 43.66000 26.06800
C  5.12100 42.91300 28.66400
O  6.03100 42.97900 29.42600
C  3.68100 42.49700 28.96900
C  3.83000 41.14000 29.60500
O  4.61500 40.27800 29.20900
O  2.87400 40.96800 30.58200
C  2.64300 39.60100 31.00700
H  -2.09400 40.76000 25.60300
H  1.28200 41.04700 20.10900
H  6.42700 42.87600 23.32000
H  0.93300 40.82400 29.12100
H  -1.43200 41.83500 27.82300
H  -0.65000 39.34100 29.09200
H  -0.62200 38.88000 27.45000
H  -2.11100 39.53200 28.19600
H  0.03000 43.75500 28.78900
H  1.15400 43.23700 29.93300
H  -1.61000 43.71000 30.13400
H  -0.46100 43.36800 31.39100
H  -3.83100 40.07900 22.31100
H  -3.70200 40.56400 23.98900
H  -3.02500 39.05100 23.39800
H  -3.15400 39.09000 20.46500
H  -3.03900 39.97900 18.86200
H  -3.75000 40.74600 20.33000
H  3.56500 42.02600 19.39300
H  5.90900 42.00600 20.99400
H  3.76400 39.93600 18.92300
H  3.87600 39.44300 20.58400
H  5.32400 40.13500 19.84000
H  5.04800 43.79000 19.52900
H  6.02000 44.26100 20.99300
H  3.29000 44.54900 21.48300
H  3.49500 45.05500 19.77900
H  4.39200 45.86900 21.16300
H  7.65300 44.12500 25.13400
H  7.93500 42.78000 26.30600
H  7.72000 44.38000 26.79200
H  3.27800 43.12700 29.76300
H  3.28100 39.37800 31.86200
H  2.82800 38.85800 30.23200
H  1.59900 39.63600 31.31900

