158

Mg 26.67000 50.45600 27.04300
C  24.52900 51.22600 29.73400
C  28.95600 49.57800 29.34300
C  28.73000 49.89200 24.53900
C  24.20000 51.68900 24.87800
N  26.67300 50.30700 29.35300
C  25.67200 50.62900 30.19400
C  26.05000 50.17800 31.62600
C  27.51100 49.76400 31.48500
C  27.77300 49.96900 29.99100
C  28.64200 50.48500 32.27900
C  25.03200 49.19500 32.34400
C  24.17200 49.74100 33.44400
H  24.36300 49.19300 34.85300
N  28.59900 49.94300 26.95200
C  29.35600 49.53000 28.00800
C  30.67800 49.06500 27.50700
C  30.67300 49.33800 26.10600
C  29.33200 49.79900 25.79400
C  31.66100 48.43700 28.39300
C  31.80700 48.97300 25.20200
O  31.69600 49.05300 23.94100
C  33.01300 48.40800 25.68500
N  26.39700 50.62400 25.05700
C  27.41600 50.22400 24.14800
C  26.84200 50.25900 22.69600
C  25.41000 50.81300 22.86000
C  25.30700 51.06700 24.32800
C  27.59000 50.95400 21.57100
C  24.26600 49.89900 22.26300
C  23.84100 50.47300 20.88000
N  24.79300 51.40600 27.25900
C  23.92000 51.90800 26.26400
C  22.68000 52.24900 26.85900
C  22.89500 52.06100 28.26000
C  24.18900 51.57500 28.41200
C  21.45500 52.61700 26.15800
C  22.24900 52.18500 29.51800
O  21.11700 52.60800 29.84100
C  23.32100 51.65500 30.55500
C  23.66900 52.79900 31.43400
O  24.30800 53.78200 31.07100
O  23.08500 52.68300 32.59900
C  23.26000 53.77300 33.60200
H  29.63500 49.34300 30.16500
H  29.33200 49.65600 23.65900
H  23.43900 52.03400 24.17600
H  26.10700 51.17800 32.05700
H  27.52900 48.68600 31.64700
H  29.25600 49.68400 32.69100
H  28.22000 51.12700 33.05100
H  29.23700 51.11500 31.61700
H  25.67100 48.40500 32.74000
H  24.39700 48.81700 31.54300
H  23.11100 49.57100 33.26100
H  24.40400 50.80600 33.46300
H  32.49900 49.11300 28.56300
H  32.03800 47.48000 28.03000
H  31.25600 48.04700 29.32700
H  33.74300 48.39600 24.87600
H  32.71900 47.43200 26.07000
H  33.31600 49.11700 26.45700
H  26.90400 49.17700 22.57800
H  25.36500 51.79700 22.39400
H  28.56000 51.40000 21.79300
H  26.95900 51.64800 21.01500
H  27.72600 50.05900 20.96400
H  23.47700 49.89200 23.01600
H  24.55500 48.86200 22.09400
H  24.23400 51.48300 20.76200
H  22.75300 50.53500 20.85000
H  24.18400 49.78200 20.11000
H  21.46500 52.20900 25.14700
H  21.36200 53.69700 26.05200
H  20.69900 52.17800 26.81000
H  22.83900 50.80600 31.03900
H  23.97300 54.55900 33.35300
H  23.72000 53.09500 34.32100
H  22.38300 54.34300 33.91000
Mg 9.35300 48.24200 26.58900
C  7.40600 48.40400 29.47100
C  11.98600 49.25500 28.63800
C  11.39000 47.98700 23.98500
C  6.60700 47.63000 24.67600
N  9.58600 48.83100 28.82700
C  8.69400 48.70900 29.83700
C  9.36400 48.99500 31.17300
C  10.58100 49.84800 30.72300
C  10.81700 49.28300 29.29100
C  10.35000 51.38100 30.80500
C  9.71400 47.62800 31.89500
C  10.10700 47.70400 33.41000
H  9.46500 46.56300 34.33100
N  11.35000 48.33400 26.35800
C  12.26500 48.81600 27.32700
C  13.65400 48.57200 26.79900
C  13.52000 48.21200 25.46400
C  12.04900 48.15000 25.19200
C  14.95300 48.80700 27.66100
C  14.66800 47.78100 24.42700
O  14.36600 47.30800 23.33200
C  16.10800 47.77500 24.87400
N  9.09800 47.70800 24.66500
C  10.06900 47.75400 23.72400
C  9.50700 47.49900 22.33000
C  7.93600 47.45100 22.48700
C  7.88500 47.56400 24.03100
C  9.96400 48.37200 21.15700
C  7.15500 46.25200 21.83100
C  6.14700 46.67000 20.77400
N  7.40000 48.19300 26.93300
C  6.37500 47.79800 26.03900
C  5.10300 47.63200 26.75800
C  5.51000 47.92600 28.11500
C  6.88400 48.24400 28.17100
C  3.80500 47.17300 26.24500
C  4.91200 47.98600 29.45900
O  3.73200 47.78800 29.76600
C  6.20000 48.16100 30.38500
C  6.37900 46.91800 31.14300
O  6.91000 45.86400 30.73600
O  5.92100 47.02900 32.47100
C  5.97700 45.71000 33.12300
H  12.80000 49.71800 29.19900
H  12.12400 47.93900 23.17900
H  5.73900 47.32900 24.08500
H  8.61500 49.49600 31.78700
H  11.41400 49.56700 31.36700
H  9.50000 51.64100 31.43600
H  10.12900 51.71000 29.79000
H  11.25500 51.93500 31.05400
H  10.64400 47.33800 31.40600
H  8.85300 46.97200 31.76600
H  9.91300 48.74900 33.65400
H  11.18300 47.53600 33.35600
H  14.72600 48.89400 28.72300
H  15.43100 49.77300 27.49800
H  15.58400 47.91900 27.62100
H  16.34700 48.76200 25.26900
H  16.73800 47.48200 24.03400
H  16.07600 46.95900 25.59600
H  9.87600 46.51100 22.05500
H  7.52200 48.41100 22.17800
H  9.17300 48.78200 20.52900
H  10.70700 47.80200 20.60000
H  10.49700 49.20800 21.60900
H  6.56500 45.76400 22.60600
H  7.89700 45.55300 21.44300
H  5.93200 45.82400 20.12300
H  6.61000 47.56100 20.34900
H  5.20100 46.99300 21.21000
H  4.02600 46.50600 25.41200
H  3.27600 48.06500 25.91200
H  3.19100 46.56400 26.90800
H  6.06600 49.01300 31.05100
H  5.91700 45.93800 34.18700
H  6.86700 45.17400 32.79300
H  5.14500 45.08500 32.79800

