158

Mg 48.04300 35.72100 27.70200
C  46.31800 33.89800 30.22500
C  48.12400 38.41300 29.66500
C  49.25100 37.51900 25.03800
C  47.81900 33.02300 25.65700
N  47.31000 36.02800 29.69300
C  46.78800 35.13700 30.56300
C  46.65300 35.76700 31.94400
C  46.93000 37.31600 31.71300
C  47.41900 37.29100 30.21100
C  45.81000 38.34000 31.78700
C  47.69200 35.11900 32.94800
C  48.74500 35.96200 33.73600
H  48.30700 36.96100 34.86300
N  48.86000 37.69700 27.44300
C  48.75300 38.61700 28.38300
C  49.36400 39.86600 27.89900
C  49.67400 39.65700 26.50900
C  49.29400 38.22000 26.30600
C  49.48100 41.12700 28.73100
C  50.19800 40.65200 25.44400
O  50.44900 40.22900 24.29800
C  50.54900 42.13300 25.82500
N  48.45600 35.35300 25.60700
C  48.89600 36.24200 24.72800
C  48.91800 35.57800 23.28600
C  48.71900 34.07400 23.52900
C  48.33100 34.13400 25.01500
C  47.95600 36.35600 22.36100
C  50.00400 33.14900 23.29900
C  51.17700 33.22800 24.35100
N  47.20500 33.88800 27.83700
C  47.22500 32.87500 26.93500
C  46.48900 31.77400 27.43500
C  46.23700 32.12700 28.77800
C  46.55800 33.41700 28.89500
C  46.22400 30.46400 26.81100
C  45.65900 31.67000 29.99500
O  45.31600 30.51700 30.25600
C  45.46300 32.92000 30.90200
C  45.76900 32.53800 32.28800
O  46.82000 32.01600 32.63900
O  44.63000 32.76300 33.03800
C  44.57700 32.19200 34.34500
H  48.19500 39.17700 30.44200
H  49.51500 38.12100 24.16600
H  47.57100 32.15900 25.03600
H  45.59400 35.73200 32.19800
H  47.75400 37.68200 32.32600
H  46.11800 39.10700 32.49800
H  44.92900 37.83500 32.18500
H  45.49600 38.74600 30.82500
H  48.35500 34.42800 32.42600
H  47.05500 34.55700 33.63000
H  49.38400 36.55700 33.08300
H  49.46300 35.26700 34.17200
H  48.53000 41.61800 28.52400
H  50.23700 41.87900 28.50700
H  49.72100 40.94800 29.77900
H  49.92100 42.47700 26.64700
H  50.47700 42.63800 24.86100
H  51.59700 42.10700 26.12400
H  49.91500 35.81600 22.91500
H  47.85900 33.58600 23.07000
H  47.34400 37.14200 22.80300
H  47.35000 35.58400 21.88700
H  48.54200 36.72400 21.51900
H  50.55300 33.47200 22.41400
H  49.79300 32.13000 22.97500
H  51.09500 34.22000 24.79500
H  52.13900 33.04000 23.87500
H  50.98400 32.45800 25.09900
H  46.35200 29.65300 27.52800
H  46.88200 30.28900 25.96000
H  45.23700 30.63400 26.38100
H  44.42700 33.25300 30.84700
H  44.10800 32.94800 34.97500
H  45.55400 31.92500 34.74700
H  43.91400 31.32700 34.33300
Mg 42.90800 42.19400 25.77300
C  42.19200 44.43400 28.36500
C  44.13800 40.11900 28.26500
C  44.02200 40.27400 23.39700
C  42.41400 44.81300 23.52700
N  43.04000 42.29600 28.10200
C  42.66300 43.31100 28.91200
C  42.91000 42.92100 30.43500
C  43.82600 41.68100 30.29600
C  43.60100 41.28900 28.79400
C  45.35300 41.84300 30.62500
C  41.57100 42.69100 31.16700
C  41.83700 42.11600 32.63800
H  41.13100 42.81800 33.86400
N  43.82300 40.31700 25.81400
C  44.20400 39.57700 26.93800
C  44.75400 38.29900 26.49600
C  44.56500 38.36000 25.07400
C  44.12200 39.64900 24.69300
C  45.20000 37.26800 27.45100
C  44.81100 37.19300 24.10100
O  44.69800 37.27800 22.88400
C  45.28800 35.88800 24.64300
N  43.22400 42.50600 23.74500
C  43.72900 41.61400 22.97900
C  43.58500 41.96500 21.49200
C  42.84500 43.31200 21.55900
C  42.81200 43.55700 23.05400
C  44.89000 41.88100 20.62000
C  41.42700 43.44600 20.86600
C  40.07300 43.17800 21.49500
N  42.32200 44.19000 25.85900
C  42.16800 45.09500 24.83500
C  41.58000 46.35200 25.37000
C  41.41800 46.02800 26.74400
C  42.04500 44.76100 26.98700
C  41.35800 47.66400 24.66700
C  41.23400 46.67500 28.07500
O  40.96500 47.85600 28.30700
C  41.69600 45.64500 29.13100
C  42.77200 46.20000 30.02000
O  43.96900 46.11800 29.75300
O  42.17900 46.69800 31.16100
C  43.12900 47.23600 32.16300
H  44.50200 39.43100 29.03000
H  44.23500 39.61100 22.55600
H  42.23800 45.61100 22.80400
H  43.38800 43.78600 30.89300
H  43.50300 40.85200 30.92500
H  45.66700 42.87100 30.80700
H  45.95300 41.44500 29.80700
H  45.53100 41.38600 31.59800
H  40.95500 42.04500 30.54200
H  41.21700 43.72100 31.12600
H  42.88100 41.97100 32.91400
H  41.45800 41.09400 32.62100
H  45.39500 37.64800 28.45400
H  46.05600 36.67200 27.13600
H  44.35100 36.58500 27.48600
H  45.42300 35.12800 23.87300
H  44.63400 35.44900 25.39700
H  46.28000 36.04300 25.06700
H  42.94900 41.17400 21.09600
H  43.40700 44.14400 21.13400
H  45.13900 42.91700 20.39000
H  44.65900 41.44900 19.64600
H  45.75200 41.39800 21.08200
H  41.36400 42.76100 20.02000
H  41.42300 44.48400 20.53300
H  39.53500 42.45000 20.88800
H  39.47500 44.07200 21.67200
H  40.05200 42.69400 22.47200
H  42.19600 48.35600 24.74900
H  40.48700 48.14200 25.11400
H  41.16800 47.45300 23.61400
H  40.77300 45.42000 29.66600
H  44.02400 47.65800 31.70500
H  43.35000 46.46300 32.90000
H  42.60300 48.11600 32.53300

