158

Mg 2.45600 -0.16900 42.84300
C  6.03400 0.42800 42.43500
C  1.86100 2.61300 41.07500
C  -0.55000 -1.43700 42.30200
C  3.49800 -3.29300 44.31400
N  3.82600 1.28700 41.80900
C  5.16500 1.43200 41.92800
C  5.60800 2.83700 41.40000
C  4.28500 3.54300 41.02400
C  3.22500 2.40500 41.33400
C  3.98700 4.78600 41.93300
C  6.74800 2.90800 40.31200
C  6.53400 2.03500 39.08200
H  6.49100 2.81200 37.71800
N  0.79700 0.53800 41.87200
C  0.76800 1.74200 41.18800
C  -0.54700 1.88700 40.61600
C  -1.24100 0.66900 40.95200
C  -0.35200 -0.18700 41.72400
C  -1.04700 3.12100 39.90500
C  -2.70700 0.50500 40.60300
O  -3.38500 1.35700 40.02400
C  -3.34000 -0.85600 41.05000
N  1.59400 -2.07800 43.27000
C  0.30800 -2.31500 43.01800
C  -0.18900 -3.60400 43.59800
C  1.10700 -4.15400 44.28300
C  2.13300 -3.10600 43.99000
C  -1.35000 -3.47100 44.61700
C  1.53100 -5.65500 43.82300
C  1.23300 -6.67800 44.86900
N  4.35600 -1.27400 43.20600
C  4.53700 -2.47400 43.84500
C  5.93200 -2.74400 43.92600
C  6.56900 -1.59200 43.41600
C  5.50800 -0.73300 42.97500
C  6.58000 -3.98200 44.45800
C  7.85200 -0.96600 43.14000
O  9.01600 -1.41200 43.28900
C  7.58300 0.42300 42.60200
C  8.06300 1.40000 43.63900
O  7.51600 1.63800 44.74100
O  9.07600 2.19400 43.08000
C  9.26500 3.48900 43.80400
H  1.83100 3.54800 40.51200
H  -1.53300 -1.90900 42.35500
H  3.71200 -4.27900 44.73100
H  6.05000 3.37600 42.23800
H  4.23300 3.77200 39.96000
H  3.13700 4.57400 42.58100
H  3.72300 5.55900 41.21100
H  4.84500 5.11200 42.52100
H  7.69300 2.54300 40.71500
H  7.06200 3.90300 39.99600
H  5.61000 1.45600 39.10400
H  7.40000 1.38500 38.96100
H  -0.20900 3.78000 39.67200
H  -1.84300 3.57900 40.49100
H  -1.27400 2.70600 38.92300
H  -2.77200 -1.55200 40.43100
H  -4.37400 -0.83500 40.70600
H  -3.32600 -1.05700 42.12100
H  -0.53800 -4.27500 42.81400
H  1.02800 -4.01000 45.36000
H  -2.31200 -3.86100 44.28500
H  -1.48000 -2.41300 44.84200
H  -1.14700 -4.11100 45.47500
H  2.58100 -5.70400 43.53800
H  0.97900 -6.00600 42.95100
H  0.15300 -6.68200 45.01200
H  1.86300 -6.28700 45.66800
H  1.72000 -7.59800 44.54700
H  7.60500 -3.76500 44.75700
H  6.69000 -4.77700 43.72000
H  6.02000 -4.47800 45.25100
H  8.00700 0.64800 41.62300
H  9.21000 3.34800 44.88400
H  8.39000 4.08600 43.54800
H  10.12300 4.08400 43.49100
Mg -2.18200 34.86700 26.86800
C  -3.82800 33.12100 29.49600
C  -0.95700 36.98800 29.33100
C  -0.89500 36.70000 24.42500
C  -3.79700 32.87900 24.61900
N  -2.29300 34.95900 29.14900
C  -2.89100 34.07500 29.93800
C  -2.74900 34.37100 31.46600
C  -1.98900 35.72700 31.41100
C  -1.80600 35.98200 29.83800
C  -2.66300 36.98100 32.14800
C  -2.01200 33.17300 32.23500
C  -2.66200 32.56700 33.45600
H  -1.79200 32.41000 34.74900
N  -0.94200 36.52100 26.83800
C  -0.57100 37.27200 27.94000
C  0.38300 38.30600 27.46000
C  0.18700 38.33900 26.04300
C  -0.51300 37.14500 25.73500
C  1.26000 39.18200 28.32200
C  0.65500 39.42100 25.07000
O  0.51200 39.41900 23.85300
C  1.36900 40.57000 25.53900
N  -2.34200 34.77800 24.90100
C  -1.62400 35.57400 24.05200
C  -1.72200 35.22400 22.63700
C  -2.44800 33.88300 22.75700
C  -2.88000 33.77500 24.14800
C  -2.44100 36.21500 21.75300
C  -1.55100 32.60200 22.45400
C  -0.26400 32.26200 23.26700
N  -3.66000 33.34500 26.97100
C  -4.20200 32.60700 25.97000
C  -5.20700 31.80400 26.51300
C  -5.07100 31.89400 27.87300
C  -4.03000 32.79200 28.10400
C  -6.27100 31.09300 25.63400
C  -5.46000 31.33400 29.10100
O  -6.21700 30.41700 29.40800
C  -4.70900 32.11600 30.23900
C  -5.74700 32.71700 31.18900
O  -6.67600 33.41800 30.81100
O  -5.61700 32.18900 32.44000
C  -6.61000 32.42300 33.46000
H  -0.75200 37.66700 30.16100
H  -0.34400 37.18700 23.61800
H  -4.12600 32.11700 23.90900
H  -3.72800 34.50400 31.92500
H  -0.99700 35.64900 31.85700
H  -1.80100 37.51900 32.54400
H  -3.25200 36.74500 33.03400
H  -3.28300 37.65000 31.55200
H  -0.97200 33.45000 32.40800
H  -1.97200 32.31400 31.56500
H  -3.12100 31.62000 33.17000
H  -3.41500 33.28900 33.77200
H  0.96700 40.22600 28.20600
H  2.19500 38.84800 27.87200
H  1.22400 38.96400 29.38900
H  0.78700 41.00700 26.34900
H  1.37400 41.26900 24.70200
H  2.35900 40.33200 25.93000
H  -0.76700 35.09900 22.12800
H  -3.34700 33.93200 22.14200
H  -2.08200 37.21400 22.00100
H  -3.52500 36.15000 21.85100
H  -2.22500 35.96700 20.71400
H  -1.26000 32.72600 21.41200
H  -2.24800 31.76600 22.51200
H  -0.51400 31.86000 24.24900
H  0.27100 33.20500 23.38300
H  0.30400 31.48100 22.76200
H  -6.20300 31.26500 24.56000
H  -7.26900 31.10400 26.07200
H  -5.96500 30.05300 25.74000
H  -4.00600 31.53700 30.83800
H  -7.62100 32.51900 33.06300
H  -6.47500 33.32300 34.06100
H  -6.60800 31.53900 34.09700

