158

Mg 2.06200 -1.20700 43.58200
C  5.43200 -0.20100 42.75000
C  0.91400 1.62800 42.06100
C  -0.95900 -2.69500 43.52400
C  3.46500 -4.20600 44.88800
N  3.07600 0.41700 42.46800
C  4.44900 0.61900 42.26300
C  4.67800 1.99600 41.62100
C  3.29900 2.67500 41.68400
C  2.32800 1.53500 42.13400
C  3.20400 3.95600 42.63700
C  5.09700 1.79000 40.13900
C  5.94800 2.81900 39.41800
H  5.38300 3.52800 38.24200
N  0.17200 -0.57900 42.98200
C  -0.12000 0.66200 42.44300
C  -1.50400 0.83600 42.37900
C  -2.11600 -0.37600 42.87300
C  -0.99700 -1.33200 43.15000
C  -2.12900 2.14100 41.85300
C  -3.60400 -0.65100 43.06900
O  -4.43000 0.27500 42.78800
C  -4.02000 -1.98900 43.50700
N  1.33100 -3.09900 44.13200
C  0.09800 -3.52800 43.89900
C  -0.14400 -5.01700 44.07500
C  1.23300 -5.40400 44.78900
C  2.07000 -4.16600 44.59500
C  -1.43800 -5.27100 44.90400
C  2.02300 -6.59600 44.19400
C  2.15700 -7.79600 45.11600
N  4.00600 -2.03500 43.95400
C  4.36900 -3.22800 44.58200
C  5.80600 -3.20100 44.77400
C  6.25000 -2.08400 44.01100
C  5.11300 -1.41500 43.51700
C  6.64400 -4.17100 45.43800
C  7.57100 -1.38200 43.58900
O  8.73300 -1.71500 43.71200
C  6.97400 -0.07500 42.89800
C  7.40500 1.09000 43.69300
O  6.79200 1.60800 44.62000
O  8.66300 1.48500 43.24900
C  8.99700 2.88000 43.73300
H  0.69400 2.64700 41.73800
H  -1.86000 -3.30100 43.40700
H  3.94000 -5.07300 45.35200
H  5.38700 2.65600 42.12000
H  3.05600 3.07000 40.69700
H  4.04600 3.96300 43.32900
H  2.29500 3.96200 43.23900
H  3.20400 4.87500 42.05200
H  4.17900 1.51800 39.61800
H  5.59200 0.84200 39.92900
H  6.78800 2.20200 39.10000
H  6.20100 3.60900 40.12600
H  -3.06300 1.84400 41.37700
H  -1.54200 2.58800 41.05100
H  -2.25700 2.95700 42.56500
H  -5.07300 -1.93100 43.78500
H  -3.57800 -2.28100 44.46000
H  -3.80500 -2.60800 42.63600
H  -0.23200 -5.32300 43.03200
H  1.06000 -5.44000 45.86400
H  -1.22000 -6.06300 45.62100
H  -2.26600 -5.54200 44.25000
H  -1.52900 -4.48100 45.65000
H  2.98000 -6.44900 43.69400
H  1.40100 -7.00100 43.39600
H  2.43800 -7.58100 46.14700
H  2.96900 -8.42100 44.74500
H  1.32500 -8.50000 45.09400
H  5.99700 -4.47000 46.26200
H  7.53000 -3.68000 45.84000
H  6.85500 -5.04500 44.82200
H  7.43700 0.06100 41.92000
H  9.75700 3.27100 43.05700
H  9.33100 2.78500 44.76600
H  8.13000 3.54000 43.68400
Mg 42.23400 40.61500 26.18300
C  41.41100 42.90700 28.74400
C  43.39900 38.51100 28.63200
C  43.01000 38.63200 23.71600
C  41.39400 43.18100 23.81300
N  42.52600 40.79300 28.35600
C  41.99300 41.75400 29.23900
C  42.00300 41.37800 30.72900
C  42.76100 39.94100 30.62800
C  42.90300 39.74600 29.11600
C  44.21900 40.01600 31.34400
C  40.51300 41.14300 31.16000
C  40.10000 41.95600 32.38900
H  39.40800 41.18400 33.52400
N  43.14100 38.78800 26.25700
C  43.44200 37.97700 27.32100
C  43.87700 36.69300 26.76700
C  43.81600 36.78900 25.32000
C  43.32800 38.15700 25.01900
C  44.17700 35.55300 27.65700
C  44.11000 35.67900 24.32700
O  44.10700 35.88800 23.12500
C  44.64000 34.38700 24.67300
N  42.31200 40.92700 23.96200
C  42.69400 39.88200 23.22500
C  42.46700 40.20500 21.74800
C  41.87600 41.68100 21.83200
C  41.90500 42.01200 23.32400
C  43.70700 40.10800 20.82300
C  40.41100 41.82900 21.26600
C  40.29500 42.25600 19.76400
N  41.47400 42.60200 26.21700
C  41.14500 43.48900 25.18800
C  40.71500 44.75200 25.78800
C  40.81200 44.56800 27.21000
C  41.27300 43.27000 27.37300
C  40.30200 45.94900 25.05000
C  40.57200 45.13700 28.44600
O  40.07300 46.20500 28.63100
C  40.97400 44.16500 29.50900
C  42.01600 44.67700 30.39500
O  43.23200 44.63900 30.26600
O  41.39400 45.16200 31.50900
C  42.27000 45.36100 32.64200
H  43.68100 37.86300 29.46500
H  43.33800 37.92500 22.95100
H  40.97300 43.92100 23.12900
H  42.55200 42.09500 31.33900
H  42.30200 39.10800 31.15900
H  44.33100 39.17600 32.03100
H  44.28300 40.92200 31.94600
H  44.97800 39.84300 30.58100
H  40.36300 40.13300 31.54200
H  39.85900 41.33500 30.30900
H  39.46400 42.81200 32.16400
H  41.01900 42.29700 32.86500
H  45.10400 35.02500 27.43200
H  43.41100 34.78700 27.53900
H  44.15400 35.81000 28.71600
H  44.79100 33.72400 23.82000
H  44.04100 33.86200 25.41600
H  45.63100 34.51500 25.10700
H  41.70300 39.53400 21.35400
H  42.58100 42.40500 21.42400
H  44.24800 41.05200 20.76700
H  43.43000 39.74100 19.83500
H  44.37700 39.40800 21.32100
H  39.69600 42.48400 21.76400
H  39.87200 40.88200 21.29500
H  39.68400 41.67800 19.07000
H  41.31700 42.38600 19.40800
H  39.95300 43.28800 19.67800
H  39.28800 46.30900 25.22700
H  40.50400 45.77800 23.99300
H  40.96000 46.79800 25.23400
H  40.05800 43.92300 30.04800
H  42.48900 44.36300 33.02400
H  41.73700 46.04300 33.30300
H  43.24700 45.78200 32.40400

