158

Mg -2.12500 17.60300 25.68300
C  -2.39300 15.20800 28.43000
C  -2.56700 20.02100 27.94500
C  -1.87200 19.71300 23.19300
C  -1.94900 14.82200 23.51900
N  -2.45400 17.52900 27.93100
C  -2.52900 16.51900 28.91800
C  -2.97100 16.98600 30.28200
C  -3.05200 18.54100 29.99000
C  -2.63000 18.72800 28.56300
C  -4.47300 19.25500 30.33500
C  -2.14100 16.52100 31.59100
C  -2.95100 16.09800 32.82300
H  -2.25300 15.28300 33.99900
N  -2.15400 19.62400 25.57800
C  -2.37500 20.42400 26.60400
C  -2.37700 21.79200 26.16800
C  -2.25000 21.75100 24.74100
C  -2.09600 20.34500 24.41700
C  -2.61500 22.91900 26.97400
C  -2.32900 22.86600 23.67900
O  -2.38500 22.64200 22.47500
C  -2.24600 24.27200 24.12300
N  -1.83200 17.26000 23.66500
C  -1.69300 18.30600 22.84100
C  -1.50200 17.80900 21.37000
C  -1.35900 16.23700 21.54300
C  -1.66800 16.06700 23.01000
C  -2.60100 18.29600 20.40600
C  0.05800 15.68500 21.22800
C  -0.00800 14.39100 20.42800
N  -2.18500 15.45200 25.82600
C  -2.16600 14.46700 24.86600
C  -2.50500 13.17600 25.47700
C  -2.50800 13.43600 26.87300
C  -2.33900 14.81400 27.03200
C  -2.74700 11.88700 24.77600
C  -2.50500 12.82500 28.19800
O  -2.57500 11.64400 28.48600
C  -2.36900 13.91600 29.20500
C  -1.17400 13.66000 29.96600
O  -0.06900 14.07600 29.66400
O  -1.41700 12.86700 31.07000
C  -0.29300 12.56700 31.85300
H  -2.88800 20.86300 28.56200
H  -1.76800 20.33000 22.29800
H  -1.81700 14.11300 22.69900
H  -3.98000 16.66500 30.54100
H  -2.26700 19.07700 30.52500
H  -4.37800 19.87100 31.22900
H  -5.26200 18.53300 30.54500
H  -4.80600 19.79100 29.44700
H  -1.68200 17.46100 31.89700
H  -1.40700 15.76300 31.31800
H  -3.80800 15.52500 32.46800
H  -3.26900 17.02100 33.30700
H  -3.47400 23.37700 26.48300
H  -1.71800 23.51800 27.12600
H  -3.04900 22.58100 27.91500
H  -1.33900 24.32700 24.72600
H  -3.11800 24.69600 24.62000
H  -2.07700 24.88800 23.24000
H  -0.59900 18.28700 20.98900
H  -2.18100 15.80300 20.97300
H  -2.23600 19.21400 19.94400
H  -3.48900 18.49300 21.00700
H  -2.80200 17.59100 19.60000
H  0.59200 15.30900 22.10100
H  0.73900 16.43600 20.82600
H  0.36400 14.55600 19.41600
H  -1.03300 14.02100 20.40700
H  0.64600 13.67800 20.93200
H  -2.31800 11.98300 23.77800
H  -3.82400 11.72800 24.82100
H  -2.17800 11.10600 25.27900
H  -3.20500 13.93400 29.90500
H  -0.64700 11.78100 32.52000
H  -0.02700 13.41900 32.48000
H  0.46700 11.98700 31.32900
Mg 9.53000 48.55100 26.43400
C  7.36100 48.46200 29.22900
C  12.07300 49.37500 28.65400
C  11.44100 48.84000 23.74000
C  6.68900 48.32800 24.34300
N  9.62300 48.76100 28.70900
C  8.65000 48.70100 29.63300
C  9.11400 48.99000 31.04200
C  10.56200 49.51000 30.89800
C  10.80000 49.24900 29.27900
C  10.80800 50.96800 31.35400
C  8.94200 47.72800 32.03200
C  9.92500 47.32400 33.08200
H  9.25800 46.66800 34.36600
N  11.46900 49.02300 26.21900
C  12.38300 49.27600 27.29000
C  13.71800 49.45800 26.72300
C  13.60100 49.30700 25.35600
C  12.14600 49.02800 25.00500
C  14.98500 49.73200 27.47900
C  14.74500 49.43700 24.38700
O  14.47700 49.64200 23.23400
C  16.14700 49.22700 24.75200
N  9.13200 48.57700 24.27500
C  10.12200 48.62800 23.39800
C  9.65800 48.22300 22.06500
C  8.07000 48.12400 22.24400
C  7.93300 48.36900 23.70400
C  10.09500 49.09600 20.89700
C  7.58000 46.67200 21.86900
C  6.21800 46.54500 21.19400
N  7.43700 48.32800 26.69100
C  6.40000 48.30200 25.74500
C  5.12500 48.17400 26.36800
C  5.49700 48.25900 27.71300
C  6.90600 48.23900 27.88100
C  3.79300 47.98500 25.66000
C  4.85700 48.31200 29.04300
O  3.69500 48.41400 29.45100
C  6.10300 48.38800 30.03700
C  5.97400 47.11800 30.84500
O  6.64100 46.13200 30.72500
O  4.98600 47.27200 31.75200
C  4.91600 46.21800 32.75500
H  12.93200 49.55500 29.30300
H  12.24400 48.85200 23.00100
H  5.78300 48.27500 23.73600
H  8.46500 49.74900 31.47800
H  11.31900 48.86500 31.34300
H  11.50700 50.85100 32.18200
H  9.85400 51.31000 31.75500
H  11.21000 51.62100 30.57900
H  9.01000 46.89000 31.33800
H  7.96700 47.75600 32.51800
H  10.37700 48.25000 33.43700
H  10.75400 46.67500 32.80100
H  15.56900 48.82500 27.64000
H  14.84200 50.11000 28.49100
H  15.60300 50.46800 26.96500
H  16.81300 48.97400 23.92800
H  16.10100 48.39400 25.45400
H  16.51700 50.14800 25.20200
H  10.07700 47.24700 21.82200
H  7.48300 48.87700 21.71700
H  9.48300 49.96400 20.65200
H  10.00400 48.52900 19.97100
H  11.10300 49.48900 21.03200
H  7.48900 46.05100 22.75900
H  8.40000 46.30900 21.24900
H  5.54600 46.02600 21.87700
H  6.39300 45.93400 20.30800
H  5.75800 47.51800 21.02100
H  3.77700 47.12600 24.98900
H  3.47000 48.84900 25.07900
H  3.00100 47.88700 26.40200
H  5.98300 49.17400 30.78300
H  5.81200 46.26400 33.37300
H  4.75800 45.19200 32.42100
H  4.05100 46.38600 33.39600

