158

Mg 34.76900 2.91000 29.92400
C  32.41700 3.71700 32.39100
C  37.26800 3.55300 32.24900
C  36.96700 2.24900 27.68600
C  32.35700 3.45100 27.52900
N  34.85600 3.61500 32.05300
C  33.73200 3.55000 32.87700
C  34.19200 3.59200 34.35300
C  35.71500 3.93900 34.25100
C  35.97600 3.67700 32.75600
C  36.29400 5.34900 34.76900
C  33.73400 2.33300 35.05400
C  33.39700 2.52900 36.54600
H  34.27900 3.37600 37.45900
N  36.86500 2.87300 29.98200
C  37.68800 3.15500 31.00800
C  39.07300 2.89900 30.63700
C  39.07500 2.35600 29.34900
C  37.59200 2.44600 28.94200
C  40.22600 3.07400 31.56600
C  40.16800 1.82600 28.49300
O  39.90700 1.36700 27.37100
C  41.61700 1.76800 28.92900
N  34.70000 2.88400 27.87500
C  35.69400 2.41200 27.14400
C  35.41900 2.56400 25.58100
C  33.91500 3.05800 25.63300
C  33.64700 3.10000 27.09700
C  36.37700 3.51600 24.75500
C  32.94700 2.01200 24.93500
C  31.81200 2.63400 24.12300
N  32.74200 3.28900 29.90700
C  31.88700 3.50500 28.83400
C  30.54100 3.80100 29.36100
C  30.72000 3.87900 30.73400
C  32.07700 3.64300 31.01500
C  29.26800 3.84800 28.47000
C  30.04700 4.01500 32.04000
O  28.85400 4.19600 32.28900
C  31.19900 3.99100 33.18900
C  31.19400 5.31600 33.82500
O  31.15300 6.42400 33.31700
O  31.31300 5.13300 35.17200
C  31.54700 6.31300 35.96000
H  37.99500 3.69200 33.05300
H  37.73500 2.00200 26.94900
H  31.65000 3.76500 26.75800
H  33.70300 4.46000 34.79500
H  36.29400 3.18500 34.78300
H  35.55800 6.06000 35.14500
H  36.75300 5.80700 33.89300
H  37.12600 5.09800 35.42800
H  34.50400 1.56700 34.95600
H  32.76500 2.03900 34.65000
H  33.39800 1.50700 36.92700
H  32.33700 2.78000 36.58700
H  41.12400 3.20900 30.96300
H  40.23700 2.25100 32.28100
H  39.97700 3.92000 32.20600
H  41.64100 1.30100 29.91300
H  42.14500 2.72100 28.97600
H  42.13500 1.21000 28.14900
H  35.50800 1.58600 25.10900
H  33.82500 4.09100 25.29700
H  35.82100 4.19300 24.10700
H  37.17500 3.00700 24.21400
H  36.92600 4.09800 25.49500
H  32.44900 1.46400 25.73400
H  33.45600 1.27100 24.31800
H  32.02700 2.38800 23.08300
H  31.92100 3.70900 23.97900
H  30.87300 2.28200 24.55100
H  29.49000 3.17200 27.64300
H  29.14700 4.91300 28.27500
H  28.48600 3.46500 29.12600
H  30.87500 3.21400 33.88100
H  30.81700 7.11600 35.86400
H  32.52200 6.73000 35.70700
H  31.79100 6.15400 37.01000
Mg -10.29100 39.28400 41.63900
C  -8.89500 36.12400 40.93600
C  -7.80500 40.70400 39.86700
C  -12.23500 42.03100 41.32200
C  -13.23300 37.50900 42.57400
N  -8.54900 38.48700 40.56800
C  -8.13800 37.15500 40.40700
C  -6.83500 37.08100 39.63000
C  -6.51500 38.53600 39.29000
C  -7.70300 39.32100 39.93700
C  -5.14200 39.00300 39.82800
C  -6.92000 36.03100 38.38400
C  -5.64500 35.34200 38.07900
H  -4.65800 36.19500 37.18900
N  -9.92100 41.16100 40.96500
C  -8.80600 41.58700 40.32400
C  -8.83300 42.97300 40.08300
C  -10.16200 43.42400 40.53000
C  -10.88900 42.18600 40.92000
C  -7.74100 43.74100 39.36800
C  -10.64600 44.86000 40.63800
O  -10.07000 45.76000 40.16300
C  -11.98400 45.23800 41.40900
N  -12.48300 39.72000 41.82500
C  -12.93300 40.98800 41.76900
C  -14.47800 41.00800 42.20200
C  -14.70900 39.50500 42.51600
C  -13.38600 38.88700 42.34300
C  -14.91600 42.08400 43.25600
C  -15.82900 38.89500 41.64300
C  -15.42800 38.27400 40.34200
N  -10.99800 37.21600 41.82100
C  -12.10300 36.72500 42.37000
C  -11.96500 35.29800 42.56400
C  -10.72700 34.96300 41.97600
C  -10.14800 36.20900 41.58600
C  -12.90700 34.39000 43.33000
C  -9.71900 33.93700 41.86400
O  -9.64400 32.75300 42.15200
C  -8.55900 34.62600 41.05300
C  -7.16700 34.42700 41.76200
O  -6.29900 33.61100 41.46400
O  -7.01200 35.37400 42.77100
C  -5.95200 35.10100 43.76500
H  -7.13000 41.13300 39.12300
H  -12.94400 42.85700 41.24300
H  -14.07500 37.04100 43.08700
H  -6.17000 36.72500 40.41700
H  -6.52900 38.65400 38.20700
H  -5.26300 39.85100 40.50200
H  -4.69300 39.53800 38.99200
H  -4.52200 38.22800 40.28000
H  -7.12900 36.61000 37.48400
H  -7.74600 35.32300 38.31800
H  -5.89500 34.39900 37.59100
H  -5.08100 35.03600 38.96000
H  -7.27200 43.12800 38.59800
H  -7.02700 44.09600 40.11100
H  -8.17700 44.59200 38.84500
H  -12.10200 44.62900 42.30400
H  -12.86000 45.06700 40.78400
H  -12.07000 46.31600 41.54900
H  -14.95700 41.30900 41.27000
H  -14.90200 39.27900 43.56400
H  -15.47200 42.89600 42.78600
H  -14.04400 42.37000 43.84500
H  -15.63000 41.71100 43.99100
H  -16.56400 39.67100 41.42900
H  -16.33200 38.13600 42.24300
H  -16.08400 38.77000 39.62700
H  -15.64400 37.20700 40.40200
H  -14.37800 38.41600 40.08600
H  -12.66000 34.31100 44.38900
H  -12.74400 33.40200 42.89900
H  -13.94300 34.72000 43.25900
H  -8.38500 34.09000 40.12000
H  -4.96000 34.93800 43.34400
H  -6.38600 34.30200 44.36700
H  -5.84700 36.03200 44.32300

