158

Mg 24.29100 -4.36100 46.24700
C  26.24300 -1.92500 44.79900
C  21.60400 -3.50000 44.09300
C  22.72800 -7.36100 47.03200
C  27.06600 -5.39500 48.25500
N  23.96300 -2.77700 44.74000
C  24.89200 -2.05200 44.18100
C  24.41200 -1.21800 43.02700
C  22.86500 -1.41500 43.11800
C  22.77600 -2.67200 44.11800
C  21.93700 -0.18900 43.57400
C  25.10500 -1.59300 41.63200
C  25.64000 -0.45000 40.74500
H  25.40200 -0.59300 39.26600
N  22.38300 -5.19100 45.82400
C  21.46300 -4.67700 44.86200
C  20.28700 -5.62200 44.81000
C  20.57500 -6.72200 45.67600
C  21.92000 -6.45700 46.27800
C  19.07600 -5.20000 43.93300
C  19.57900 -7.87200 45.99900
O  18.51500 -7.86700 45.41300
C  19.91700 -8.97600 46.91100
N  24.83300 -6.14300 47.49300
C  23.98000 -7.18000 47.65500
C  24.68200 -8.30700 48.46200
C  25.87400 -7.53900 49.19400
C  26.03800 -6.33000 48.22300
C  23.70700 -9.16000 49.44000
C  27.15800 -8.33700 49.45100
C  27.48700 -8.80000 50.90300
N  26.27300 -3.87400 46.44600
C  27.26600 -4.31800 47.36100
C  28.44900 -3.51300 47.18200
C  28.14800 -2.61000 46.14700
C  26.77500 -2.84100 45.78100
C  29.68500 -3.54600 47.99900
C  28.65300 -1.54200 45.36100
O  29.77700 -1.06000 45.34300
C  27.41500 -1.07700 44.43400
C  27.09700 0.42700 44.56600
O  26.92900 1.15500 45.51700
O  27.21300 0.97800 43.24300
C  27.34400 2.47400 43.10200
H  20.91400 -3.04200 43.38100
H  22.26900 -8.34000 47.18400
H  27.85100 -5.61400 48.98100
H  24.59800 -0.15000 43.13900
H  22.58800 -1.81800 42.14400
H  21.31500 0.18500 42.76100
H  22.58900 0.68300 43.59800
H  21.46500 -0.30100 44.55000
H  24.38300 -2.02900 40.94200
H  25.89300 -2.26300 41.97600
H  26.71600 -0.35000 40.89300
H  25.11000 0.42500 41.12100
H  19.01300 -4.11200 43.89800
H  18.20300 -5.69900 44.35300
H  19.24700 -5.54100 42.91200
H  20.69900 -9.48300 46.34600
H  19.08600 -9.67100 47.02800
H  20.33700 -8.83100 47.90600
H  25.07800 -9.01600 47.73500
H  25.49900 -7.10100 50.11900
H  22.70100 -8.74100 49.45500
H  23.96800 -9.08500 50.49600
H  23.66500 -10.20200 49.12300
H  27.97100 -7.75800 49.01400
H  27.09700 -9.18100 48.76400
H  27.42700 -9.88100 50.77700
H  26.65800 -8.43500 51.51000
H  28.49800 -8.57400 51.23900
H  29.51100 -3.99200 48.97800
H  29.94800 -2.49600 48.13400
H  30.44800 -4.08500 47.43800
H  27.71700 -1.19900 43.39400
H  27.74700 2.88700 44.02700
H  26.37900 2.90000 42.82600
H  28.03800 2.64600 42.27900
Mg 44.77500 5.59100 47.56600
C  42.51600 8.34700 47.08100
C  42.02600 3.48700 47.33100
C  46.80100 3.10800 47.51900
C  47.38300 7.91600 46.99100
N  42.51800 5.93700 47.11800
C  41.84000 7.11300 46.82900
C  40.39000 6.86500 46.38100
C  40.20100 5.38300 46.83600
C  41.63700 4.88300 47.04500
C  39.42200 5.13500 48.14900
C  40.17500 7.02500 44.86100
C  39.50400 8.29900 44.39300
H  40.22400 9.12000 43.27300
N  44.43200 3.52300 47.43800
C  43.24300 2.84200 47.51700
C  43.47700 1.44100 47.64800
C  44.91600 1.30200 47.56700
C  45.48000 2.63700 47.45500
C  42.38600 0.30600 47.65500
C  45.68600 0.04100 47.64600
O  45.14800 -1.04400 47.94600
C  47.20800 -0.08100 47.37500
N  46.91300 5.52100 47.08900
C  47.43800 4.32500 47.43000
C  48.95400 4.53000 47.48700
C  49.15700 6.03100 47.23200
C  47.74900 6.55700 47.06000
C  49.52700 4.01700 48.90400
C  50.00000 6.45800 46.01300
C  51.08100 5.53200 45.51800
N  44.96500 7.71100 47.16500
C  46.11400 8.48400 47.08300
C  45.72100 9.89900 47.16500
C  44.25400 9.88200 47.22300
C  43.90500 8.51500 47.11000
C  46.61100 11.12800 47.26900
C  43.05700 10.65100 47.33300
O  42.98300 11.86400 47.60800
C  41.89100 9.71100 47.00100
C  40.80400 9.78200 48.08700
O  40.78900 9.09300 49.11400
O  39.87600 10.81000 47.71400
C  38.75000 10.95800 48.63000
H  41.27700 2.69300 47.35600
H  47.69000 2.49100 47.66800
H  48.22200 8.61300 47.05600
H  39.67100 7.46800 46.93600
H  39.63100 4.81500 46.10000
H  38.66600 4.36300 48.00800
H  38.75800 5.99200 48.25800
H  40.07100 5.10400 49.02400
H  39.54800 6.20300 44.51500
H  41.15100 6.98600 44.37800
H  39.32200 9.06200 45.15000
H  38.51100 8.05100 44.02100
H  42.47600 -0.01800 48.69200
H  42.58800 -0.46200 46.90800
H  41.34900 0.62000 47.54300
H  47.42500 -1.15000 47.38100
H  47.73900 0.50500 48.12500
H  47.41400 0.33600 46.38900
H  49.40400 3.90100 46.72000
H  49.66100 6.46600 48.09500
H  48.82100 3.34900 49.39600
H  49.83300 4.78200 49.61800
H  50.36200 3.33900 48.72700
H  50.48800 7.40800 46.23100
H  49.41600 6.57000 45.09900
H  51.46500 4.96100 46.36300
H  51.94200 6.05800 45.10600
H  50.77400 4.82200 44.75000
H  47.42200 10.91700 46.57300
H  46.86600 11.33100 48.30900
H  46.09800 12.03700 46.95300
H  41.59500 9.95000 45.98000
H  38.09700 11.79100 48.37000
H  39.19700 11.13200 49.60800
H  38.12600 10.06700 48.70100

