158

Mg 53.25600 24.20400 44.88700
C  50.75300 26.48800 44.26000
C  51.17700 21.74900 43.82600
C  55.96100 22.06100 44.82600
C  55.47200 26.86400 45.65500
N  51.26600 24.19400 43.83600
C  50.41700 25.23300 43.83200
C  49.01100 24.86000 43.39400
C  49.09600 23.23900 43.59300
C  50.59400 23.03100 43.79600
C  48.25100 22.63500 44.79900
C  48.54100 25.31900 42.02900
C  49.59600 25.30800 40.97100
H  50.43500 24.05200 40.63000
N  53.56900 22.14300 44.33500
C  52.55800 21.33500 43.97600
C  53.17200 19.99400 43.90700
C  54.55100 20.04300 44.17900
C  54.77500 21.46700 44.50900
C  52.44000 18.78800 43.44900
C  55.54000 18.84400 44.05500
O  55.08800 17.73000 43.86800
C  57.02200 19.00800 43.96900
N  55.45500 24.47300 44.92300
C  56.34800 23.40600 45.14400
C  57.78100 23.93800 45.58400
C  57.56700 25.43300 45.72200
C  56.05100 25.60300 45.46200
C  58.41800 23.28400 46.78100
C  58.44500 26.23700 44.85600
C  57.92300 26.53900 43.43600
N  53.17300 26.24100 45.13700
C  54.10000 27.18100 45.49300
C  53.45500 28.47500 45.52400
C  52.12300 28.22700 45.20900
C  52.01400 26.85300 44.84400
C  54.09200 29.81900 45.76800
C  50.88500 28.90400 44.98500
O  50.55700 30.04800 45.25700
C  50.00200 27.84800 44.23800
C  49.73400 28.31000 42.88800
O  50.57500 28.43800 42.04700
O  48.43200 28.58900 42.63700
C  48.02900 29.00600 41.32300
H  50.47800 20.94000 43.60300
H  56.81000 21.38400 44.93600
H  56.17700 27.58400 46.07500
H  48.33000 25.21000 44.17000
H  48.79900 22.61200 42.75200
H  47.45000 23.33800 45.03100
H  48.92100 22.52200 45.65200
H  47.70100 21.73300 44.53000
H  47.96300 26.24200 42.07700
H  47.76000 24.61100 41.74900
H  50.18500 26.21200 41.13000
H  49.12900 25.53300 40.01200
H  52.92900 18.10100 42.75800
H  51.55100 19.16200 42.94100
H  51.98500 18.23900 44.27400
H  57.44200 19.81000 43.36200
H  57.44300 18.10200 43.53200
H  57.42800 19.14900 44.97100
H  58.40300 23.70400 44.72100
H  57.71500 25.73100 46.76000
H  57.66000 22.59100 47.14800
H  58.58200 24.01200 47.57600
H  59.41700 22.98200 46.46700
H  59.38300 25.68800 44.93700
H  58.54700 27.18700 45.37900
H  58.63600 26.26000 42.66000
H  57.74700 27.60500 43.29000
H  57.00000 25.99300 43.24200
H  55.16500 29.79000 45.57700
H  53.79500 30.03200 46.79500
H  53.68500 30.61400 45.14300
H  49.02600 27.83800 44.72300
H  48.11600 28.13800 40.67000
H  48.67900 29.82000 41.00000
H  47.02000 29.41300 41.37900
Mg 9.60900 47.78200 25.36800
C  7.35500 48.22500 28.10300
C  12.01900 49.24300 27.30200
C  11.70800 47.60200 22.65300
C  6.83400 46.69700 23.34100
N  9.55500 48.75800 27.42000
C  8.66000 48.63200 28.40500
C  9.14800 49.18900 29.74600
C  10.59300 49.75700 29.33700
C  10.77000 49.19900 27.90100
C  10.82800 51.35100 29.32600
C  9.24500 48.18000 30.91600
C  9.74800 48.56200 32.31200
H  8.99500 48.07300 33.51500
N  11.57900 48.33100 25.03100
C  12.39500 48.85900 25.99100
C  13.78000 48.77500 25.50000
C  13.70800 48.19300 24.18400
C  12.29400 48.05500 23.91000
C  14.95500 49.15400 26.32400
C  14.85300 47.83100 23.26500
O  14.74800 47.49500 22.10700
C  16.24900 47.91800 23.79300
N  9.31400 47.38200 23.25700
C  10.39100 47.29100 22.37300
C  9.95200 46.66100 21.04300
C  8.49400 46.21300 21.30100
C  8.18000 46.73900 22.70300
C  10.12300 47.52100 19.77100
C  8.27600 44.72100 20.85600
C  8.30200 43.76900 22.04800
N  7.53900 47.60300 25.62800
C  6.51300 47.03600 24.68200
C  5.22300 47.07200 25.39800
C  5.60100 47.39100 26.77100
C  6.97100 47.73000 26.85300
C  3.91200 46.80500 24.83300
C  5.07700 47.37600 28.09500
O  4.01900 46.95500 28.54300
C  6.17700 47.83600 29.06200
C  6.45500 46.54800 29.79100
O  7.19800 45.71600 29.32200
O  5.84200 46.53500 31.00900
C  6.16700 45.46600 31.96600
H  12.74900 49.75700 27.93200
H  12.41900 47.32900 21.87100
H  6.02700 46.31700 22.71100
H  8.45900 49.99000 30.01300
H  11.33900 49.29800 29.98600
H  10.93400 51.72200 28.30700
H  11.75300 51.54500 29.87000
H  9.99900 51.90700 29.76300
H  9.81700 47.34500 30.51200
H  8.21100 47.84700 31.00000
H  9.70600 49.64700 32.21500
H  10.76700 48.33900 32.62700
H  14.71300 49.56700 27.30400
H  15.53700 49.90800 25.79300
H  15.52900 48.25400 26.54700
H  16.96000 47.57400 23.04200
H  16.35300 47.28100 24.67200
H  16.38700 48.92800 24.17900
H  10.62400 45.83700 20.80400
H  7.74600 46.73300 20.70200
H  9.24800 48.10000 19.47600
H  10.44900 46.85200 18.97400
H  10.98400 48.17200 19.92200
H  9.00600 44.34200 20.14200
H  7.28000 44.69000 20.41300
H  7.30200 43.39500 22.27100
H  8.53000 44.26300 22.99200
H  8.80900 42.83700 21.79800
H  3.53100 47.66300 24.27900
H  3.21100 46.51800 25.61600
H  3.91900 45.86500 24.28100
H  5.81100 48.63200 29.71100
H  5.74000 45.92400 32.85800
H  7.25300 45.41100 31.89400
H  5.70300 44.49800 31.77800

