158

Mg 35.06500 3.48300 29.30100
C  32.64200 4.37600 31.71700
C  37.27300 2.93500 31.85900
C  37.19500 2.31600 27.07100
C  32.69100 3.96700 26.87500
N  34.94000 3.79200 31.48200
C  33.87800 4.22900 32.29300
C  34.28200 4.24800 33.80300
C  35.84800 4.10100 33.75600
C  36.10600 3.62200 32.25500
C  36.66900 5.36500 33.99700
C  33.62600 3.17700 34.73400
C  33.26900 3.56700 36.23700
H  34.06800 4.83700 36.69500
N  36.99800 2.74800 29.42900
C  37.69400 2.47200 30.58600
C  38.95700 1.84500 30.27600
C  39.01000 1.62900 28.82100
C  37.68900 2.20200 28.37200
C  40.08400 1.61100 31.27200
C  40.09600 1.06000 27.88300
O  39.98900 1.10400 26.64300
C  41.36400 0.49400 28.32700
N  34.93700 3.14000 27.28400
C  36.03400 2.80300 26.55400
C  35.81100 3.06700 25.00900
C  34.25100 3.25800 24.96600
C  33.93200 3.46300 26.45900
C  36.50000 4.32500 24.49900
C  33.46500 2.11800 24.29500
C  32.96000 0.94500 25.03700
N  33.04100 4.09900 29.22600
C  32.23300 4.25500 28.13700
C  30.97000 4.83300 28.58200
C  31.08100 4.77800 30.00500
C  32.38300 4.31600 30.30400
C  29.85900 5.19400 27.66000
C  30.34600 4.93900 31.26800
O  29.16600 5.23300 31.43400
C  31.33800 4.65000 32.40700
C  31.41600 5.90000 33.23100
O  31.88000 6.97800 32.90300
O  30.85800 5.70600 34.52600
C  30.80600 6.88400 35.38900
H  37.81000 2.62100 32.75700
H  37.82400 1.87000 26.29800
H  31.92700 4.07400 26.10100
H  34.03500 5.24900 34.15700
H  36.14000 3.37300 34.51200
H  37.00600 5.72800 33.02600
H  37.55800 5.09100 34.56600
H  36.12500 6.19400 34.45000
H  34.19500 2.25700 34.87000
H  32.77900 2.75300 34.19400
H  33.62100 2.73200 36.84300
H  32.20000 3.64300 36.43300
H  39.59300 1.54100 32.24300
H  40.65200 2.53800 31.35100
H  40.61800 0.67000 31.13800
H  42.04800 1.14700 28.87000
H  41.90600 0.39300 27.38700
H  41.15100 -0.50400 28.71000
H  36.13200 2.13900 24.53600
H  34.06100 4.16800 24.39600
H  35.92800 5.16700 24.10800
H  37.05100 3.78100 23.73200
H  37.19700 4.67100 25.26300
H  34.08500 1.78800 23.46200
H  32.59100 2.62500 23.88800
H  33.38100 0.96900 26.04200
H  33.34000 -0.01000 24.67600
H  31.87300 0.86900 25.08200
H  29.12100 5.76100 28.22800
H  29.36900 4.24300 27.45100
H  30.14900 5.57300 26.68000
H  30.98700 3.88700 33.10100
H  31.76200 7.40600 35.43700
H  30.50800 6.47000 36.35200
H  30.10300 7.63600 35.03100
Mg -1.85400 33.65000 27.75100
C  -3.59400 32.02700 30.42400
C  -0.55200 35.88400 30.29800
C  -0.25600 35.27400 25.40500
C  -3.51700 31.69900 25.40600
N  -2.15200 33.99700 30.04100
C  -2.82700 33.09600 30.89400
C  -2.82900 33.63800 32.36800
C  -1.85300 34.89300 32.31300
C  -1.46700 34.88100 30.78600
C  -2.57300 36.28300 32.60800
C  -2.37400 32.49000 33.37300
C  -3.37600 32.18400 34.55100
H  -2.83300 32.23700 35.97900
N  -0.68600 35.36500 27.80400
C  -0.15800 36.12500 28.94300
C  0.83400 37.00400 28.40200
C  0.94700 36.81900 27.02300
C  -0.07000 35.79900 26.70600
C  1.64700 37.88100 29.33500
C  1.87300 37.46400 26.03100
O  1.87700 37.17800 24.89300
C  3.01400 38.22400 26.56000
N  -2.13400 33.56000 25.64500
C  -1.20400 34.30000 24.92300
C  -1.49400 34.05900 23.42800
C  -2.47900 32.83900 23.38200
C  -2.83400 32.71500 24.86100
C  -1.99300 35.24100 22.68000
C  -1.91500 31.50600 22.82900
C  -0.69900 30.95000 23.63900
N  -3.14300 32.10000 27.84600
C  -3.67400 31.38900 26.77300
C  -4.47800 30.36600 27.31700
C  -4.49700 30.55200 28.75200
C  -3.65500 31.62400 29.01300
C  -5.40700 29.46700 26.55600
C  -4.97900 30.02800 30.02900
O  -5.61200 29.02400 30.33900
C  -4.39200 30.96200 31.14300
C  -5.51900 31.58600 31.87000
O  -6.06100 32.63900 31.53500
O  -5.85000 30.77700 32.96600
C  -6.88500 31.35200 33.77900
H  -0.03600 36.50400 31.03500
H  0.30200 35.50600 24.49500
H  -4.18700 31.28900 24.64600
H  -3.84600 34.00400 32.51400
H  -1.06200 34.86700 33.06200
H  -3.41500 36.12800 33.28300
H  -3.04400 36.80300 31.77400
H  -1.83400 36.88900 33.13200
H  -1.39400 32.78300 33.75000
H  -2.27000 31.56800 32.80000
H  -3.56200 31.11200 34.49600
H  -4.26900 32.80600 34.49200
H  2.57800 37.32100 29.42900
H  1.24800 37.99500 30.34300
H  1.87800 38.91100 29.06600
H  3.72900 38.43400 25.76600
H  3.55700 37.62500 27.29200
H  2.68500 39.10400 27.11500
H  -0.59700 33.71600 22.91200
H  -3.32300 33.17600 22.77900
H  -1.67300 36.07600 23.30300
H  -3.07300 35.28800 22.54400
H  -1.62300 35.22500 21.65500
H  -1.61300 31.62500 21.78800
H  -2.68700 30.73900 22.88900
H  0.27200 31.08100 23.16100
H  -0.85100 29.87000 23.62900
H  -0.50200 31.28700 24.65600
H  -5.15400 29.17900 25.53600
H  -6.36300 29.98600 26.63300
H  -5.53000 28.58400 27.18300
H  -3.73400 30.33600 31.74600
H  -7.84600 30.88200 33.57100
H  -7.08000 32.40300 33.56000
H  -6.57900 31.38300 34.82400

