158

Mg 0.00100 8.05500 26.51900
C  0.62500 9.55800 29.63200
C  0.00500 4.97800 27.85900
C  0.39100 6.67200 23.36600
C  0.53500 11.16600 24.97400
N  0.19400 7.45500 28.56900
C  0.41000 8.15000 29.72500
C  0.02900 7.35300 30.96500
C  0.10500 5.91000 30.39300
C  0.06500 6.09400 28.78400
C  1.46300 5.19200 30.79600
C  -1.28100 7.79800 31.58100
C  -1.32300 7.79400 33.13400
H  -0.26700 6.96700 33.88400
N  -0.13100 6.15000 25.75100
C  -0.11500 5.01100 26.45000
C  -0.32200 3.84100 25.62200
C  -0.23900 4.39300 24.26900
C  0.02900 5.79900 24.40000
C  -0.44700 2.48700 26.11200
C  -0.38700 3.66700 22.91400
O  -0.47600 4.29800 21.82500
C  -0.54700 2.20100 22.90300
N  0.24900 8.82300 24.43100
C  0.55400 8.04600 23.38100
C  0.93700 8.81200 22.18400
C  0.52800 10.25300 22.59300
C  0.43200 10.12600 24.08400
C  2.48400 8.82500 21.75600
C  -0.69600 10.87700 21.84700
C  -2.05300 10.63100 22.53600
N  0.46700 9.96000 27.09300
C  0.58100 11.12200 26.36300
C  0.77700 12.23100 27.27800
C  0.85800 11.63000 28.55800
C  0.64900 10.29100 28.39400
C  1.10400 13.64100 26.81900
C  0.96600 11.95500 29.97200
O  1.21300 13.01100 30.55700
C  0.66800 10.61500 30.72700
C  1.63600 10.41300 31.78800
O  2.75800 10.00200 31.60000
O  1.23400 11.05000 32.89700
C  2.26600 11.33700 33.99000
H  -0.11500 4.02100 28.37100
H  0.71300 6.25600 22.40900
H  0.56500 12.21100 24.65700
H  0.84200 7.45700 31.68400
H  -0.67700 5.21800 30.70700
H  1.16000 4.43200 31.51700
H  2.16800 5.76400 31.40000
H  2.04800 4.70200 30.01800
H  -2.13700 7.26700 31.16300
H  -1.49800 8.78000 31.16100
H  -2.29800 7.37400 33.37900
H  -1.21700 8.79700 33.54700
H  0.04500 1.70700 25.53100
H  -1.50700 2.26400 26.23300
H  0.01900 2.47900 27.09700
H  0.25200 1.71900 23.46600
H  -0.44300 1.93300 21.85200
H  -1.52400 1.97000 23.32700
H  0.33500 8.48500 21.33700
H  1.32800 10.98700 22.49800
H  3.17700 9.10600 22.54900
H  2.59800 9.58300 20.98100
H  2.62900 7.80700 21.39300
H  -0.60400 10.43000 20.85800
H  -0.54400 11.95700 21.83700
H  -2.02000 9.77500 23.21000
H  -2.89600 10.49300 21.85900
H  -2.28100 11.52000 23.12500
H  1.86200 13.64400 26.03600
H  1.45700 14.27800 27.63000
H  0.24100 14.19400 26.44900
H  -0.27100 10.61600 31.28200
H  2.32400 12.41700 34.12900
H  3.30300 11.06900 33.78500
H  1.85700 10.99200 34.93900
Mg 30.53500 57.96700 40.51800
C  27.94000 56.28900 38.92400
C  32.56500 55.28800 39.83800
C  33.08000 60.04900 40.88700
C  28.36300 60.83700 40.53400
N  30.25900 56.02200 39.43100
C  29.09100 55.51700 38.99400
C  29.29100 54.08300 38.49000
C  30.61600 53.68400 39.21000
C  31.20800 55.07400 39.52000
C  30.55000 52.74300 40.38100
C  29.43600 53.99600 36.93000
C  28.24500 53.35400 36.16100
H  27.70300 54.10900 34.91400
N  32.63000 57.72600 40.45000
C  33.23600 56.54400 40.15000
C  34.67300 56.76700 40.16300
C  34.86700 58.14000 40.42100
C  33.48900 58.71000 40.63200
C  35.64100 55.68300 39.87500
C  36.22800 58.70400 40.51900
O  37.15900 57.93500 40.42200
C  36.51600 60.08500 40.94900
N  30.70700 60.16000 40.54600
C  31.87800 60.71400 40.87300
C  31.78600 62.24000 41.13200
C  30.28000 62.47900 40.96700
C  29.69700 61.10900 40.67300
C  32.39700 62.73500 42.48400
C  29.98100 63.46400 39.79500
C  28.70800 64.22800 40.00200
N  28.52000 58.40300 40.19000
C  27.87500 59.61000 40.22700
C  26.52600 59.43400 39.76100
C  26.49300 58.12700 39.37200
C  27.73500 57.55000 39.54200
C  25.32300 60.43000 39.73600
C  25.64800 57.10400 38.77700
O  24.42700 57.19500 38.52100
C  26.54900 55.88600 38.41200
C  25.99400 54.67100 39.21100
O  26.48200 54.11400 40.17500
O  24.82600 54.24400 38.59400
C  24.28600 52.92100 38.97900
H  33.12200 54.35100 39.77200
H  33.95000 60.68100 41.08000
H  27.73200 61.72800 40.57200
H  28.45500 53.45300 38.79500
H  31.20700 53.14800 38.46700
H  29.56800 52.43200 40.73800
H  31.05900 53.09500 41.27900
H  31.12200 51.85900 40.10100
H  30.35000 53.48900 36.62100
H  29.54600 55.03600 36.62300
H  27.42200 53.09600 36.82800
H  28.64600 52.42500 35.75600
H  36.22700 55.84600 38.97000
H  35.11000 54.73100 39.86300
H  36.30900 55.51600 40.72000
H  37.53400 60.38100 41.20300
H  35.91600 60.34400 41.82100
H  36.26300 60.62000 40.03400
H  32.40000 62.58700 40.30100
H  29.79100 62.83000 41.87500
H  33.23200 63.38800 42.22900
H  32.69300 61.84700 43.04300
H  31.69000 63.29200 43.09900
H  29.93800 62.87900 38.87700
H  30.77700 64.19600 39.66300
H  28.19000 64.04900 40.94400
H  28.06800 64.04800 39.13800
H  28.95900 65.28700 39.95200
H  25.66500 61.30000 39.17400
H  24.97500 60.70200 40.73200
H  24.48200 59.93200 39.25400
H  26.43400 55.58500 37.37100
H  24.25400 52.34900 38.05200
H  23.29700 52.94500 39.43700
H  25.01900 52.44100 39.62800

