158

Mg 44.39900 4.15300 47.11300
C  42.63300 7.16500 47.50400
C  41.44400 2.67500 46.32400
C  46.10100 1.33900 46.37400
C  47.31200 6.07300 46.90100
N  42.28100 4.93000 46.78000
C  41.76800 6.14300 47.05700
C  40.24400 6.19200 46.70200
C  39.93300 4.70900 46.28200
C  41.26900 4.08100 46.58500
C  38.60700 4.11100 47.00000
C  39.91200 7.12000 45.53200
C  40.74800 7.14800 44.16700
H  39.97400 6.96500 42.85200
N  43.81500 2.19400 46.56800
C  42.54400 1.80000 46.32100
C  42.54700 0.41300 45.97400
C  43.84800 -0.11600 45.90000
C  44.68000 1.13900 46.27300
C  41.26000 -0.37000 45.60300
C  44.36300 -1.49000 45.64800
O  43.55800 -2.42500 45.50800
C  45.80800 -1.83100 45.69300
N  46.34700 3.80200 46.48700
C  46.84000 2.50300 46.48300
C  48.40300 2.55000 46.41200
C  48.75500 4.01000 46.68500
C  47.42900 4.69400 46.66000
C  49.08200 1.49500 47.35500
C  49.72100 4.64800 45.58400
C  51.13100 4.70900 46.15900
N  44.92300 6.20600 47.18400
C  46.12000 6.80700 47.14000
C  45.98300 8.24700 47.42500
C  44.59600 8.44300 47.57900
C  44.01800 7.16300 47.37100
C  47.09600 9.26900 47.62400
C  43.54300 9.44100 47.79200
O  43.60300 10.66300 47.89800
C  42.25000 8.58200 47.67300
C  41.54100 8.78400 48.91200
O  41.52900 8.07800 49.95000
O  40.91600 10.03200 48.81700
C  40.15700 10.48000 49.92900
H  40.52400 2.12100 46.12600
H  46.74000 0.45600 46.31500
H  48.16800 6.74200 47.00400
H  39.69900 6.59800 47.55400
H  39.74800 4.48700 45.23100
H  38.07900 4.80300 47.65600
H  38.86900 3.24500 47.60900
H  37.82100 3.94200 46.26300
H  39.95300 8.13500 45.92600
H  38.88500 7.00500 45.18400
H  41.45300 6.31700 44.14600
H  41.41800 8.00700 44.17300
H  40.27100 0.03500 45.81700
H  41.21300 -1.38500 45.99700
H  41.31800 -0.38600 44.51500
H  46.05000 -2.89200 45.63800
H  46.03600 -1.42500 46.67900
H  46.39200 -1.31700 44.93000
H  48.67400 2.29300 45.38900
H  48.98100 4.13800 47.74400
H  48.35900 1.12100 48.08000
H  49.93000 1.79400 47.97100
H  49.38200 0.57900 46.84600
H  49.32500 5.59400 45.21400
H  49.67700 4.07900 44.65500
H  51.73800 3.91500 45.72500
H  51.09600 4.47500 47.22300
H  51.59800 5.64600 45.85500
H  47.89500 9.13600 46.89500
H  47.64600 9.10500 48.55100
H  46.68900 10.27900 47.57300
H  41.75700 9.02200 46.80600
H  39.67400 9.63300 50.41600
H  39.45600 11.26900 49.65200
H  40.88800 10.87600 50.63300
Mg 40.24800 9.53900 30.15900
C  42.65000 10.40700 32.62800
C  38.37200 8.12500 32.54300
C  38.26000 8.59400 27.73000
C  42.76500 10.25800 27.73700
N  40.59300 9.27200 32.34700
C  41.45100 9.82200 33.14300
C  40.99500 9.84100 34.59300
C  39.67100 8.98500 34.58900
C  39.54900 8.71300 33.02900
C  39.56300 7.71000 35.45900
C  40.78000 11.24700 35.17700
C  40.11600 11.29700 36.56500
H  40.85900 12.06800 37.70600
N  38.54000 8.44100 30.16000
C  37.90200 7.94500 31.22500
C  36.63900 7.38500 30.84300
C  36.55800 7.48200 29.42700
C  37.81100 8.21000 29.03900
C  35.65700 6.74500 31.83500
C  35.45800 6.98900 28.48500
O  35.46500 7.19300 27.30000
C  34.32700 6.22400 29.02400
N  40.46400 9.54700 28.02100
C  39.44300 9.15300 27.25100
C  39.73200 9.43100 25.83100
C  41.20300 9.96300 25.85400
C  41.52500 9.88900 27.32600
C  39.42600 8.21500 24.87800
C  41.27700 11.43500 25.14900
C  41.11600 12.71800 26.02400
N  42.35300 10.24500 30.08000
C  43.22800 10.46700 29.04700
C  44.45000 11.04100 29.50300
C  44.28100 11.10500 30.96500
C  42.96100 10.57400 31.27000
C  45.50300 11.68100 28.72600
C  44.88200 11.69300 32.17300
O  45.90000 12.28800 32.28600
C  43.84500 11.11000 33.32300
C  44.49800 10.15400 34.27300
O  44.63500 8.94500 34.01300
O  44.94900 10.71900 35.45100
C  45.66600 9.86900 36.44200
H  37.66800 7.92400 33.35300
H  37.48700 8.30500 27.01500
H  43.52200 10.42200 26.96700
H  41.84500 9.44800 35.15200
H  38.81200 9.57100 34.91800
H  40.40400 7.72400 36.15200
H  39.60800 6.86500 34.77200
H  38.60300 7.73800 35.97400
H  40.18600 11.82800 34.47100
H  41.74100 11.75900 35.22400
H  40.01700 10.25900 36.88400
H  39.13100 11.76100 36.51100
H  34.62900 7.05000 31.64300
H  35.86400 6.96800 32.88200
H  35.70200 5.66000 31.73800
H  34.64800 5.26900 29.44100
H  33.74000 6.13400 28.11000
H  33.75400 6.70400 29.81700
H  39.02500 10.23100 25.61000
H  41.72500 9.17700 25.30800
H  40.23000 8.04500 24.16100
H  38.55900 8.62400 24.36100
H  39.16900 7.36300 25.50900
H  40.53900 11.32200 24.35500
H  42.28700 11.53600 24.75400
H  40.12700 13.14500 25.86200
H  41.87800 13.49600 25.97200
H  41.13900 12.30900 27.03400
H  45.09300 11.73400 27.71700
H  46.38300 11.03800 28.75600
H  45.71100 12.73100 28.93000
H  43.47500 11.93900 33.92600
H  45.10600 9.99100 37.36900
H  46.70200 10.11200 36.67800
H  45.53700 8.80100 36.26500

