158

Mg 0.07500 8.43700 26.82000
C  0.79600 10.51200 29.61100
C  0.64400 5.70300 28.83300
C  -0.13900 6.54600 24.08500
C  0.08300 11.40600 24.93500
N  0.48500 8.21900 28.95100
C  0.56200 9.10500 29.97100
C  0.65900 8.51600 31.32500
C  0.95200 6.98500 31.03700
C  0.72500 6.95100 29.50300
C  2.36300 6.49900 31.27600
C  -0.72200 8.78000 31.93200
C  -0.90900 8.59400 33.47400
H  0.16700 8.25500 34.44300
N  0.12200 6.36600 26.54500
C  0.36400 5.41800 27.45000
C  0.32700 4.09700 26.83500
C  0.07300 4.34100 25.46000
C  0.11500 5.82600 25.26100
C  0.49100 2.87200 27.64200
C  -0.11700 3.32100 24.38700
O  -0.23300 3.79800 23.23700
C  -0.21400 1.78200 24.60400
N  0.20800 8.89100 24.87800
C  -0.14300 7.94900 23.92800
C  -0.28900 8.61600 22.54700
C  -0.56400 10.09400 22.88800
C  0.02300 10.14000 24.27800
C  0.87500 8.46800 21.57100
C  -2.04400 10.59300 22.92500
C  -2.45800 11.37900 21.65100
N  0.38400 10.50600 27.17000
C  0.40800 11.60300 26.27500
C  0.72900 12.85800 26.88600
C  0.90300 12.42300 28.22400
C  0.62500 11.07400 28.34100
C  0.94300 14.28800 26.25100
C  1.31800 12.87700 29.54000
O  1.73200 14.00100 29.83100
C  1.10600 11.67500 30.52100
C  2.37900 11.52800 31.27600
O  3.45500 11.00600 30.94100
O  2.13500 12.17000 32.45300
C  3.21100 12.06400 33.53500
H  0.97200 4.91900 29.51800
H  -0.35500 5.97700 23.17800
H  -0.04300 12.23700 24.23700
H  1.46200 9.00200 31.88000
H  0.14800 6.42200 31.51100
H  2.25300 5.63300 31.93000
H  2.94400 7.32400 31.68700
H  2.85800 6.11900 30.38300
H  -1.51900 8.30200 31.36300
H  -0.85400 9.85800 31.84100
H  -1.69400 7.85600 33.63500
H  -1.27100 9.55800 33.83300
H  0.98500 3.02000 28.60200
H  1.13800 2.19600 27.08100
H  -0.48700 2.42200 27.80900
H  0.81900 1.48400 24.78500
H  -0.44600 1.38500 23.61700
H  -1.05300 1.58200 25.27100
H  -1.22200 8.27700 22.09700
H  0.06400 10.72700 22.26000
H  1.22900 7.43700 21.55000
H  1.74200 9.03300 21.91100
H  0.55100 8.70600 20.55800
H  -2.34300 11.16200 23.80600
H  -2.58800 9.65700 23.05600
H  -1.66100 11.50700 20.91900
H  -2.74200 12.35400 22.04800
H  -3.26900 10.88200 21.11800
H  1.37700 14.95200 26.99900
H  0.06000 14.76100 25.82100
H  1.74600 14.24000 25.51600
H  0.31700 12.00700 31.19500
H  3.60800 13.04900 33.78100
H  4.00600 11.38200 33.23200
H  2.69300 11.68500 34.41600
Mg 16.91500 52.20300 25.67800
C  18.36700 50.59100 28.38700
C  14.44700 53.29600 27.91800
C  15.46100 53.79500 23.20500
C  19.27600 50.85200 23.59900
N  16.43800 51.74400 27.96500
C  17.29000 51.25100 28.82500
C  16.87300 51.42700 30.24800
C  15.45100 52.04400 30.03000
C  15.41200 52.34900 28.51800
C  14.23400 51.11400 30.49100
C  17.82800 52.44400 31.03900
C  18.19700 52.11400 32.52400
H  17.27600 52.64200 33.63200
N  15.23000 53.43200 25.60300
C  14.39700 53.80100 26.64100
C  13.46400 54.70900 26.15500
C  13.72200 54.87000 24.73000
C  14.89800 54.09600 24.49200
C  12.45700 55.42600 27.11000
C  13.05900 55.76400 23.71600
O  13.27200 55.75700 22.49600
C  11.93100 56.67500 24.25200
N  17.38900 52.51800 23.72800
C  16.58000 53.07900 22.84700
C  17.18300 53.13600 21.43800
C  18.57200 52.30200 21.62700
C  18.43400 51.87200 23.08200
C  16.20900 52.59500 20.31300
C  19.87800 53.01700 21.30200
C  19.95400 54.46300 21.86800
N  18.46800 50.86800 25.86000
C  19.37700 50.36100 24.96000
C  20.36600 49.53300 25.59800
C  19.97700 49.58700 26.96400
C  18.85000 50.40400 27.03300
C  21.59300 48.93500 24.90500
C  20.43800 49.22600 28.30300
O  21.37100 48.53100 28.70900
C  19.49400 50.00700 29.26500
C  18.80200 48.97700 30.15600
O  17.96600 48.12800 29.81500
O  19.29500 49.12600 31.40000
C  19.08900 48.02900 32.38900
H  13.80600 53.73200 28.68800
H  14.98200 54.21200 22.31600
H  19.92100 50.47000 22.80600
H  16.81500 50.45300 30.73400
H  15.39700 53.03400 30.48200
H  13.60800 51.66200 31.19500
H  14.55200 50.25500 31.08200
H  13.59400 50.82000 29.65900
H  17.32300 53.41000 31.03100
H  18.76100 52.53000 30.48200
H  19.16800 52.54600 32.76700
H  18.36700 51.03800 32.52100
H  12.65300 56.49700 27.06300
H  12.50600 55.27300 28.18800
H  11.41100 55.31500 26.82400
H  12.46100 57.26900 24.99600
H  11.18600 56.01700 24.69800
H  11.42000 57.21700 23.45700
H  17.53900 54.09600 21.06400
H  18.42800 51.46200 20.94700
H  15.24800 53.02800 20.59100
H  16.12000 51.52200 20.48200
H  16.54300 52.85900 19.30900
H  20.02800 53.02800 20.22200
H  20.73900 52.45800 21.66700
H  19.11300 54.87300 22.42700
H  20.10300 55.17900 21.06000
H  20.87700 54.51300 22.44700
H  21.71500 47.95000 25.35500
H  22.47600 49.53700 25.12100
H  21.46700 48.86600 23.82500
H  20.02200 50.78700 29.81400
H  18.13000 47.51600 32.31700
H  19.07900 48.57600 33.33200
H  19.91600 47.32600 32.29400

