158

Mg 8.63000 4.39700 27.40500
C  9.88000 2.97800 30.33300
C  6.71800 6.51700 29.46200
C  7.14200 5.76400 24.65700
C  10.40900 2.26200 25.41100
N  8.25000 4.64300 29.66300
C  8.99700 4.02700 30.62400
C  8.61800 4.63000 31.98200
C  7.62000 5.80200 31.70100
C  7.43700 5.63500 30.15600
C  6.39900 5.77200 32.57900
C  9.82300 4.97700 32.84800
C  9.56300 5.81100 34.10100
H  10.22500 5.22300 35.37700
N  7.12000 5.83000 27.11800
C  6.49300 6.61100 28.05900
C  5.64400 7.58900 27.42700
C  5.70100 7.43200 26.05300
C  6.67700 6.32200 25.84800
C  4.86300 8.62400 28.19400
C  5.06400 8.11400 24.93200
O  5.08100 7.76600 23.78500
C  4.27500 9.32200 25.10300
N  8.64700 3.97200 25.33400
C  7.97900 4.67400 24.38300
C  8.32000 4.25400 22.98800
C  9.41200 3.10900 23.25100
C  9.58200 3.11400 24.76500
C  7.09900 3.85400 22.22600
C  10.78200 3.41700 22.49800
C  11.46900 2.18500 21.86900
N  9.86500 2.89000 27.70200
C  10.55300 2.10700 26.79900
C  11.26100 1.10800 27.54500
C  11.00300 1.35700 28.94100
C  10.22700 2.49400 28.99700
C  12.15800 0.02600 27.13300
C  11.32900 0.99300 30.30300
O  12.05800 0.08500 30.67700
C  10.50000 2.00700 31.31300
C  9.59100 1.20300 32.25200
O  8.91000 0.21700 31.98800
O  9.94100 1.63500 33.53400
C  9.49000 0.64000 34.61700
H  6.24500 7.34700 29.99100
H  6.85400 6.30500 23.75300
H  10.91300 1.49000 24.82600
H  8.02200 3.84000 32.44000
H  8.12600 6.75700 31.84300
H  5.64000 5.27500 31.97500
H  6.06800 6.80000 32.72600
H  6.46800 5.39500 33.59900
H  10.24100 5.66700 32.11500
H  10.47800 4.14500 33.10800
H  8.50800 5.75300 34.37000
H  9.88200 6.82900 33.87400
H  5.31100 9.58800 27.95400
H  4.73300 8.54300 29.27300
H  3.86700 8.71900 27.76300
H  3.20400 9.19500 25.25800
H  4.43400 9.77700 24.12500
H  4.67600 10.01900 25.83800
H  8.93900 5.06800 22.61100
H  9.08000 2.09700 23.01700
H  7.07100 2.81100 21.91000
H  6.91600 4.56400 21.42000
H  6.20600 3.96400 22.84200
H  11.47200 3.91000 23.18300
H  10.54700 4.09900 21.68100
H  11.73000 2.43800 20.84200
H  10.84400 1.29200 21.89800
H  12.49700 2.08900 22.21900
H  11.49500 -0.80700 26.90100
H  12.90600 -0.22000 27.88700
H  12.63100 0.39400 26.22300
H  11.27700 2.43900 31.94500
H  8.48800 0.22900 34.50000
H  9.39900 1.19400 35.55100
H  10.18000 -0.19100 34.76700
Mg 49.17200 34.73400 26.69000
C  47.34500 33.65700 29.35200
C  49.02900 38.04100 27.87100
C  50.77300 35.93000 23.95000
C  48.28400 31.75000 25.03000
N  48.24400 35.65200 28.45200
C  47.76700 34.95600 29.52000
C  47.47500 35.88700 30.73900
C  47.65700 37.31700 30.05400
C  48.35600 37.01900 28.68400
C  46.39500 38.24100 29.99100
C  48.30400 35.60200 32.03500
C  47.52400 35.17400 33.26900
H  47.03200 36.29900 34.22300
N  49.96400 36.61000 26.12600
C  49.83900 37.82200 26.76200
C  50.80200 38.74500 26.17400
C  51.42500 38.08500 25.09200
C  50.73100 36.84900 25.00500
C  50.89500 40.13400 26.63100
C  52.47300 38.55500 24.11700
O  52.93100 37.87000 23.23200
C  52.93200 39.96400 24.24300
N  49.31200 33.99400 24.60200
C  50.10700 34.65400 23.70600
C  50.21100 33.79700 22.41100
C  49.58300 32.42800 22.83700
C  49.07300 32.68200 24.26900
C  49.64200 34.38100 21.12200
C  50.50200 31.26300 22.61800
C  49.95200 30.06400 21.72200
N  47.94200 33.05100 26.99700
C  47.75000 31.91600 26.32400
C  47.06300 30.92600 27.08100
C  46.87300 31.56800 28.29000
C  47.37700 32.88100 28.17800
C  46.61700 29.58700 26.65900
C  46.27200 31.41300 29.67600
O  45.66300 30.47500 30.13600
C  46.61000 32.79000 30.45300
C  47.48500 32.48900 31.58300
O  48.71300 32.38300 31.52700
O  46.72700 32.17800 32.64600
C  47.31900 31.34500 33.64200
H  48.87800 39.07800 28.17800
H  51.27400 36.33000 23.06600
H  48.17300 30.77700 24.54800
H  46.42300 35.77200 30.99700
H  48.40000 37.85300 30.64400
H  46.63800 39.04900 30.68100
H  45.53700 37.74200 30.44100
H  46.25000 38.63600 28.98500
H  48.88700 36.47300 32.33400
H  49.00000 34.79600 31.80200
H  48.18600 34.50500 33.82100
H  46.61600 34.61600 33.04000
H  50.38400 40.75600 25.89700
H  51.88800 40.55100 26.79800
H  50.33900 40.30600 27.55300
H  53.40900 40.07500 25.21700
H  52.23000 40.79600 24.18400
H  53.73100 40.18300 23.53400
H  51.29000 33.72100 22.27600
H  48.63800 32.23200 22.33200
H  48.64500 33.97300 20.95600
H  50.14800 34.17000 20.18000
H  49.58800 35.46200 21.25400
H  50.88300 30.88400 23.56700
H  51.37100 31.57400 22.03700
H  49.56600 30.51500 20.80800
H  49.20000 29.41900 22.17700
H  50.89400 29.53000 21.59300
H  47.40700 28.91000 26.33200
H  45.92700 29.69200 25.82100
H  46.10900 29.10000 27.49200
H  45.74900 33.40500 30.71300
H  47.25100 30.32900 33.25400
H  46.76000 31.52200 34.56000
H  48.36200 31.55700 33.87900

