158

Mg 40.60200 8.18800 29.05400
C  42.55800 9.47200 31.74800
C  38.33600 7.11500 31.33700
C  39.02600 6.70000 26.51900
C  43.27000 9.07100 26.86800
N  40.58800 8.27500 31.27000
C  41.31100 8.99400 32.18900
C  40.69600 8.99500 33.60700
C  39.35000 8.27300 33.37800
C  39.42900 7.88400 31.90700
C  38.99700 7.21200 34.43200
C  40.45400 10.46800 34.09100
C  39.69000 10.70600 35.37400
H  40.34400 11.64700 36.35000
N  38.86900 7.00400 28.95500
C  38.06100 6.65500 30.06400
C  36.98400 5.87200 29.52800
C  37.02300 5.88900 28.05200
C  38.34100 6.56000 27.77500
C  35.91500 5.17000 30.50500
C  35.99900 5.30100 27.14000
O  36.20300 5.36100 25.93900
C  34.63300 4.82200 27.67800
N  41.18200 7.62200 27.10000
C  40.30900 7.20600 26.17200
C  40.85700 7.15600 24.77000
C  42.24000 7.89700 24.94800
C  42.22400 8.28200 26.45800
C  41.12700 5.76800 24.09800
C  42.41800 9.24600 24.08700
C  41.30600 10.30500 24.15100
N  42.59700 9.01900 29.21200
C  43.47000 9.39300 28.25800
C  44.62300 9.93700 28.95000
C  44.25400 10.00500 30.26400
C  43.08200 9.39200 30.44000
C  45.93100 10.34400 28.18700
C  44.76600 10.49100 31.53200
O  45.79200 10.98200 31.86200
C  43.67100 10.15500 32.54500
C  44.23500 9.29900 33.60700
O  44.63200 8.19500 33.44900
O  44.06700 9.85800 34.84000
C  44.49200 9.15700 36.06800
H  37.45800 6.97300 31.97100
H  38.36500 6.42900 25.69300
H  44.09000 9.31600 26.18900
H  41.30600 8.50500 34.36600
H  38.51000 8.96100 33.47200
H  37.97900 7.40600 34.77100
H  39.74000 7.19900 35.23000
H  39.05100 6.19200 34.05100
H  39.95800 10.94600 33.24600
H  41.40900 10.97300 34.23600
H  39.34700 9.77900 35.83400
H  38.80600 11.24200 35.03000
H  36.47700 4.99500 31.42300
H  35.61900 4.19700 30.11200
H  35.06600 5.83900 30.64100
H  34.75300 3.98400 28.36600
H  34.00200 4.63700 26.80900
H  34.26300 5.64500 28.28900
H  40.15100 7.65300 24.10500
H  43.06600 7.22300 24.72000
H  40.68400 5.90300 23.11100
H  40.55200 4.97200 24.57100
H  42.17100 5.52400 23.90000
H  42.24100 8.79900 23.10900
H  43.44900 9.59700 24.13000
H  40.98800 10.42100 25.18700
H  40.45900 10.11000 23.49300
H  41.86600 11.20200 23.88500
H  45.77300 11.39400 27.93600
H  46.17400 9.62500 27.40400
H  46.65400 10.29600 29.00100
H  43.31700 11.09400 32.97000
H  45.35500 9.71400 36.43300
H  44.73100 8.09400 36.05800
H  43.69700 9.20800 36.81200
Mg 47.56000 34.32600 28.22400
C  45.76500 32.48300 30.47900
C  47.49600 37.02800 30.33700
C  48.59600 36.46600 25.62400
C  47.11000 31.82000 25.82700
N  46.61400 34.74500 30.04100
C  46.06300 33.75700 30.89500
C  45.98500 34.29400 32.30100
C  46.12800 35.86300 32.01900
C  46.83300 35.87400 30.74200
C  44.70900 36.55900 31.95700
C  47.04900 33.67400 33.32700
C  47.88200 34.59700 34.18300
H  47.06800 35.34600 35.31400
N  48.17200 36.38000 28.07100
C  48.13400 37.26400 29.11800
C  48.80300 38.50400 28.77200
C  49.11100 38.37600 27.38700
C  48.61400 37.03700 26.93800
C  49.06700 39.71100 29.80500
C  49.74300 39.40100 26.50500
O  50.04800 39.16200 25.35400
C  50.11900 40.70200 27.00700
N  47.67400 34.23300 25.99100
C  48.17300 35.17500 25.18600
C  48.36600 34.74400 23.73700
C  48.28100 33.16900 23.91400
C  47.66200 33.02800 25.36600
C  47.27200 35.29400 22.82200
C  49.57600 32.37000 23.78800
C  49.50400 31.03700 23.02300
N  46.69400 32.42100 28.11900
C  46.60500 31.54200 27.10100
C  45.89000 30.35200 27.53300
C  45.50200 30.68000 28.88400
C  46.09700 31.92000 29.14200
C  45.46500 29.23500 26.64700
C  44.84200 30.22800 30.13300
O  44.34800 29.18400 30.41100
C  44.82600 31.50400 31.14600
C  45.18300 31.14400 32.57900
O  46.08300 30.42800 32.96700
O  44.20500 31.68500 33.42700
C  44.21000 31.27600 34.82000
H  47.54100 37.87500 31.02500
H  49.14200 37.00500 24.84700
H  47.13200 30.94600 25.17200
H  45.03500 33.96500 32.72200
H  46.83800 36.32100 32.70800
H  44.85200 37.31700 31.18700
H  44.46500 37.01600 32.91700
H  43.92600 35.87600 31.62900
H  47.73400 33.05200 32.75100
H  46.53200 33.00700 34.01700
H  48.58500 35.15100 33.56000
H  48.59500 34.03900 34.79100
H  48.74400 40.69700 29.46900
H  50.14300 39.85800 29.90400
H  48.67100 39.49300 30.79700
H  50.82700 40.55000 27.82200
H  49.26900 41.26600 27.39000
H  50.59500 41.29000 26.22200
H  49.32500 35.11700 23.37600
H  47.58900 32.77600 23.17000
H  46.71000 36.05400 23.36600
H  46.54600 34.62400 22.36200
H  47.63800 35.71600 21.88700
H  49.86200 32.16400 24.82000
H  50.37000 32.98300 23.36400
H  50.03100 31.10100 22.07100
H  48.45200 30.79100 22.87700
H  49.83300 30.23800 23.68800
H  45.56900 28.27100 27.14400
H  45.93500 29.28000 25.66400
H  44.43300 29.32300 26.30700
H  43.86500 32.01800 31.12300
H  43.77300 32.14100 35.31700
H  45.19500 31.23000 35.28500
H  43.72100 30.36400 35.16400

