158

Mg 26.33800 1.15100 29.57900
C  28.16100 1.05700 32.55500
C  23.43700 1.61900 31.52800
C  24.38100 1.14600 26.70900
C  28.93400 -0.08200 27.75800
N  25.85900 1.20400 31.81400
C  26.81400 1.25100 32.82700
C  26.13400 1.43000 34.19900
C  24.61100 1.55400 33.89000
C  24.58100 1.41700 32.28600
C  23.69600 0.60600 34.55200
C  26.66600 2.52200 35.09500
C  25.96400 2.78600 36.43300
H  26.78600 2.84200 37.71300
N  24.17300 1.35100 29.16500
C  23.19500 1.55100 30.09100
C  21.94200 1.73200 29.48600
C  22.16800 1.54700 28.10700
C  23.65200 1.31300 27.88900
C  20.65200 2.03100 30.18400
C  21.19000 1.55800 26.97900
O  21.49400 1.30800 25.81900
C  19.82200 2.05900 27.21900
N  26.56500 0.48400 27.57300
C  25.63200 0.64500 26.51500
C  26.22500 0.27300 25.13100
C  27.74700 -0.06800 25.44300
C  27.75500 0.10800 27.02700
C  25.31700 -0.65000 24.19600
C  28.77700 0.73100 24.60100
C  29.16700 2.12900 25.05000
N  28.18600 0.62200 29.96400
C  29.19600 0.17400 29.12600
C  30.37400 -0.00700 29.89800
C  30.07000 0.47300 31.20800
C  28.69300 0.72400 31.25300
C  31.73600 -0.46700 29.36700
C  30.59000 0.70800 32.53200
O  31.73200 0.55300 32.92600
C  29.32800 1.17100 33.47000
C  29.51000 0.28500 34.74400
O  29.24300 -0.88700 34.86700
O  29.86300 1.09000 35.84900
C  30.01400 0.49000 37.15700
H  22.63100 2.03600 32.13600
H  23.78000 1.30100 25.81100
H  29.81100 -0.44900 27.22100
H  26.35200 0.50200 34.72800
H  24.32700 2.53800 34.26200
H  23.45600 -0.19500 33.85300
H  22.80100 1.05900 34.97700
H  24.28700 0.13300 35.33700
H  26.55300 3.43100 34.50400
H  27.75100 2.47400 35.18500
H  25.41000 1.85800 36.57400
H  25.36800 3.69900 36.45100
H  20.09500 1.09700 30.26600
H  20.17200 2.95800 29.87100
H  20.82200 2.15800 31.25300
H  19.46900 1.35200 27.97000
H  19.09400 2.11400 26.41000
H  19.95600 3.05700 27.63500
H  26.23800 1.26200 24.67400
H  27.85900 -1.14000 25.28100
H  24.73400 -0.07400 23.47700
H  24.63400 -1.23500 24.81200
H  25.86300 -1.32600 23.53700
H  28.29500 0.76700 23.62400
H  29.67300 0.11200 24.56300
H  30.22700 2.16000 25.30300
H  28.50100 2.46500 25.84400
H  28.86900 2.78600 24.23300
H  31.81500 -0.51300 28.28100
H  32.01000 -1.46100 29.72100
H  32.40400 0.37000 29.57400
H  29.60500 2.16500 33.82000
H  30.96400 0.79500 37.59500
H  29.90200 -0.59200 37.08300
H  29.16300 0.94700 37.66300
Mg 16.76800 52.68800 26.71900
C  18.62400 51.00000 29.02600
C  14.28100 53.34200 29.04700
C  14.70500 53.94200 24.29400
C  18.95200 51.70600 24.22100
N  16.44300 52.12100 28.74900
C  17.42900 51.53000 29.55500
C  17.06900 51.73600 31.04000
C  15.56800 52.14400 30.96300
C  15.36400 52.57400 29.45800
C  14.61000 51.07100 31.37300
C  18.00800 52.66600 31.93700
C  18.34400 52.30700 33.36500
H  17.24300 51.69600 34.23400
N  14.75400 53.69400 26.72500
C  13.90000 53.87000 27.77200
C  12.70200 54.59200 27.39600
C  12.86000 54.79700 25.97600
C  14.17600 54.14100 25.55700
C  11.52800 54.82600 28.30500
C  11.96400 55.46800 24.97200
O  12.28900 55.65800 23.83700
C  10.74600 56.09600 25.46400
N  16.94000 53.00300 24.65400
C  15.94200 53.45800 23.84300
C  16.26700 53.29800 22.32600
C  17.72500 52.89200 22.39000
C  17.86100 52.44300 23.81700
C  15.35800 52.15400 21.72300
C  18.84000 53.96500 21.93600
C  19.48800 54.81700 23.00500
N  18.46500 51.59200 26.61200
C  19.21500 51.20200 25.45700
C  20.15500 50.26100 25.87600
C  20.00700 50.12600 27.24900
C  18.99200 51.01300 27.68900
C  21.24100 49.68100 25.02400
C  20.54800 49.59500 28.44800
O  21.55400 48.95300 28.56300
C  19.67000 50.10800 29.69400
C  19.01600 48.85000 30.40000
O  18.34500 48.02300 29.92000
O  19.22800 49.01300 31.76700
C  18.74400 47.91000 32.57200
H  13.64400 53.72300 29.84800
H  14.08200 54.41400 23.53100
H  19.56700 51.26900 23.43100
H  17.05900 50.75100 31.50800
H  15.42400 53.00300 31.61900
H  14.86600 50.81900 32.40200
H  14.79200 50.18500 30.76400
H  13.62900 51.52500 31.22700
H  17.59900 53.67500 31.98200
H  18.92100 52.60600 31.34500
H  18.74500 53.13500 33.94900
H  19.14100 51.56300 33.34500
H  10.77500 54.06000 28.11900
H  11.04200 55.78700 28.14200
H  11.86400 54.94100 29.33500
H  10.33000 56.60500 24.59500
H  10.99000 56.91900 26.13600
H  10.14100 55.27700 25.85200
H  16.08400 54.18300 21.71700
H  17.76700 51.98900 21.78100
H  14.39700 52.66800 21.74700
H  15.33200 51.29300 22.39100
H  15.62800 51.96500 20.68400
H  18.40100 54.62800 21.19100
H  19.54100 53.30400 21.42800
H  19.60300 55.83200 22.62500
H  20.43800 54.35700 23.27800
H  18.85500 54.83000 23.89300
H  20.77800 49.10100 24.22500
H  21.90400 49.00500 25.56300
H  21.71100 50.58200 24.62800
H  20.38300 50.58700 30.36500
H  17.66800 47.73700 32.55900
H  19.05100 48.17700 33.58300
H  19.15900 46.98100 32.18000

