158

Mg 1.63000 -2.92200 44.84100
C  4.87000 -1.70900 44.14000
C  0.29800 -0.43100 42.74600
C  -1.37900 -4.61400 44.47900
C  3.05100 -5.79400 46.30700
N  2.48000 -1.17900 43.58900
C  3.87500 -0.97100 43.43300
C  4.02100 0.11500 42.33400
C  2.62500 0.84500 42.50300
C  1.69100 -0.25400 42.99900
C  2.61800 2.04600 43.53400
C  4.37900 -0.50200 40.92500
C  5.73800 -0.03000 40.28900
H  5.59300 0.59900 38.96200
N  -0.39200 -2.51000 43.88400
C  -0.68200 -1.43200 43.10900
C  -2.05300 -1.40300 42.68800
C  -2.61300 -2.68400 43.15800
C  -1.43700 -3.36300 43.80600
C  -2.78000 -0.32900 41.94600
C  -3.97400 -3.24800 43.07900
O  -4.84400 -2.55500 42.56400
C  -4.33300 -4.63900 43.51700
N  1.00000 -5.06300 45.10200
C  -0.30800 -5.34400 45.13500
C  -0.58900 -6.63000 46.03900
C  0.90600 -7.05600 46.48100
C  1.70000 -5.93800 45.92100
C  -1.56200 -6.40800 47.24900
C  1.22500 -8.49200 45.92300
C  1.39200 -9.65500 46.97100
N  3.57100 -3.59400 45.29700
C  3.98000 -4.72700 45.93400
C  5.43000 -4.62400 46.24700
C  5.81500 -3.47900 45.56300
C  4.63700 -2.86200 44.92700
C  6.27700 -5.58800 47.03900
C  6.93200 -2.68000 45.15400
O  8.18800 -2.78700 45.45100
C  6.39900 -1.60000 44.07400
C  6.96000 -0.27900 44.62100
O  8.00900 0.20000 44.15600
O  6.27100 0.15200 45.81400
C  6.43800 1.58800 46.03100
H  -0.05900 0.43400 42.18200
H  -2.17000 -5.36100 44.57200
H  3.40400 -6.66700 46.86000
H  4.84200 0.70600 42.74000
H  2.30900 1.19300 41.51900
H  3.64100 2.35200 43.75200
H  2.17100 1.79600 44.49600
H  2.09800 2.95800 43.24200
H  3.53200 -0.18000 40.31900
H  4.28800 -1.58400 41.01900
H  6.37600 -0.91400 40.30800
H  6.29100 0.72700 40.84500
H  -2.18600 0.58200 41.87400
H  -3.75600 -0.07100 42.35800
H  -2.90900 -0.57900 40.89300
H  -4.09700 -4.72700 44.57800
H  -3.74900 -5.36800 42.95600
H  -5.36700 -4.87600 43.26500
H  -1.13400 -7.38200 45.46700
H  1.07800 -6.96700 47.55400
H  -1.14900 -6.64000 48.23100
H  -2.50600 -6.94000 47.13200
H  -1.95700 -5.39300 47.21600
H  2.16800 -8.40900 45.38300
H  0.44500 -8.89200 45.27500
H  1.12500 -9.20900 47.93000
H  2.44500 -9.87700 47.14600
H  0.85700 -10.55300 46.66400
H  6.83900 -6.31000 46.44600
H  5.66500 -6.19100 47.70900
H  6.96800 -5.09700 47.72500
H  6.84500 -1.74400 43.09000
H  7.10000 2.10600 45.33800
H  6.73300 1.69000 47.07600
H  5.46400 2.07200 46.11100
Mg -10.85000 37.59900 42.51500
C  -8.23700 35.17600 42.06200
C  -8.52600 39.98800 41.40500
C  -13.24800 39.66900 42.78000
C  -13.05700 34.86400 43.12700
N  -8.67000 37.56500 41.73900
C  -7.80700 36.47800 41.79600
C  -6.45700 36.81600 41.22900
C  -6.51300 38.39900 41.20800
C  -7.97700 38.67400 41.39200
C  -5.59200 39.05000 42.28700
C  -6.07200 36.10600 39.85800
C  -4.70800 35.33900 39.83800
H  -3.85600 35.74000 38.61100
N  -10.85900 39.63300 42.16200
C  -9.86100 40.46100 41.69800
C  -10.28800 41.82900 41.77500
C  -11.68300 41.71800 42.13600
C  -12.02900 40.30500 42.41700
C  -9.41100 43.05500 41.24100
C  -12.57400 42.91000 42.20900
O  -12.23800 44.05700 41.85600
C  -13.94500 42.83000 42.77700
N  -12.90000 37.34300 42.78900
C  -13.74000 38.39300 42.96500
C  -15.16900 38.06800 43.32300
C  -15.17000 36.49600 43.33300
C  -13.60400 36.19400 43.07500
C  -15.71100 38.76900 44.58000
C  -15.93100 35.76600 42.23900
C  -17.05300 34.79500 42.82500
N  -10.73400 35.46800 42.66500
C  -11.66200 34.52600 43.00500
C  -11.01800 33.22600 43.24000
C  -9.71700 33.48600 42.87000
C  -9.56200 34.84600 42.50200
C  -11.62200 31.93200 43.75800
C  -8.40900 32.81400 42.69500
O  -7.98500 31.66500 42.78100
C  -7.54600 33.82400 41.99700
C  -6.36500 33.77100 42.91100
O  -6.33800 34.04800 44.11100
O  -5.22500 33.36700 42.21300
C  -4.09700 33.01400 43.09400
H  -7.80500 40.80700 41.36600
H  -14.07500 40.38200 42.81400
H  -13.69700 34.03500 43.43600
H  -5.73600 36.41900 41.94300
H  -6.22000 38.71200 40.20700
H  -4.94100 39.79900 41.83500
H  -5.01100 38.37500 42.91500
H  -6.35600 39.55500 42.87800
H  -6.03800 36.85500 39.06800
H  -6.85000 35.40600 39.55300
H  -4.95600 34.27900 39.86900
H  -4.10500 35.61900 40.70200
H  -9.76400 43.33600 40.24900
H  -8.36900 42.78400 41.07100
H  -9.29400 43.82300 42.00500
H  -14.40400 43.81900 42.78900
H  -13.90200 42.44000 43.79300
H  -14.58100 42.34600 42.03500
H  -15.74700 38.35100 42.44400
H  -15.39600 36.01500 44.28500
H  -14.96300 39.39500 45.06600
H  -16.02000 37.98400 45.27100
H  -16.49500 39.47900 44.31700
H  -15.29600 35.09800 41.65600
H  -16.34100 36.42100 41.47000
H  -17.21400 34.89200 43.89900
H  -16.83600 33.75800 42.56600
H  -18.01500 35.11000 42.42100
H  -12.45300 31.72400 43.08500
H  -12.01100 32.33700 44.69200
H  -10.86400 31.15400 43.85100
H  -7.29300 33.54400 40.97400
H  -3.13400 32.92700 42.59100
H  -4.19900 32.02300 43.53600
H  -4.00800 33.73800 43.90400

