158

Mg -1.10700 17.39100 26.08000
C  -1.45100 15.13100 28.93600
C  -1.89900 19.94100 28.15200
C  -0.89200 19.36800 23.39300
C  -0.90800 14.58200 24.00400
N  -1.53400 17.50900 28.34100
C  -1.53600 16.47800 29.29300
C  -1.95400 17.01800 30.65700
C  -2.01700 18.56200 30.37500
C  -1.87000 18.72100 28.83200
C  -3.30800 19.24800 30.92400
C  -1.02400 16.64100 31.86300
C  -1.05700 17.38500 33.18400
H  -1.23800 16.59300 34.42900
N  -1.35000 19.40200 25.83100
C  -1.70300 20.34200 26.81000
C  -1.68400 21.61600 26.20600
C  -1.28800 21.45100 24.94000
C  -1.09900 20.02700 24.61400
C  -2.11400 22.84600 27.01000
C  -0.99500 22.50300 23.86900
O  -0.77700 22.26600 22.73800
C  -1.05000 23.92200 24.28300
N  -0.91100 17.06200 24.01000
C  -0.83900 18.01900 23.06200
C  -0.69000 17.49500 21.62700
C  -0.47400 16.01200 21.97800
C  -0.82900 15.87600 23.39700
C  -1.97300 17.79000 20.72000
C  0.98300 15.43200 21.69000
C  2.17100 15.95200 22.60200
N  -1.21200 15.27100 26.36500
C  -1.08100 14.27100 25.40500
C  -1.00000 12.96200 26.02700
C  -1.17500 13.24700 27.43600
C  -1.23300 14.68100 27.58700
C  -0.90200 11.68100 25.32400
C  -1.32200 12.66000 28.69200
O  -1.29500 11.46400 29.01700
C  -1.46900 13.85100 29.72100
C  -0.41400 13.75700 30.63800
O  0.74700 14.09600 30.47200
O  -0.86200 13.14300 31.77200
C  0.21700 13.04200 32.79900
H  -2.17700 20.81500 28.74600
H  -0.87100 20.03500 22.52900
H  -0.70700 13.76400 23.30800
H  -2.92900 16.57000 30.85100
H  -1.11600 19.00700 30.79700
H  -3.80600 18.70800 31.72800
H  -3.98500 19.47900 30.10200
H  -3.02100 20.21400 31.33900
H  0.00900 16.68500 31.52100
H  -1.32300 15.60100 31.99000
H  -1.93500 18.02800 33.12900
H  -0.14800 17.98600 33.20600
H  -2.70000 23.54100 26.40900
H  -1.27500 23.41000 27.41800
H  -2.85400 22.56400 27.75900
H  -0.51200 24.09900 25.21400
H  -2.08600 24.25600 24.33100
H  -0.62700 24.56600 23.51200
H  0.25800 17.77900 21.16800
H  -1.17700 15.36400 21.45400
H  -2.74600 17.96000 21.47000
H  -2.35700 16.93900 20.15800
H  -1.74200 18.55300 19.97700
H  1.33500 15.54400 20.66400
H  0.93000 14.36100 21.88400
H  1.66100 16.61300 23.30300
H  2.85400 16.59800 22.05100
H  2.63000 15.10200 23.10600
H  -1.74200 11.41600 24.68300
H  -0.79400 10.89100 26.06700
H  -0.00000 11.80800 24.72500
H  -2.43400 13.82000 30.22700
H  -0.05400 13.71100 33.61500
H  1.27500 13.23800 32.62000
H  0.20300 12.08000 33.31100
Mg 35.35300 1.39800 29.36000
C  32.89700 2.44900 31.56200
C  37.78200 1.59100 31.67100
C  37.64900 0.82300 26.86500
C  32.84600 1.64600 26.72600
N  35.40500 2.17300 31.37800
C  34.20500 2.40800 32.09700
C  34.58600 2.46000 33.62600
C  36.17400 2.31100 33.59700
C  36.49800 1.99100 32.12400
C  36.85700 3.55800 34.13900
C  33.88100 1.32600 34.43800
C  33.51400 1.55400 35.93300
H  33.74400 2.93400 36.38200
N  37.41000 1.04900 29.34800
C  38.21800 1.07500 30.41800
C  39.52500 0.49700 30.11700
C  39.49800 0.32000 28.64700
C  38.15100 0.76300 28.20400
C  40.53800 0.10000 31.10700
C  40.59700 -0.31700 27.68600
O  40.45900 -0.43100 26.48100
C  41.84200 -0.87000 28.35600
N  35.30600 1.33000 27.12700
C  36.38500 0.95500 26.38600
C  36.05500 0.70800 24.93300
C  34.46500 0.92300 24.87100
C  34.14000 1.34200 26.28300
C  36.83500 1.59300 24.00100
C  33.53500 -0.22000 24.33500
C  32.74600 0.18900 23.08100
N  33.26500 1.83500 29.16800
C  32.39300 1.88600 28.05700
C  31.04500 2.33800 28.57500
C  31.16800 2.39500 29.99600
C  32.58600 2.26300 30.23900
C  29.82300 2.42000 27.80800
C  30.44400 2.79800 31.19600
O  29.29500 3.14100 31.35700
C  31.56200 2.75300 32.29600
C  31.70500 3.97500 33.07500
O  32.32500 4.94600 32.65400
O  30.93400 3.94300 34.28700
C  30.77500 5.30200 34.89100
H  38.53400 1.45600 32.45100
H  38.34600 0.59000 26.05700
H  32.22300 1.89800 25.86500
H  34.25000 3.46900 33.86500
H  36.39700 1.42800 34.19500
H  37.86600 3.56000 33.72800
H  36.92400 3.44300 35.22100
H  36.30000 4.48000 33.97100
H  34.56300 0.47700 34.48900
H  33.03900 0.86400 33.92200
H  34.12800 0.95000 36.60100
H  32.44800 1.33800 36.01300
H  40.77300 -0.92800 30.83100
H  40.20600 0.01200 32.14200
H  41.35100 0.82500 31.11800
H  42.62400 -1.18200 27.66300
H  41.57600 -1.69100 29.02100
H  42.26600 -0.08400 28.98100
H  36.25400 -0.33300 24.67800
H  34.18300 1.80000 24.28900
H  37.26500 0.94700 23.23600
H  37.57700 2.12900 24.59300
H  36.12800 2.26400 23.51300
H  32.83500 -0.53700 25.10800
H  34.13200 -1.11200 24.14200
H  31.77900 -0.31300 23.07700
H  33.27900 -0.13500 22.18800
H  32.54500 1.24900 22.92800
H  29.69800 3.41300 27.37700
H  29.06400 2.21300 28.56200
H  29.88500 1.63000 27.05900
H  31.45600 1.91700 32.98800
H  30.30000 5.14900 35.86000
H  30.10500 5.84000 34.22000
H  31.68800 5.89100 34.97500

