158

Mg 36.60100 49.90800 25.48000
C  36.91900 48.16100 28.53700
C  35.16500 52.49400 27.14900
C  35.85200 51.27100 22.45400
C  38.09600 47.11400 23.87500
N  35.97700 50.20500 27.60600
C  36.29700 49.45200 28.60500
C  36.06400 50.25600 29.93800
C  35.40400 51.61100 29.48900
C  35.50800 51.43000 27.95400
C  33.96300 51.94000 30.13500
C  37.40300 50.45500 30.75200
C  37.49300 50.01700 32.22300
H  36.21800 50.13300 33.09200
N  35.65400 51.64300 24.88200
C  35.12900 52.56400 25.71000
C  34.42200 53.64000 24.91800
C  34.63800 53.34900 23.56700
C  35.43600 52.03900 23.56900
C  33.77100 54.82300 25.65600
C  34.34800 54.14200 22.29900
O  34.65500 53.74800 21.18300
C  33.72000 55.47200 22.40900
N  36.90600 49.23500 23.43900
C  36.52900 50.03600 22.35800
C  37.02700 49.50100 21.03700
C  37.91100 48.21000 21.55100
C  37.60500 48.17300 23.06300
C  35.79700 49.13100 20.16200
C  39.48600 48.35900 21.13300
C  40.19400 47.11300 20.53300
N  37.24400 47.91200 25.98000
C  37.89200 46.89300 25.24200
C  38.21000 45.76300 26.17700
C  37.84800 46.20500 27.46800
C  37.30400 47.52300 27.29000
C  38.98000 44.55800 25.78300
C  37.78200 45.84300 28.85400
O  38.25400 44.88000 29.54000
C  37.16000 47.13700 29.60800
C  35.98800 46.66100 30.41100
O  34.95100 46.29200 29.87400
O  36.39100 46.49600 31.71000
C  35.43800 45.73200 32.60800
H  34.70500 53.28200 27.75000
H  35.78800 51.76100 21.48000
H  38.71800 46.39400 23.33900
H  35.34400 49.75900 30.58700
H  36.07600 52.40700 29.80800
H  34.01800 52.89600 30.65500
H  33.67300 51.13000 30.80500
H  33.17300 52.19100 29.42800
H  37.60300 51.52000 30.87700
H  38.18000 49.96200 30.16700
H  38.32200 50.60900 32.61100
H  37.78000 48.96600 32.24900
H  33.33800 54.59300 26.63000
H  32.97400 55.18800 25.00900
H  34.42500 55.68800 25.76600
H  32.78800 55.39900 22.96900
H  33.46900 55.80100 21.40100
H  34.45500 56.15900 22.82900
H  37.71400 50.21000 20.57500
H  37.45200 47.31500 21.13200
H  35.96200 48.14400 19.73100
H  35.59600 49.89500 19.41200
H  34.95500 48.92100 20.82100
H  40.04600 48.63900 22.02600
H  39.49600 49.21600 20.46100
H  40.47200 47.41700 19.52300
H  39.43900 46.32800 20.50200
H  41.00700 46.80800 21.19200
H  39.95600 44.83000 25.38000
H  38.30200 44.07800 25.07700
H  39.02300 44.02200 26.73000
H  37.87600 47.60800 30.28000
H  35.00300 46.36000 33.38600
H  36.02400 44.95600 33.10000
H  34.64200 45.16800 32.12200
Mg -12.07400 37.67800 41.71300
C  -9.71300 35.24900 40.93100
C  -10.12700 40.08000 40.19600
C  -14.83900 39.76400 41.76200
C  -14.13400 35.11700 43.10200
N  -10.26800 37.59900 40.49400
C  -9.38900 36.52000 40.36400
C  -8.06300 36.95100 39.70500
C  -8.19400 38.52500 39.61300
C  -9.62100 38.71500 40.08300
C  -7.13700 39.16000 40.72500
C  -7.90800 36.36900 38.25400
C  -6.50200 35.82300 37.94100
H  -5.77100 36.39100 36.73800
N  -12.44400 39.66300 41.03600
C  -11.46300 40.51000 40.46500
C  -12.07700 41.78600 40.24600
C  -13.41800 41.77900 40.79100
C  -13.63700 40.39600 41.22100
C  -11.19900 42.88400 39.64400
C  -14.37900 42.92900 40.85900
O  -13.99400 44.05700 40.42400
C  -15.81300 42.85500 41.17600
N  -14.23900 37.39700 42.20000
C  -15.08900 38.45100 42.19500
C  -16.41800 38.01000 42.69300
C  -16.24400 36.48700 43.11900
C  -14.77700 36.30900 42.77600
C  -16.89800 38.89100 43.86700
C  -17.15400 35.51800 42.29700
C  -17.96400 34.61000 43.21400
N  -11.92100 35.63600 42.04100
C  -12.80700 34.76200 42.70100
C  -12.16800 33.49200 42.77000
C  -10.95800 33.56600 42.08700
C  -10.85600 34.92200 41.69400
C  -12.81500 32.34500 43.42200
C  -9.77100 32.86800 41.59600
O  -9.38400 31.72400 41.74000
C  -8.97100 33.93100 40.78800
C  -7.52900 34.05000 41.25100
O  -6.56900 33.88300 40.52700
O  -7.46400 34.37900 42.54800
C  -6.19900 34.74200 43.17300
H  -9.47900 40.93700 40.00500
H  -15.71000 40.41800 41.83600
H  -14.78500 34.38300 43.58200
H  -7.16000 36.70700 40.26400
H  -8.12500 38.86700 38.58000
H  -7.57200 40.12100 41.00000
H  -6.20600 39.26100 40.16700
H  -6.97100 38.52800 41.59800
H  -8.30800 36.89600 37.38700
H  -8.47300 35.43800 38.21300
H  -6.68100 34.75900 37.79000
H  -5.81000 35.77000 38.78100
H  -11.79500 43.62100 39.10700
H  -10.38900 42.46300 39.04900
H  -10.58000 43.40300 40.37700
H  -16.28500 43.79000 40.87300
H  -15.83400 42.61200 42.23800
H  -16.33400 42.06800 40.63000
H  -17.11500 38.14500 41.86600
H  -16.33500 36.31200 44.19100
H  -17.38600 39.76000 43.42500
H  -15.98200 39.26600 44.32500
H  -17.60200 38.36900 44.51500
H  -16.56600 34.91500 41.60600
H  -17.80300 36.09000 41.63300
H  -17.27700 33.98100 43.77900
H  -18.56100 33.96100 42.57300
H  -18.61800 35.26300 43.79100
H  -12.10400 31.53800 43.59800
H  -13.60100 31.91500 42.80100
H  -13.28300 32.59800 44.37300
H  -8.85300 33.71200 39.72700
H  -5.51100 35.30300 42.54000
H  -5.76800 33.78900 43.48000
H  -6.47500 35.35500 44.03100

