158

Mg 36.18200 49.92700 25.15700
C  36.29200 48.22100 28.17200
C  34.66000 52.58400 26.77300
C  35.89300 51.39900 22.09900
C  37.33000 46.93400 23.56300
N  35.49700 50.25100 27.14000
C  35.66100 49.40700 28.24700
C  35.25900 50.14400 29.52800
C  34.36100 51.31700 29.04500
C  34.80900 51.43400 27.55800
C  32.84400 51.14500 29.35200
C  36.59900 50.63000 30.32600
C  36.74400 50.23700 31.72100
H  35.49300 49.95000 32.51300
N  35.40000 51.74900 24.52200
C  34.88300 52.74000 25.36200
C  34.81100 53.99400 24.62800
C  35.25700 53.68200 23.30900
C  35.53500 52.22500 23.26500
C  34.60600 55.37000 25.27100
C  35.50200 54.66000 22.14300
O  36.13700 54.32300 21.09300
C  34.95700 56.06400 22.26900
N  36.40200 49.20500 23.04500
C  36.21900 50.03600 22.04500
C  36.60400 49.39500 20.73300
C  37.07400 47.97200 21.21500
C  36.91200 47.99600 22.65900
C  35.55400 49.35800 19.58700
C  38.46500 47.49200 20.74500
C  39.38600 48.40100 20.01600
N  36.76600 47.92000 25.72900
C  37.29400 46.91400 24.95700
C  37.58000 45.78500 25.88900
C  37.25700 46.30300 27.14500
C  36.75200 47.59800 26.96400
C  38.18500 44.50200 25.46800
C  37.11600 45.96600 28.57200
O  37.55700 44.94700 29.06300
C  36.39700 47.19800 29.28700
C  35.21100 46.71800 30.02900
O  34.05300 47.05700 29.69000
O  35.50500 45.87500 31.08700
C  34.37600 45.59700 32.01200
H  34.32200 53.50300 27.25500
H  35.62000 51.94700 21.19500
H  37.81900 45.99600 23.29400
H  34.69000 49.45500 30.15200
H  34.71300 52.23400 29.51700
H  32.32300 50.95200 28.41400
H  32.45900 52.12800 29.62300
H  32.72500 50.39300 30.13100
H  36.77100 51.69300 30.49600
H  37.44500 50.26600 29.74300
H  37.32000 50.96500 32.29300
H  37.35400 49.33400 31.72500
H  35.43000 55.98800 24.91500
H  34.75400 55.26900 26.34600
H  33.57100 55.67100 25.10900
H  33.97800 55.96700 22.73800
H  34.85600 56.57100 21.30900
H  35.58500 56.64900 22.94000
H  37.48000 50.02300 20.56900
H  36.28700 47.29900 20.87600
H  36.19500 49.59300 18.73700
H  34.82300 50.15800 19.70100
H  35.10100 48.38300 19.40700
H  38.26400 46.63300 20.10600
H  38.97900 47.04000 21.59400
H  38.81400 48.70100 19.13700
H  40.26400 47.85700 19.66700
H  39.64800 49.21100 20.69600
H  39.12000 44.65100 24.92700
H  37.43400 44.04000 24.82700
H  38.16600 43.95800 26.41300
H  37.09800 47.60700 30.01500
H  34.53000 44.71100 32.62800
H  33.39500 45.57300 31.53900
H  34.33400 46.41900 32.72600
Mg -1.04000 33.89400 27.17200
C  -2.95300 32.38800 29.66300
C  0.21800 35.93900 29.75400
C  0.18300 35.98200 24.89200
C  -2.74300 32.26000 24.83200
N  -1.42500 34.15500 29.39100
C  -2.17300 33.36700 30.23500
C  -2.08200 33.70800 31.76400
C  -1.19000 35.00700 31.62200
C  -0.85100 35.11800 30.14700
C  -1.82400 36.42400 32.13300
C  -1.77500 32.53700 32.77000
C  -0.80500 32.84600 33.89400
H  -1.12100 32.21400 35.25500
N  0.22400 35.56200 27.29700
C  0.68800 36.19100 28.41500
C  1.60400 37.26600 27.99200
C  1.57000 37.37200 26.59100
C  0.59800 36.29400 26.15700
C  2.24900 38.15500 28.97700
C  2.32200 38.23100 25.63600
O  2.30100 38.21000 24.42000
C  3.39700 39.07400 26.25800
N  -1.27000 34.11600 25.19800
C  -0.59500 34.97000 24.37400
C  -0.81300 34.72800 22.91300
C  -1.69800 33.43000 22.86200
C  -1.92200 33.18200 24.38900
C  -1.46900 35.89200 22.19100
C  -0.95000 32.29500 22.17300
C  0.01500 31.39000 22.96400
N  -2.53300 32.51300 27.19000
C  -3.11300 31.91800 26.10600
C  -4.06600 30.99400 26.53500
C  -4.02900 31.05400 27.94500
C  -3.11400 32.06600 28.33000
C  -4.99500 30.11300 25.70500
C  -4.60100 30.56700 29.19600
O  -5.52100 29.73400 29.41400
C  -3.76600 31.30500 30.35700
C  -4.86300 31.77800 31.25400
O  -5.43700 32.84700 31.08500
O  -5.01200 30.86600 32.35700
C  -5.93000 31.37400 33.35800
H  0.61100 36.52000 30.59100
H  0.45800 36.64800 24.07100
H  -3.13600 31.55200 24.09900
H  -3.07500 34.08000 32.01600
H  -0.21500 34.81100 32.06900
H  -2.78500 36.22400 32.60700
H  -1.84500 36.99500 31.20500
H  -1.18600 36.84400 32.91000
H  -1.29600 31.77500 32.15500
H  -2.67900 32.10800 33.20300
H  -0.80600 33.92600 34.03800
H  0.19400 32.56300 33.56300
H  2.31500 39.22400 28.77800
H  3.23700 37.71700 29.12100
H  1.85700 38.05000 29.98900
H  4.09900 38.44200 26.80300
H  2.74900 39.65700 26.91200
H  3.92200 39.79700 25.63400
H  0.17000 34.52000 22.49200
H  -2.63000 33.59100 22.32000
H  -1.46600 36.85300 22.70500
H  -2.50500 35.75700 21.87900
H  -0.91300 36.06300 21.26900
H  -0.33500 32.70400 21.37200
H  -1.78000 31.71400 21.76800
H  0.12900 31.68200 24.00800
H  0.91800 31.38200 22.35400
H  -0.41800 30.39000 22.99300
H  -5.98700 30.49000 25.95200
H  -4.89000 29.05500 25.94900
H  -4.74400 30.26700 24.65500
H  -3.12100 30.58400 30.85800
H  -6.84800 31.77200 32.92500
H  -5.42700 32.20900 33.84500
H  -6.27400 30.54000 33.97100

