158

Mg 48.31000 35.23400 27.62900
C  45.93500 33.87900 29.92100
C  48.55100 37.96400 29.68900
C  49.74600 36.78500 25.16400
C  47.45500 32.61800 25.42400
N  47.18600 35.91000 29.45700
C  46.37800 35.12500 30.27300
C  46.23400 35.75300 31.67300
C  46.72500 37.22200 31.44900
C  47.62800 36.95900 30.15500
C  45.56900 38.11800 31.15100
C  46.97500 34.88400 32.75200
C  48.03500 35.50700 33.81500
H  47.55800 35.94000 35.17900
N  49.12900 37.08400 27.44300
C  49.16400 38.02700 28.44600
C  50.13900 39.05300 27.97000
C  50.50000 38.70500 26.69800
C  49.75700 37.55600 26.35500
C  50.46800 40.21800 28.80900
C  51.44300 39.44900 25.70900
O  51.77100 39.03900 24.63500
C  52.08300 40.80100 26.13400
N  48.25000 34.89500 25.53000
C  49.10300 35.67800 24.78500
C  49.15900 35.12800 23.31300
C  48.67500 33.66700 23.55000
C  48.09100 33.72200 24.90000
C  48.12800 35.86600 22.44900
C  49.64900 32.47900 23.35100
C  49.21100 31.38300 22.32500
N  47.09700 33.56700 27.71000
C  46.91500 32.53700 26.74800
C  46.00600 31.52000 27.34300
C  45.55900 32.05100 28.51400
C  46.24400 33.27300 28.72900
C  45.71200 30.21500 26.71600
C  44.70400 31.80600 29.59200
O  43.97000 30.85500 29.90300
C  44.87200 33.06900 30.45900
C  44.93800 32.59700 31.87600
O  45.77700 31.85500 32.39500
O  43.78400 33.04500 32.52700
C  43.49700 32.72500 33.95400
H  48.73600 38.67000 30.50100
H  50.40900 37.23400 24.42100
H  47.44300 31.73200 24.78500
H  45.19400 35.68600 31.99400
H  47.29000 37.70400 32.24800
H  44.68400 37.60500 31.52600
H  45.43900 38.16400 30.07000
H  45.74200 39.11400 31.55900
H  47.42200 34.01000 32.27900
H  46.13500 34.59500 33.38300
H  48.60100 36.30600 33.33600
H  48.70900 34.66700 33.98200
H  49.96500 41.01700 28.26500
H  51.54000 40.38700 28.91000
H  49.90800 40.17800 29.74400
H  51.31000 41.43100 26.57600
H  52.57800 41.31500 25.31100
H  52.74000 40.56000 26.97000
H  50.16800 35.20100 22.90900
H  47.79600 33.45600 22.94000
H  48.57900 35.98200 21.46400
H  47.87200 36.80600 22.93800
H  47.15700 35.37400 22.38100
H  49.81800 31.88500 24.25000
H  50.62000 32.87100 23.04800
H  48.23500 31.60200 21.89200
H  49.31500 30.42200 22.82700
H  49.94700 31.55600 21.53900
H  46.68600 29.73000 26.65100
H  45.24500 30.40000 25.74900
H  44.96600 29.67100 27.29600
H  43.87300 33.50400 30.48400
H  44.19000 31.90300 34.13500
H  42.47500 32.48400 34.24500
H  43.84200 33.60500 34.49700
Mg -11.22000 38.30400 41.60600
C  -8.70700 36.06500 40.99400
C  -9.57500 40.65700 39.72700
C  -14.07900 40.22900 41.38400
C  -13.19400 35.73300 42.98300
N  -9.42100 38.27100 40.44700
C  -8.48100 37.27200 40.40400
C  -7.23300 37.71400 39.63100
C  -7.62500 39.06600 39.00000
C  -8.93800 39.37800 39.82400
C  -6.47100 40.14200 38.89400
C  -6.66200 36.73800 38.65000
C  -5.13800 36.31200 38.75500
H  -4.29100 36.89100 37.62100
N  -11.67700 40.27600 40.99000
C  -10.79100 41.01700 40.19100
C  -11.40900 42.28000 40.02500
C  -12.73400 42.17800 40.53700
C  -12.90300 40.83600 40.99900
C  -10.72700 43.44400 39.23600
C  -13.76500 43.26400 40.50800
O  -13.54000 44.34600 39.95100
C  -15.14600 43.16700 41.19100
N  -13.45100 37.88000 41.86200
C  -14.32600 38.93300 41.91500
C  -15.65700 38.57500 42.60800
C  -15.36000 37.11300 43.04100
C  -13.88600 36.92000 42.67600
C  -16.06900 39.58600 43.75000
C  -16.42300 36.04400 42.55700
C  -16.19500 35.51100 41.16200
N  -11.11400 36.21900 41.94800
C  -11.91700 35.40200 42.64100
C  -11.13700 34.26100 43.04000
C  -9.91200 34.39200 42.30500
C  -9.98200 35.62700 41.62000
C  -11.50300 33.21600 44.10200
C  -8.59200 33.79700 42.13600
O  -8.14900 32.78600 42.61200
C  -7.81000 34.79200 41.12800
C  -6.38600 34.88000 41.64700
O  -5.58400 33.95300 41.68900
O  -6.25500 36.14000 42.22100
C  -4.90700 36.40600 42.74300
H  -8.98200 41.42400 39.22400
H  -15.01200 40.78100 41.51300
H  -13.87100 35.01500 43.44900
H  -6.42900 37.95900 40.32500
H  -8.01400 38.92100 37.99200
H  -6.65300 41.01300 39.52200
H  -6.37900 40.38600 37.83600
H  -5.51500 39.73400 39.22300
H  -6.62000 37.27900 37.70500
H  -7.31800 35.88000 38.50200
H  -4.95800 35.23700 38.77000
H  -4.73500 36.61800 39.72000
H  -11.30500 43.83300 38.39800
H  -9.76300 43.18500 38.79900
H  -10.60500 44.25500 39.95300
H  -15.15400 42.80900 42.22100
H  -15.75900 42.61000 40.48200
H  -15.63300 44.14100 41.23400
H  -16.49800 38.65300 41.91900
H  -15.36600 36.99900 44.12500
H  -16.84400 40.32300 43.53900
H  -15.16000 40.12700 44.01500
H  -16.44800 39.04600 44.61700
H  -17.46000 36.37400 42.62900
H  -16.19800 35.17300 43.17300
H  -17.10500 35.30100 40.59800
H  -15.59300 34.60400 41.21100
H  -15.56500 36.20400 40.60500
H  -10.66700 32.51900 44.16600
H  -12.42600 32.78600 43.71500
H  -11.58300 33.75200 45.04800
H  -7.62500 34.40300 40.12700
H  -4.18100 36.18700 41.96100
H  -4.83300 35.75200 43.61200
H  -4.72300 37.42500 43.08600

