158

Mg 47.23500 25.27000 28.52400
C  47.43800 27.62100 31.19200
C  46.00000 23.01700 30.73600
C  47.50600 22.87500 26.13500
C  48.88400 27.49200 26.45000
N  46.89800 25.39300 30.74400
C  46.92500 26.42000 31.65000
C  46.41300 25.99300 33.02300
C  46.28500 24.38600 32.86400
C  46.41800 24.27500 31.32600
C  47.36100 23.51700 33.57800
C  45.05500 26.74400 33.34200
C  45.00600 27.37000 34.76300
H  43.96300 26.86100 35.78000
N  46.63300 23.28200 28.38200
C  46.07500 22.51600 29.42400
C  45.68700 21.22700 28.89800
C  46.11400 21.23500 27.50000
C  46.80200 22.50300 27.29300
C  44.97100 20.12500 29.73400
C  45.93200 20.16700 26.38500
O  46.38900 20.21500 25.26300
C  44.99800 19.04900 26.60900
N  48.25500 25.08900 26.66500
C  48.13500 24.10500 25.80000
C  48.69400 24.40700 24.38500
C  49.01000 25.87300 24.50600
C  48.69500 26.22100 25.99900
C  49.87000 23.46100 23.96900
C  48.18700 26.76300 23.54000
C  46.66900 26.87800 23.79200
N  48.02900 27.16600 28.68200
C  48.57200 27.98600 27.75300
C  48.59300 29.36300 28.31100
C  48.23200 29.26000 29.66100
C  47.88900 27.86700 29.83100
C  49.16700 30.56800 27.62200
C  48.03700 29.97800 30.91100
O  48.24700 31.16600 31.15900
C  47.54100 28.89600 31.92400
C  48.58400 28.79300 32.94700
O  49.65000 28.21500 32.82100
O  48.24400 29.32700 34.21900
C  49.09800 29.00500 35.35000
H  45.63000 22.25100 31.42100
H  47.74600 22.04800 25.46500
H  49.18100 28.30600 25.78600
H  47.17200 26.31200 33.73700
H  45.27700 24.12000 33.18200
H  47.94700 23.05400 32.78300
H  46.80100 22.79000 34.16500
H  48.03200 24.03800 34.26100
H  44.20100 26.06700 33.32300
H  44.83200 27.50300 32.59200
H  44.66300 28.40000 34.66200
H  46.00600 27.43900 35.19300
H  45.71700 19.35400 29.92600
H  44.03800 19.83500 29.25100
H  44.66000 20.44400 30.72900
H  45.12800 18.45200 27.51200
H  45.08700 18.52700 25.65700
H  43.94600 19.31700 26.71000
H  47.93100 24.19200 23.63600
H  50.08200 26.01900 24.37600
H  49.91100 22.62800 24.67100
H  50.88900 23.84300 24.00900
H  49.69100 23.07600 22.96500
H  48.35400 26.24200 22.59700
H  48.56200 27.78500 23.59400
H  46.09400 26.69800 22.88300
H  46.35100 27.90700 23.96200
H  46.39900 26.17100 24.57600
H  50.02600 30.15800 27.09100
H  49.55000 31.25300 28.37900
H  48.42500 30.99500 26.94800
H  46.56800 29.20500 32.30600
H  50.11200 28.76000 35.03400
H  48.67200 28.13900 35.85600
H  49.09700 29.86700 36.01700
Mg 16.11400 51.61100 25.88600
C  18.09700 50.52900 28.51500
C  13.49900 52.14600 27.93600
C  14.28600 52.43100 23.18400
C  18.70300 50.50600 23.61300
N  15.87400 51.30700 27.86200
C  16.82500 50.94000 28.82600
C  16.34800 51.32800 30.19400
C  14.74100 51.45700 29.96900
C  14.62100 51.46400 28.48500
C  13.89700 50.26800 30.62000
C  16.98400 52.59900 30.77700
C  17.05000 52.74300 32.31900
H  16.17200 51.76400 33.12500
N  14.14800 52.24500 25.58600
C  13.21700 52.36400 26.58100
C  11.93200 52.87300 26.04000
C  12.14700 52.94500 24.63900
C  13.56600 52.54100 24.38400
C  10.86100 53.44300 26.88400
C  11.22000 53.36200 23.49900
O  11.50000 53.28700 22.30100
C  9.71900 53.83500 23.85500
N  16.51300 51.49700 23.67600
C  15.60900 52.01100 22.83800
C  16.09400 51.87600 21.37800
C  17.57100 51.33000 21.55500
C  17.59500 51.09200 23.02500
C  15.18900 51.00700 20.45700
C  18.72400 52.29800 21.01900
C  19.78900 51.50800 20.17100
N  17.98700 50.55000 25.99800
C  18.97500 50.26800 24.99600
C  20.10200 49.67400 25.71200
C  19.82000 49.79600 27.09400
C  18.54400 50.25700 27.16800
C  21.31100 49.13700 25.03700
C  20.36500 49.67700 28.46000
O  21.42500 49.26100 28.87000
C  19.24200 50.12300 29.43900
C  18.86100 49.10900 30.38000
O  18.38000 48.04100 30.06400
O  19.27900 49.47900 31.63400
C  19.22300 48.44100 32.67600
H  12.90200 52.53300 28.76500
H  13.74000 52.69600 22.27600
H  19.54600 50.26100 22.96400
H  16.68300 50.51000 30.83200
H  14.39000 52.40300 30.38200
H  14.50400 49.58000 31.20900
H  13.45400 49.73600 29.77900
H  13.09700 50.67600 31.23700
H  16.49800 53.45800 30.31400
H  17.99900 52.60300 30.38000
H  16.91000 53.79800 32.55500
H  18.09900 52.56300 32.55500
H  10.54700 54.43400 26.55600
H  11.13500 53.40100 27.93800
H  10.02800 52.75300 26.74900
H  9.14700 53.17500 24.50700
H  9.24400 53.92400 22.87800
H  9.86000 54.83100 24.27500
H  16.00800 52.84000 20.87500
H  17.60200 50.29800 21.20700
H  14.54600 50.44000 21.13100
H  15.77600 50.29000 19.88300
H  14.58400 51.51200 19.70400
H  19.25500 52.75200 21.85600
H  18.41400 53.07300 20.31700
H  19.51200 51.73300 19.14100
H  19.69300 50.43600 20.34600
H  20.79400 51.80700 20.46800
H  22.07900 48.98400 25.79400
H  21.60500 49.66500 24.13000
H  21.07000 48.16500 24.60600
H  19.53200 51.02100 29.98300
H  19.62500 47.51900 32.25400
H  18.28900 48.38400 33.23400
H  19.91500 48.68800 33.48100

