158

Mg 52.73900 24.20600 44.86600
C  49.90300 26.27300 43.86000
C  51.06600 21.64900 43.26300
C  55.50900 22.56000 45.03000
C  54.38500 27.18600 45.74300
N  50.71800 24.03700 43.61400
C  49.80900 24.95400 43.33300
C  48.75400 24.47700 42.33600
C  48.82800 22.91300 42.53600
C  50.26100 22.80600 43.17100
C  47.60100 22.22300 43.28200
C  49.17900 24.92200 40.88000
C  47.95000 25.02200 40.00200
H  47.53700 23.77000 39.18500
N  53.20500 22.33700 44.28200
C  52.37000 21.39000 43.72900
C  53.03600 20.12800 43.68600
C  54.36000 20.35100 44.18300
C  54.44700 21.80600 44.52800
C  52.29400 18.82300 43.24300
C  55.46800 19.28600 44.22400
O  55.26500 18.18000 43.72600
C  56.80300 19.55800 44.96100
N  54.63200 24.75600 45.43100
C  55.65600 23.86900 45.43800
C  56.97100 24.45800 45.89400
C  56.60600 25.97900 45.83400
C  55.10600 25.97300 45.69800
C  57.54400 23.83800 47.29500
C  57.31600 26.68600 44.69700
C  58.30600 27.76400 45.07500
N  52.24700 26.26700 44.91600
C  52.96600 27.35800 45.43400
C  52.23500 28.45800 45.48100
C  50.93000 28.11800 44.98700
C  51.05300 26.77100 44.59400
C  52.80500 29.74900 46.09900
C  49.59600 28.57200 44.69500
O  49.02800 29.63800 44.98400
C  48.91900 27.43400 43.91600
C  48.38000 27.93900 42.58200
O  49.07100 28.27400 41.54600
O  47.00400 28.17900 42.67100
C  46.43300 28.53600 41.37400
H  50.45200 20.80400 42.94500
H  56.47700 22.06300 45.12600
H  54.87600 28.13800 45.95700
H  47.76700 24.83000 42.63600
H  48.68900 22.53800 41.52200
H  46.71000 22.81500 43.49000
H  47.91600 21.69500 44.18200
H  47.24600 21.49700 42.55100
H  49.88700 24.13000 40.63500
H  49.86500 25.76900 40.92100
H  47.97600 25.87600 39.32600
H  47.00400 25.16400 40.52500
H  52.57900 18.70100 42.19800
H  51.20800 18.79200 43.33200
H  52.72700 18.00200 43.81500
H  57.41000 20.04800 44.20000
H  57.29200 18.61800 45.21600
H  56.70400 20.20900 45.83000
H  57.60000 24.17400 45.05100
H  56.78000 26.49900 46.77600
H  57.33800 24.42600 48.19000
H  58.63000 23.74800 47.29100
H  57.06700 22.92000 47.63800
H  56.59200 27.09600 43.99300
H  57.87500 25.97100 44.09200
H  59.31700 27.61800 44.69500
H  58.54400 27.73100 46.13800
H  58.02200 28.75800 44.72900
H  53.61600 30.14100 45.48500
H  53.26100 29.43600 47.03900
H  52.07200 30.53300 46.28700
H  47.98300 27.14700 44.39600
H  45.37400 28.69600 41.57400
H  46.60900 27.70800 40.68700
H  46.84700 29.47300 41.00300
Mg 9.43600 46.79500 26.76600
C  7.18500 46.81700 29.50700
C  11.95600 47.45900 28.94200
C  11.43500 47.15800 24.06600
C  6.70500 46.44800 24.59300
N  9.49800 47.30800 28.98000
C  8.49600 47.12800 29.92200
C  9.11800 47.35900 31.38500
C  10.57800 47.60600 31.08300
C  10.71400 47.48400 29.58600
C  11.13500 48.90100 31.71500
C  8.83400 46.29300 32.49400
C  9.86400 46.17500 33.64100
H  9.28600 45.87800 35.07300
N  11.37100 47.34900 26.54500
C  12.28400 47.34800 27.56300
C  13.56700 47.55100 27.00600
C  13.51500 47.45400 25.60200
C  12.07700 47.24700 25.34500
C  14.75600 47.58200 27.93000
C  14.64800 47.53700 24.56700
O  14.55600 47.24900 23.38300
C  16.09000 47.73700 24.98600
N  9.09900 46.92300 24.57800
C  10.10400 46.97900 23.69100
C  9.51900 46.89000 22.30100
C  8.04100 46.60000 22.50700
C  7.92400 46.63000 23.97600
C  9.91000 48.05200 21.36100
C  7.48600 45.29400 21.85100
C  6.50100 45.57200 20.63300
N  7.38200 46.59000 26.91500
C  6.39500 46.46000 25.99300
C  5.15800 46.24500 26.61500
C  5.38000 46.46100 27.97900
C  6.80100 46.61900 28.12900
C  3.83300 46.02700 25.89500
C  4.71700 46.54500 29.24300
O  3.55000 46.49700 29.53000
C  5.90700 46.77300 30.32500
C  5.89200 45.56600 31.11700
O  6.40900 44.50600 30.82900
O  5.18300 45.79900 32.28200
C  5.38900 44.74500 33.30700
H  12.84600 47.70900 29.52300
H  12.19400 47.07000 23.28600
H  5.84100 46.21900 23.96500
H  8.67000 48.28200 31.75200
H  11.15000 46.78800 31.52100
H  11.48500 49.56300 30.92300
H  11.82500 48.61800 32.51000
H  10.33500 49.47700 32.18100
H  8.77000 45.30400 32.04000
H  7.87300 46.49900 32.96600
H  10.33600 47.14900 33.77200
H  10.57300 45.39600 33.36000
H  15.46600 46.88100 27.49000
H  14.71100 47.29500 28.98100
H  15.23400 48.55100 27.78800
H  16.61200 48.14100 24.11900
H  16.58000 46.80600 25.26800
H  16.08400 48.57800 25.68000
H  10.00300 46.04000 21.81900
H  7.39800 47.42000 22.18800
H  10.40300 47.76000 20.43400
H  10.64200 48.71500 21.82300
H  9.04900 48.69200 21.16700
H  6.87800 44.68100 22.51800
H  8.25500 44.62600 21.46300
H  6.62500 46.53200 20.13200
H  5.52400 45.43100 21.09300
H  6.66000 44.89200 19.79700
H  3.88400 46.12800 24.81100
H  3.11700 46.72600 26.32900
H  3.53100 44.99100 26.04900
H  5.89800 47.54900 31.09000
H  6.31200 44.16500 33.28900
H  4.52200 44.08400 33.30700
H  5.37700 45.27500 34.25900

