158

Mg 16.78700 -1.48800 27.83800
C  15.79700 0.65600 30.55700
C  18.47600 -3.44200 30.34800
C  18.06800 -3.26000 25.44100
C  14.99800 0.51800 25.77300
N  17.28100 -1.24800 30.13500
C  16.68900 -0.34600 30.98200
C  17.16300 -0.66000 32.46200
C  18.04600 -1.95400 32.34300
C  17.96200 -2.22300 30.78600
C  19.52200 -1.76700 32.89100
C  15.95300 -0.87900 33.47300
C  16.04500 -0.05600 34.78400
H  17.34100 0.44100 35.38700
N  18.06900 -3.10000 27.86400
C  18.58700 -3.83000 28.97500
C  19.15400 -5.09100 28.45700
C  19.05300 -5.03700 27.01500
C  18.43200 -3.73100 26.72300
C  19.81100 -6.14800 29.29200
C  19.72500 -6.00700 25.92600
O  19.48700 -5.83900 24.74700
C  20.53700 -7.20200 26.45700
N  16.78200 -1.19900 25.88300
C  17.40700 -2.11300 25.03400
C  17.11300 -1.69500 23.49800
C  16.03500 -0.56000 23.63700
C  15.90700 -0.41000 25.17100
C  18.39800 -1.38100 22.68300
C  14.69600 -0.84000 22.80100
C  14.42800 0.16400 21.66900
N  15.45700 0.16600 28.10700
C  14.66300 0.78500 27.14400
C  13.95700 1.94800 27.77100
C  14.33800 1.86800 29.12800
C  15.26500 0.82700 29.26000
C  13.00700 2.87000 27.07500
C  14.17900 2.48600 30.34300
O  13.48900 3.47500 30.55500
C  15.03100 1.66800 31.38000
C  15.80600 2.62300 32.25500
O  16.93900 3.00900 32.09800
O  14.90400 3.03500 33.25300
C  15.47200 4.00200 34.26700
H  19.04500 -4.11100 30.99600
H  18.36900 -3.79700 24.53900
H  14.40000 1.13600 25.10100
H  17.71400 0.20300 32.83600
H  17.81900 -2.89600 32.84200
H  20.17300 -1.58400 32.03600
H  19.84600 -2.69200 33.36700
H  19.64700 -0.94200 33.59200
H  15.95100 -1.94100 33.72000
H  15.04400 -0.60300 32.93800
H  15.53800 -0.81700 35.37700
H  15.35200 0.77200 34.63500
H  20.88100 -6.19200 29.08800
H  19.34900 -7.06200 28.91800
H  19.60800 -6.03100 30.35600
H  21.30800 -6.85300 27.14400
H  20.87700 -7.84300 25.64300
H  19.82000 -7.81000 27.00900
H  16.64200 -2.59700 23.10500
H  16.49200 0.33800 23.22100
H  18.33300 -0.31200 22.47900
H  18.29000 -1.91600 21.74000
H  19.31100 -1.64800 23.21500
H  13.85900 -0.52800 23.42500
H  14.64800 -1.90200 22.56200
H  14.46200 -0.43700 20.76000
H  15.19300 0.94000 21.64600
H  13.36800 0.40900 21.73500
H  12.92900 2.74800 25.99400
H  13.34900 3.87100 27.33500
H  11.98300 2.65000 27.37700
H  14.37900 1.20400 32.12000
H  16.54300 3.88000 34.42600
H  14.91400 3.95000 35.20200
H  15.39000 4.96400 33.76100
Mg 41.85200 40.74300 26.51800
C  41.05200 43.16400 29.11600
C  43.04500 38.78500 28.98400
C  42.56300 38.64900 24.06000
C  41.33600 43.34000 24.17800
N  41.93300 41.02700 28.77800
C  41.43400 41.92800 29.64100
C  41.42800 41.46800 31.08100
C  42.30100 40.22300 31.03000
C  42.40600 39.93000 29.47600
C  43.71600 40.32900 31.69000
C  40.00300 41.35700 31.71200
C  39.87600 42.12500 33.07700
H  38.92600 41.59400 34.17100
N  42.59600 38.97900 26.50600
C  43.20500 38.36000 27.62500
C  43.68100 37.10900 27.24000
C  43.33200 36.93900 25.88200
C  42.78500 38.17100 25.38600
C  44.35600 36.15600 28.22100
C  43.53800 35.73400 24.89800
O  43.23700 35.76500 23.74100
C  44.36000 34.47800 25.43800
N  42.13000 41.07300 24.43700
C  42.31900 39.95900 23.64000
C  42.24900 40.36100 22.19900
C  41.78000 41.83600 22.20500
C  41.76000 42.13100 23.73400
C  43.49700 40.14400 21.32600
C  40.35300 42.13500 21.55700
C  40.08500 43.64800 20.98000
N  41.36300 42.83100 26.52200
C  41.16900 43.67800 25.52800
C  40.79800 44.96900 26.08700
C  40.72000 44.77500 27.45900
C  41.12000 43.46900 27.75100
C  40.44600 46.15700 25.31100
C  40.29600 45.43100 28.67100
O  39.87800 46.52600 28.75700
C  40.52900 44.41700 29.77300
C  41.57500 44.94300 30.71700
O  42.76900 45.06000 30.39400
O  41.05100 45.14000 32.01200
C  42.03900 45.55800 33.04400
H  43.28900 38.08200 29.78300
H  42.81700 37.98300 23.23200
H  41.05300 44.14900 23.50100
H  42.11200 42.08600 31.66300
H  41.72900 39.41400 31.48600
H  43.93300 39.33700 32.08800
H  43.64700 41.05000 32.50500
H  44.55800 40.53900 31.03100
H  39.63900 40.34700 31.89900
H  39.27300 41.75800 31.00800
H  39.57500 43.14300 32.82900
H  40.88100 42.15900 33.49600
H  44.47200 36.64200 29.19000
H  45.33800 35.77900 27.93600
H  43.70900 35.29400 28.38400
H  43.85400 33.87500 26.19200
H  45.16300 34.89700 26.04300
H  44.65800 33.87400 24.58100
H  41.41100 39.76400 21.83900
H  42.50000 42.53900 21.78600
H  44.08100 41.06200 21.39800
H  43.23600 39.99200 20.27800
H  44.02200 39.31300 21.79700
H  39.66500 41.77500 22.32300
H  40.18500 41.39900 20.77000
H  39.50900 44.29300 21.64400
H  39.39700 43.61400 20.13500
H  41.05800 43.93300 20.57900
H  40.77000 46.06200 24.27400
H  41.09500 46.97200 25.63300
H  39.43400 46.44600 25.59400
H  39.59000 44.21000 30.28500
H  41.98200 44.76800 33.79300
H  41.56600 46.43800 33.48000
H  43.07400 45.65300 32.71700

