158

Mg 8.64400 3.16400 27.48300
C  10.02500 1.85800 30.33700
C  6.77300 5.38300 29.52900
C  7.25400 4.40600 24.69700
C  9.83900 0.39300 25.61300
N  8.41500 3.58400 29.72000
C  9.15600 2.95100 30.66000
C  8.86600 3.59800 32.02500
C  7.68700 4.59600 31.73800
C  7.62300 4.57500 30.24900
C  6.27700 4.25100 32.17700
C  10.10600 4.30200 32.63000
C  10.47200 3.96700 34.11700
H  10.74700 5.08800 35.14900
N  7.33500 4.79500 27.07500
C  6.65000 5.50700 28.10000
C  5.77800 6.39100 27.41100
C  5.91300 6.16700 25.99100
C  6.92800 5.09100 25.87700
C  4.93100 7.41200 28.05200
C  5.10900 6.76900 24.81100
O  5.45000 6.59000 23.63400
C  3.81600 7.54900 25.11100
N  8.76200 2.53800 25.31200
C  8.01200 3.22800 24.35600
C  8.07300 2.50900 22.94200
C  8.88600 1.22200 23.31500
C  9.16700 1.33700 24.80800
C  6.77900 2.12800 22.29900
C  10.17100 0.84600 22.50200
C  10.03600 -0.47000 21.79600
N  9.58900 1.46300 27.79600
C  10.08100 0.48300 27.01700
C  10.80600 -0.47700 27.88800
C  10.95300 0.05700 29.13700
C  10.15200 1.25000 29.07600
C  11.54100 -1.70300 27.35800
C  11.52900 -0.09200 30.46500
O  12.26200 -0.96900 30.96400
C  10.93600 1.10900 31.29100
C  10.20200 0.50100 32.42300
O  9.15500 -0.07200 32.29900
O  11.00500 0.64100 33.55400
C  10.34900 0.13900 34.79000
H  6.32700 6.16800 30.14300
H  6.74700 4.70500 23.77700
H  10.23400 -0.51000 25.14300
H  8.31200 2.85600 32.59900
H  7.88000 5.59700 32.12400
H  5.77500 5.16900 32.48000
H  6.22800 3.53100 32.99400
H  5.62100 3.79300 31.43700
H  10.00500 5.37700 32.48000
H  10.93900 3.90600 32.04800
H  11.37500 3.36700 34.00100
H  9.70600 3.29600 34.50800
H  5.32700 7.77300 29.00200
H  3.93200 7.00600 28.21000
H  5.12300 8.30800 27.46100
H  3.21900 7.63200 24.20300
H  4.19400 8.48400 25.52400
H  3.38200 6.94800 25.90900
H  8.67600 3.05700 22.21800
H  8.21300 0.36400 23.31900
H  6.10800 2.33400 23.13200
H  6.63200 1.07700 22.04900
H  6.55800 2.84400 21.50800
H  11.05900 0.81000 23.13300
H  10.41400 1.73300 21.91700
H  10.21200 -0.40600 20.72200
H  9.09200 -0.97800 21.98700
H  10.78200 -1.20900 22.08800
H  12.58800 -1.42400 27.23900
H  11.06200 -2.00800 26.42800
H  11.45100 -2.48700 28.11000
H  11.71500 1.81700 31.57300
H  9.66800 -0.70200 34.65900
H  9.64900 0.93700 35.03900
H  11.02800 -0.07800 35.61500
Mg 36.53000 49.66000 25.51200
C  36.73700 47.86000 28.37800
C  35.60000 52.48000 27.38100
C  36.12900 51.37000 22.61900
C  37.76800 46.97900 23.69400
N  36.08400 50.13100 27.66600
C  36.37600 49.18000 28.70500
C  36.59200 49.86800 30.01800
C  36.10100 51.31700 29.68600
C  35.80400 51.35700 28.19500
C  34.75300 51.68200 30.51300
C  38.08300 49.77400 30.50800
C  38.36300 49.70600 32.00600
H  37.17700 49.55300 32.96700
N  35.92600 51.69000 25.06700
C  35.61300 52.63900 25.99600
C  35.18500 53.85900 25.26800
C  35.31300 53.62400 23.89600
C  35.73800 52.17700 23.80800
C  34.80100 55.15600 25.97800
C  35.07400 54.49500 22.73000
O  35.31000 54.12100 21.55200
C  34.77300 55.93300 22.85800
N  36.78600 49.19300 23.42500
C  36.58100 50.05500 22.42900
C  36.90800 49.44800 21.06800
C  37.67800 48.26000 21.46600
C  37.39400 48.12100 22.93700
C  35.64800 49.15700 20.23000
C  39.16500 48.29800 21.10100
C  40.15800 47.09100 21.35700
N  36.99000 47.69800 25.87200
C  37.43100 46.75600 25.05300
C  37.65300 45.53500 25.81800
C  37.48000 45.88800 27.19400
C  36.99400 47.25400 27.13300
C  37.97800 44.30900 25.18900
C  37.48300 45.46000 28.61000
O  37.64400 44.39100 29.17200
C  37.00700 46.71900 29.40600
C  35.79900 46.37300 30.22900
O  34.63200 46.63500 29.92700
O  36.17000 45.73400 31.33800
C  35.19400 45.39900 32.38000
H  35.44400 53.42200 27.91200
H  36.04400 51.80300 21.62100
H  38.20700 46.19800 23.06900
H  35.86200 49.38500 30.66800
H  36.83000 52.03800 30.05800
H  34.50000 50.96600 31.29400
H  33.94300 51.83400 29.80000
H  34.76100 52.57300 31.14000
H  38.58100 50.64300 30.07800
H  38.52100 48.94100 29.95700
H  39.03900 50.48000 32.36700
H  38.88800 48.78600 32.26300
H  35.51600 55.94300 25.74100
H  34.76300 55.08700 27.06500
H  33.83200 55.54300 25.66100
H  34.59800 56.37700 21.87800
H  35.64100 56.42200 23.30000
H  33.89600 56.04100 23.49600
H  37.46400 50.15300 20.44900
H  37.25100 47.30400 21.16300
H  34.85100 48.63800 20.76400
H  35.90900 48.61300 19.32200
H  35.30200 50.14400 19.92200
H  39.42100 49.18600 21.67900
H  39.27000 48.67200 20.08300
H  40.84800 47.00500 20.51800
H  39.58600 46.16400 21.41200
H  40.73400 47.27600 22.26400
H  37.61400 44.28200 24.16200
H  37.36000 43.52900 25.63200
H  39.06400 44.25500 25.10900
H  37.70600 47.01300 30.18900
H  35.66300 45.68000 33.32300
H  34.86000 44.36200 32.40900
H  34.26000 45.95100 32.26700

