158

Mg 16.55200 -2.03400 28.29200
C  15.70600 0.00700 31.04200
C  18.49900 -3.94000 30.29000
C  17.66300 -3.46200 25.53600
C  14.92900 0.43500 26.31400
N  17.27300 -1.83200 30.31400
C  16.73200 -0.96700 31.27400
C  17.28600 -1.31700 32.72500
C  18.46400 -2.26000 32.35600
C  18.03600 -2.74400 30.92500
C  19.93700 -1.67100 32.47300
C  16.23200 -1.98200 33.68400
C  16.23200 -1.69100 35.20600
H  17.40000 -0.90400 35.79100
N  17.82000 -3.53900 27.96500
C  18.48500 -4.30100 28.92900
C  19.03900 -5.44700 28.28900
C  18.85000 -5.26600 26.90300
C  18.00300 -4.10800 26.74100
C  19.85100 -6.46900 29.20900
C  19.43000 -6.18500 25.74000
O  19.29200 -5.94800 24.51200
C  20.18500 -7.33300 26.15200
N  16.58900 -1.36600 26.28400
C  17.09300 -2.16800 25.33200
C  16.82300 -1.64200 23.93400
C  15.76100 -0.50400 24.20000
C  15.79800 -0.43900 25.71600
C  18.08600 -1.16300 23.26100
C  14.38100 -0.76200 23.48400
C  13.96100 0.39800 22.48800
N  15.37900 -0.20500 28.58300
C  14.79500 0.63900 27.69700
C  13.99900 1.66700 28.41600
C  14.27400 1.42100 29.74600
C  15.25100 0.33600 29.76700
C  13.05100 2.71400 27.83300
C  14.04600 1.83200 31.12500
O  13.19800 2.56400 31.60300
C  15.00200 0.99700 32.01800
C  15.76200 1.96000 32.87500
O  16.84400 2.43200 32.65700
O  15.06200 2.21100 33.98800
C  15.58700 3.09000 35.03500
H  19.15000 -4.60300 30.86500
H  18.02200 -3.90800 24.60600
H  14.35400 1.15400 25.72600
H  17.70500 -0.38500 33.10400
H  18.51000 -3.11800 33.02700
H  19.98500 -0.63400 32.80500
H  20.25400 -1.67800 31.43100
H  20.66800 -2.26700 33.01900
H  16.09900 -3.04600 33.48800
H  15.27700 -1.69700 33.24400
H  16.25900 -2.65700 35.70900
H  15.28900 -1.16200 35.34500
H  20.09400 -6.18200 30.23100
H  20.81700 -6.66700 28.74500
H  19.29400 -7.39800 29.33100
H  19.62800 -8.01400 26.79500
H  21.07700 -7.05700 26.71500
H  20.54100 -7.74600 25.20800
H  16.33600 -2.42700 23.35500
H  16.12600 0.44100 23.79700
H  18.56600 -0.26700 23.65500
H  18.11300 -1.09200 22.17300
H  18.89000 -1.87800 23.43500
H  13.58800 -1.00100 24.19300
H  14.50300 -1.60200 22.80100
H  12.90100 0.61200 22.35500
H  14.33100 0.09900 21.50800
H  14.51500 1.28400 22.79800
H  13.52600 3.47500 27.21500
H  12.63700 3.27900 28.66800
H  12.28000 2.19600 27.26200
H  14.30000 0.38000 32.57800
H  16.62800 2.89800 35.29500
H  14.95700 2.77500 35.86700
H  15.44100 4.14600 34.80800
Mg 48.21300 25.86800 27.84600
C  48.92400 28.06600 30.25800
C  47.11600 23.44700 30.14500
C  47.58200 23.58900 25.27900
C  49.50100 28.06700 25.44300
N  47.88100 25.79400 29.87600
C  48.29600 26.79800 30.68300
C  48.00900 26.51900 32.18300
C  47.75400 24.96700 32.12700
C  47.55600 24.70900 30.63800
C  48.67300 24.01400 32.90600
C  46.78600 27.42100 32.67700
C  46.16500 27.00400 33.99500
H  46.04000 28.05600 35.14200
N  47.44400 23.83100 27.74500
C  47.09000 23.03900 28.77700
C  46.55700 21.72000 28.31600
C  46.74200 21.77800 26.93200
C  47.26700 23.13800 26.56200
C  45.88400 20.71400 29.19000
C  46.43700 20.60800 25.95600
O  46.65100 20.63900 24.79400
C  45.97500 19.35000 26.46600
N  48.59600 25.84600 25.65500
C  48.09600 24.84200 24.84600
C  48.09100 25.28600 23.39200
C  48.85800 26.57200 23.39600
C  49.04200 26.87400 24.91900
C  48.60500 24.24500 22.37500
C  48.21400 27.74500 22.61900
C  48.89800 28.28500 21.38400
N  49.09900 27.66600 27.81200
C  49.59500 28.44800 26.77700
C  50.10700 29.70900 27.31500
C  49.80100 29.65100 28.70000
C  49.25600 28.37300 28.93300
C  50.66400 30.96800 26.60200
C  49.91300 30.34500 29.98200
O  50.27000 31.50900 30.17100
C  49.34800 29.35600 31.06500
C  50.38200 29.03800 32.14500
O  51.44300 28.47300 32.02800
O  49.92600 29.61200 33.34200
C  50.74600 29.36500 34.54000
H  46.79100 22.72400 30.89600
H  47.30700 22.95600 24.43300
H  49.77100 28.84800 24.73000
H  48.88900 26.77600 32.77300
H  46.80200 24.73800 32.60600
H  49.03900 23.18300 32.30300
H  48.21500 23.60200 33.80500
H  49.52700 24.56400 33.30400
H  46.03400 27.49400 31.89200
H  47.24100 28.39300 32.86900
H  46.70100 26.15000 34.40900
H  45.19600 26.57700 33.73600
H  46.56000 19.86200 29.25700
H  44.98100 20.38100 28.67900
H  45.63200 21.07100 30.18900
H  45.90500 18.57900 25.69900
H  45.00300 19.43300 26.95200
H  46.76300 18.99800 27.13200
H  47.11300 25.48600 22.95400
H  49.85100 26.52500 22.94900
H  49.05800 23.39400 22.88500
H  49.37300 24.63200 21.70600
H  47.76800 23.74800 21.88500
H  48.07400 28.59600 23.28600
H  47.24800 27.42700 22.22800
H  49.63400 27.65500 20.88300
H  49.33300 29.18200 21.82500
H  48.17400 28.53100 20.60700
H  50.13100 31.91600 26.68400
H  50.56100 30.80200 25.52900
H  51.69900 31.23200 26.81400
H  48.44800 29.82300 31.46500
H  51.04800 30.36200 34.86100
H  51.61500 28.71800 34.41700
H  50.11200 28.88900 35.28700

