158

Mg 1.06800 8.16200 27.24800
C  1.20200 10.58200 29.83400
C  1.45100 5.74100 29.76200
C  1.36200 5.66700 24.94200
C  1.28000 10.52800 24.92100
N  1.27700 8.18200 29.52500
C  1.10200 9.26000 30.35000
C  1.10900 8.89000 31.84300
C  1.30300 7.37300 31.79300
C  1.31200 7.04200 30.28500
C  2.62700 6.86100 32.56000
C  -0.14600 9.46800 32.56400
C  -0.02200 9.89000 34.08400
H  -0.66900 8.86800 35.03500
N  1.18000 5.99100 27.27100
C  1.33900 5.26300 28.42900
C  1.35400 3.85700 28.06800
C  1.17600 3.80200 26.65700
C  1.19700 5.18300 26.21000
C  1.53700 2.65700 28.99800
C  1.06600 2.58900 25.76800
O  0.84400 2.65800 24.55300
C  1.02900 1.23100 26.37200
N  1.26500 8.12200 25.26400
C  1.38500 7.00900 24.48300
C  1.43700 7.35300 22.98400
C  1.48000 8.91000 22.96700
C  1.28800 9.19900 24.47300
C  2.53800 6.70200 22.06900
C  0.31100 9.64300 22.18000
C  0.76100 10.56300 21.02300
N  1.18500 10.20500 27.30200
C  1.25100 11.04700 26.25200
C  1.41200 12.39500 26.79200
C  1.48600 12.30000 28.18400
C  1.27800 10.92400 28.43300
C  1.71600 13.59600 25.98200
C  1.70400 13.04800 29.44900
O  1.96300 14.23800 29.64700
C  1.42900 11.91000 30.58800
C  2.65800 11.84300 31.49900
O  3.71500 11.30000 31.28800
O  2.17100 12.42100 32.61700
C  3.11400 12.30800 33.75600
H  1.59300 4.96400 30.51700
H  1.23400 4.84300 24.23700
H  1.27500 11.41200 24.28000
H  1.98800 9.25000 32.37700
H  0.45000 6.88600 32.26500
H  3.19200 7.60700 33.11800
H  3.32500 6.37200 31.88100
H  2.29900 6.02100 33.17300
H  -0.97300 8.75800 32.56700
H  -0.59100 10.26700 31.97100
H  -0.39400 10.87000 34.38200
H  1.04400 9.93700 34.30900
H  2.23900 1.92500 28.59800
H  0.52700 2.32300 29.23600
H  2.04900 2.95000 29.91500
H  0.41000 1.06500 27.25400
H  2.05600 1.06400 26.69600
H  0.91100 0.41000 25.66500
H  0.49900 7.02900 22.53100
H  2.40800 9.30300 22.55100
H  3.39800 6.24400 22.55700
H  2.95300 7.43500 21.37700
H  2.04100 5.93600 21.47300
H  -0.35000 10.09200 22.92100
H  -0.39800 8.91200 21.79100
H  1.81400 10.84100 20.98000
H  0.14700 11.46200 20.97400
H  0.68100 10.10900 20.03500
H  2.53500 13.30200 25.32600
H  1.94700 14.46400 26.59900
H  0.80900 13.79900 25.41300
H  0.53600 12.15700 31.16300
H  3.98000 11.66300 33.61200
H  2.54200 11.85600 34.56600
H  3.19300 13.34300 34.08800
Mg -0.18600 43.73600 26.76900
C  1.87800 43.56300 29.62300
C  -2.93700 43.00400 28.83500
C  -2.10300 43.44400 24.05600
C  2.62000 44.31200 24.81300
N  -0.41700 43.35600 28.90000
C  0.50400 43.49000 29.86700
C  -0.10200 43.60800 31.24600
C  -1.56600 43.27700 31.00100
C  -1.70000 43.22200 29.48000
C  -2.15000 41.93600 31.69000
C  0.12600 44.92100 32.03100
C  0.38200 44.72000 33.54100
H  -0.18400 43.42700 34.27700
N  -2.24200 43.19700 26.49500
C  -3.21800 43.01500 27.45300
C  -4.54300 42.86400 26.78300
C  -4.29700 42.92000 25.38400
C  -2.85500 43.22200 25.28600
C  -5.88300 42.77500 27.52200
C  -5.26700 42.66900 24.12500
O  -4.85900 42.72700 22.93600
C  -6.69600 42.16900 24.39200
N  0.19900 43.79500 24.75200
C  -0.77400 43.62100 23.82000
C  -0.17100 43.63400 22.42600
C  1.27500 44.08000 22.62300
C  1.39200 44.06300 24.12500
C  -0.40100 42.25900 21.63900
C  1.61500 45.49400 22.08400
C  2.46300 45.54000 20.83000
N  1.79400 43.99500 27.12000
C  2.81700 44.22400 26.19000
C  4.06200 44.25900 26.95100
C  3.76800 44.05500 28.34600
C  2.36000 43.85400 28.29200
C  5.42500 44.29500 26.30100
C  4.21000 43.92000 29.64000
O  5.31600 44.00600 30.09000
C  3.01500 43.69800 30.56100
C  3.26100 42.54500 31.31500
O  3.54300 41.44500 30.84400
O  3.28100 42.78600 32.67300
C  3.70500 41.67500 33.49000
H  -3.85900 42.80000 29.38400
H  -2.68800 43.37800 23.13600
H  3.55700 44.48300 24.27900
H  0.34700 42.80000 31.82300
H  -2.28100 44.06200 31.24500
H  -2.77900 41.29700 31.07000
H  -2.74300 42.19200 32.56800
H  -1.29400 41.32900 31.98600
H  -0.75500 45.56000 32.09300
H  0.83400 45.51400 31.45200
H  0.10000 45.61500 34.09400
H  1.43500 44.80900 33.80700
H  -6.42000 41.90400 27.14400
H  -6.49700 43.65000 27.31000
H  -5.78000 42.74500 28.60700
H  -6.68900 41.28100 25.02300
H  -7.26200 41.96600 23.48200
H  -7.37800 42.86100 24.88600
H  -0.66600 44.33800 21.75700
H  2.03800 43.39300 22.25600
H  -0.99700 41.56600 22.23400
H  0.57500 41.77300 21.61900
H  -0.77000 42.35200 20.61800
H  2.04400 46.19200 22.80400
H  0.67200 46.01100 21.90800
H  1.74500 45.60800 20.01300
H  3.08000 44.64100 20.81600
H  3.18100 46.36000 20.82200
H  5.57800 43.39500 25.70500
H  6.13600 44.30000 27.12700
H  5.39000 45.16700 25.64800
H  2.83500 44.57100 31.18800
H  4.72400 41.35100 33.28200
H  3.01400 40.85800 33.28400
H  3.46800 41.82600 34.54400

