158

Mg 24.39500 -6.00500 44.77900
C  26.66600 -3.88000 43.46800
C  21.94600 -4.54600 43.05700
C  22.50400 -8.82400 45.27500
C  27.03300 -7.72500 46.34700
N  24.35300 -4.44200 43.28500
C  25.36900 -3.62900 43.01400
C  25.02400 -2.55200 41.99900
C  23.48400 -2.59700 42.16400
C  23.24800 -3.91100 42.96900
C  22.81700 -1.43300 43.01000
C  25.71400 -2.84900 40.67200
C  26.40700 -1.75900 39.89000
H  26.21400 -1.90000 38.38900
N  22.42300 -6.57500 44.28500
C  21.49700 -5.79200 43.66000
C  20.25400 -6.49100 43.58600
C  20.35600 -7.75500 44.18200
C  21.83300 -7.79600 44.62200
C  19.03500 -5.92100 42.82800
C  19.25000 -8.81400 44.30400
O  18.10200 -8.59000 43.95800
C  19.55900 -10.23700 44.90200
N  24.85600 -8.14900 45.37100
C  23.85900 -9.01200 45.61700
C  24.30000 -10.32800 46.33000
C  25.64900 -9.85200 46.95700
C  25.84300 -8.48900 46.15400
C  23.32200 -10.85400 47.31300
C  26.87300 -10.90500 46.86400
C  27.57400 -11.18000 48.26500
N  26.47500 -5.82000 45.06400
C  27.40200 -6.54600 45.73700
C  28.75000 -5.91000 45.60100
C  28.45200 -4.81500 44.77300
C  27.10000 -4.85200 44.43900
C  30.11500 -6.38100 46.09600
C  29.03500 -3.67300 44.10400
O  30.15500 -3.20700 44.05900
C  27.85000 -2.94400 43.34100
C  27.62000 -1.63900 43.83000
O  26.85100 -1.39000 44.71300
O  28.35300 -0.66800 43.07400
C  28.04700 0.74200 43.34600
H  21.13700 -4.00800 42.55900
H  21.81000 -9.60100 45.60200
H  27.86400 -8.31300 46.74200
H  25.33200 -1.56000 42.33000
H  23.00200 -2.75400 41.19900
H  22.77100 -0.49800 42.45300
H  23.40300 -1.22800 43.90600
H  21.84600 -1.81200 43.33000
H  24.88700 -3.29600 40.12000
H  26.43400 -3.66700 40.70900
H  27.47400 -1.69200 40.10200
H  26.13400 -0.79000 40.30700
H  18.81800 -6.47100 41.91200
H  19.10100 -4.84400 42.67900
H  18.16700 -6.03000 43.47900
H  18.68600 -10.88700 44.84200
H  19.85900 -10.11000 45.94200
H  20.37100 -10.73500 44.37300
H  24.52400 -10.99400 45.49700
H  25.47600 -9.55800 47.99200
H  23.85800 -11.08500 48.23400
H  22.96400 -11.82900 46.98500
H  22.42300 -10.28100 47.54100
H  27.51000 -10.40800 46.13400
H  26.48100 -11.73400 46.27500
H  27.38200 -12.25200 48.31300
H  27.13100 -10.59800 49.07300
H  28.64700 -10.99900 48.20500
H  30.37200 -7.43700 46.02100
H  30.18200 -6.21300 47.17100
H  30.91600 -5.78300 45.66100
H  28.08600 -2.77200 42.29100
H  28.50100 1.05500 44.28600
H  26.97900 0.96000 43.36800
H  28.60700 1.24900 42.56000
Mg -2.55000 34.62300 26.45800
C  -4.23400 32.90600 28.81400
C  -0.97000 36.51500 28.78500
C  -0.98900 36.38000 23.89300
C  -4.34800 32.72000 23.97100
N  -2.83000 34.88600 28.56800
C  -3.39100 33.89600 29.33800
C  -3.13000 34.16500 30.84100
C  -2.36100 35.47500 30.75400
C  -1.98500 35.62200 29.29300
C  -3.01300 36.80300 31.26100
C  -2.26200 32.91700 31.36500
C  -2.60500 32.39600 32.79400
H  -1.52600 32.44000 33.96300
N  -1.12500 36.30400 26.34200
C  -0.58500 36.89500 27.47700
C  0.35800 37.87400 26.98600
C  0.32600 37.86400 25.61200
C  -0.59800 36.79000 25.22000
C  1.23500 38.75100 27.93900
C  1.11100 38.71000 24.58900
O  0.88700 38.72100 23.37900
C  2.21300 39.62400 25.18600
N  -2.59700 34.54800 24.35700
C  -1.82500 35.28100 23.50300
C  -2.11600 35.00300 22.00200
C  -2.91400 33.73000 22.11200
C  -3.36100 33.66300 23.59800
C  -2.75300 36.15100 21.32900
C  -2.27800 32.42400 21.46000
C  -1.22100 31.66300 22.26100
N  -4.11200 33.23100 26.37300
C  -4.62900 32.40500 25.35400
C  -5.62900 31.44100 25.92400
C  -5.46000 31.55000 27.29900
C  -4.53400 32.70200 27.47700
C  -6.47000 30.46200 25.17300
C  -5.87200 31.06800 28.57300
O  -6.67100 30.12800 28.82900
C  -5.09200 31.89500 29.64000
C  -6.02400 32.48400 30.66400
O  -6.74100 33.47300 30.41800
O  -6.08600 31.78600 31.82100
C  -7.01300 32.31700 32.90500
H  -0.53000 37.22500 29.48800
H  -0.54300 36.90300 23.04500
H  -4.79600 32.03400 23.25000
H  -4.04700 34.36900 31.39500
H  -1.41000 35.38300 31.27800
H  -3.55700 37.29300 30.45400
H  -2.21600 37.46500 31.59900
H  -3.69700 36.69600 32.10300
H  -1.21800 33.17800 31.53900
H  -2.26800 32.10800 30.63500
H  -3.00600 31.38600 32.71700
H  -3.48100 32.98500 33.06400
H  1.16000 38.38500 28.96300
H  0.92400 39.79000 27.83500
H  2.26900 38.62200 27.61900
H  1.76700 40.28700 25.92800
H  2.69600 40.27600 24.45800
H  2.91400 38.92800 25.64600
H  -1.15100 34.73900 21.57100
H  -3.82200 33.94500 21.54800
H  -1.85700 36.54900 20.85300
H  -3.03200 36.95800 22.00600
H  -3.59500 35.91300 20.67900
H  -1.79400 32.75800 20.54300
H  -3.13000 31.77800 21.24700
H  -1.61800 30.64800 22.26900
H  -1.12500 32.01300 23.28900
H  -0.22900 31.88100 21.86500
H  -7.31500 30.26200 25.83200
H  -5.85800 29.57000 25.30700
H  -6.77100 30.93000 24.23600
H  -4.44100 31.17900 30.14100
H  -7.72000 31.57000 33.26600
H  -7.54400 33.20300 32.55700
H  -6.44500 32.61900 33.78500

