158

Mg -2.07000 17.09800 26.96700
C  -2.64200 14.93900 29.46300
C  -2.84100 19.73500 29.08300
C  -1.60300 19.21500 24.47800
C  -2.01300 14.41200 24.73200
N  -2.80900 17.32600 29.01300
C  -2.68000 16.29100 29.89700
C  -2.99100 16.79000 31.36100
C  -3.26200 18.26200 31.17000
C  -2.91500 18.48600 29.65500
C  -4.56100 18.91600 31.66700
C  -1.91200 16.40600 32.47300
C  -1.90200 17.17700 33.79200
H  -2.08100 16.41900 35.11900
N  -2.01000 19.17700 26.85900
C  -2.43400 20.11900 27.78400
C  -2.31300 21.44300 27.26800
C  -1.72900 21.31300 25.99800
C  -1.74000 19.86300 25.73400
C  -2.81700 22.62200 27.97900
C  -1.15100 22.38200 25.04800
O  -0.81400 22.16600 23.94000
C  -1.00200 23.77600 25.51800
N  -1.75900 16.86900 24.95100
C  -1.62000 17.90500 24.06400
C  -1.51300 17.43000 22.60500
C  -1.52300 15.86900 22.74400
C  -1.73700 15.68700 24.24300
C  -2.59800 18.06100 21.74000
C  -0.24800 15.10900 22.25600
C  1.03200 15.22800 23.14000
N  -2.24500 15.02500 27.00900
C  -2.23200 14.02300 26.04800
C  -2.49600 12.74000 26.67700
C  -2.74500 13.03400 27.98900
C  -2.55600 14.40200 28.12200
C  -2.72900 11.52300 25.93000
C  -3.11300 12.51200 29.33100
O  -3.19600 11.32400 29.65200
C  -3.02000 13.71800 30.30000
C  -2.02100 13.36600 31.31800
O  -0.83300 13.63000 31.31800
O  -2.72600 12.72600 32.40900
C  -1.87700 12.43000 33.57900
H  -3.08500 20.57100 29.74200
H  -1.40600 19.89500 23.64700
H  -1.95200 13.61200 23.99100
H  -3.89000 16.22200 31.60100
H  -2.46700 18.90400 31.55200
H  -5.22700 18.08800 31.91100
H  -5.04100 19.58100 30.94900
H  -4.43100 19.63100 32.47900
H  -0.91300 16.35800 32.03900
H  -2.20900 15.37200 32.64400
H  -2.64800 17.97200 33.79400
H  -0.94700 17.70200 33.75200
H  -1.94600 23.19700 28.29400
H  -3.51300 22.34900 28.77300
H  -3.35000 23.17100 27.20300
H  -0.36100 24.04500 26.35800
H  -2.01100 24.16700 25.65000
H  -0.66000 24.39400 24.68800
H  -0.56900 17.81200 22.21600
H  -2.44800 15.49400 22.30700
H  -2.45600 17.52500 20.80200
H  -2.28400 19.08900 21.55500
H  -3.62100 18.01300 22.11300
H  -0.06000 15.52600 21.26700
H  -0.46200 14.04100 22.23300
H  1.38100 14.19900 23.23200
H  0.73900 15.60800 24.11800
H  1.75900 15.92200 22.71800
H  -2.39200 11.64800 24.90100
H  -3.78200 11.27900 25.78700
H  -2.12600 10.75500 26.41500
H  -4.00700 13.98700 30.67600
H  -1.35100 11.49700 33.37800
H  -2.53500 12.09300 34.38000
H  -1.21300 13.24700 33.86200
Mg 2.10500 -1.28000 44.05100
C  5.37200 -0.08600 43.63400
C  0.96300 1.49900 42.25300
C  -0.91800 -2.72200 43.52900
C  3.27200 -4.23700 45.14100
N  3.07200 0.40400 42.90200
C  4.40300 0.81900 43.03700
C  4.66100 2.14400 42.29600
C  3.24800 2.64500 42.01600
C  2.33400 1.43400 42.33100
C  2.90900 3.95900 42.84800
C  5.55100 2.00700 41.09000
C  5.31100 0.81000 40.10100
H  5.77900 0.88500 38.68200
N  0.20100 -0.63600 43.23800
C  -0.04400 0.54200 42.56500
C  -1.47300 0.69100 42.36700
C  -2.05300 -0.56000 42.66300
C  -0.90700 -1.37700 43.14900
C  -2.06000 2.00100 41.82700
C  -3.47000 -0.91200 42.40200
O  -4.21500 -0.00400 42.02500
C  -4.03500 -2.26600 42.56700
N  1.31000 -3.24000 44.25200
C  0.01900 -3.57100 44.09500
C  -0.38800 -4.92900 44.66100
C  0.92900 -5.34100 45.32100
C  1.94600 -4.22800 44.88800
C  -1.64800 -4.84900 45.61200
C  1.33500 -6.73000 44.93100
C  1.67000 -7.67100 46.11400
N  3.87400 -2.01500 44.51800
C  4.29100 -3.23100 45.02500
C  5.66800 -3.28700 45.29100
C  6.13400 -2.12000 44.69600
C  5.05500 -1.32000 44.30300
C  6.47500 -4.38300 45.98200
C  7.36100 -1.35500 44.35300
O  8.49600 -1.65000 44.49800
C  6.82900 0.03100 43.72200
C  7.23400 0.99300 44.67800
O  7.23800 0.88300 45.90600
O  7.36300 2.15900 43.95800
C  7.39800 3.46800 44.70700
H  0.62900 2.47800 41.90200
H  -1.86900 -3.21600 43.31800
H  3.61500 -5.17000 45.59300
H  5.10100 2.77100 43.07100
H  3.11800 2.95200 40.97800
H  3.79200 4.51600 43.16300
H  2.39000 3.74500 43.78200
H  2.21700 4.56200 42.26000
H  6.58500 2.01000 41.43500
H  5.27600 2.91500 40.55400
H  4.24500 0.61600 40.22000
H  5.92100 -0.03500 40.41700
H  -2.19400 1.98500 40.74500
H  -1.37000 2.84400 41.81000
H  -3.06200 2.23100 42.19100
H  -5.12000 -2.18800 42.50400
H  -3.77600 -2.51300 43.59600
H  -3.58400 -2.92800 41.82800
H  -0.48300 -5.62500 43.82800
H  0.97000 -5.35400 46.41000
H  -2.36600 -4.12200 45.23300
H  -1.33300 -4.49600 46.59400
H  -2.19800 -5.78600 45.71000
H  2.26200 -6.61500 44.36800
H  0.57500 -7.19300 44.30200
H  2.74900 -7.79100 46.22100
H  1.14000 -8.59300 45.87800
H  1.29100 -7.31100 47.07000
H  7.28800 -3.90400 46.52700
H  6.93000 -5.08000 45.27800
H  5.82000 -4.94600 46.64800
H  7.38700 0.16400 42.79500
H  7.97600 3.39200 45.62700
H  6.41600 3.91400 44.86900
H  7.90500 4.08200 43.96200

