158

Mg 24.66000 -5.49300 45.64200
C  27.23300 -3.39600 44.31100
C  22.57200 -3.93300 43.34000
C  22.56800 -8.00600 45.98500
C  27.18500 -7.11500 47.47300
N  24.92000 -3.73600 44.11600
C  26.01100 -3.02100 43.76700
C  25.69500 -2.02500 42.60700
C  24.12700 -2.04600 42.64300
C  23.80000 -3.34200 43.43300
C  23.28500 -0.75300 43.20700
C  26.31900 -2.44600 41.22300
C  26.39200 -1.17000 40.28100
H  25.85400 -1.38100 38.83600
N  22.72700 -5.86400 44.94500
C  22.04700 -5.09600 44.00700
C  20.69600 -5.64400 43.80600
C  20.72000 -6.88600 44.46700
C  22.06400 -7.01300 45.17800
C  19.60000 -5.05900 42.90900
C  19.61800 -7.96400 44.52800
O  18.51400 -7.73500 44.10400
C  19.77700 -9.33800 45.22200
N  24.86600 -7.29400 46.50800
C  23.79100 -8.10700 46.60000
C  24.13400 -9.28600 47.57800
C  25.51400 -8.99600 48.10200
C  25.87900 -7.72500 47.41100
C  23.08500 -9.56900 48.67000
C  26.47300 -10.21200 47.95100
C  27.59800 -10.36000 48.97200
N  26.72200 -5.28700 45.96900
C  27.60100 -5.97700 46.83400
C  28.91400 -5.39800 46.79200
C  28.82800 -4.42000 45.74900
C  27.48700 -4.39000 45.30700
C  30.10900 -5.87600 47.47500
C  29.54000 -3.42500 44.93200
O  30.71600 -3.10000 44.97300
C  28.60700 -2.79800 43.93000
C  28.49400 -1.37800 44.12500
O  28.00000 -0.76600 45.03100
O  29.20900 -0.84100 43.10400
C  29.40900 0.60200 43.21400
H  21.95900 -3.50500 42.54300
H  21.93000 -8.85500 46.23900
H  27.96400 -7.66500 48.00600
H  26.02900 -1.04300 42.94000
H  23.80400 -2.21900 41.61600
H  24.00100 0.06800 43.17900
H  22.89700 -1.04400 44.18300
H  22.54000 -0.45900 42.46700
H  25.76300 -3.24400 40.73100
H  27.28900 -2.87400 41.47700
H  27.41000 -0.78200 40.30700
H  25.78400 -0.43700 40.81200
H  19.22900 -5.92000 42.35500
H  19.96900 -4.45300 42.08200
H  18.82700 -4.45600 43.38600
H  19.97300 -9.24100 46.28900
H  20.65000 -9.80200 44.76100
H  18.95700 -10.04200 45.08300
H  24.25600 -10.10300 46.86700
H  25.61400 -8.70300 49.14800
H  23.58100 -9.29000 49.60000
H  22.70000 -10.58700 48.73400
H  22.19200 -8.97000 48.49300
H  26.87600 -10.16800 46.93900
H  26.00700 -11.17900 48.14400
H  28.52900 -10.03200 48.51100
H  27.71200 -11.42500 49.17700
H  27.31600 -9.74000 49.82300
H  30.30100 -6.88500 47.10900
H  29.77600 -5.83800 48.51200
H  30.95000 -5.19600 47.33400
H  28.92700 -3.10200 42.93400
H  29.44500 1.01000 44.22400
H  28.68400 1.15600 42.61700
H  30.43000 0.80900 42.89600
Mg 17.33800 -0.90000 28.52800
C  16.18400 1.01300 31.13200
C  19.26800 -2.68100 30.73500
C  18.75100 -2.57700 26.00700
C  15.73700 1.29900 26.29600
N  17.75800 -0.78300 30.65500
C  16.97700 -0.02900 31.58000
C  17.35400 -0.41400 33.04900
C  18.45200 -1.53700 32.93800
C  18.56200 -1.66000 31.37600
C  19.82800 -1.22000 33.59200
C  16.09300 -0.88600 33.85800
C  16.06500 -0.62600 35.35700
H  17.20600 0.09700 36.05700
N  18.59600 -2.55900 28.36300
C  19.33700 -3.11800 29.35700
C  19.97600 -4.32500 28.90700
C  19.95500 -4.22100 27.47300
C  18.99400 -3.11800 27.21900
C  20.74600 -5.28200 29.71000
C  20.67500 -5.10600 26.35200
O  20.60300 -4.89900 25.13200
C  21.53400 -6.22600 26.81500
N  17.26100 -0.69600 26.38200
C  17.91200 -1.56600 25.57400
C  17.86000 -1.10200 24.09300
C  17.02300 0.33400 24.17200
C  16.61300 0.31200 25.69600
C  19.25100 -1.00500 23.36700
C  15.75300 0.57400 23.20100
C  15.81700 1.73500 22.26300
N  16.12300 0.70000 28.62000
C  15.57300 1.52000 27.68300
C  14.80200 2.57000 28.29300
C  15.07700 2.44900 29.62200
C  15.85900 1.33100 29.78500
C  13.91400 3.60800 27.60800
C  14.71300 2.97300 30.91700
O  13.98500 3.83800 31.30600
C  15.53100 2.10500 31.98500
C  16.56700 2.95700 32.58500
O  17.73200 3.19300 32.19000
O  16.10600 3.45000 33.75300
C  16.93300 4.32800 34.62200
H  19.76300 -3.42400 31.36500
H  19.13400 -3.10900 25.13300
H  15.25100 2.09300 25.72500
H  17.79100 0.47500 33.50400
H  18.08200 -2.45400 33.39800
H  20.04300 -1.84400 34.45900
H  19.70700 -0.20600 33.97300
H  20.76900 -1.24600 33.04300
H  15.95200 -1.96600 33.80600
H  15.18900 -0.43100 33.45200
H  15.70700 -1.43600 35.99200
H  15.38000 0.22200 35.34800
H  20.55500 -6.34900 29.59700
H  20.63800 -5.10900 30.78100
H  21.76700 -4.94300 29.53500
H  21.06300 -6.81100 27.60600
H  22.51400 -5.79800 27.02300
H  21.69200 -6.92500 25.99400
H  17.32800 -1.92600 23.61700
H  17.76400 1.12400 24.04600
H  19.86500 -0.24700 23.85300
H  18.98000 -0.71800 22.35100
H  19.75800 -1.97000 23.39100
H  14.86500 0.72900 23.81500
H  15.50400 -0.29600 22.59300
H  15.07300 2.47100 22.56900
H  15.55800 1.40900 21.25600
H  16.84600 2.09300 22.29500
H  13.74900 3.50800 26.53500
H  14.43100 4.56800 27.63000
H  12.96200 3.49600 28.12600
H  14.77300 1.66800 32.63400
H  17.11100 3.83800 35.57900
H  16.38800 5.26900 34.69600
H  17.89200 4.55800 34.15800

