158

Mg 26.73100 1.09100 28.91500
C  28.70400 0.56800 31.80000
C  23.99200 0.94200 30.92600
C  24.97200 1.30400 26.22400
C  29.61500 0.23400 27.01600
N  26.42000 0.73500 31.09300
C  27.32600 0.75400 32.10600
C  26.76000 0.83700 33.50900
C  25.22400 0.90400 33.13700
C  25.22200 0.75800 31.63100
C  24.23400 -0.06500 33.89600
C  27.22200 2.04900 34.33700
C  26.40800 2.67200 35.49600
H  26.87100 2.07600 36.85200
N  24.72300 1.39600 28.63900
C  23.73200 1.30800 29.57900
C  22.35600 1.39300 28.90400
C  22.69600 1.48300 27.45600
C  24.16600 1.47500 27.39800
C  21.04300 1.29100 29.58700
C  21.76100 1.75400 26.29500
O  22.19700 2.06700 25.15100
C  20.30600 1.72000 26.45700
N  27.22600 0.78800 26.90100
C  26.30800 0.97200 25.97100
C  26.82500 0.85900 24.52100
C  28.30500 0.52400 24.79400
C  28.45200 0.60600 26.29900
C  26.14900 -0.20200 23.60400
C  29.30700 1.51500 24.03300
C  29.99800 2.62100 24.69900
N  28.71700 0.46200 29.24900
C  29.78600 0.10700 28.41400
C  30.92700 -0.29000 29.18800
C  30.58000 0.01500 30.47700
C  29.19200 0.38700 30.46000
C  32.26900 -0.74400 28.68400
C  31.16600 -0.01500 31.85400
O  32.31700 -0.17700 32.29700
C  29.88600 0.29200 32.76200
C  29.60200 -0.78800 33.65300
O  29.22500 -1.91400 33.30600
O  29.80400 -0.40600 34.92600
C  29.49900 -1.40100 35.95000
H  23.09700 0.95800 31.55100
H  24.29000 1.24700 25.37300
H  30.49700 -0.02700 26.42700
H  27.04200 0.02900 34.18300
H  24.83600 1.85100 33.51200
H  24.22800 -1.04300 33.41500
H  23.22500 0.34600 33.91000
H  24.63100 -0.23400 34.89700
H  27.33100 2.92700 33.70100
H  28.23500 1.80900 34.66200
H  25.38900 2.29000 35.43500
H  26.42600 3.76200 35.47700
H  20.53700 2.24500 29.43600
H  21.21200 1.14000 30.65400
H  20.47700 0.42000 29.26000
H  19.88100 1.83400 25.46000
H  20.00900 2.39600 27.25900
H  20.10900 0.71300 26.82300
H  26.78800 1.86100 24.09400
H  28.58000 -0.50100 24.54200
H  26.76300 -1.09200 23.46600
H  25.94700 0.13200 22.58600
H  25.30000 -0.53500 24.20100
H  28.81200 1.86600 23.12800
H  30.14500 0.86400 23.78500
H  29.99000 3.46100 24.00400
H  31.00100 2.35300 25.03200
H  29.38100 3.10100 25.45800
H  32.64600 0.12900 28.15100
H  32.30300 -1.52000 27.92000
H  32.97100 -1.03000 29.46800
H  30.05400 1.23500 33.28100
H  30.09200 -2.28700 35.72100
H  28.46600 -1.73200 36.06100
H  29.85900 -1.05600 36.91900
Mg 29.86100 57.91500 40.24700
C  27.03500 55.92000 39.16500
C  31.84800 55.29400 39.00000
C  32.43800 59.87300 40.39300
C  27.66700 60.64700 40.53300
N  29.52900 55.93000 39.08100
C  28.31300 55.30300 38.88300
C  28.46600 53.83100 38.52700
C  29.94800 53.54900 38.56900
C  30.46500 55.01800 38.86800
C  30.46700 52.43600 39.55000
C  27.83300 53.46000 37.05400
C  28.47400 54.22200 35.82100
H  27.57500 55.29600 35.14200
N  31.96400 57.58900 39.95200
C  32.57900 56.48000 39.38500
C  34.00000 56.71800 39.42900
C  34.21600 58.00700 39.96800
C  32.84000 58.50800 40.16200
C  34.93900 55.64500 38.96600
C  35.55300 58.70300 40.23500
O  36.58900 58.12000 39.94900
C  35.71900 60.05900 40.80500
N  30.06400 59.99400 40.29000
C  31.25800 60.51000 40.52300
C  31.19900 62.02600 40.91300
C  29.67900 62.31400 40.78700
C  29.05900 60.92100 40.55000
C  31.74500 62.34800 42.31600
C  29.35000 63.21300 39.55000
C  28.38100 64.33100 39.93600
N  27.73700 58.27700 40.10000
C  27.00800 59.42000 40.19500
C  25.64900 59.11200 39.87800
C  25.60500 57.73400 39.53300
C  26.93800 57.30300 39.62900
C  24.48100 60.09400 39.92400
C  24.68200 56.54200 39.21600
O  23.43700 56.57400 39.12800
C  25.61300 55.37000 38.90700
C  25.25400 54.27800 39.85100
O  25.72500 54.07000 40.95900
O  24.34700 53.41300 39.27200
C  23.94900 52.22100 40.07200
H  32.45200 54.40500 38.80900
H  33.28900 60.55500 40.45200
H  27.01600 61.49300 40.76400
H  27.95000 53.21600 39.26500
H  30.29300 53.22500 37.58600
H  30.52300 53.02400 40.46700
H  31.44800 52.08000 39.23300
H  29.75700 51.60900 39.56400
H  26.81700 53.83900 37.16500
H  27.97500 52.38100 36.99300
H  28.73800 53.52600 35.02500
H  29.35800 54.75600 36.16900
H  35.79500 55.92700 38.35300
H  34.53000 54.78100 38.44300
H  35.42100 55.32500 39.89000
H  35.20100 60.20800 41.75300
H  35.33900 60.79200 40.09300
H  36.77200 60.31800 40.92000
H  31.81700 62.60400 40.22600
H  29.31100 62.82400 41.67800
H  30.94700 62.73300 42.95100
H  32.40000 63.18600 42.07800
H  32.25700 61.50800 42.78700
H  28.95200 62.55000 38.78200
H  30.23700 63.67800 39.11900
H  27.47800 64.09900 39.37100
H  28.69400 65.29900 39.54600
H  28.21000 64.36100 41.01200
H  24.53500 60.72100 39.03400
H  24.70100 60.71000 40.79600
H  23.50700 59.61900 40.04400
H  25.36600 54.92000 37.94600
H  23.73200 52.61000 41.06700
H  24.78000 51.52200 40.16600
H  23.11200 51.73200 39.57400

