158

Mg 9.12800 48.17400 26.75500
C  6.89200 47.87400 29.48000
C  11.44500 49.22800 28.90900
C  11.05900 48.57700 24.17300
C  6.26400 47.89400 24.56700
N  8.99700 48.83500 28.98500
C  8.12000 48.33000 29.87100
C  8.60200 48.67600 31.32800
C  10.10000 49.04200 31.09900
C  10.18500 49.01500 29.57300
C  10.61100 50.38600 31.71200
C  8.23700 47.57600 32.40200
C  8.93800 47.72900 33.78900
H  8.65500 46.69800 34.92200
N  11.06500 48.69900 26.57500
C  11.84900 49.09600 27.57900
C  13.14300 49.42300 27.02800
C  13.06500 49.16000 25.63200
C  11.71100 48.72300 25.41300
C  14.34400 50.07600 27.81400
C  14.22500 49.19100 24.63600
O  14.12100 48.97900 23.49900
C  15.61000 49.58800 25.19600
N  8.66200 48.12600 24.61500
C  9.71900 48.33900 23.78800
C  9.26800 48.24100 22.29300
C  7.76100 47.86600 22.32700
C  7.51600 47.96200 23.88500
C  9.61900 49.45900 21.31500
C  7.38800 46.40600 21.85900
C  6.70100 46.26700 20.48400
N  7.03600 47.87500 26.91800
C  6.08000 47.76600 25.92600
C  4.85700 47.47800 26.60200
C  5.08500 47.47700 27.92000
C  6.45100 47.75600 28.12700
C  3.57900 47.15000 25.92600
C  4.49700 47.38300 29.21000
O  3.32600 47.29700 29.58700
C  5.63000 47.40300 30.26000
C  5.73200 46.09700 30.87500
O  6.53800 45.23200 30.49600
O  4.97400 46.07300 32.03700
C  5.29200 44.86200 32.93400
H  12.24200 49.30300 29.65200
H  11.74900 48.81400 23.36100
H  5.48800 47.77800 23.80800
H  8.17800 49.64900 31.57800
H  10.73500 48.23600 31.46700
H  10.93200 51.17900 31.03700
H  11.44600 49.99600 32.29500
H  9.95800 50.83100 32.46300
H  8.41100 46.59600 31.95600
H  7.18900 47.79400 32.60800
H  8.62700 48.66700 34.25000
H  10.01100 47.57800 33.66900
H  15.26500 49.51700 27.65000
H  14.09600 50.29000 28.85400
H  14.42000 51.05000 27.33200
H  16.10900 48.94700 25.92200
H  15.60800 50.66600 25.35900
H  16.21700 49.43500 24.30400
H  9.75200 47.33100 21.93800
H  7.04800 48.52300 21.82900
H  8.74600 49.87400 20.81000
H  10.39700 49.17500 20.60700
H  10.01400 50.30700 21.87300
H  6.65100 46.02700 22.56800
H  8.25700 45.74900 21.84600
H  7.22100 45.70000 19.71200
H  6.41100 47.15900 19.92800
H  5.84900 45.63200 20.72900
H  2.92100 47.98900 26.15000
H  3.14500 46.33500 26.50500
H  3.57800 46.89200 24.86700
H  5.49700 48.11100 31.07900
H  5.61500 45.31900 33.87000
H  6.13600 44.22600 32.66800
H  4.37300 44.33700 33.19200
Mg -1.24000 34.35000 25.77200
C  -2.97100 32.76900 28.33800
C  -0.19000 36.71100 27.98900
C  0.01900 36.01000 23.14100
C  -2.76100 32.06300 23.48700
N  -1.61600 34.71000 27.87700
C  -2.17900 33.84600 28.74400
C  -1.95700 34.29300 30.22300
C  -1.07900 35.61500 30.08400
C  -0.94200 35.67600 28.52200
C  -1.67700 36.86800 30.76100
C  -1.32800 33.33900 31.25700
C  -1.95900 33.31000 32.62700
H  -1.19000 32.57700 33.72300
N  -0.03000 36.01600 25.64000
C  0.18700 36.93300 26.61900
C  0.91700 38.02300 26.06200
C  1.09600 37.76100 24.64800
C  0.36700 36.51300 24.44300
C  1.53100 39.14600 26.91000
C  1.71400 38.64400 23.55900
O  1.62100 38.45800 22.39100
C  2.37000 39.88700 23.95400
N  -1.35300 34.08500 23.56700
C  -0.66700 34.85600 22.78500
C  -0.87300 34.39800 21.28500
C  -1.41900 32.94500 21.47300
C  -1.86700 32.99300 22.93200
C  -1.70800 35.24700 20.33500
C  -0.39300 31.71300 21.20500
C  0.26400 31.10300 22.51800
N  -2.57200 32.79300 25.86200
C  -3.04000 31.91500 24.87100
C  -3.91000 30.90800 25.39300
C  -3.90100 31.24700 26.75000
C  -3.01000 32.30900 26.97400
C  -4.80700 29.92800 24.65900
C  -4.52100 30.94700 27.97800
O  -5.34700 30.07200 28.21800
C  -3.86400 31.86000 29.10400
C  -4.91900 32.52000 29.96800
O  -5.53700 33.46700 29.56500
O  -5.04200 31.99100 31.23000
C  -5.97500 32.62300 32.16600
H  0.21100 37.42300 28.71400
H  0.44500 36.50200 22.26400
H  -3.11200 31.21700 22.89300
H  -2.92900 34.43500 30.69600
H  -0.03300 35.66100 30.38400
H  -2.32400 36.59900 31.59600
H  -2.14900 37.58200 30.08600
H  -0.93600 37.48700 31.26700
H  -0.29800 33.59700 31.50600
H  -1.22200 32.32600 30.87100
H  -2.91000 32.79500 32.49100
H  -2.12200 34.30500 33.04300
H  2.61600 39.09700 26.82000
H  1.34400 38.91000 27.95800
H  1.09300 40.10800 26.64500
H  1.63300 40.49200 24.48200
H  2.59800 40.47900 23.06700
H  3.31800 39.71100 24.46200
H  0.11000 34.35300 20.81700
H  -2.19700 32.87300 20.71300
H  -2.73800 34.91900 20.19500
H  -1.31500 35.37800 19.32700
H  -1.86400 36.24600 20.74300
H  0.34800 32.11300 20.51300
H  -0.87000 30.87900 20.69100
H  -0.02500 31.65900 23.41000
H  1.34800 31.21700 22.50200
H  0.04300 30.03600 22.52900
H  -4.32900 29.68400 23.71100
H  -5.71400 30.46000 24.37500
H  -4.93400 28.98700 25.19500
H  -3.13100 31.34200 29.72300
H  -6.64900 33.33300 31.68600
H  -5.45500 33.06100 33.01800
H  -6.52200 31.74100 32.49800

