158

Mg 16.82600 -2.62100 28.87900
C  15.60600 -0.24300 31.14300
C  18.58800 -4.09300 31.36700
C  17.99600 -4.60400 26.52100
C  15.04100 -0.91500 26.22400
N  17.27100 -1.98800 30.99000
C  16.54600 -1.08700 31.76500
C  16.93400 -1.25000 33.24000
C  18.04800 -2.39900 33.22600
C  17.94800 -2.86400 31.75500
C  19.54900 -1.87300 33.62900
C  15.73800 -1.48900 34.16600
C  15.55700 -0.73800 35.49000
H  16.83300 -0.07600 35.97500
N  18.07000 -4.22300 28.95400
C  18.69100 -4.70900 30.05000
C  19.45300 -5.81400 29.70200
C  19.43200 -5.99100 28.28400
C  18.40000 -4.99400 27.85100
C  20.27300 -6.54400 30.75000
C  20.21300 -6.83600 27.31800
O  19.96100 -6.69400 26.09800
C  21.20900 -7.85000 27.78900
N  16.56500 -2.65900 26.63700
C  17.21700 -3.60400 25.92500
C  17.12100 -3.24800 24.42800
C  15.95100 -2.24400 24.36200
C  15.84200 -1.90800 25.79900
C  18.38400 -2.68600 23.86300
C  14.65300 -2.84000 23.60600
C  14.45500 -2.32300 22.14800
N  15.49400 -1.01100 28.72400
C  14.85600 -0.42400 27.60000
C  14.12100 0.76600 28.02200
C  14.30400 0.82900 29.39700
C  15.10400 -0.24700 29.81100
C  13.26100 1.66500 27.19300
C  13.93200 1.50200 30.64800
O  13.17800 2.39700 30.86500
C  14.77000 0.85400 31.80300
C  15.63100 1.91800 32.34300
O  16.62400 2.48200 31.87100
O  15.13000 2.17300 33.57600
C  15.68000 3.28100 34.32500
H  18.98600 -4.72300 32.16500
H  18.46300 -5.18700 25.72400
H  14.57700 -0.29600 25.45300
H  17.33300 -0.27600 33.52200
H  17.81600 -3.18500 33.94500
H  19.74700 -2.36500 34.58100
H  19.53500 -0.81300 33.88200
H  20.18000 -1.95600 32.74400
H  15.58900 -2.55700 34.32300
H  14.83100 -1.37200 33.57300
H  15.11700 -1.31600 36.30300
H  14.89600 0.10300 35.28200
H  20.41600 -6.02700 31.69800
H  21.30400 -6.59900 30.40000
H  19.92400 -7.57000 30.86900
H  20.94500 -8.35200 28.71900
H  22.20000 -7.39600 27.82900
H  21.17100 -8.58400 26.98400
H  16.85200 -4.19000 23.94900
H  16.21900 -1.36300 23.77800
H  18.58400 -1.65300 24.14700
H  18.38800 -2.71000 22.77300
H  19.24700 -3.32200 24.06300
H  13.68400 -2.70200 24.08500
H  14.66500 -3.91300 23.41600
H  15.12800 -1.47900 21.99600
H  13.52200 -1.77500 22.01400
H  14.35700 -3.10600 21.39600
H  12.88000 1.33200 26.22700
H  13.87800 2.54900 27.03000
H  12.37900 1.89200 27.79100
H  14.08000 0.49200 32.56600
H  16.71700 3.49300 34.06600
H  15.70200 3.02600 35.38400
H  14.97900 4.09800 34.15400
Mg -11.40700 16.32400 41.85000
C  -8.49800 14.42100 41.40700
C  -9.83800 18.84800 40.09200
C  -14.44200 17.88300 41.33200
C  -13.04900 13.49400 42.98900
N  -9.36600 16.50200 40.66400
C  -8.34300 15.64500 40.75100
C  -7.01300 16.26100 40.25600
C  -7.47100 17.75000 39.98200
C  -8.98300 17.71300 40.27400
C  -6.67300 18.85000 40.84200
C  -6.54100 15.50000 38.93700
C  -5.07000 15.24000 38.78800
H  -4.29000 15.81200 37.53300
N  -11.96100 18.20500 40.98000
C  -11.15800 19.12100 40.38600
C  -11.91300 20.27800 40.07200
C  -13.28200 20.01600 40.38400
C  -13.26500 18.70200 40.97700
C  -11.27900 21.46600 39.46400
C  -14.45600 20.94900 40.05400
O  -14.29700 22.09500 39.60400
C  -16.00300 20.58000 40.39000
N  -13.43000 15.77000 42.11100
C  -14.51500 16.57900 41.83900
C  -15.85700 15.87300 42.09200
C  -15.36800 14.69800 43.00000
C  -13.84100 14.62000 42.70400
C  -16.91500 16.74900 42.75800
C  -16.17600 13.39300 42.78000
C  -16.63900 12.67300 44.09700
N  -10.94200 14.39300 42.21900
C  -11.66600 13.35600 42.71800
C  -10.82600 12.11300 42.91300
C  -9.61300 12.54400 42.37000
C  -9.69400 13.85600 41.94900
C  -11.25200 10.78100 43.46900
C  -8.27100 12.11200 42.24200
O  -7.69500 11.09500 42.63800
C  -7.43300 13.27000 41.54100
C  -6.25900 13.70700 42.27500
O  -6.23000 14.00700 43.46600
O  -5.15000 13.78200 41.39400
C  -3.94900 14.33300 42.04400
H  -9.24400 19.68300 39.71400
H  -15.43100 18.27100 41.07700
H  -13.46900 12.60000 43.45700
H  -6.27000 16.42300 41.03700
H  -7.36300 17.98300 38.92300
H  -7.19000 18.85900 41.80100
H  -6.77000 19.80900 40.33400
H  -5.64100 18.50700 40.90900
H  -6.91300 16.05500 38.07600
H  -7.16000 14.61400 38.79800
H  -4.97500 14.15700 38.70300
H  -4.44700 15.64300 39.58600
H  -11.94300 21.90600 38.72000
H  -10.40700 21.39300 38.81400
H  -11.18800 22.19200 40.27200
H  -16.67800 21.42400 40.24900
H  -15.99500 20.31800 41.44800
H  -16.27600 19.81700 39.66100
H  -16.27700 15.42400 41.19200
H  -15.41500 14.93900 44.06200
H  -16.60500 17.78200 42.91300
H  -17.20500 16.40900 43.75200
H  -17.78200 16.70700 42.10000
H  -15.48300 12.75800 42.22800
H  -17.01500 13.60900 42.11900
H  -16.17000 11.69200 44.01700
H  -17.70800 12.72400 44.29900
H  -16.08700 13.09700 44.93600
H  -11.75200 10.91600 44.42800
H  -10.42100 10.11400 43.69800
H  -12.01300 10.33100 42.83100
H  -7.22600 13.03400 40.49700
H  -4.04500 15.41300 41.94000
H  -3.06400 13.94200 41.54200
H  -3.93600 13.94100 43.06100

