158

Mg 9.12100 3.66400 27.89200
C  10.62700 2.23700 30.77500
C  7.35000 5.74000 29.97900
C  7.82100 4.98700 25.28000
C  10.77400 1.22900 25.93100
N  8.84000 3.72800 30.18200
C  9.63400 3.17200 31.18100
C  9.46100 3.86000 32.56200
C  8.30400 4.86900 32.22200
C  8.17900 4.80100 30.68200
C  6.92500 4.77600 32.97800
C  10.75500 4.65300 33.08100
C  11.33800 4.09300 34.47400
H  11.71400 5.20900 35.49200
N  7.74000 5.19900 27.65600
C  7.10000 5.93300 28.61100
C  6.18800 6.86200 27.96700
C  6.28100 6.68400 26.57200
C  7.34000 5.59300 26.45000
C  5.32500 7.78500 28.82400
C  5.62200 7.30500 25.35200
O  5.95900 6.97000 24.20700
C  4.45200 8.28000 25.58800
N  9.43300 3.22500 25.81600
C  8.59500 3.89400 24.96700
C  8.82600 3.32300 23.49100
C  9.75400 2.08000 23.76800
C  10.04800 2.21300 25.26900
C  7.46300 2.88700 22.79400
C  11.04300 2.20200 22.97100
C  11.26100 1.03200 21.94900
N  10.32700 2.00200 28.18800
C  10.96100 1.14100 27.29100
C  11.85800 0.35100 28.04300
C  11.71600 0.78900 29.35800
C  10.79500 1.76000 29.45300
C  12.56500 -0.82800 27.48400
C  12.30000 0.48800 30.67200
O  13.05000 -0.36600 31.08100
C  11.57300 1.49100 31.65700
C  10.77400 0.64000 32.65700
O  9.80600 -0.08400 32.52100
O  11.37900 0.96300 33.86700
C  10.63300 0.42400 35.00100
H  6.95800 6.55600 30.59000
H  7.40300 5.42800 24.37300
H  11.27500 0.50700 25.28400
H  9.24800 3.04200 33.25100
H  8.51400 5.90600 32.48400
H  6.03600 4.80100 32.34700
H  6.88600 5.53700 33.75700
H  6.99200 3.80600 33.47200
H  10.64800 5.72500 33.24900
H  11.56200 4.44100 32.38000
H  12.20200 3.46000 34.27500
H  10.56900 3.47600 34.94100
H  5.80000 8.76600 28.82900
H  5.23800 7.41500 29.84600
H  4.35900 7.85100 28.32300
H  3.63900 7.94500 26.23200
H  4.05800 8.56800 24.61300
H  4.91500 9.12200 26.10300
H  9.26200 4.06800 22.82500
H  9.17500 1.17600 23.58300
H  6.61000 2.93100 23.47200
H  7.53300 1.85400 22.45200
H  7.24400 3.48200 21.90800
H  11.87600 2.32300 23.66400
H  10.94900 3.10500 22.36800
H  11.39200 1.45300 20.95200
H  10.32600 0.48600 21.82400
H  11.98100 0.23300 22.12600
H  13.61200 -0.83100 27.78700
H  12.44900 -0.93200 26.40600
H  12.14000 -1.75600 27.86700
H  12.26600 2.10600 32.23200
H  10.27900 -0.59000 34.81700
H  9.76700 1.03100 35.26400
H  11.31300 0.32500 35.84800
Mg 30.08600 58.91100 40.13100
C  27.45000 57.00700 39.11300
C  32.29700 56.44100 38.89200
C  32.89400 61.10200 40.23800
C  27.99500 61.57700 40.93900
N  29.89400 56.97600 39.00200
C  28.66000 56.37500 38.77300
C  28.88100 55.08600 37.98300
C  30.37200 54.76900 38.39800
C  30.93100 56.19000 38.66000
C  30.51500 53.88100 39.67800
C  28.67900 55.38100 36.47900
C  27.55200 54.56800 35.84000
H  26.89300 55.16300 34.62300
N  32.28500 58.75900 39.76700
C  32.90400 57.60600 39.27700
C  34.27000 57.80200 39.28100
C  34.56600 59.13400 39.65000
C  33.22800 59.75800 39.91500
C  35.27200 56.78100 38.87000
C  35.99900 59.67500 39.83800
O  36.96800 59.05000 39.61400
C  36.11900 61.05100 40.50800
N  30.41500 61.09300 40.37000
C  31.65300 61.69100 40.50500
C  31.50600 63.21500 41.04900
C  29.90200 63.27200 41.25800
C  29.39600 61.87000 40.84900
C  32.34500 63.58600 42.33400
C  29.12200 64.42700 40.41300
C  28.27000 65.43800 41.27500
N  28.12300 59.28400 40.12700
C  27.34000 60.38500 40.50600
C  25.95500 60.10800 40.35600
C  25.93000 58.76000 39.81900
C  27.23300 58.29900 39.66900
C  24.81200 61.05100 40.60800
C  25.07900 57.66500 39.39500
O  23.86100 57.64800 39.38800
C  25.99300 56.49700 38.94500
C  25.75500 55.43700 39.86300
O  26.21300 55.35100 40.97200
O  24.99000 54.59600 39.17800
C  24.26300 53.43800 39.86700
H  32.83700 55.52800 38.63400
H  33.79700 61.71500 40.20200
H  27.25900 62.32800 41.23400
H  28.20100 54.28700 38.27600
H  30.92800 54.28800 37.59200
H  31.01100 54.47300 40.44600
H  31.14000 52.98800 39.64900
H  29.48400 53.64900 39.94700
H  29.60400 55.11500 35.96600
H  28.48200 56.43600 36.29000
H  26.82100 54.33700 36.61600
H  28.05500 53.71200 35.38900
H  35.68100 57.11200 37.91500
H  34.87400 55.83900 38.49400
H  36.07500 56.77800 39.60600
H  35.55600 61.33200 41.39800
H  35.78000 61.86600 39.86800
H  37.18300 61.11700 40.73400
H  31.80400 63.99300 40.34500
H  29.57800 63.37500 42.29300
H  33.29500 63.05800 42.41900
H  31.75400 63.35600 43.22100
H  32.62000 64.64100 42.32400
H  28.36300 63.95400 39.79000
H  29.72000 64.97800 39.68700
H  27.20300 65.23200 41.18500
H  28.41600 66.44200 40.87700
H  28.64400 65.30100 42.28900
H  25.07400 61.98600 40.11400
H  24.73900 61.27900 41.67100
H  23.90500 60.57800 40.23100
H  25.83600 56.25000 37.89500
H  24.76400 53.31900 40.82700
H  24.47500 52.56600 39.24800
H  23.17900 53.53500 39.93000

