158

Mg 41.70000 40.97200 26.86000
C  41.03300 43.43100 29.36500
C  42.84400 39.01700 29.33600
C  42.66200 38.90400 24.39300
C  40.91600 43.45700 24.45400
N  41.95000 41.23500 29.13300
C  41.47100 42.25400 29.90700
C  41.43300 41.93200 31.44400
C  42.08000 40.47400 31.42300
C  42.38400 40.20800 29.88300
C  43.40400 40.22200 32.16300
C  40.00600 41.95000 32.08100
C  39.90300 42.80800 33.34800
H  38.95400 42.52600 34.50900
N  42.59800 39.17200 26.89400
C  43.00900 38.57400 27.99500
C  43.47400 37.24600 27.65300
C  43.43000 37.10300 26.23900
C  42.95400 38.42800 25.75900
C  43.78400 36.11200 28.70200
C  43.65700 35.94000 25.35000
O  43.44100 36.03100 24.12200
C  44.17700 34.63300 25.92200
N  41.81800 41.16900 24.82200
C  42.16500 40.13600 23.98400
C  41.97600 40.49000 22.50300
C  41.20000 41.81100 22.57300
C  41.33300 42.24300 24.05400
C  43.33000 40.75800 21.77600
C  39.73800 41.75000 22.08700
C  38.70700 41.04000 23.02200
N  41.05900 42.96900 26.73600
C  40.88700 43.88800 25.76200
C  40.49700 45.16500 26.30500
C  40.51400 44.98900 27.65800
C  40.91200 43.66400 27.93400
C  39.99900 46.29700 25.59100
C  40.27000 45.68200 28.95800
O  39.99800 46.81000 29.18000
C  40.59700 44.69900 30.03100
C  41.60000 45.27500 31.06600
O  42.78600 45.22100 31.09700
O  40.89800 45.80800 32.15500
C  41.81200 46.55600 33.05700
H  43.06500 38.27000 30.10200
H  42.87500 38.21000 23.57700
H  40.54500 44.06800 23.62800
H  42.13700 42.63300 31.89400
H  41.37600 39.73200 31.80100
H  44.20000 40.02200 31.44600
H  43.21900 39.46900 32.93000
H  43.77000 41.12700 32.64700
H  39.64200 40.94700 32.30700
H  39.29200 42.30800 31.34000
H  39.61700 43.84700 33.18200
H  40.92100 42.86100 33.73600
H  42.80500 35.68500 28.91900
H  44.08000 36.61100 29.62400
H  44.50100 35.33600 28.43200
H  45.24100 34.75400 26.12600
H  44.01700 33.99500 25.05200
H  43.57300 34.28100 26.75900
H  41.40500 39.70600 22.00500
H  41.59400 42.68700 22.05700
H  44.16300 40.63400 22.46800
H  43.41700 41.79800 21.46100
H  43.50200 40.00400 21.00800
H  39.64700 41.24000 21.12800
H  39.46900 42.80400 22.02500
H  39.04200 40.85000 24.04200
H  38.34600 40.06200 22.70400
H  37.81900 41.66300 22.91200
H  39.52200 45.91500 24.68900
H  40.74900 47.06400 25.40000
H  39.31000 46.73000 26.31600
H  39.71800 44.70200 30.67500
H  42.58100 47.09500 32.50400
H  42.39300 45.91800 33.72300
H  41.22900 47.30300 33.59700
Mg 26.25300 51.00400 26.23400
C  24.42900 52.21300 28.99700
C  28.77300 50.30400 28.38900
C  27.90200 49.74000 23.63700
C  23.78800 52.26300 24.08600
N  26.68200 51.32300 28.48000
C  25.69400 51.61700 29.36500
C  26.23300 51.34100 30.79200
C  27.80700 51.10500 30.60400
C  27.74300 50.84200 29.14600
C  28.71700 52.30800 31.01900
C  25.46800 50.22000 31.58600
C  24.91200 50.49300 32.99500
H  25.82800 50.46000 34.20200
N  28.15300 50.11900 26.00300
C  29.07700 50.02300 27.04100
C  30.30100 49.43300 26.43400
C  30.02900 49.22600 25.07800
C  28.67100 49.68800 24.83400
C  31.41900 48.95200 27.26700
C  30.86400 48.53600 23.99900
O  30.61100 48.67600 22.79600
C  32.06800 47.79100 24.35700
N  25.92500 51.09500 24.17400
C  26.75200 50.39000 23.34600
C  26.17800 50.40800 21.90200
C  24.79600 51.09600 22.08600
C  24.80600 51.48500 23.53800
C  27.08200 51.03000 20.79500
C  23.62300 50.25500 21.61000
C  23.18400 48.97200 22.44200
N  24.54300 52.07300 26.45100
C  23.62900 52.47100 25.46400
C  22.51300 53.05500 26.06700
C  22.71000 52.99900 27.45100
C  24.01400 52.41900 27.68600
C  21.38200 53.59100 25.35200
C  22.21700 53.25100 28.77500
O  21.11900 53.67100 29.12600
C  23.30300 52.69200 29.82600
C  23.59700 53.79900 30.77000
O  24.40400 54.64800 30.51000
O  22.84300 53.80600 31.90700
C  23.27000 54.82000 32.87500
H  29.47000 49.93600 29.14500
H  28.41600 49.30700 22.77600
H  22.96800 52.66700 23.48800
H  26.17500 52.26600 31.36500
H  28.21400 50.22200 31.09700
H  29.37700 51.85600 31.76000
H  28.09100 53.05300 31.51100
H  29.25800 52.86300 30.25300
H  26.16500 49.39200 31.71200
H  24.66700 49.85100 30.94600
H  24.12500 49.76200 33.17900
H  24.44800 51.45600 32.77800
H  31.31500 48.88900 28.35000
H  32.21700 49.68600 27.15200
H  31.73000 47.94400 26.99400
H  32.76000 48.53400 24.75300
H  32.55500 47.45000 23.44300
H  31.92100 46.98100 25.07100
H  26.06100 49.35500 21.64600
H  24.80700 51.92800 21.38200
H  26.76900 52.05200 20.58300
H  26.98600 50.38800 19.91900
H  28.11400 50.96100 21.13900
H  23.78300 49.96200 20.57300
H  22.69800 50.83100 21.63500
H  23.48500 48.14300 21.80200
H  22.11100 49.05700 22.61100
H  23.74500 49.09300 23.36900
H  20.76300 52.75300 25.03300
H  21.64500 54.32900 24.59500
H  20.87900 54.16100 26.13400
H  22.87000 51.95700 30.50400
H  22.36900 54.86300 33.48700
H  23.42900 55.79100 32.40500
H  24.16900 54.50900 33.40600

