158

Mg 41.39500 41.92900 26.14300
C  40.73800 44.22900 28.63700
C  42.44800 39.65700 28.56100
C  42.63700 39.98500 23.69400
C  40.60200 44.46500 23.80200
N  41.41600 41.86300 28.32800
C  41.13900 42.97400 29.10600
C  41.28100 42.69100 30.61600
C  41.84700 41.21100 30.53500
C  41.88100 40.83800 29.07500
C  43.14400 40.93300 31.34800
C  39.97400 42.73800 31.53100
C  40.24400 43.27000 32.99300
H  40.20500 42.29800 34.10500
N  42.33100 40.00300 26.14800
C  42.70200 39.23400 27.25300
C  43.29100 38.02700 26.76500
C  43.39700 38.11400 25.33100
C  42.81200 39.41800 24.98000
C  43.88700 36.95800 27.63200
C  44.16800 37.17400 24.35000
O  44.36200 37.42900 23.15500
C  44.80300 35.87400 24.83600
N  41.67900 42.20600 24.09800
C  42.17200 41.24700 23.24400
C  42.01200 41.59100 21.76300
C  41.24100 42.99700 21.84000
C  41.12700 43.27200 23.34300
C  43.27100 41.58200 20.89000
C  39.82000 43.12100 21.23500
C  39.42900 44.41600 20.50400
N  40.71900 43.90700 26.14300
C  40.42800 44.76600 25.16700
C  40.09200 46.06700 25.72600
C  40.07200 45.89000 27.10100
C  40.53000 44.57800 27.32600
C  39.87000 47.39800 25.02500
C  39.89400 46.56100 28.44400
O  39.56700 47.69200 28.72300
C  40.29500 45.48100 29.50500
C  41.27300 45.99800 30.34200
O  42.43000 46.03100 30.07000
O  40.70000 46.25500 31.59200
C  41.64200 46.85000 32.54700
H  42.69100 38.95600 29.36200
H  42.94600 39.33700 22.87100
H  40.23000 45.20500 23.09100
H  42.05200 43.39500 30.92900
H  41.05900 40.50400 30.79600
H  43.32500 41.69900 32.10200
H  44.09700 40.84300 30.82600
H  43.14200 40.05800 31.99800
H  39.56500 41.73300 31.63800
H  39.12600 43.21100 31.03600
H  39.51300 44.06500 33.14100
H  41.20600 43.76200 32.84700
H  44.93900 37.21400 27.76000
H  43.78900 36.01700 27.09100
H  43.34600 36.99500 28.57800
H  45.45200 35.98800 25.70500
H  45.49200 35.49800 24.08000
H  44.07400 35.13600 25.17100
H  41.42100 40.80900 21.28500
H  41.86600 43.80700 21.46500
H  44.12600 41.39600 21.54100
H  43.40300 42.48700 20.29600
H  43.23100 40.70800 20.24000
H  39.08700 43.12600 22.04200
H  39.69600 42.37800 20.44700
H  38.44900 44.71100 20.87800
H  39.29900 44.25900 19.43300
H  40.19800 45.17800 20.62800
H  38.89200 47.35800 24.54500
H  40.71900 47.52200 24.35300
H  39.81500 48.21600 25.74300
H  39.44600 45.19100 30.12500
H  42.15700 46.03100 33.04900
H  41.08300 47.39400 33.30800
H  42.39000 47.58400 32.24500
Mg 5.58900 55.32300 40.50000
C  5.04100 51.79400 40.47100
C  8.92100 54.62000 39.52100
C  6.03900 58.57600 39.93300
C  2.20800 55.80100 41.15900
N  6.72700 53.38500 39.96700
C  6.33300 52.11500 39.90700
C  7.36200 51.20200 39.42500
C  8.66900 52.05200 39.52000
C  8.09800 53.49800 39.64900
C  9.63400 51.69800 40.70000
C  7.09500 50.61300 37.96300
C  5.98000 51.15500 37.05400
H  6.39700 52.04400 35.84700
N  7.33000 56.48800 39.89000
C  8.55900 56.02000 39.65100
C  9.45400 57.19900 39.36500
C  8.68300 58.36500 39.54800
C  7.27700 57.86800 39.79100
C  10.90200 56.97400 38.96300
C  9.14500 59.81700 39.48000
O  10.35100 60.06300 39.41400
C  8.18400 61.01200 39.54800
N  4.23200 56.85200 40.31100
C  4.75100 58.14800 40.24500
C  3.62700 59.22300 40.41800
C  2.36000 58.30200 40.70800
C  2.94200 56.89300 40.77900
C  3.87100 60.21900 41.51600
C  1.22200 58.30200 39.55200
C  -0.25800 58.44200 39.99600
N  3.93400 54.06000 40.83100
C  2.64300 54.38000 41.19900
C  1.92300 53.23100 41.67600
C  2.84900 52.18500 41.33900
C  4.01600 52.67900 40.75700
C  0.52500 53.14600 42.11000
C  2.95700 50.81100 41.38200
O  2.13300 49.98000 41.68100
C  4.41500 50.45800 40.75600
C  4.28000 49.52900 39.65600
O  3.91500 49.86100 38.56500
O  4.67100 48.26000 39.98200
C  4.65400 47.31900 38.86000
H  9.97300 54.40000 39.32600
H  5.97800 59.66400 39.85700
H  1.26400 56.21100 41.52300
H  7.35000 50.32800 40.07700
H  9.28200 52.11900 38.62100
H  9.74000 50.61300 40.67600
H  9.27300 52.19600 41.59900
H  10.61500 52.15800 40.58100
H  6.90000 49.54900 38.10200
H  8.08800 50.45800 37.54100
H  5.23900 51.63300 37.69500
H  5.39900 50.31900 36.66500
H  11.52300 57.86900 38.91800
H  10.87400 56.46500 38.00000
H  11.43500 56.22600 39.55000
H  8.70900 61.96500 39.60600
H  7.62300 61.03500 40.48300
H  7.44900 60.94200 38.74600
H  3.61100 59.72500 39.45100
H  1.92300 58.61800 41.65600
H  2.90000 60.52200 41.90800
H  4.41900 61.04500 41.06500
H  4.43200 59.64000 42.25000
H  1.21000 57.44000 38.88500
H  1.53000 59.11200 38.89100
H  -0.36000 59.03800 40.90300
H  -0.69200 57.45400 40.15100
H  -0.83600 58.86400 39.17400
H  0.52900 52.94700 43.18100
H  0.06400 52.34100 41.53800
H  0.06500 54.12800 41.99500
H  5.01700 49.94300 41.50400
H  4.06600 46.46100 39.18500
H  5.60300 46.79500 38.74500
H  4.15900 47.55300 37.91700

