158

Mg 54.60800 24.04800 44.46100
C  51.94800 26.22400 43.35900
C  52.83400 21.42400 42.69800
C  57.28600 22.12200 44.76300
C  56.36400 26.97100 45.33300
N  52.62800 23.87700 43.13100
C  51.71000 24.88200 42.91900
C  50.43800 24.39100 42.18600
C  50.63800 22.82300 42.39000
C  52.10900 22.68100 42.73600
C  49.80900 21.97900 43.45700
C  50.22900 24.67900 40.70200
C  51.49800 24.61200 39.84300
H  51.40400 25.36600 38.52900
N  54.98500 22.05300 43.87700
C  54.13300 21.14300 43.18000
C  54.87500 19.95700 43.06500
C  56.12400 20.10900 43.78800
C  56.20500 21.51000 44.16600
C  54.30200 18.73500 42.39100
C  57.04100 18.87800 44.07700
O  56.88700 17.76200 43.52000
C  58.17100 19.04900 45.06700
N  56.57300 24.52100 44.80200
C  57.50700 23.51700 44.98000
C  58.83200 24.10600 45.49700
C  58.53500 25.70400 45.40000
C  57.10600 25.74600 45.17300
C  59.26500 23.59400 46.95700
C  59.26700 26.51500 44.27100
C  59.99200 27.81600 44.61000
N  54.23800 26.05200 44.58800
C  55.02200 27.13600 45.03700
C  54.23800 28.36400 45.00200
C  53.02000 28.01600 44.34700
C  53.10200 26.64000 44.10300
C  54.62500 29.71800 45.55300
C  51.70700 28.55700 43.98100
O  51.27900 29.68200 44.10900
C  50.98800 27.40600 43.26000
C  50.50300 27.91100 41.89700
O  51.06700 28.59400 41.08800
O  49.13900 27.57100 41.80300
C  48.57600 28.21000 40.59800
H  52.23200 20.64000 42.23200
H  58.13000 21.44300 44.90100
H  56.85300 27.87900 45.69100
H  49.53100 24.68900 42.71200
H  50.51500 22.37900 41.40200
H  49.02300 22.55400 43.94700
H  50.40800 21.75900 44.34100
H  49.47000 21.01400 43.08100
H  49.76300 25.65300 40.54900
H  49.54600 23.99100 40.20300
H  51.74800 23.56500 39.67300
H  52.23100 25.21700 40.37600
H  53.34200 18.87400 41.89600
H  54.05000 18.09100 43.23400
H  55.04500 18.25300 41.75600
H  58.03200 19.75600 45.88500
H  58.96500 19.35600 44.38600
H  58.33400 18.07200 45.52200
H  59.62500 23.78800 44.82100
H  58.81200 26.00800 46.40900
H  59.43800 24.48800 47.55700
H  60.22200 23.07400 46.90600
H  58.43500 23.08300 47.44400
H  58.59000 26.72100 43.44200
H  59.95500 25.80400 43.81200
H  59.43500 28.72100 44.36900
H  61.00400 27.93800 44.22100
H  60.12500 27.84400 45.69200
H  54.46900 30.47100 44.78100
H  55.67700 29.66700 45.83100
H  54.07000 29.90500 46.47200
H  50.08400 27.15200 43.81500
H  48.55500 29.29900 40.56900
H  47.55200 27.85600 40.47300
H  49.10100 27.84300 39.71600
Mg -5.82200 26.03100 26.19100
C  -3.91900 27.44300 28.83700
C  -7.21000 23.94800 28.49600
C  -7.32000 24.55500 23.69500
C  -4.29100 28.30700 24.04500
N  -5.49100 25.69500 28.32400
C  -4.66400 26.40500 29.23300
C  -5.07700 26.04400 30.71400
C  -5.76900 24.69000 30.47800
C  -6.21800 24.78200 28.98400
C  -4.93300 23.38900 30.69300
C  -5.96300 27.10100 31.48200
C  -5.87300 27.13200 33.00900
H  -5.03500 26.13400 33.81200
N  -7.08700 24.41200 26.09800
C  -7.61100 23.72200 27.15900
C  -8.68600 22.87100 26.64600
C  -8.65800 22.87800 25.21300
C  -7.70000 23.95100 24.94200
C  -9.58900 22.04800 27.60100
C  -9.48400 22.15300 24.19200
O  -9.31700 22.27100 22.97700
C  -10.63700 21.37400 24.61600
N  -5.73600 26.35000 24.12400
C  -6.45000 25.60800 23.23600
C  -6.37800 26.15700 21.78400
C  -5.65700 27.54500 21.98600
C  -5.18300 27.36800 23.46400
C  -5.66400 25.15800 20.86600
C  -6.63200 28.80400 21.96400
C  -6.24900 29.83500 20.97700
N  -4.31400 27.58000 26.32800
C  -3.84200 28.39000 25.39000
C  -3.02700 29.39800 25.96600
C  -2.92500 29.03100 27.35500
C  -3.79000 27.89800 27.47500
C  -2.34700 30.53200 25.27200
C  -2.34100 29.41400 28.60600
O  -1.55200 30.33500 28.90600
C  -2.99200 28.38300 29.61700
C  -1.87400 27.74800 30.35900
O  -0.75200 27.56400 29.90600
O  -2.27000 27.64900 31.65200
C  -1.17800 27.32400 32.58200
H  -7.68700 23.19800 29.13100
H  -7.80200 24.08800 22.83300
H  -4.00800 29.15400 23.41600
H  -4.17200 25.91600 31.30800
H  -6.66500 24.65800 31.09700
H  -4.90500 22.87200 29.73400
H  -5.48000 22.89500 31.49500
H  -3.96100 23.62200 31.13000
H  -7.00200 26.98600 31.17400
H  -5.60400 28.10300 31.24600
H  -6.88700 27.00600 33.38800
H  -5.50000 28.11800 33.28600
H  -9.51600 20.97400 27.42800
H  -10.61700 22.26100 27.31000
H  -9.48000 22.30800 28.65400
H  -11.01600 20.66400 23.88100
H  -11.43200 22.02400 24.98300
H  -10.33600 20.89500 25.54700
H  -7.42700 26.22300 21.49300
H  -4.81700 27.70200 21.31000
H  -6.20000 24.23900 20.62800
H  -4.74600 24.76200 21.30100
H  -5.38300 25.72000 19.97600
H  -6.52900 29.32900 22.91300
H  -7.66400 28.47000 21.85300
H  -5.76100 29.42200 20.09400
H  -5.66600 30.59800 21.49300
H  -7.11100 30.36100 20.56800
H  -3.00900 31.27500 24.82800
H  -1.58100 30.22200 24.56200
H  -1.86200 31.04200 26.10600
H  -3.52800 29.07000 30.27200
H  -0.29400 27.90900 32.32700
H  -0.94300 26.26000 32.61700
H  -1.58900 27.47500 33.58000

