158

Mg 26.43100 -1.55900 29.58300
C  28.49900 -1.41600 32.40300
C  23.68500 -1.27300 31.55400
C  24.37900 -1.73400 26.78200
C  29.20700 -2.34900 27.66900
N  26.11700 -1.50100 31.80900
C  27.10000 -1.26700 32.71400
C  26.55800 -0.83100 34.07000
C  24.98100 -0.82400 33.77200
C  24.90000 -1.30900 32.32500
C  24.12900 -1.72900 34.72400
C  27.00300 0.52600 34.66600
C  27.86200 0.40600 35.89100
H  27.66500 1.38800 37.02300
N  24.31900 -1.53300 29.20200
C  23.34900 -1.32700 30.21500
C  22.06200 -1.29600 29.60100
C  22.25200 -1.32000 28.20300
C  23.63400 -1.60800 28.00100
C  20.78000 -1.32000 30.39600
C  21.18600 -1.23400 27.03900
O  21.41500 -1.48500 25.84300
C  19.75500 -0.96700 27.39200
N  26.74100 -1.88500 27.60600
C  25.69500 -1.98000 26.62400
C  26.36000 -2.11500 25.18900
C  27.85200 -2.25400 25.50700
C  27.95200 -2.13300 27.02800
C  25.72600 -3.31700 24.35400
C  28.82300 -1.34300 24.67500
C  29.00200 0.14400 25.18100
N  28.44200 -1.82300 29.92500
C  29.46800 -2.13900 29.07400
C  30.73400 -2.17900 29.79500
C  30.33100 -1.82500 31.08500
C  28.98000 -1.66200 31.12800
C  32.03500 -2.46700 29.18500
C  30.89400 -1.75000 32.36600
O  32.02600 -1.88400 32.81500
C  29.68400 -1.44800 33.34900
C  29.66200 -2.42300 34.49000
O  29.11000 -3.51200 34.50200
O  30.22000 -1.88500 35.60600
C  30.21900 -2.78600 36.77100
H  22.79300 -1.04600 32.14200
H  23.78800 -1.88800 25.87700
H  30.02100 -2.54700 26.96900
H  26.82400 -1.67000 34.71300
H  24.66900 0.21900 33.72600
H  23.26600 -1.12300 34.99800
H  24.64800 -2.12400 35.59800
H  23.70800 -2.55200 34.14500
H  26.11000 1.14500 34.75600
H  27.69500 0.90800 33.91600
H  28.90700 0.53100 35.60600
H  27.72400 -0.57600 36.34300
H  20.37800 -0.30900 30.46100
H  20.98200 -1.56900 31.43700
H  20.16000 -2.05900 29.88900
H  19.23700 -1.89000 27.65200
H  19.17500 -0.59800 26.54600
H  19.77500 -0.20600 28.17200
H  26.13500 -1.14700 24.74100
H  28.21400 -3.27600 25.39900
H  26.39800 -4.17500 24.38200
H  25.67800 -3.14400 23.27900
H  24.72300 -3.64800 24.62400
H  28.42600 -1.20700 23.67000
H  29.82800 -1.72100 24.48700
H  30.06700 0.37300 25.19000
H  28.67400 0.22600 26.21700
H  28.51300 0.84000 24.49900
H  31.81800 -2.60600 28.12600
H  32.53900 -3.27000 29.72300
H  32.49200 -1.49700 29.38000
H  29.79300 -0.47900 33.83600
H  29.21400 -3.04700 37.10200
H  30.76400 -2.23800 37.53900
H  30.76200 -3.69400 36.50800
Mg 36.10300 0.38300 30.41200
C  33.62500 1.55800 32.64200
C  38.43800 0.82700 32.77600
C  38.27200 -0.16400 28.07100
C  33.49300 0.71400 27.81400
N  36.04700 1.21000 32.41200
C  34.93000 1.39600 33.21200
C  35.24700 1.39200 34.73700
C  36.81800 1.67500 34.62800
C  37.15900 1.13800 33.22100
C  37.13600 3.20700 34.94500
C  34.89400 0.05400 35.48600
C  34.21200 0.15500 36.83500
H  34.22900 1.41100 37.81300
N  38.09500 0.29300 30.46300
C  38.89500 0.44700 31.48200
C  40.23100 0.08100 31.04000
C  40.23300 -0.29700 29.70000
C  38.83500 -0.09100 29.32400
C  41.34000 0.09900 32.06100
C  41.35000 -0.69500 28.84300
O  41.21100 -1.08300 27.70900
C  42.70500 -0.84200 29.45000
N  35.88100 0.60900 28.23400
C  36.98000 0.12500 27.58500
C  36.72900 0.07400 26.13400
C  35.19200 0.27000 25.96100
C  34.80400 0.52800 27.39100
C  37.57800 0.91000 25.21800
C  34.48200 -0.89200 25.20300
C  33.98400 -2.07000 26.03300
N  34.01300 0.96900 30.21700
C  33.11500 1.02500 29.13300
C  31.80500 1.24300 29.56700
C  32.00600 1.52200 30.93500
C  33.30600 1.30200 31.27400
C  30.48900 1.30700 28.78600
C  31.26300 1.95400 32.10900
O  30.08000 2.29600 32.16200
C  32.28800 1.85000 33.39200
C  32.30200 3.12800 34.21500
O  33.03600 4.09000 34.04900
O  31.34600 2.96600 35.23400
C  31.13000 4.14200 36.09600
H  39.14100 0.77700 33.61000
H  39.02400 -0.41700 27.32100
H  32.72600 0.64700 27.03900
H  34.74400 2.14600 35.34300
H  37.33200 1.04800 35.35700
H  37.02700 3.76600 34.01600
H  38.17800 3.27200 35.25800
H  36.49900 3.63500 35.71900
H  35.65700 -0.72400 35.46700
H  34.11000 -0.37600 34.86400
H  34.68500 -0.64200 37.40900
H  33.15000 -0.05900 36.71500
H  42.30300 0.38800 31.64000
H  41.55100 -0.87700 32.49800
H  41.08700 0.73600 32.90800
H  42.63600 -1.41100 30.37700
H  43.07500 0.17900 29.54000
H  43.35300 -1.46300 28.83200
H  37.19800 -0.88900 25.93000
H  35.01600 1.21900 25.45400
H  38.50000 1.22000 25.71000
H  37.03300 1.78800 24.87000
H  37.83200 0.33800 24.32600
H  35.18400 -1.27400 24.46200
H  33.69400 -0.37700 24.65300
H  34.31400 -1.94400 27.06400
H  34.44300 -2.96700 25.61800
H  32.92500 -2.30400 25.92100
H  30.48300 0.45500 28.10600
H  30.57500 2.22700 28.20800
H  29.60900 1.27100 29.42900
H  32.00300 0.99400 34.00400
H  31.33000 3.80400 37.11300
H  30.06200 4.35200 36.15200
H  31.76700 5.00700 35.91200

