158

Mg 24.11900 -6.25900 45.27000
C  26.31600 -3.86400 43.93300
C  21.55900 -4.91100 43.49300
C  22.34600 -9.00600 46.04100
C  27.09300 -7.72600 46.71400
N  24.03300 -4.70100 43.88400
C  24.99700 -3.75100 43.44400
C  24.38800 -2.68700 42.51400
C  22.90600 -3.00500 42.62400
C  22.81000 -4.26100 43.39600
C  22.08600 -1.85700 43.35400
C  25.07700 -2.77000 41.06900
C  25.61400 -1.48800 40.30100
H  25.05500 -1.39700 38.86600
N  22.13300 -6.80900 44.98000
C  21.25900 -6.15900 44.17000
C  20.11500 -6.94400 43.99400
C  20.20900 -8.11200 44.79000
C  21.59000 -7.98400 45.29700
C  18.92400 -6.59500 43.21500
C  19.14800 -9.18300 45.05500
O  17.99300 -8.86400 44.67700
C  19.37300 -10.41100 45.77400
N  24.66200 -8.08100 46.06200
C  23.70200 -9.08700 46.25400
C  24.33600 -10.37400 46.78500
C  25.77100 -9.89800 47.17300
C  25.87600 -8.43600 46.63800
C  23.54500 -11.03200 47.89900
C  26.99900 -10.86700 46.82700
C  28.04500 -11.07600 47.88800
N  26.30700 -5.83300 45.38200
C  27.33000 -6.54000 45.97500
C  28.60600 -5.82900 45.84800
C  28.26900 -4.76900 45.03000
C  26.85600 -4.83100 44.80800
C  29.99500 -6.17000 46.30700
C  28.74000 -3.66800 44.17600
O  29.88900 -3.29600 43.98500
C  27.50800 -3.06700 43.47000
C  27.49700 -1.60000 43.86700
O  27.01300 -1.14800 44.93200
O  28.30100 -0.88500 43.00600
C  28.81300 0.38100 43.50000
H  20.76800 -4.25900 43.11700
H  21.79300 -9.94600 46.09600
H  28.00200 -8.19300 47.10000
H  24.63900 -1.76000 43.02800
H  22.40300 -2.97200 41.65800
H  22.50300 -1.80700 44.36000
H  21.05900 -2.21100 43.44200
H  22.11600 -0.87400 42.88500
H  24.34100 -3.27900 40.44800
H  25.98200 -3.36900 41.17600
H  26.69800 -1.57700 40.23200
H  25.27100 -0.66300 40.92600
H  18.72600 -7.32300 42.42800
H  18.95900 -5.56200 42.86900
H  18.02700 -6.60100 43.83400
H  18.51700 -11.02700 45.49800
H  19.30100 -10.17300 46.83500
H  20.25500 -10.99100 45.50500
H  24.37400 -10.97800 45.87800
H  25.76000 -9.65400 48.23500
H  24.23500 -11.19700 48.72700
H  23.12600 -11.99000 47.59000
H  22.70500 -10.45600 48.28600
H  27.38300 -10.67300 45.82500
H  26.48900 -11.83000 46.79100
H  27.86600 -12.03900 48.36600
H  27.85300 -10.37400 48.70000
H  29.04000 -10.97600 47.45400
H  30.04100 -5.96100 47.37600
H  30.80100 -5.66200 45.77800
H  30.15400 -7.24400 46.20300
H  27.72300 -3.21000 42.41100
H  28.81300 0.52400 44.58000
H  28.07200 1.13300 43.22800
H  29.77300 0.64300 43.05600
Mg 48.95600 34.89000 26.98500
C  47.14100 33.43500 29.63000
C  49.06900 37.84800 28.99700
C  50.72800 36.30000 24.67100
C  48.01100 32.20100 24.87700
N  48.20800 35.52200 29.13900
C  47.66400 34.68000 30.03700
C  47.55000 35.34200 31.41200
C  47.74700 36.89800 31.10300
C  48.37900 36.78700 29.67600
C  46.40300 37.77200 31.14900
C  48.49300 34.67900 32.41600
C  47.97500 34.26400 33.86500
H  47.01700 35.24500 34.57000
N  49.89800 36.74100 26.94100
C  49.80300 37.86000 27.78400
C  50.52000 38.99900 27.21800
C  51.04800 38.45900 25.98600
C  50.64200 37.05200 25.78900
C  50.50500 40.35600 27.75600
C  51.94200 39.18200 24.86900
O  52.53400 38.62800 23.97300
C  52.32100 40.68800 25.01000
N  49.23000 34.40500 25.10700
C  50.09700 35.09200 24.30900
C  50.54700 34.36700 23.03200
C  49.73000 33.06600 23.11900
C  48.90700 33.21300 24.42600
C  50.29900 35.19000 21.69800
C  50.56800 31.73800 23.20100
C  49.97600 30.57600 22.38900
N  47.72800 33.17300 27.15200
C  47.36300 32.21200 26.20200
C  46.51600 31.21400 26.86100
C  46.47200 31.65000 28.23000
C  47.09300 32.92400 28.32400
C  45.88900 30.03700 26.25300
C  45.88200 31.31000 29.49000
O  45.25400 30.38500 29.91800
C  46.20300 32.48700 30.46400
C  46.72200 31.82600 31.71400
O  47.86800 31.44500 31.87400
O  45.64400 31.62100 32.57800
C  45.99800 30.82500 33.71300
H  49.00100 38.71800 29.65400
H  51.30300 36.72500 23.84600
H  47.64000 31.36800 24.27500
H  46.54800 35.31700 31.84000
H  48.46500 37.35200 31.78500
H  45.95700 37.81400 30.15500
H  46.69800 38.74300 31.54600
H  45.72600 37.30800 31.86600
H  49.24200 35.46000 32.54900
H  48.92300 33.82700 31.88900
H  48.86700 34.25400 34.49200
H  47.58100 33.24800 33.88600
H  49.86700 41.05500 27.21400
H  51.48600 40.81900 27.65100
H  50.27400 40.38300 28.82100
H  52.71600 41.05100 24.06200
H  53.06500 40.68000 25.80700
H  51.49000 41.25500 25.42900
H  51.58100 34.05100 23.17000
H  48.97700 33.00500 22.33500
H  49.95600 34.58700 20.85700
H  51.22700 35.62900 21.33100
H  49.65600 36.03200 21.95400
H  50.59700 31.41400 24.24100
H  51.58900 31.98100 22.90500
H  48.98900 30.74800 21.96100
H  49.88500 29.70700 23.04000
H  50.57900 30.36100 21.50600
H  46.38600 29.73600 25.33000
H  44.86700 30.26900 25.95300
H  45.85300 29.19200 26.94000
H  45.25100 32.99500 30.62100
H  45.87100 29.77700 33.44500
H  45.29000 31.12600 34.48500
H  47.01800 30.87300 34.09300

