158

Mg 0.55900 7.66800 26.17700
C  1.24900 9.92700 28.79700
C  1.17300 5.11200 28.31500
C  0.17200 5.59200 23.61400
C  0.66400 10.39100 24.02300
N  1.01900 7.57900 28.34700
C  1.15300 8.62500 29.23900
C  1.37300 8.06100 30.59300
C  1.58800 6.54300 30.40100
C  1.32500 6.36700 28.89100
C  2.97500 6.00000 30.80300
C  0.20200 8.48400 31.60800
C  0.29500 7.71700 32.93200
H  1.65600 7.48300 33.63500
N  0.58900 5.63000 25.96800
C  0.64200 4.73300 27.02100
C  0.19700 3.43900 26.56700
C  -0.15600 3.61300 25.19500
C  0.18400 4.98200 24.85100
C  0.08400 2.18100 27.46500
C  -0.72000 2.67100 24.15600
O  -0.83800 2.94300 22.95300
C  -0.87600 1.24800 24.48400
N  0.43300 7.99500 24.16800
C  0.35900 6.91500 23.28100
C  0.46800 7.41600 21.81500
C  0.13600 8.94100 22.02200
C  0.36700 9.13100 23.49700
C  1.74600 7.11000 21.04400
C  -1.25900 9.42400 21.58300
C  -1.16500 10.66600 20.66900
N  0.88900 9.75700 26.33500
C  0.84000 10.74700 25.38100
C  1.10500 12.07500 25.93900
C  1.22600 11.74500 27.30200
C  1.06600 10.36100 27.49700
C  1.17900 13.36700 25.26000
C  1.57600 12.35900 28.54700
O  1.92200 13.48800 28.82400
C  1.48600 11.17500 29.58300
C  2.73600 11.01600 30.43600
O  3.78800 10.43000 30.13300
O  2.59200 11.64100 31.62500
C  3.77200 11.65200 32.52400
H  1.38400 4.31500 29.03200
H  -0.10100 5.02200 22.72300
H  0.50100 11.21400 23.32400
H  2.27400 8.58700 30.91000
H  0.95500 5.88800 30.99900
H  3.70500 6.77900 31.02500
H  3.41300 5.47000 29.95700
H  2.87400 5.24500 31.58200
H  -0.72100 8.22400 31.09000
H  0.25400 9.56200 31.75900
H  -0.24500 6.79000 32.73800
H  -0.31300 8.28900 33.63300
H  0.61300 1.30100 27.09800
H  -0.94000 2.07200 27.82100
H  0.73000 2.38900 28.31800
H  0.06500 0.72800 24.66300
H  -1.35000 0.58300 23.76200
H  -1.44800 1.16100 25.40800
H  -0.33800 7.05800 21.17500
H  0.92500 9.48100 21.49800
H  1.52800 6.41500 20.23400
H  2.37400 6.51000 21.70300
H  2.36100 7.96800 20.77200
H  -1.88800 9.76000 22.40800
H  -1.82800 8.63900 21.08500
H  -1.66700 10.36700 19.74900
H  -0.11300 10.85100 20.45100
H  -1.66100 11.58400 20.98500
H  0.18100 13.80500 25.24400
H  1.57900 13.17900 24.26300
H  1.88200 13.91400 25.88900
H  0.61100 11.34600 30.21000
H  4.53500 12.31300 32.11100
H  4.07200 10.61600 32.68100
H  3.43900 12.16000 33.42900
Mg 34.99300 0.73000 28.70700
C  33.10400 1.81100 31.32000
C  37.59600 0.29900 30.88200
C  36.92100 -0.20600 25.97400
C  32.43500 1.62700 26.52800
N  35.27200 1.03200 30.89500
C  34.37400 1.54100 31.73200
C  34.97400 1.64100 33.19500
C  36.46400 1.55700 32.93600
C  36.42300 0.83800 31.45600
C  37.38700 2.84500 32.98100
C  34.52800 0.39800 34.09700
C  33.97900 0.76700 35.54000
H  34.56300 1.97300 36.30000
N  36.94500 0.00300 28.50900
C  37.84900 -0.18400 29.52500
C  38.97600 -0.83500 28.99500
C  38.79700 -1.06700 27.56900
C  37.47100 -0.43000 27.27000
C  40.16900 -1.17000 29.89700
C  39.71100 -1.79900 26.59000
O  39.39200 -2.08300 25.43800
C  41.14900 -2.01500 26.94200
N  34.64000 0.44800 26.55700
C  35.60800 0.21900 25.65200
C  35.25100 0.65200 24.25900
C  33.74500 1.06200 24.42500
C  33.52000 1.04400 25.91700
C  36.06000 2.01600 23.72900
C  32.72100 0.09500 23.71100
C  32.10900 -0.97700 24.46500
N  33.16200 1.54600 28.79200
C  32.19400 1.73900 27.87300
C  31.00800 2.07900 28.53600
C  31.30700 2.17000 29.88800
C  32.65800 1.82900 30.00200
C  29.66300 2.30800 27.85200
C  30.74200 2.36900 31.28200
O  29.59300 2.60200 31.57600
C  31.93800 2.23300 32.21000
C  32.07400 3.56200 32.90900
O  32.44800 4.59200 32.47200
O  31.62600 3.38700 34.19800
C  31.72000 4.53300 35.07600
H  38.46700 0.19200 31.53200
H  37.59600 -0.30000 25.12000
H  31.67300 2.19000 25.98600
H  34.75600 2.59700 33.67100
H  36.89800 0.87900 33.67100
H  36.84400 3.79000 33.00000
H  38.00000 2.95500 32.08700
H  37.93600 2.95100 33.91600
H  35.26400 -0.39300 34.24000
H  33.66300 -0.02600 33.58900
H  34.17200 -0.16500 36.07100
H  32.92200 1.00500 35.41800
H  41.03000 -0.58700 29.56900
H  40.37800 -2.23600 29.80100
H  40.00700 -1.05500 30.96900
H  41.78700 -2.43600 26.16500
H  41.12500 -2.59700 27.86300
H  41.55900 -1.05200 27.24900
H  35.26700 -0.25500 23.65600
H  33.64800 2.08700 24.06800
H  36.91100 2.30200 24.34800
H  35.49400 2.94800 23.71200
H  36.40900 1.74000 22.73400
H  33.08200 -0.26800 22.74900
H  31.92300 0.72700 23.32100
H  32.33900 -1.79800 23.78600
H  31.03100 -0.85300 24.57600
H  32.43300 -1.10500 25.49800
H  29.58100 2.18200 26.77300
H  29.13600 3.25300 27.98900
H  29.05500 1.48800 28.23400
H  31.56900 1.44800 32.87000
H  31.11800 5.27800 34.55600
H  32.75300 4.84700 35.22800
H  31.24300 4.35200 36.03900

