158

Mg 2.42000 -3.86600 44.16200
C  5.73000 -2.71800 43.93800
C  1.52500 -1.61000 41.77300
C  -0.65900 -5.35500 44.21400
C  3.69200 -6.38600 46.41300
N  3.47900 -2.33600 43.04400
C  4.83300 -2.06400 43.07200
C  5.18100 -0.93100 42.08700
C  3.79400 -0.41700 41.68000
C  2.88600 -1.56400 42.14600
C  3.30400 0.99100 42.15000
C  6.02000 -1.49700 40.90700
C  7.39600 -0.80700 40.46100
H  7.49000 -0.25700 39.00100
N  0.69800 -3.52900 43.07000
C  0.51100 -2.44600 42.28700
C  -0.83700 -2.45600 41.91900
C  -1.46800 -3.64600 42.40800
C  -0.52700 -4.18400 43.37500
C  -1.51100 -1.37100 41.10800
C  -2.86000 -4.16800 42.05900
O  -3.61800 -3.58000 41.33800
C  -3.43100 -5.49100 42.60900
N  1.60600 -5.70200 45.12300
C  0.33800 -6.03300 44.97900
C  0.07000 -7.36700 45.71300
C  1.41900 -7.68100 46.38700
C  2.37700 -6.56800 45.92100
C  -1.27800 -7.40800 46.59200
C  1.99700 -9.09100 46.10100
C  2.95100 -9.25300 44.85800
N  4.34300 -4.50200 45.06700
C  4.70100 -5.50200 45.98900
C  6.16500 -5.43200 46.42600
C  6.62000 -4.30000 45.55600
C  5.48000 -3.81500 44.83600
C  6.90100 -6.26600 47.34700
C  7.71700 -3.50300 45.12800
O  8.93200 -3.68300 45.38500
C  7.18200 -2.34400 44.09500
C  7.33600 -1.04600 44.62900
O  6.94700 -0.62400 45.69500
O  7.98600 -0.25700 43.72200
C  8.08600 1.13500 44.08200
H  1.09200 -0.92900 41.03800
H  -1.65000 -5.80300 44.30500
H  3.91200 -7.14200 47.16900
H  5.72900 -0.17600 42.65100
H  3.64300 -0.37600 40.60200
H  4.11400 1.48000 42.69000
H  2.44200 0.92200 42.81400
H  3.11100 1.73700 41.37900
H  5.44500 -1.41400 39.98500
H  6.25300 -2.54600 41.09200
H  8.30400 -1.36600 40.68800
H  7.59400 0.11100 41.01500
H  -1.56000 -1.38100 40.01900
H  -0.91100 -0.46800 41.21300
H  -2.49000 -1.08800 41.49300
H  -2.71800 -6.30900 42.71000
H  -4.27200 -5.73200 41.95900
H  -3.84900 -5.21500 43.57700
H  -0.08000 -7.94900 44.80300
H  1.33200 -7.43400 47.44500
H  -1.63500 -6.37900 46.55500
H  -1.00200 -7.82200 47.56200
H  -2.01100 -8.11500 46.20300
H  1.26600 -9.89800 46.05500
H  2.57500 -9.28200 47.00500
H  4.02600 -9.35200 45.01200
H  2.80600 -8.49500 44.08800
H  2.76100 -10.18500 44.32600
H  7.80500 -5.78300 47.71900
H  7.03700 -7.26700 46.93800
H  6.31200 -6.49400 48.23500
H  7.79100 -2.47900 43.20100
H  8.82200 1.37800 44.84900
H  7.08800 1.51800 44.29500
H  8.51900 1.65400 43.22700
Mg 1.69400 42.35600 25.22000
C  3.23400 42.49500 28.25700
C  -1.16900 41.34900 26.87900
C  0.06600 42.43900 22.24700
C  4.65200 43.25100 23.59500
N  1.14900 41.85000 27.32800
C  1.89500 42.07500 28.41400
C  1.17100 41.84000 29.71600
C  -0.24400 41.45900 29.21900
C  -0.14200 41.57500 27.70500
C  -0.83900 40.14000 29.80000
C  1.20300 43.03000 30.60300
C  2.03700 43.08700 31.99400
H  1.08200 43.16900 33.24100
N  -0.29500 41.91400 24.66900
C  -1.28400 41.48600 25.48600
C  -2.48500 41.39700 24.64700
C  -2.12700 41.71300 23.27700
C  -0.72700 42.02100 23.33300
C  -3.81100 40.85100 25.16500
C  -3.02500 41.82600 22.04800
O  -2.55700 41.93400 20.93100
C  -4.46300 41.80700 22.34500
N  2.29300 42.59900 23.17700
C  1.39700 42.74500 22.16400
C  2.14400 43.21100 20.87500
C  3.59400 43.53600 21.36700
C  3.49300 43.15900 22.82500
C  2.08000 42.14500 19.73900
C  3.85600 45.03500 21.27900
C  4.04300 45.56400 19.86000
N  3.60000 42.66300 25.76500
C  4.71600 42.99100 25.02300
C  5.87400 43.12000 25.88400
C  5.30800 42.96000 27.17900
C  3.96500 42.71000 27.04000
C  7.36000 43.33800 25.54200
C  5.69000 42.99700 28.56200
O  6.76200 43.29800 28.98900
C  4.36300 42.64500 29.37100
C  4.72600 41.31900 30.05300
O  4.94400 40.26500 29.51200
O  4.94200 41.54100 31.41700
C  5.19000 40.32900 32.23100
H  -2.05600 41.12100 27.47400
H  -0.43400 42.48700 21.27800
H  5.58900 43.64000 23.19400
H  1.62100 41.02700 30.28700
H  -0.93200 42.23300 29.55900
H  -0.29200 39.79600 30.67800
H  -0.86100 39.30200 29.10200
H  -1.83600 40.37100 30.17300
H  0.18300 43.13200 30.97200
H  1.51400 43.84800 29.95200
H  2.74400 43.90700 31.87000
H  2.57700 42.14800 32.10700
H  -4.54200 41.63200 24.95700
H  -3.83100 40.84400 26.25500
H  -4.01700 39.88300 24.70900
H  -4.94500 42.12000 21.41900
H  -4.77000 42.47800 23.14600
H  -4.77500 40.76400 22.40100
H  1.71700 44.12600 20.46500
H  4.34500 43.02400 20.76500
H  1.38300 41.33500 19.95300
H  3.11000 41.79600 19.67300
H  1.87700 42.48100 18.72200
H  4.81900 45.09200 21.78500
H  3.11500 45.65400 21.78600
H  3.36900 46.41300 19.74500
H  3.81600 44.80500 19.11100
H  5.06500 45.82600 19.58600
H  7.86500 43.96500 26.27700
H  7.49400 43.70300 24.52400
H  7.95700 42.44100 25.70500
H  4.19100 43.43800 30.09900
H  6.26500 40.14700 32.20100
H  4.50900 39.54700 31.89900
H  4.88900 40.41700 33.27500

