158

Mg 53.97600 24.68800 44.58100
C  51.32300 26.73700 44.13800
C  51.69600 22.04700 43.62000
C  56.54200 22.66800 43.99200
C  56.07600 27.40200 45.19100
N  51.77500 24.37900 43.90400
C  50.96700 25.46800 43.87300
C  49.51300 25.01000 43.54600
C  49.53900 23.49200 43.98200
C  51.05900 23.29000 43.80600
C  48.94900 23.15300 45.40500
C  49.18700 25.19800 42.04300
C  50.37900 25.30300 41.05900
H  49.96800 24.99900 39.57200
N  54.13600 22.62200 44.05900
C  53.10100 21.73100 43.72100
C  53.69900 20.47700 43.37500
C  55.08500 20.53100 43.67700
C  55.30400 21.99900 43.95900
C  52.86200 19.22100 43.04100
C  56.15900 19.46000 43.57400
O  55.84000 18.32100 43.34100
C  57.59800 19.64900 44.01400
N  55.99500 25.03600 44.40100
C  56.89600 24.04500 44.16700
C  58.38100 24.53900 44.31100
C  58.18700 26.10500 44.55900
C  56.64600 26.22800 44.73300
C  59.21400 23.92900 45.51200
C  58.86400 27.04500 43.44500
C  58.10500 27.11200 42.15900
N  53.77800 26.66300 44.82700
C  54.69100 27.68100 45.12800
C  53.92900 28.92200 45.27400
C  52.64900 28.56400 44.86000
C  52.60100 27.19300 44.60400
C  54.54000 30.17100 45.71900
C  51.32700 29.12800 44.63900
O  50.99700 30.28400 44.66200
C  50.41100 27.95600 44.20100
C  49.72700 28.46500 42.95900
O  50.24900 28.55800 41.84300
O  48.39600 28.77100 43.27100
C  47.64300 29.12400 42.07000
H  51.08900 21.16600 43.40100
H  57.41700 22.04000 43.80900
H  56.80000 28.16300 45.49100
H  48.85500 25.63700 44.14900
H  48.90300 23.00300 43.24300
H  49.68400 22.75600 46.10500
H  48.09100 22.49100 45.29100
H  48.54600 24.02700 45.91700
H  48.49100 26.03700 42.06200
H  48.60400 24.33600 41.71900
H  51.21700 24.65200 41.31000
H  50.74900 26.32700 41.10700
H  51.86200 19.46300 42.68200
H  52.70500 18.70200 43.98700
H  53.47900 18.70600 42.30500
H  58.06200 18.68700 44.23200
H  57.62500 20.19500 44.95700
H  58.24000 20.14900 43.28900
H  58.86800 24.40700 43.34500
H  58.54500 26.46600 45.52400
H  60.16100 23.62600 45.06500
H  58.67800 23.06200 45.89600
H  59.45000 24.71400 46.23100
H  59.86600 26.62900 43.33700
H  58.97800 28.05500 43.84000
H  57.16000 26.57000 42.12500
H  58.65500 26.83800 41.25900
H  57.79700 28.14600 42.00500
H  54.18500 30.93600 45.02800
H  55.62700 30.14400 45.78500
H  54.03700 30.38400 46.66300
H  49.68600 27.90400 45.01200
H  48.14900 29.81000 41.39100
H  46.79700 29.75000 42.35300
H  47.29300 28.29700 41.45200
Mg 47.50400 25.06500 29.32800
C  48.77300 27.23200 31.67500
C  46.30400 23.05800 31.82800
C  46.85600 22.77000 26.92200
C  48.95300 27.10800 26.85600
N  47.44000 25.19200 31.53300
C  48.07000 26.13400 32.33500
C  47.66000 25.94000 33.77800
C  47.01200 24.56700 33.76400
C  46.86900 24.23400 32.28400
C  47.65300 23.40700 34.63400
C  46.63600 27.05300 34.37100
C  47.00800 27.73200 35.61400
H  45.88300 27.95600 36.63700
N  46.55800 23.21800 29.34000
C  46.15100 22.59700 30.46600
C  45.57500 21.29300 29.96500
C  45.64800 21.28900 28.53300
C  46.37100 22.47400 28.18600
C  45.05300 20.19000 30.91300
C  45.05300 20.22600 27.60200
O  45.25800 20.31200 26.41000
C  44.07800 19.09100 28.15600
N  47.96700 24.83300 27.17500
C  47.64700 23.76300 26.41000
C  47.94400 23.98300 24.98200
C  48.39200 25.50900 24.90600
C  48.44300 25.83700 26.39900
C  48.97400 22.96200 24.49300
C  47.51600 26.54700 24.21200
C  48.13000 27.29300 23.02200
N  48.60900 26.83500 29.25700
C  49.15900 27.55700 28.15900
C  49.98500 28.66300 28.68300
C  49.72200 28.66500 30.05900
C  48.98700 27.42800 30.34600
C  50.93600 29.63500 27.93400
C  49.99400 29.34900 31.27100
O  50.65600 30.36500 31.47200
C  49.37000 28.46600 32.37200
C  50.42800 28.18600 33.32200
O  51.42000 27.51400 33.02800
O  50.08500 28.74300 34.54800
C  51.11400 28.53300 35.55600
H  46.01100 22.37100 32.62400
H  46.73400 22.07300 26.09000
H  49.24600 27.82700 26.08800
H  48.49800 25.92900 34.47600
H  46.04500 24.52900 34.26500
H  48.08900 22.60200 34.04200
H  46.86600 22.92700 35.21500
H  48.54600 23.84500 35.08000
H  45.64400 26.60100 34.39300
H  46.54200 27.83800 33.62100
H  47.47500 28.65400 35.26800
H  47.82500 27.17000 36.06500
H  45.15600 20.53600 31.94200
H  45.60000 19.24900 30.96800
H  44.05000 20.11900 30.49300
H  44.52800 18.47800 28.93600
H  43.76200 18.49300 27.30200
H  43.17600 19.61000 28.48000
H  47.04100 23.87600 24.38100
H  49.39000 25.67100 24.50100
H  49.15800 22.28400 25.32700
H  49.88600 23.23300 23.96200
H  48.48700 22.28000 23.79600
H  47.24700 27.30200 24.95100
H  46.71400 25.95000 23.77800
H  47.61600 27.20600 22.06500
H  49.15300 26.95200 22.86200
H  48.11400 28.36200 23.23500
H  51.02900 29.28500 26.90600
H  51.92900 29.56600 28.38000
H  50.48400 30.62600 27.92900
H  48.50900 28.96600 32.81700
H  51.61300 27.56900 35.46200
H  50.76500 28.78600 36.55700
H  51.96900 29.20600 35.48800

