158

Mg -0.82800 18.29200 26.96500
C  -1.56800 15.85100 29.54900
C  -1.71000 20.80600 29.13900
C  -0.55500 20.37600 24.43700
C  -0.51900 15.52500 24.76400
N  -1.56900 18.25700 29.00100
C  -1.69900 17.16800 29.90800
C  -1.92100 17.69400 31.37100
C  -2.28400 19.23300 31.13200
C  -1.89800 19.48600 29.62400
C  -3.79400 19.59900 31.40700
C  -0.59900 17.65100 32.17200
C  -0.92800 17.28100 33.61500
H  0.17700 17.09500 34.68900
N  -0.97600 20.33800 26.83800
C  -1.22700 21.20400 27.83800
C  -1.20100 22.54900 27.32600
C  -0.78600 22.50000 25.96400
C  -0.77700 21.02100 25.69000
C  -1.61100 23.70400 28.17500
C  -0.40200 23.59100 24.99600
O  -0.15400 23.33200 23.82100
C  -0.17000 25.01000 25.59400
N  -0.72400 17.97300 24.96900
C  -0.53000 19.04300 24.11700
C  -0.39900 18.64800 22.67300
C  -0.29500 17.14300 22.74900
C  -0.45900 16.86800 24.22500
C  -1.53300 19.16200 21.81100
C  1.06600 16.66200 22.22600
C  2.31900 17.25500 22.93200
N  -1.05700 16.15800 27.05100
C  -0.89400 15.19400 26.09600
C  -1.24400 13.94000 26.62400
C  -1.45900 14.15100 28.01700
C  -1.35700 15.47600 28.22200
C  -1.36500 12.69800 25.86200
C  -1.79800 13.49200 29.30700
O  -1.96400 12.32300 29.62900
C  -1.72400 14.56300 30.30700
C  -0.57200 14.27700 31.17900
O  0.49100 14.84600 31.00600
O  -0.90300 13.49100 32.22800
C  0.08500 13.13500 33.23900
H  -2.04800 21.57800 29.83200
H  -0.30700 21.01500 23.58700
H  -0.44700 14.70500 24.04700
H  -2.70800 17.12400 31.86500
H  -1.73200 19.86600 31.82800
H  -4.01200 20.31800 32.19600
H  -4.23700 18.65600 31.72800
H  -4.20500 19.98200 30.47300
H  -0.07300 18.58800 32.35700
H  0.20000 17.02400 31.77700
H  -1.21400 16.25700 33.37800
H  -1.79100 17.86500 33.93400
H  -0.74300 24.15900 28.65300
H  -2.28600 23.42600 28.98500
H  -2.06100 24.46600 27.54000
H  0.19800 25.48500 24.68500
H  0.67800 24.87700 26.26500
H  -1.01100 25.51900 26.06500
H  0.48400 19.13600 22.25900
H  -1.05000 16.55400 22.22800
H  -2.07100 18.31900 21.37800
H  -1.10900 19.67900 20.95000
H  -2.30000 19.76800 22.29400
H  1.15900 17.03400 21.20600
H  1.12000 15.58000 22.10600
H  2.91600 17.68900 22.13000
H  2.73800 16.34200 23.35400
H  2.05700 17.92100 23.75400
H  -1.47700 12.89200 24.79600
H  -2.33800 12.24200 26.04800
H  -0.57300 12.02900 26.19700
H  -2.65800 14.60400 30.86600
H  1.03900 13.62200 33.03800
H  0.10100 12.05000 33.34000
H  -0.30800 13.46600 34.20000
Mg -1.08300 34.99400 27.34800
C  -3.08800 33.22900 29.55300
C  -0.41200 37.20800 29.88900
C  0.46200 36.83000 25.01600
C  -2.45500 33.00900 24.69700
N  -1.79900 35.22900 29.46300
C  -2.40000 34.23500 30.19400
C  -2.29800 34.53000 31.73700
C  -1.70200 35.97700 31.75700
C  -1.24400 36.18900 30.31100
C  -2.65600 37.13500 32.18600
C  -1.43600 33.51300 32.53600
C  -2.07200 32.71300 33.64600
H  -2.61600 33.58200 34.83100
N  0.08800 36.65400 27.53600
C  0.20900 37.42200 28.62400
C  1.14700 38.45200 28.31600
C  1.49100 38.42700 26.91000
C  0.65000 37.31600 26.41200
C  1.64100 39.42900 29.38000
C  2.54500 39.14400 26.08300
O  2.93700 38.78500 24.97800
C  3.06400 40.46300 26.58600
N  -1.08500 34.91600 25.19000
C  -0.34000 35.83700 24.48700
C  -0.25600 35.50700 22.94200
C  -1.25100 34.28300 22.90400
C  -1.62500 34.05400 24.37600
C  -0.63100 36.78400 22.09900
C  -0.50900 32.98200 22.36600
C  0.74000 32.52200 23.20400
N  -2.52400 33.49500 27.11300
C  -2.95100 32.82700 25.95700
C  -3.96100 31.87200 26.37600
C  -3.93800 31.85400 27.74100
C  -3.10100 32.95300 28.16900
C  -4.73200 30.96600 25.45700
C  -4.43000 31.18400 28.94000
O  -5.17200 30.23300 29.10400
C  -3.80600 31.92700 30.18700
C  -4.92800 32.20400 31.11900
O  -5.71700 33.14400 31.03300
O  -4.91200 31.29700 32.11700
C  -5.78200 31.59200 33.25400
H  -0.02300 37.76600 30.74300
H  1.19000 37.24500 24.31500
H  -2.78300 32.39400 23.85600
H  -3.32000 34.48000 32.11400
H  -0.81400 36.13500 32.36900
H  -3.06300 37.51900 31.25100
H  -2.11600 37.90800 32.73200
H  -3.48900 36.87200 32.83800
H  -0.57200 33.98100 33.00700
H  -1.09100 32.73700 31.85200
H  -1.21200 32.18600 34.06000
H  -2.86800 32.07200 33.26800
H  2.58900 39.02100 29.73200
H  0.91100 39.60000 30.17100
H  1.76100 40.45800 29.04300
H  2.32000 41.18900 26.91500
H  3.75300 40.95600 25.90000
H  3.67900 40.25500 27.46100
H  0.78900 35.21400 22.84100
H  -2.15700 34.58700 22.37900
H  -1.45900 36.61900 21.40900
H  0.28900 37.11700 21.61800
H  -0.99600 37.60000 22.72200
H  -0.07700 33.27300 21.40900
H  -1.10000 32.12500 22.04300
H  0.83200 32.99500 24.18100
H  1.64300 32.54600 22.59400
H  0.55800 31.46400 23.39700
H  -4.13100 30.39600 24.74900
H  -5.37500 31.67900 24.94100
H  -5.22000 30.26100 26.13000
H  -3.06300 31.39600 30.78200
H  -5.55700 32.46000 33.87400
H  -5.87600 30.64500 33.78500
H  -6.80500 31.77900 32.92900

