158

Mg 45.81100 24.68900 28.59000
C  46.30400 26.80800 31.32700
C  45.87500 22.04800 30.80400
C  46.10300 22.73000 25.90000
C  46.46100 27.53900 26.50300
N  46.10500 24.53800 30.79600
C  46.17500 25.50300 31.70800
C  46.06600 24.99200 33.16600
C  46.04600 23.40300 32.98700
C  45.87300 23.27300 31.42200
C  47.32500 22.75800 33.55600
C  44.87000 25.60500 33.97900
C  45.18800 26.00800 35.43200
H  44.26300 25.65800 36.59100
N  45.87700 22.60200 28.37600
C  45.83100 21.70900 29.37800
C  45.74100 20.37800 28.85400
C  45.81600 20.51800 27.39100
C  45.96300 22.00600 27.16300
C  45.68900 19.25100 29.73900
C  45.72000 19.51800 26.31100
O  45.92000 19.80400 25.09600
C  45.31200 18.14800 26.68200
N  46.11500 25.07600 26.54400
C  46.08500 24.09900 25.59100
C  45.95600 24.66700 24.07700
C  46.00700 26.22900 24.41500
C  46.27100 26.32600 25.90000
C  47.17800 24.28800 23.14400
C  44.76800 27.13500 23.93300
C  43.40000 26.70500 24.37400
N  46.07000 26.77500 28.79000
C  46.40900 27.75800 27.89700
C  46.69900 28.99000 28.57400
C  46.71400 28.63600 29.92800
C  46.23600 27.31300 30.01100
C  46.97400 30.32600 27.93800
C  46.94000 29.16000 31.24000
O  47.34200 30.30700 31.52400
C  46.61700 28.05100 32.24000
C  47.83800 27.84100 33.10300
O  48.94000 27.33900 32.81800
O  47.56300 28.39400 34.33900
C  48.55300 28.11200 35.40500
H  45.81300 21.27500 31.57200
H  46.12800 22.15200 24.97400
H  46.60000 28.40500 25.85300
H  46.94100 25.37700 33.69000
H  45.21200 22.94200 33.51600
H  48.00300 22.41100 32.77600
H  46.97800 21.88800 34.11300
H  47.89600 23.39900 34.22800
H  44.17800 24.77700 34.13300
H  44.35300 26.42000 33.47200
H  45.15200 27.08800 35.28700
H  46.19500 25.64500 35.63900
H  45.45500 18.29200 29.27700
H  44.90300 19.37200 30.48400
H  46.67300 19.23200 30.20800
H  45.37500 17.46800 25.83200
H  44.28000 18.17400 27.03200
H  46.01400 17.69500 27.38200
H  45.00900 24.32500 23.66000
H  46.92000 26.61800 23.96300
H  48.05300 24.86900 23.43600
H  46.86500 24.60300 22.14800
H  47.50400 23.26500 23.33000
H  44.72600 27.06400 22.84600
H  44.97900 28.16800 24.20800
H  43.68000 25.93700 25.09400
H  42.71100 26.19400 23.70200
H  42.91900 27.55300 24.86300
H  48.06000 30.38900 27.87300
H  46.66000 31.07900 28.66000
H  46.49000 30.45700 26.97100
H  45.67500 28.32100 32.71800
H  49.48000 28.61300 35.12700
H  48.69500 27.03200 35.36500
H  48.39800 28.44200 36.43200
Mg -8.05200 19.36400 42.64800
C  -4.62000 18.78800 42.74700
C  -7.35400 22.71700 42.34400
C  -11.31900 19.89800 42.52000
C  -8.51400 15.87600 42.43900
N  -6.19000 20.55400 42.48800
C  -4.89900 20.08600 42.47600
C  -3.87200 21.16400 42.23200
C  -4.79700 22.48200 42.32700
C  -6.19300 21.92000 42.45300
C  -4.46600 23.48500 43.53400
C  -3.16400 21.15100 40.84900
C  -3.72500 20.35100 39.64300
H  -3.30300 20.84600 38.17100
N  -9.19200 21.08900 42.46900
C  -8.70800 22.33500 42.35100
C  -9.82400 23.23700 42.22700
C  -10.95900 22.43900 42.29600
C  -10.55800 21.06300 42.46800
C  -9.61200 24.69000 42.09600
C  -12.39600 22.93900 42.30900
O  -12.62400 24.10100 42.68100
C  -13.64100 21.98400 41.91400
N  -9.64100 18.11600 42.50200
C  -10.87800 18.60700 42.67800
C  -11.94600 17.41400 42.54200
C  -10.98400 16.16700 42.44200
C  -9.63300 16.74300 42.47500
C  -12.90000 17.47100 43.75100
C  -11.27300 15.29900 41.21500
C  -11.47200 13.84900 41.56100
N  -6.82200 17.59100 42.65900
C  -7.14500 16.26700 42.70700
C  -5.94400 15.46700 42.92500
C  -4.95200 16.46800 42.94500
C  -5.55200 17.67800 42.75600
C  -5.77500 14.05000 43.28500
C  -3.52100 16.67400 43.15000
O  -2.61300 15.83200 43.49300
C  -3.19800 18.20600 42.97100
C  -2.40900 18.66500 44.18200
O  -1.27800 19.09100 44.17600
O  -3.19000 18.51800 45.34400
C  -2.53100 19.02000 46.61300
H  -7.18000 23.77700 42.14700
H  -12.39000 20.03100 42.68400
H  -8.76800 14.82300 42.57900
H  -3.11800 21.17500 43.01900
H  -4.71500 22.96400 41.35300
H  -5.29300 23.87900 44.12400
H  -4.04900 24.37400 43.06000
H  -3.73200 23.11500 44.25000
H  -2.19200 20.66500 40.92100
H  -3.02100 22.17200 40.49300
H  -4.80600 20.24000 39.72100
H  -3.42100 19.32600 39.85700
H  -10.55000 25.03000 41.65800
H  -8.84800 24.98200 41.37600
H  -9.45700 25.24800 43.02000
H  -14.00300 21.44000 42.78600
H  -13.46600 21.24000 41.13600
H  -14.47500 22.62300 41.62200
H  -12.51400 17.67000 41.64800
H  -11.13800 15.52500 43.31000
H  -13.27800 16.45600 43.87500
H  -13.82700 18.02900 43.62300
H  -12.29900 17.69000 44.63300
H  -10.46800 15.53200 40.51800
H  -12.12100 15.66900 40.63800
H  -12.39000 13.50500 42.03800
H  -10.74600 13.50000 42.29500
H  -11.10600 13.21300 40.75500
H  -5.29100 13.64500 42.39600
H  -6.65900 13.44800 43.49100
H  -4.96300 13.87800 43.99200
H  -2.55200 18.28000 42.09600
H  -3.03800 19.95300 46.85800
H  -1.46900 19.25600 46.54800
H  -2.45700 18.24700 47.37800

