158

Mg 35.14300 3.15100 30.30100
C  32.91400 3.91700 32.73100
C  37.67500 2.87200 32.80100
C  37.56800 2.65700 27.93700
C  32.77100 3.61900 27.81600
N  35.20400 3.38800 32.48800
C  34.12500 3.72900 33.26400
C  34.53000 3.84100 34.76700
C  36.13100 3.92400 34.64200
C  36.37100 3.35500 33.22100
C  36.64200 5.37500 34.90600
C  34.02600 2.62800 35.50800
C  33.65400 2.85700 36.93500
H  34.29300 4.03800 37.80200
N  37.29500 2.71300 30.39000
C  38.08700 2.56000 31.53400
C  39.35600 2.12700 31.08700
C  39.43800 2.15300 29.71700
C  38.05900 2.51100 29.25800
C  40.31900 1.60700 32.18800
C  40.62700 1.73800 28.76300
O  40.52400 1.89500 27.58200
C  41.89900 1.23500 29.50900
N  35.26800 3.28100 28.20200
C  36.26100 2.88000 27.44900
C  35.93300 2.93500 25.92700
C  34.36400 2.86700 25.92300
C  34.09100 3.25900 27.38800
C  36.63400 4.03800 25.16500
C  33.92900 1.35700 25.82500
C  33.60000 0.94500 24.38100
N  33.24900 3.55400 30.18500
C  32.35200 3.75700 29.10400
C  31.01600 4.15000 29.61100
C  31.14500 4.09000 31.00400
C  32.55100 3.82000 31.34300
C  29.89700 4.42100 28.69900
C  30.42900 4.39300 32.21800
O  29.24300 4.53400 32.42600
C  31.54200 4.30500 33.36900
C  31.50800 5.64300 33.86700
O  31.63700 6.70000 33.25700
O  31.09700 5.71100 35.18200
C  30.85600 7.00600 35.90300
H  38.40100 2.73900 33.60600
H  38.26700 2.48400 27.11500
H  31.99300 3.44000 27.07100
H  34.09600 4.73700 35.21100
H  36.67000 3.27900 35.33600
H  35.77600 6.01400 34.73800
H  37.44200 5.68600 34.23400
H  36.98100 5.54100 35.92900
H  34.67200 1.79600 35.22600
H  33.01200 2.44800 35.15100
H  34.08000 2.04000 37.51700
H  32.56900 2.90700 37.02800
H  41.12700 0.99600 31.78500
H  39.80100 0.98200 32.91600
H  40.85300 2.39900 32.71300
H  42.29100 1.92500 30.25600
H  42.65500 1.19600 28.72500
H  41.66600 0.22400 29.84300
H  36.43400 2.03300 25.57500
H  33.81800 3.46000 25.19000
H  35.92000 4.52200 24.50000
H  37.43000 3.55700 24.59600
H  37.18700 4.78600 25.73400
H  32.96200 1.24900 26.31600
H  34.60600 0.59100 26.20400
H  33.91500 1.76500 23.73500
H  32.56700 0.67500 24.16300
H  34.23200 0.07900 24.18300
H  29.02800 4.61800 29.32700
H  29.73000 3.52000 28.11000
H  30.07900 5.35900 28.17500
H  31.39100 3.59500 34.18200
H  29.86100 7.09800 36.33800
H  31.09100 7.90900 35.34000
H  31.54500 7.07000 36.74600
Mg 48.26700 24.23100 27.85600
C  49.29200 26.67100 30.15200
C  47.47200 22.18400 30.35600
C  47.15500 22.12300 25.54900
C  49.90200 26.18100 25.34600
N  48.29800 24.56400 29.98700
C  48.72100 25.59500 30.77800
C  48.54800 25.23600 32.31900
C  48.27200 23.69800 32.24800
C  47.99700 23.44800 30.78200
C  49.38100 22.84600 32.90100
C  47.52900 26.09700 33.14900
C  48.02600 26.89100 34.37700
H  47.11300 26.88500 35.59200
N  47.29300 22.41600 27.91900
C  47.18700 21.71400 29.08600
C  46.49100 20.46700 28.77100
C  46.34000 20.46500 27.29300
C  46.95000 21.69200 26.83100
C  46.07100 19.37900 29.76800
C  45.68700 19.43700 26.47800
O  45.67100 19.52900 25.25300
C  44.94000 18.30400 27.14900
N  48.68600 24.06800 25.74500
C  48.04000 23.12200 25.03100
C  48.21600 23.41700 23.53800
C  49.27600 24.55300 23.50200
C  49.30300 25.03000 24.93200
C  48.82600 22.18200 22.83600
C  48.97500 25.63700 22.39500
C  47.85500 26.70500 22.55400
N  49.36300 26.08600 27.69000
C  49.88800 26.74500 26.64600
C  50.44700 28.01400 27.04000
C  50.14400 28.08300 28.41900
C  49.59300 26.81500 28.79900
C  51.19800 28.92600 26.12600
C  50.34800 28.87900 29.62800
O  50.90900 29.95600 29.83500
C  49.75000 27.95100 30.81400
C  50.77900 27.70600 31.91500
O  51.71600 26.93800 31.80800
O  50.49000 28.51300 33.01700
C  51.37400 28.56100 34.20000
H  47.18100 21.47400 31.13300
H  46.85500 21.45300 24.74000
H  50.31800 26.82300 24.56600
H  49.45300 25.46600 32.88100
H  47.35100 23.34900 32.71700
H  49.73200 23.40400 33.76900
H  50.19100 22.62600 32.20600
H  48.96100 21.87000 33.14200
H  46.80400 25.39100 33.55200
H  47.17100 26.86900 32.46800
H  48.06700 27.93900 34.08100
H  49.03900 26.70100 34.73300
H  46.45800 19.66800 30.74600
H  46.43800 18.42200 29.39600
H  44.99000 19.51500 29.78600
H  44.21400 18.82500 27.77400
H  45.54800 17.64600 27.77000
H  44.44400 17.76000 26.34500
H  47.23300 23.73000 23.18800
H  50.31000 24.22900 23.39100
H  49.80000 22.03700 23.30300
H  49.17100 22.28700 21.80700
H  48.10400 21.36700 22.80200
H  48.89300 25.20600 21.39700
H  49.88700 26.22600 22.48600
H  47.44400 27.01400 21.59300
H  48.37600 27.55500 22.99500
H  47.20100 26.22900 23.28500
H  51.74000 28.45300 25.30700
H  51.93000 29.40700 26.77400
H  50.49900 29.67200 25.74700
H  48.99700 28.54300 31.33400
H  50.89100 28.28500 35.13700
H  51.77000 29.57400 34.27400
H  52.26100 27.92900 34.13900

