158

Mg 26.49600 49.54800 25.80200
C  24.51900 51.00800 28.27900
C  28.80200 48.60000 28.19500
C  28.72800 48.41200 23.38800
C  24.31300 50.66900 23.45100
N  26.56000 49.75900 27.94300
C  25.64000 50.32800 28.82100
C  26.00800 50.25400 30.37300
C  27.44400 49.69400 30.14000
C  27.61900 49.28800 28.65700
C  28.52700 50.62000 30.70600
C  25.07000 49.22700 31.07100
C  24.39100 49.63300 32.37700
H  25.28900 50.09400 33.58100
N  28.45200 48.55800 25.75200
C  29.24900 48.38200 26.86900
C  30.51700 47.85400 26.45600
C  30.51200 47.78100 25.02800
C  29.18000 48.25600 24.67200
C  31.66900 47.47300 27.47600
C  31.60400 47.35100 24.00600
O  31.54200 47.50000 22.80800
C  32.87400 46.80200 24.55600
N  26.59300 49.65300 23.65200
C  27.58300 49.02900 22.90800
C  27.16600 48.88200 21.45400
C  25.62100 49.53300 21.46500
C  25.45100 49.93200 22.95000
C  28.10200 49.51900 20.43200
C  24.54000 48.62900 20.94900
C  24.13900 47.58000 21.92700
N  24.81100 50.71000 25.77600
C  23.96400 51.12700 24.75800
C  22.84500 51.83700 25.26800
C  23.05100 51.87600 26.66800
C  24.21400 51.16000 26.94500
C  21.72600 52.42800 24.49100
C  22.49800 52.28700 27.98200
O  21.46000 52.92100 28.27000
C  23.49400 51.71000 29.08900
C  23.85300 53.05200 29.80500
O  24.15500 54.08500 29.24200
O  23.69000 52.82300 31.13300
C  23.81400 54.07200 31.87400
H  29.43900 48.21400 28.99300
H  29.23400 48.03400 22.49700
H  23.68600 51.01400 22.62600
H  26.02700 51.19200 30.92800
H  27.63700 48.71900 30.58900
H  28.44200 51.61200 30.26300
H  29.49100 50.17700 30.45700
H  28.43500 50.51200 31.78700
H  25.60500 48.30900 31.31000
H  24.23200 48.96000 30.42700
H  23.58400 48.99900 32.74300
H  23.86600 50.52600 32.03800
H  32.61300 47.91500 27.15900
H  31.94600 46.42800 27.33800
H  31.56800 47.63300 28.54900
H  33.48300 46.28400 23.81500
H  32.69700 46.01400 25.28800
H  33.51900 47.59800 24.92900
H  26.98600 47.83100 21.22800
H  25.62400 50.44500 20.86900
H  29.04800 49.77400 20.91100
H  27.66600 50.33800 19.86000
H  28.42300 48.71100 19.77500
H  24.66000 48.29000 19.92000
H  23.64000 49.23700 20.86900
H  24.96000 47.48000 22.63700
H  23.88200 46.65000 21.42000
H  23.23000 47.97200 22.38500
H  21.69600 51.92500 23.52500
H  21.99600 53.45600 24.24900
H  20.73400 52.34200 24.93500
H  22.86900 51.03300 29.67100
H  24.44000 54.90400 31.55000
H  24.39800 53.75700 32.73900
H  22.90300 54.43900 32.34700
Mg 9.57400 47.94800 24.15600
C  7.18500 48.72500 26.70500
C  12.02900 49.08400 26.30100
C  11.79800 47.70700 21.73500
C  6.93500 47.51500 21.92200
N  9.61700 48.71900 26.19100
C  8.55000 48.81400 27.10800
C  9.04500 49.22100 28.47800
C  10.40000 49.86700 28.08600
C  10.72100 49.21600 26.77000
C  10.49600 51.40200 28.11500
C  9.23000 48.00900 29.41600
C  8.68600 48.35800 30.79600
H  8.19400 47.20400 31.69900
N  11.74600 48.25800 24.07400
C  12.58600 48.67200 25.07500
C  13.95300 48.69100 24.63800
C  13.86500 48.31400 23.25200
C  12.40900 48.11800 22.93000
C  15.21300 48.99000 25.49600
C  14.99300 48.06700 22.22800
O  14.76600 47.79900 21.08800
C  16.37600 48.09800 22.68900
N  9.44300 47.69500 22.14900
C  10.52700 47.45100 21.35100
C  10.12800 46.94500 19.93200
C  8.54600 46.77900 20.08200
C  8.26200 47.32600 21.44100
C  10.60800 47.88400 18.72000
C  7.95000 45.38000 19.95700
C  8.78400 44.24000 20.53900
N  7.48500 48.09500 24.27100
C  6.55400 47.87700 23.26900
C  5.18300 48.16500 23.83200
C  5.37100 48.45200 25.20700
C  6.79100 48.31900 25.40800
C  3.84900 48.07800 23.11300
C  4.70600 48.65500 26.50000
O  3.56600 48.81700 26.80800
C  5.87500 48.80600 27.48900
C  5.59700 47.76000 28.48300
O  6.08000 46.63000 28.51400
O  4.69600 48.21800 29.46100
C  4.38200 47.23900 30.53300
H  12.72100 49.52300 27.02200
H  12.60400 47.51000 21.02500
H  6.20700 47.35600 21.12400
H  8.21200 49.89200 28.69100
H  11.08300 49.46500 28.83500
H  10.88700 51.70900 29.08500
H  9.46000 51.73100 28.03800
H  10.99100 51.81100 27.23300
H  10.26700 47.71200 29.57100
H  8.63300 47.14200 29.13100
H  7.85400 49.06100 30.75400
H  9.49400 48.81500 31.36700
H  14.77700 49.12100 26.48600
H  15.71000 49.91700 25.21000
H  15.85300 48.10700 25.50400
H  16.60400 47.23800 23.31900
H  16.50200 49.09800 23.10500
H  16.87400 47.87800 21.74500
H  10.57000 45.94900 19.90000
H  7.96300 47.41800 19.42100
H  10.92300 48.81800 19.18600
H  9.89800 48.32900 18.02300
H  11.52800 47.48900 18.28900
H  7.79500 45.16300 18.90100
H  6.94500 45.37100 20.37800
H  8.23700 43.72800 21.33100
H  9.69300 44.61400 21.01200
H  9.09800 43.55200 19.75500
H  3.11700 47.55000 23.72300
H  4.05400 47.35300 22.32600
H  3.52200 49.01700 22.66400
H  5.82100 49.79400 27.94600
H  4.40400 47.64900 31.54300
H  5.05500 46.38400 30.60600
H  3.40500 46.79500 30.34100

