158

Mg 42.86900 4.16100 47.19700
C  41.14900 7.08700 47.10200
C  40.06000 2.36100 46.88100
C  44.77900 1.38200 46.68300
C  45.94800 6.25900 46.72900
N  40.82000 4.74800 46.87300
C  40.33500 5.92900 47.08400
C  38.75000 5.93800 47.07000
C  38.45800 4.40000 47.10100
C  39.89600 3.76400 46.91700
C  37.76500 3.88900 48.39500
C  38.16000 6.71800 45.90900
C  39.04500 6.69000 44.57400
H  38.31100 6.11600 43.33300
N  42.45400 2.06800 46.93300
C  41.23200 1.55900 46.75300
C  41.29900 0.18100 46.60400
C  42.69400 -0.17900 46.48100
C  43.39200 1.12400 46.71600
C  40.02500 -0.77100 46.38200
C  43.21700 -1.57500 46.24500
O  42.40600 -2.49700 46.30500
C  44.64400 -1.87000 46.26200
N  44.99000 3.89200 46.70600
C  45.46800 2.59000 46.68000
C  47.03500 2.65300 46.59700
C  47.35500 4.17200 46.52900
C  45.95900 4.83500 46.63400
C  47.69600 1.93600 47.72800
C  48.31300 4.65800 45.40600
C  49.53100 5.46800 45.78900
N  43.46100 6.29400 47.02000
C  44.68900 6.95300 46.87100
C  44.49800 8.33300 46.79400
C  43.10000 8.48500 46.96100
C  42.54200 7.19400 46.94800
C  45.57700 9.32600 46.38300
C  42.01900 9.39500 47.15200
O  42.08700 10.64700 47.25400
C  40.73300 8.56700 47.07500
C  39.77600 8.93900 48.21100
O  39.68300 8.43200 49.34400
O  38.93400 9.87200 47.69600
C  37.82700 10.14600 48.55500
H  39.16500 1.73700 46.84400
H  45.39900 0.50300 46.49200
H  46.93500 6.72200 46.65600
H  38.37800 6.43500 47.96600
H  37.84600 4.14400 46.23600
H  37.39600 4.73800 48.97000
H  38.52400 3.41800 49.02000
H  36.94400 3.18200 48.27400
H  38.01300 7.71500 46.32400
H  37.17400 6.34300 45.63200
H  39.95100 6.08700 44.63900
H  39.36000 7.71500 44.37600
H  39.67000 -0.75400 45.35100
H  39.21300 -0.34900 46.97400
H  40.26000 -1.77400 46.73900
H  45.16000 -1.45800 47.12900
H  45.05300 -1.64100 45.27800
H  44.62400 -2.95900 46.28000
H  47.33600 2.15000 45.67700
H  47.85900 4.38500 47.47200
H  48.00800 0.92800 47.45700
H  47.04800 1.85300 48.60100
H  48.61000 2.46500 47.99600
H  47.68700 5.21900 44.71300
H  48.61100 3.82000 44.77500
H  50.43500 4.90300 45.56100
H  49.52900 5.65900 46.86200
H  49.54100 6.37600 45.18700
H  46.00900 9.02000 45.43000
H  46.36700 9.32800 47.13400
H  45.27600 10.36800 46.27500
H  40.28900 8.65700 46.08300
H  37.04100 10.65300 47.99500
H  38.13300 10.64200 49.47600
H  37.43900 9.13800 48.70600
Mg 48.73300 35.77100 29.03800
C  46.28500 33.98400 30.96900
C  48.66500 38.33900 31.21200
C  50.15500 37.57600 26.65300
C  48.14500 33.25800 26.52600
N  47.48500 36.11500 30.79500
C  46.75100 35.25300 31.53700
C  46.44600 35.87200 32.91400
C  46.98700 37.32100 32.80500
C  47.83200 37.23900 31.51000
C  46.05100 38.49500 32.86700
C  47.03700 35.05300 34.17700
C  48.51600 35.14100 34.54500
H  48.83000 35.90200 35.82900
N  49.44100 37.69600 28.98400
C  49.40500 38.52600 29.97900
C  50.06600 39.82900 29.56900
C  50.42900 39.63700 28.20100
C  49.96900 38.26500 27.86900
C  50.38600 40.93200 30.45500
C  51.14000 40.54600 27.23200
O  51.68000 40.11000 26.20600
C  51.23100 42.07000 27.56200
N  49.12100 35.43100 26.91600
C  49.83100 36.30900 26.18200
C  50.02700 35.85400 24.71400
C  49.57100 34.34900 24.78800
C  48.94900 34.32100 26.17500
C  49.27300 36.68000 23.59200
C  50.68200 33.33100 24.57400
C  50.40300 32.26500 23.43100
N  47.68300 33.92500 28.82700
C  47.54400 33.03900 27.77300
C  46.61600 31.96400 28.11500
C  46.11900 32.37100 29.37400
C  46.69200 33.56100 29.74200
C  46.17700 30.65600 27.35900
C  45.20500 31.84900 30.41700
O  44.51700 30.81800 30.53700
C  45.18400 32.98800 31.46300
C  45.40300 32.37400 32.80100
O  46.23200 31.55600 33.08700
O  44.37900 32.82500 33.62500
C  44.13300 32.31400 34.96300
H  48.72600 39.13500 31.95800
H  50.71400 38.10300 25.87600
H  47.82200 32.58600 25.72900
H  45.37200 35.97800 33.06400
H  47.75200 37.51900 33.55500
H  46.48200 39.40800 33.28000
H  45.25600 38.16500 33.53500
H  45.61500 38.75100 31.90100
H  46.95600 34.02300 33.83100
H  46.46000 35.36600 35.04600
H  49.08300 35.54600 33.70700
H  48.93500 34.13700 34.60900
H  51.34500 41.38700 30.20700
H  50.49600 40.58200 31.48100
H  49.58700 41.66100 30.32600
H  50.39600 42.40200 28.17900
H  51.26500 42.57100 26.59500
H  52.23800 42.13200 27.97400
H  51.10000 35.95800 24.55400
H  48.82600 34.12900 24.02300
H  48.54300 37.37900 23.99900
H  48.67000 36.10200 22.89200
H  49.97800 37.28900 23.02600
H  50.76700 32.78300 25.51300
H  51.67700 33.75000 24.43000
H  49.49400 32.45500 22.86100
H  50.30500 31.28400 23.89500
H  51.27200 32.19600 22.77700
H  45.67000 30.08100 28.13400
H  46.96100 30.06300 26.88700
H  45.60900 30.93800 26.47300
H  44.22500 33.50600 31.43600
H  44.03400 33.11300 35.69800
H  44.90800 31.71200 35.43700
H  43.16700 31.80800 34.97200

