158

Mg 36.90000 48.87600 24.13200
C  37.22900 47.18700 27.26300
C  35.57600 51.48600 25.61300
C  36.13100 49.88300 21.06100
C  38.23400 45.90500 22.61000
N  36.43100 49.23100 26.20800
C  36.71000 48.45000 27.34600
C  36.36900 49.30300 28.61200
C  35.75000 50.67200 28.07500
C  35.90500 50.47600 26.57600
C  34.28200 50.91500 28.57400
C  37.57200 49.47800 29.55400
C  37.36000 49.20100 31.06000
H  35.92200 49.05400 31.68900
N  35.93900 50.41100 23.47200
C  35.54000 51.43000 24.19500
C  35.10000 52.49300 23.27200
C  35.24600 52.10300 21.93800
C  35.77700 50.76800 22.13100
C  34.66500 53.87100 23.71500
C  34.80300 52.73000 20.62100
O  34.74900 52.13900 19.59000
C  34.33400 54.24300 20.56400
N  36.82000 47.86700 22.04900
C  36.66000 48.62400 21.02400
C  36.87700 47.77800 19.70200
C  37.89000 46.70500 20.22600
C  37.61100 46.76200 21.69800
C  35.54200 47.13800 19.17200
C  39.36700 47.01300 19.84700
C  40.13500 45.83000 19.24400
N  37.63300 46.96100 24.77600
C  38.02800 45.83500 24.02400
C  38.39900 44.71300 24.95100
C  38.08200 45.24800 26.18600
C  37.64400 46.58200 26.06500
C  39.04900 43.37700 24.48700
C  38.06800 44.86000 27.56200
O  38.42000 43.80700 28.01300
C  37.48800 46.13900 28.35200
C  36.24800 45.71500 29.05500
O  35.09100 45.88600 28.64400
O  36.55700 44.97800 30.15000
C  35.46000 44.46000 30.93300
H  35.35400 52.44300 26.08900
H  35.84600 50.20600 20.05800
H  38.62600 44.98000 22.18300
H  35.55900 48.77000 29.11000
H  36.35600 51.45800 28.52500
H  33.58400 50.82000 27.74200
H  34.34000 51.90800 29.01900
H  34.02100 50.29500 29.43200
H  37.95200 50.49900 29.52800
H  38.33800 48.74600 29.29500
H  37.89500 50.04500 31.49500
H  37.81200 48.26500 31.38700
H  34.99000 54.61300 22.98700
H  35.18700 54.23000 24.60200
H  33.57600 53.89300 23.76500
H  33.63900 54.46500 21.37400
H  33.80800 54.37200 19.61800
H  35.22000 54.87500 20.61900
H  37.11400 48.46700 18.89200
H  37.60000 45.76100 19.76400
H  35.32600 46.20100 19.68500
H  35.80700 46.86800 18.15000
H  34.67500 47.79300 19.08300
H  39.76300 47.39100 20.79000
H  39.35200 47.86400 19.16600
H  41.11100 45.69700 19.71000
H  40.40200 46.01700 18.20400
H  39.63700 44.87200 19.39300
H  39.55900 43.48900 23.53000
H  38.34500 42.55400 24.36300
H  39.75600 43.14100 25.28300
H  38.17800 46.52300 29.10400
H  35.06600 45.30900 31.49200
H  35.84800 43.64100 31.53900
H  34.61400 44.04300 30.38800
Mg -5.79200 25.26100 26.71800
C  -3.84200 26.60800 29.23500
C  -7.30000 23.15400 29.01800
C  -7.20000 23.59900 24.17200
C  -3.86300 27.20800 24.34600
N  -5.34900 24.73400 28.78600
C  -4.67600 25.56800 29.64700
C  -5.05300 25.25700 31.11900
C  -5.90300 23.95300 30.99200
C  -6.25100 23.93000 29.49000
C  -5.22200 22.62600 31.42900
C  -5.83600 26.39100 31.76600
C  -5.83200 26.55400 33.31600
H  -5.81800 25.32700 34.19500
N  -7.07900 23.63500 26.59800
C  -7.70500 22.95300 27.66600
C  -8.68500 21.97300 27.08800
C  -8.70700 22.23300 25.65600
C  -7.65700 23.21300 25.44300
C  -9.50400 21.06100 27.87800
C  -9.57200 21.50300 24.53100
O  -9.51300 21.81200 23.35600
C  -10.46100 20.36200 24.83600
N  -5.52500 25.43500 24.62300
C  -6.22900 24.62700 23.75500
C  -5.73500 24.76500 22.27800
C  -4.78900 25.93200 22.37600
C  -4.75200 26.25100 23.87000
C  -5.18400 23.48900 21.53800
C  -5.14000 27.22900 21.50700
C  -4.38500 27.29500 20.14100
N  -4.14800 26.73400 26.75000
C  -3.52900 27.46900 25.75300
C  -2.55800 28.34300 26.39100
C  -2.62100 28.05100 27.78900
C  -3.59900 27.07800 27.91200
C  -1.63100 29.37400 25.67600
C  -2.13000 28.24300 29.14500
O  -1.20100 28.96600 29.55300
C  -3.03100 27.44300 30.12000
C  -2.15600 26.60100 30.94800
O  -1.58500 25.54400 30.66600
O  -1.97200 27.18300 32.17000
C  -1.13700 26.42800 33.06100
H  -7.91000 22.52100 29.66600
H  -7.56400 22.94100 23.38000
H  -3.21000 27.74200 23.65200
H  -4.10500 25.16200 31.64900
H  -6.85800 24.06200 31.50800
H  -5.01600 22.08600 30.50500
H  -5.99700 22.06400 31.95100
H  -4.37400 22.77500 32.09700
H  -6.89500 26.24100 31.55500
H  -5.49700 27.26900 31.21500
H  -6.69500 27.18200 33.54000
H  -4.97300 27.18900 33.53500
H  -10.56500 21.03600 27.63100
H  -9.50600 21.19600 28.95900
H  -8.99200 20.09800 27.85100
H  -9.77800 19.63700 25.27900
H  -10.83300 20.00800 23.87500
H  -11.36000 20.61400 25.39800
H  -6.68100 24.99000 21.78600
H  -3.81300 25.53700 22.09600
H  -4.81800 22.86500 22.35400
H  -4.27300 23.70200 20.97800
H  -5.83000 23.09100 20.75600
H  -4.90500 28.14900 22.04100
H  -6.18800 27.28300 21.21000
H  -3.64800 26.50000 20.25800
H  -3.83900 28.23800 20.09500
H  -5.02600 27.08500 19.28500
H  -2.16900 29.83200 24.84600
H  -0.73500 28.85500 25.33500
H  -1.43900 30.23300 26.31800
H  -3.65900 28.13700 30.67800
H  -1.27300 26.92000 34.02400
H  -0.05700 26.53400 32.95200
H  -1.25900 25.34500 33.06500

