158

Mg 0.86900 7.96300 26.13700
C  1.56400 9.84300 29.06900
C  0.86300 5.17800 27.96600
C  0.42000 6.34500 23.31000
C  1.02400 11.02000 24.38000
N  1.20500 7.62500 28.33100
C  1.36700 8.47300 29.35500
C  1.31700 7.80100 30.76700
C  1.21700 6.29000 30.34800
C  1.10900 6.38200 28.76400
C  2.29700 5.41800 30.94700
C  0.25900 8.44000 31.84600
C  0.79100 8.44500 33.28300
H  1.73600 7.38600 33.75000
N  0.56200 6.04400 25.70800
C  0.68600 4.95800 26.55800
C  0.42900 3.71200 25.93300
C  0.26500 4.08200 24.53600
C  0.43800 5.54300 24.49600
C  0.66000 2.37400 26.65200
C  -0.10800 3.16100 23.40500
O  -0.22700 3.59500 22.28600
C  -0.51000 1.76400 23.58200
N  0.85800 8.60600 24.12900
C  0.75500 7.67500 23.16800
C  1.17500 8.35500 21.81300
C  0.93200 9.87800 22.12000
C  0.90800 9.87300 23.62300
C  2.73600 8.16500 21.56900
C  -0.39900 10.35800 21.50100
C  -1.78800 9.77400 22.08500
N  1.19700 10.03700 26.58100
C  1.26500 11.14100 25.75300
C  1.66000 12.25800 26.44400
C  1.71800 11.87300 27.79100
C  1.51700 10.47800 27.82000
C  2.10000 13.61800 25.91700
C  1.91300 12.31700 29.13100
O  2.30300 13.46800 29.43100
C  1.66300 11.08300 30.04800
C  2.73800 10.94600 31.00200
O  3.76600 10.28600 30.82500
O  2.49000 11.77400 32.04800
C  3.46800 11.99700 33.04800
H  0.85300 4.25300 28.54700
H  0.27200 5.78600 22.38400
H  0.97100 11.99100 23.88400
H  2.36100 7.81500 31.07900
H  0.23300 5.93300 30.65200
H  1.85200 4.42800 31.04900
H  2.64600 5.71200 31.93700
H  3.16100 5.41700 30.28200
H  -0.59000 7.75600 31.87400
H  -0.03500 9.41100 31.44800
H  -0.01100 8.18300 33.97200
H  1.05400 9.47700 33.51500
H  0.80500 1.64800 25.85200
H  -0.16100 2.01200 27.27000
H  1.49600 2.42400 27.35000
H  -1.22900 1.77000 24.40100
H  0.36500 1.13200 23.73600
H  -1.04700 1.37900 22.71500
H  0.59700 8.03100 20.94700
H  1.74400 10.57000 21.89700
H  3.16400 7.32100 22.11000
H  3.37900 9.02800 21.74000
H  2.79400 7.95200 20.50200
H  -0.47700 10.25200 20.41900
H  -0.42000 11.42800 21.70400
H  -2.63000 9.60600 21.41300
H  -2.14400 10.47200 22.84300
H  -1.61200 8.90500 22.71900
H  1.24000 14.28400 25.98500
H  2.34400 13.64400 24.85500
H  2.87400 14.02200 26.57000
H  0.71200 11.29800 30.53500
H  4.39500 12.45900 32.70700
H  3.74700 11.01500 33.43100
H  3.05200 12.52600 33.90500
Mg 30.55100 58.69600 41.03200
C  27.78800 56.89700 39.93600
C  32.55600 56.28800 39.65300
C  33.08500 60.99600 41.01800
C  28.31300 61.40500 41.77700
N  30.12000 56.88400 39.81100
C  28.96600 56.23500 39.65300
C  29.11200 54.76500 39.27700
C  30.64600 54.58400 39.34500
C  31.16700 55.98200 39.67400
C  31.17400 53.39700 40.17900
C  28.40300 54.26700 38.03300
C  28.20200 55.22000 36.80900
H  28.36100 54.82800 35.37800
N  32.53300 58.61900 40.55400
C  33.15300 57.56000 39.92700
C  34.57800 57.88400 39.83100
C  34.78100 59.20800 40.15200
C  33.46400 59.66500 40.59600
C  35.64000 56.94800 39.27800
C  36.13000 59.92400 40.08900
O  37.07600 59.38900 39.49600
C  36.40400 61.29700 40.65200
N  30.61000 60.81000 41.59400
C  31.81700 61.49200 41.52800
C  31.71600 62.98000 41.88000
C  30.18500 63.10400 42.21200
C  29.65700 61.74400 41.81500
C  32.65600 63.39900 43.03300
C  29.35700 64.29000 41.68100
C  29.08600 65.49200 42.69300
N  28.43000 59.06500 41.08200
C  27.64800 60.18500 41.37200
C  26.26800 59.91600 41.15100
C  26.32400 58.61300 40.59400
C  27.62300 58.16900 40.48000
C  25.18600 60.90800 41.35800
C  25.43500 57.54900 40.07600
O  24.23200 57.56700 39.92900
C  26.39200 56.36700 39.76300
C  26.10000 55.32100 40.78100
O  26.58800 55.16800 41.87600
O  25.14800 54.43700 40.26300
C  24.70500 53.22900 41.05300
H  33.24600 55.53600 39.26400
H  33.74900 61.85300 40.89000
H  27.59100 62.21400 41.90600
H  28.68100 54.33100 40.17900
H  31.07300 54.44700 38.35200
H  31.92200 53.72900 40.89800
H  31.55000 52.69100 39.43800
H  30.44700 52.89100 40.81400
H  27.43700 53.88700 38.36500
H  29.00700 53.48100 37.58000
H  28.92800 56.02200 36.94200
H  27.18000 55.57900 36.92600
H  35.68000 57.22400 38.22500
H  35.33700 55.90600 39.38800
H  36.57600 57.08800 39.81800
H  35.92900 61.54600 41.60200
H  36.14200 62.01600 39.87500
H  37.47900 61.36700 40.81400
H  31.80000 63.54000 40.94900
H  30.15700 63.07300 43.30200
H  33.16300 62.52200 43.43600
H  32.19000 63.90200 43.88000
H  33.32700 64.17300 42.66200
H  28.47400 63.91300 41.16500
H  29.93000 64.61200 40.81100
H  29.32000 65.24700 43.72900
H  28.00600 65.63800 42.66200
H  29.56600 66.40300 42.33600
H  25.40500 61.47400 42.26300
H  24.30600 60.29300 41.54800
H  25.04600 61.45500 40.42600
H  26.09600 56.08700 38.75100
H  24.26900 53.60500 41.97900
H  25.51900 52.57500 41.36600
H  24.00200 52.68100 40.42600

