158

Mg 27.31300 49.82300 25.88100
C  25.56100 51.10800 28.45000
C  29.90500 48.93600 28.16100
C  29.11200 48.50300 23.21400
C  25.05100 50.88700 23.58600
N  27.72600 49.99200 28.02800
C  26.72100 50.40800 28.91900
C  27.08000 50.03800 30.33900
C  28.62100 49.66500 30.23900
C  28.79900 49.54300 28.73200
C  29.55600 50.77400 30.75200
C  26.16900 48.88200 30.92200
C  25.53700 49.17100 32.33100
H  26.31700 49.66900 33.51500
N  29.21500 48.89000 25.72900
C  30.12200 48.58800 26.77100
C  31.27300 47.80400 26.20000
C  30.91800 47.57300 24.84300
C  29.62900 48.29100 24.56000
C  32.50200 47.36100 27.01900
C  31.68100 46.71900 23.91700
O  31.45200 46.55100 22.72900
C  32.78500 45.85200 24.34900
N  27.19500 49.89300 23.62900
C  27.98600 49.15400 22.83200
C  27.41400 49.11100 21.37400
C  26.09800 49.96800 21.55300
C  26.14000 50.33800 22.95800
C  28.36300 49.69000 20.27100
C  24.85100 49.18400 21.17100
C  24.52400 48.99700 19.67900
N  25.68800 50.89000 25.97200
C  24.79900 51.24600 24.95800
C  23.64400 51.93600 25.57600
C  23.92600 51.82200 26.98800
C  25.17300 51.20200 27.13200
C  22.56700 52.68000 24.79800
C  23.45400 52.17200 28.31200
O  22.46800 52.87200 28.62000
C  24.46000 51.60200 29.31800
C  24.92700 52.67900 30.26600
O  25.62200 53.65900 29.98400
O  24.43500 52.42700 31.53100
C  25.08700 53.09500 32.59800
H  30.66500 48.68700 28.90400
H  29.54200 47.88600 22.42300
H  24.20900 51.15200 22.94300
H  27.01100 50.91600 30.98200
H  28.84900 48.73200 30.75400
H  29.78500 50.57700 31.79900
H  28.99900 51.70100 30.62000
H  30.48200 50.79100 30.17600
H  26.78700 47.99600 31.06500
H  25.45100 48.63400 30.14000
H  25.04500 48.25700 32.66500
H  24.70100 49.87100 32.31300
H  32.46700 47.49000 28.10100
H  33.24200 48.04800 26.60800
H  32.78700 46.32400 26.84100
H  32.31300 45.05200 24.92000
H  33.51700 46.49500 24.83800
H  33.25400 45.40600 23.47200
H  27.16700 48.11000 21.01900
H  26.17700 50.81600 20.87300
H  29.34600 49.78900 20.73200
H  28.10800 50.70900 19.97900
H  28.44100 49.11300 19.34900
H  23.90900 49.50300 21.61600
H  25.00400 48.19900 21.61200
H  23.47000 49.03900 19.40500
H  24.82700 47.95200 19.62100
H  25.19900 49.53400 19.01200
H  22.54100 52.57400 23.71400
H  22.59300 53.75700 24.96000
H  21.63000 52.37500 25.26500
H  24.02100 50.81900 29.93600
H  24.87300 54.16200 32.53300
H  26.14400 52.83800 32.66500
H  24.67100 52.71900 33.53300
Mg -2.09200 34.43100 26.95800
C  -3.93900 32.91300 29.50500
C  -1.14300 36.91300 29.20800
C  -0.75700 36.12700 24.42500
C  -3.56800 32.31400 24.70600
N  -2.49700 34.87500 29.10300
C  -3.19900 33.99900 29.93300
C  -3.11200 34.44700 31.35200
C  -2.44700 35.91800 31.25200
C  -1.96200 35.95100 29.81700
C  -3.31000 37.09200 31.61800
C  -2.44900 33.43200 32.33100
C  -3.02300 33.43300 33.80000
H  -2.19400 34.08500 34.86000
N  -0.98300 36.14100 26.87100
C  -0.63200 37.00400 27.95000
C  0.28200 38.02200 27.36700
C  0.27400 37.88200 25.89800
C  -0.56300 36.73100 25.69500
C  0.87700 39.19700 28.14800
C  1.10600 38.62400 24.82300
O  0.83300 38.50800 23.67400
C  2.09100 39.69000 25.33800
N  -2.18900 34.29800 24.90900
C  -1.49600 35.07200 24.06900
C  -1.55600 34.53000 22.58300
C  -2.29900 33.22700 22.75400
C  -2.76900 33.31300 24.18400
C  -2.24100 35.61300 21.65800
C  -1.44400 31.96200 22.59500
C  -1.97800 30.73600 21.82000
N  -3.52900 32.89500 27.02500
C  -3.96100 32.08900 25.99700
C  -4.85800 31.07400 26.55100
C  -4.78800 31.31100 27.95700
C  -4.01200 32.45400 28.16300
C  -5.54600 29.96700 25.74900
C  -5.27600 30.80500 29.21100
O  -6.01000 29.84600 29.46100
C  -4.54400 31.76200 30.31400
C  -5.65300 32.19700 31.20200
O  -6.54300 32.96300 30.88600
O  -5.58500 31.54900 32.43900
C  -6.55500 31.87900 33.45000
H  -0.82900 37.75900 29.82200
H  -0.31200 36.58400 23.53900
H  -4.07100 31.63400 24.01700
H  -4.12400 34.53400 31.74700
H  -1.59500 36.01400 31.92400
H  -3.11700 37.36200 32.65600
H  -4.34300 36.80700 31.41700
H  -3.14100 37.98900 31.02300
H  -1.40900 33.75000 32.40900
H  -2.49000 32.45600 31.84800
H  -3.13000 32.38000 34.06100
H  -4.00400 33.90600 33.77600
H  1.96600 39.20200 28.19600
H  0.49800 39.26100 29.16800
H  0.64000 40.08800 27.56500
H  1.59700 40.56600 25.75900
H  2.77600 39.93500 24.52700
H  2.73800 39.12200 26.00600
H  -0.50900 34.43200 22.29600
H  -3.12100 33.16100 22.04100
H  -1.51700 35.93600 20.91000
H  -2.64900 36.44400 22.23400
H  -3.03400 35.10900 21.10500
H  -1.21900 31.67700 23.62300
H  -0.50900 32.21000 22.09300
H  -2.23900 29.93300 22.50900
H  -1.34800 30.53900 20.95200
H  -2.91000 31.09900 21.38600
H  -5.48000 30.10000 24.66900
H  -6.61300 29.85600 25.94400
H  -5.16400 28.98600 26.03100
H  -3.73900 31.24800 30.83900
H  -6.78200 31.08200 34.15800
H  -7.51600 32.20400 33.05100
H  -6.25800 32.70500 34.09800

