158

Mg 54.36200 24.23100 45.37400
C  51.86100 26.20900 44.32800
C  52.50200 21.39800 44.37200
C  57.12200 22.21000 45.82500
C  56.03200 27.00100 46.67800
N  52.56000 23.92200 44.27200
C  51.64600 24.89000 43.94700
C  50.35700 24.34700 43.32700
C  50.36400 22.85900 43.95000
C  51.89100 22.67500 44.25000
C  49.46000 22.49200 45.16500
C  50.41600 24.48300 41.76800
C  49.18300 23.98300 41.07500
H  48.94900 24.20700 39.62100
N  54.80200 22.14200 45.06400
C  53.88900 21.17400 44.64100
C  54.58700 19.87900 44.55200
C  55.99100 20.08200 44.92400
C  56.02000 21.49700 45.26800
C  53.82800 18.61700 44.18600
C  57.05000 19.00000 44.91200
O  56.83900 17.88100 44.47400
C  58.38300 19.31200 45.46200
N  56.33500 24.50500 45.86800
C  57.23600 23.53800 46.10800
C  58.58800 24.23000 46.61800
C  58.10900 25.73700 47.03800
C  56.71800 25.79800 46.47300
C  59.40300 23.64000 47.78200
C  59.04200 26.88200 46.41200
C  58.88600 27.15200 44.93200
N  54.07600 26.25800 45.55800
C  54.77400 27.32200 46.14300
C  54.01200 28.53400 46.05800
C  52.84900 28.09800 45.38300
C  52.96400 26.73100 45.02800
C  54.31900 29.88700 46.48300
C  51.55500 28.55400 44.96500
O  51.06600 29.64100 45.15400
C  50.87800 27.36300 44.26600
C  50.53700 27.84500 42.91100
O  51.35200 28.36200 42.19500
O  49.23400 27.56900 42.57100
C  48.72000 28.04600 41.35900
H  51.93400 20.46600 44.33300
H  58.07200 21.69800 45.99100
H  56.50500 27.72900 47.34000
H  49.52100 24.83300 43.82900
H  50.09800 22.18400 43.13700
H  50.03400 21.93400 45.90400
H  48.66800 21.87800 44.73600
H  49.05000 23.40900 45.58800
H  51.23900 23.87800 41.38800
H  50.49900 25.54100 41.52000
H  48.26100 24.33600 41.53800
H  49.21500 22.90300 41.21200
H  53.51000 18.63800 43.14300
H  52.95900 18.51900 44.83700
H  54.23600 17.62000 44.35200
H  59.00900 18.42300 45.38400
H  58.46200 19.37300 46.54700
H  58.89600 20.03300 44.82600
H  59.27900 24.09500 45.78600
H  58.03600 25.77600 48.12500
H  60.38200 23.29600 47.45000
H  58.87500 22.75300 48.13300
H  59.61000 24.25900 48.65500
H  60.00300 26.39200 46.56800
H  59.06200 27.70500 47.12600
H  57.86500 27.35200 44.60900
H  59.23500 26.27700 44.38400
H  59.45200 28.03000 44.62100
H  53.47800 30.42900 46.91700
H  54.58900 30.52400 45.64100
H  54.94600 29.90400 47.37500
H  49.93100 27.03600 44.69600
H  48.78600 27.35200 40.52100
H  49.19800 28.97500 41.05000
H  47.73100 28.38000 41.67200
Mg 9.88000 47.68800 25.51700
C  7.84700 47.93000 28.49700
C  12.44300 48.77300 27.23600
C  11.63400 47.35900 22.71100
C  6.83400 47.28300 23.73800
N  9.99600 48.31500 27.60200
C  9.22200 48.27000 28.68600
C  9.83500 48.69100 30.05400
C  11.20800 49.21000 29.49900
C  11.23500 48.72600 28.02400
C  11.57900 50.70200 29.67600
C  9.96900 47.49200 31.08600
C  9.53300 47.81100 32.46900
H  9.62600 46.60500 33.45600
N  11.85800 47.98300 25.02600
C  12.77500 48.35900 25.95000
C  14.07600 48.20500 25.34700
C  13.88000 47.87800 23.95100
C  12.39700 47.74800 23.81800
C  15.32600 48.51500 26.07300
C  14.89500 47.59600 22.83600
O  14.59000 47.34600 21.69500
C  16.37000 47.52600 23.10900
N  9.28300 47.42900 23.56200
C  10.24000 47.18000 22.54100
C  9.64000 46.49500 21.24700
C  8.15500 46.51600 21.73500
C  8.09800 47.15700 23.11600
C  9.82700 47.37900 19.90100
C  7.41600 45.11100 21.67300
C  7.79200 44.20500 22.80400
N  7.74400 47.41400 26.03000
C  6.64400 47.37400 25.16400
C  5.40400 47.35600 25.94800
C  5.86200 47.52000 27.32400
C  7.26800 47.62600 27.26600
C  4.07500 47.18300 25.30000
C  5.45500 47.59500 28.74100
O  4.33800 47.40700 29.22400
C  6.73600 47.85300 29.49800
C  6.77200 46.62700 30.24900
O  7.29700 45.55900 29.95400
O  6.25100 46.90500 31.49200
C  6.18700 45.85600 32.54600
H  13.18800 49.17000 27.92900
H  12.22100 47.23700 21.79800
H  5.96100 47.13200 23.09900
H  9.16100 49.49100 30.35800
H  12.03600 48.62200 29.89500
H  12.40800 50.74700 30.38300
H  10.75600 51.33600 30.00500
H  12.02400 50.99600 28.72600
H  11.03500 47.27100 31.13800
H  9.45100 46.62300 30.68200
H  8.45100 47.94500 32.49700
H  10.04200 48.71700 32.79800
H  15.20400 48.35400 27.14400
H  15.68200 49.53600 25.93600
H  16.12000 47.84600 25.74100
H  16.46100 46.70900 23.82400
H  16.66400 48.50200 23.49500
H  16.86000 47.28800 22.16500
H  10.11700 45.53600 21.04400
H  7.53200 47.15800 21.11200
H  8.93000 47.84300 19.49000
H  10.29300 46.89600 19.04200
H  10.42600 48.25400 20.14800
H  7.84500 44.57000 20.83000
H  6.36200 45.20400 21.41400
H  8.50100 44.59700 23.53400
H  8.32800 43.35000 22.39200
H  6.89800 43.87400 23.33200
H  3.91000 46.32900 24.64300
H  3.82100 48.08200 24.73800
H  3.30900 46.97100 26.04600
H  6.62900 48.82300 29.98300
H  5.48700 45.12400 32.14200
H  5.69400 46.31900 33.40100
H  7.14300 45.41400 32.82700

