158

Mg 47.73400 44.88300 42.71200
C  44.36200 45.61300 41.63800
C  47.45400 41.86500 41.16000
C  51.05200 44.73500 42.66600
C  47.77400 48.12100 43.86000
N  46.13700 43.94800 41.32300
C  44.88000 44.44300 41.10200
C  44.14200 43.39600 40.26600
C  44.96000 42.03500 40.57700
C  46.27100 42.64500 41.06000
C  44.28300 40.99300 41.62800
C  44.07300 43.86600 38.79500
C  42.87000 43.46000 37.95900
H  43.30100 42.59700 36.80100
N  49.08600 43.42600 42.01000
C  48.76600 42.20300 41.54200
C  49.96000 41.42000 41.57300
C  51.06800 42.28500 41.86600
C  50.43500 43.56600 42.12700
C  50.01500 40.01100 41.22700
C  52.51900 41.83300 41.90700
O  52.83800 40.70400 41.63100
C  53.74600 42.72800 42.31800
N  49.20900 46.34100 42.97600
C  50.50900 45.95000 43.09000
C  51.35100 47.16300 43.53900
C  50.33400 48.12100 44.20900
C  49.03600 47.46400 43.72100
C  52.54200 46.75000 44.55900
C  50.47600 49.60200 43.82000
C  50.21300 50.49600 45.05700
N  46.29800 46.46400 42.99300
C  46.49200 47.75100 43.55100
C  45.18400 48.38500 43.65000
C  44.30500 47.61100 42.88400
C  45.05500 46.45900 42.46500
C  44.93800 49.66700 44.34000
C  42.97400 47.51600 42.43700
O  41.96300 48.11800 42.67800
C  42.98200 46.23100 41.50500
C  42.00100 45.22600 42.04500
O  40.95700 44.88200 41.42700
O  42.32200 44.81700 43.32000
C  41.25200 44.03000 43.99700
H  47.24700 40.85500 40.80100
H  52.14000 44.79700 42.73300
H  47.86000 49.07700 44.38000
H  43.13400 43.34200 40.67700
H  45.15100 41.49400 39.65100
H  43.20700 41.16500 41.58500
H  44.57300 41.41500 42.59100
H  44.63500 39.96300 41.59200
H  44.95500 43.45300 38.30600
H  44.22400 44.94400 38.73400
H  42.47100 44.36700 37.50600
H  42.20200 42.90800 38.62000
H  50.38100 39.47500 42.10300
H  50.55800 39.74600 40.32000
H  48.98200 39.68000 41.12100
H  53.78600 43.12500 43.33200
H  53.82800 43.55900 41.61800
H  54.53200 41.99700 42.12800
H  51.78600 47.52400 42.60700
H  50.25900 47.99100 45.28800
H  53.40700 46.51000 43.94100
H  52.11900 45.89300 45.08400
H  52.77700 47.50500 45.30900
H  49.88900 49.83400 42.93100
H  51.43000 49.92900 43.40600
H  50.23600 49.87600 45.95400
H  49.30500 51.09700 45.02100
H  51.02500 51.21900 44.98300
H  43.92600 49.91200 44.01600
H  45.64600 50.44700 44.06300
H  45.10700 49.52200 45.40700
H  42.62000 46.43300 40.49700
H  41.71700 43.14000 44.42200
H  40.53000 43.56800 43.32400
H  40.60000 44.48800 44.74100
Mg 40.66000 40.91500 26.88800
C  40.15900 43.35400 29.32500
C  41.54500 38.67400 29.31200
C  41.29100 38.80100 24.52500
C  40.07500 43.43100 24.36800
N  41.05900 41.07600 29.08600
C  40.60500 42.13500 29.88400
C  40.64300 41.67600 31.38900
C  41.31300 40.26400 31.34100
C  41.26300 39.93700 29.80300
C  42.82000 40.31400 31.72600
C  39.28800 41.72900 32.12400
C  39.13900 42.62400 33.41300
H  38.39900 42.07100 34.71800
N  41.25500 38.98700 26.86500
C  41.61500 38.23400 27.93600
C  41.97900 36.90100 27.47900
C  41.76900 36.93300 26.13600
C  41.31600 38.26200 25.76100
C  42.50500 35.92300 28.47700
C  41.96400 35.81400 25.22600
O  41.72500 35.86900 24.01400
C  42.59000 34.51300 25.78300
N  40.71800 41.15700 24.71500
C  41.00300 40.04200 24.03100
C  40.84000 40.25300 22.50100
C  40.11100 41.68800 22.49300
C  40.35400 42.14900 23.91200
C  42.12900 40.14500 21.63000
C  38.54500 41.64400 22.14900
C  37.72400 40.46700 22.68500
N  40.16600 42.98500 26.87600
C  39.97500 43.87900 25.74800
C  39.68700 45.22300 26.23200
C  39.74900 45.04200 27.63000
C  40.06900 43.72000 27.91500
C  39.20100 46.41700 25.47600
C  39.53700 45.73000 28.82900
O  39.22100 46.91500 29.05800
C  39.71400 44.60700 30.08200
C  40.57900 45.15900 31.14100
O  41.79500 45.15500 31.07200
O  39.83500 45.52900 32.20000
C  40.47500 46.21400 33.37400
H  41.68400 37.88800 30.05700
H  41.54800 38.06400 23.76200
H  39.82600 44.25100 23.69100
H  41.28300 42.33900 31.97100
H  40.83500 39.48000 31.92800
H  43.15400 41.31700 31.99400
H  43.60900 40.01000 31.03800
H  42.91900 39.61400 32.55500
H  38.96000 40.75000 32.47400
H  38.54400 42.13600 31.43900
H  38.37000 43.34600 33.13800
H  40.08900 43.11400 33.62600
H  42.31400 34.88100 28.22000
H  42.25100 36.02600 29.53200
H  43.57800 36.09500 28.39400
H  42.79200 33.91800 24.89300
H  41.86100 34.09200 26.47600
H  43.54700 34.70000 26.27100
H  40.10900 39.55100 22.10000
H  40.57500 42.36600 21.77600
H  41.81000 39.38500 20.91600
H  43.00900 39.77400 22.15500
H  42.23600 41.04500 21.02500
H  38.44600 41.59000 21.06500
H  38.09000 42.59100 22.43900
H  36.86300 40.92600 23.17000
H  38.28500 39.94000 23.45600
H  37.45600 39.73000 21.92700
H  38.38200 46.36000 24.75900
H  40.11700 46.68800 24.95100
H  38.89400 47.22300 26.14300
H  38.68700 44.47300 30.42300
H  40.65300 45.51100 34.18800
H  39.80900 46.96900 33.79000
H  41.46500 46.63700 33.20700

