158

Mg 25.95400 0.95000 29.10600
C  27.99900 0.25000 31.96200
C  23.21400 0.81300 31.31500
C  23.94000 0.95100 26.44800
C  28.71400 0.13200 27.09200
N  25.72300 0.55600 31.40200
C  26.68900 0.50700 32.37500
C  26.04900 0.51200 33.76400
C  24.51500 0.43700 33.49600
C  24.45400 0.62000 31.97000
C  23.82700 -0.83500 34.02500
C  26.57700 1.75200 34.56200
C  27.27700 1.47800 35.89300
H  27.29800 2.56700 36.97500
N  23.87900 0.97400 28.85700
C  22.91400 0.79300 29.89700
C  21.63000 0.86800 29.28000
C  21.74100 1.02700 27.87400
C  23.20300 1.02900 27.64400
C  20.30600 0.75300 30.04000
C  20.72300 0.97400 26.81200
O  20.95900 0.98400 25.57200
C  19.31800 0.83400 27.11800
N  26.20700 0.34400 27.11000
C  25.24800 0.62200 26.15500
C  25.82400 0.61200 24.69400
C  27.36800 0.49900 25.02800
C  27.41500 0.23700 26.50200
C  25.28900 -0.58900 23.91400
C  28.34700 1.55200 24.39100
C  29.29600 0.98800 23.34600
N  28.01100 0.42600 29.41600
C  28.97700 0.16400 28.51000
C  30.21300 -0.20400 29.21000
C  29.92200 -0.10000 30.56100
C  28.55000 0.14400 30.64400
C  31.46900 -0.70900 28.65200
C  30.49100 -0.28000 31.93000
O  31.55700 -0.58500 32.34900
C  29.27000 0.10200 32.84700
C  29.16300 -1.08600 33.80900
O  28.57100 -2.14200 33.53000
O  29.60000 -0.77900 35.06300
C  28.95500 -1.65800 36.04800
H  22.37500 0.95700 31.99900
H  23.46500 1.02800 25.46800
H  29.63400 0.02100 26.51600
H  26.36700 -0.41400 34.24200
H  24.02600 1.31600 33.91500
H  22.75100 -0.75800 34.17600
H  24.36800 -1.17500 34.90900
H  23.93500 -1.60000 33.25600
H  25.78400 2.45900 34.80900
H  27.18800 2.36300 33.89800
H  28.30400 1.36800 35.54400
H  26.93300 0.56000 36.36900
H  19.87700 -0.24400 29.94300
H  19.59100 1.50600 29.70700
H  20.47200 0.85400 31.11300
H  19.27300 -0.15400 27.57600
H  18.71400 0.81100 26.21200
H  18.91800 1.61200 27.76900
H  25.42100 1.49700 24.20100
H  27.80400 -0.42500 24.64500
H  24.86800 -0.26300 22.96300
H  24.55300 -1.16000 24.48000
H  26.05700 -1.28500 23.57800
H  28.90200 2.01900 25.20400
H  27.74900 2.32000 23.89900
H  28.72300 0.57100 22.51800
H  29.94200 0.16500 23.65200
H  30.01700 1.71400 22.96900
H  31.65100 -0.47700 27.60300
H  31.37700 -1.79400 28.71300
H  32.22400 -0.31200 29.33000
H  29.48200 1.00200 33.42400
H  29.15500 -1.27400 37.04800
H  29.34300 -2.66900 35.92100
H  27.87100 -1.67800 35.93700
Mg 9.68400 49.06800 25.53100
C  7.77100 49.41600 28.42600
C  12.49100 49.90600 27.30900
C  11.49100 48.77100 22.63900
C  6.75700 48.42100 23.75700
N  10.04300 49.78200 27.55800
C  9.14500 49.64600 28.59000
C  9.82800 49.97500 29.94700
C  11.18100 50.47200 29.46800
C  11.28700 49.99500 28.04700
C  11.31300 52.02200 29.42900
C  9.79900 48.82300 30.94600
C  10.87500 48.76200 32.04100
H  10.52700 47.75200 33.14400
N  11.72800 49.27900 25.04700
C  12.76900 49.52000 25.97200
C  14.04700 49.43700 25.23900
C  13.71800 49.14700 23.89300
C  12.25100 49.02800 23.77900
C  15.43900 49.59200 25.89700
C  14.77600 48.88900 22.76800
O  14.49100 48.82300 21.57600
C  16.30600 48.75900 23.11300
N  9.22800 48.73500 23.49100
C  10.12700 48.69000 22.48300
C  9.46500 48.05800 21.20800
C  7.93500 48.04100 21.56200
C  7.99100 48.40400 23.01500
C  9.90300 48.69800 19.86100
C  7.27000 46.71300 21.23200
C  7.55500 45.54700 22.20800
N  7.62700 49.03500 25.94100
C  6.56100 48.71500 25.17400
C  5.35100 48.78200 25.89400
C  5.78800 49.04400 27.16700
C  7.14200 49.22700 27.16200
C  4.00100 48.31100 25.37700
C  5.34100 49.09800 28.51200
O  4.23400 48.86200 28.93500
C  6.58000 49.28100 29.47200
C  6.76300 48.02400 30.25000
O  7.45300 47.03300 29.98300
O  5.93700 48.02200 31.33300
C  6.10900 46.93400 32.39100
H  13.43600 50.02600 27.84300
H  12.02300 48.59800 21.70100
H  5.85300 48.23800 23.17200
H  9.37000 50.81500 30.46900
H  12.07800 50.06100 29.93000
H  10.71500 52.37600 28.58900
H  12.32100 52.38000 29.22000
H  11.02500 52.43500 30.39600
H  9.71100 47.92400 30.33600
H  8.92100 48.90500 31.58700
H  11.09900 49.76100 32.41600
H  11.78200 48.41700 31.54500
H  15.94400 48.62800 25.97100
H  15.43400 49.94500 26.92800
H  16.04000 50.34300 25.38500
H  16.54200 47.90100 23.74300
H  16.75000 49.71800 23.38200
H  16.76800 48.33700 22.22100
H  9.67000 46.99700 21.06300
H  7.23000 48.71500 21.07700
H  9.10400 49.30200 19.43200
H  10.29600 47.90000 19.23100
H  10.68600 49.39300 20.16500
H  7.60900 46.38100 20.25100
H  6.23200 46.99600 21.05600
H  8.25600 45.76900 23.01300
H  7.97900 44.65700 21.74300
H  6.57300 45.41500 22.66300
H  3.50700 49.07400 24.77600
H  3.30600 48.09900 26.19000
H  4.15500 47.44400 24.73500
H  6.28800 50.10700 30.12100
H  5.97800 47.38900 33.37300
H  7.18000 46.73800 32.35500
H  5.53800 46.06400 32.06700

