158

Mg 1.57100 -1.44900 44.86400
C  4.88300 -0.39100 44.02600
C  0.52100 1.26500 43.03200
C  -1.48500 -2.88500 44.89700
C  3.00600 -4.49100 45.89200
N  2.71500 0.13200 43.33000
C  3.99300 0.42400 43.37400
C  4.27000 1.73900 42.72000
C  2.84300 2.38200 42.73000
C  1.92900 1.15100 42.94400
C  2.55900 3.45000 43.81600
C  4.87700 1.52300 41.32000
C  5.96200 2.48900 40.88700
H  5.78600 3.47600 39.75500
N  -0.12000 -0.89400 44.10300
C  -0.43400 0.30700 43.41600
C  -1.83500 0.51300 43.25000
C  -2.44100 -0.66000 43.74000
C  -1.38300 -1.55800 44.28200
C  -2.40600 1.76900 42.61500
C  -3.91700 -0.88000 43.83800
O  -4.60500 0.03900 43.42400
C  -4.62800 -2.07500 44.42200
N  0.83100 -3.41800 45.41600
C  -0.50700 -3.79200 45.35500
C  -0.73000 -5.18900 45.95600
C  0.74000 -5.64300 46.28500
C  1.60000 -4.45300 45.86000
C  -1.94400 -5.29800 46.99900
C  1.14100 -7.02600 45.63100
C  1.70400 -8.16800 46.58100
N  3.52400 -2.15900 45.18400
C  3.91200 -3.44300 45.63300
C  5.34700 -3.43600 45.87400
C  5.76700 -2.16900 45.34800
C  4.56700 -1.52400 44.84800
C  6.30400 -4.48300 46.46400
C  6.91300 -1.36700 45.05500
O  8.07900 -1.53700 45.37700
C  6.33200 -0.14300 44.25900
C  6.56700 1.10000 45.06300
O  6.03800 1.49300 46.12100
O  7.64400 1.69900 44.43400
C  7.94500 3.17500 44.80900
H  0.09300 2.16500 42.58400
H  -2.50100 -3.28100 44.95900
H  3.40400 -5.41900 46.30800
H  4.97100 2.26500 43.36900
H  2.56700 2.89400 41.80800
H  1.78300 3.21700 44.54600
H  2.27300 4.30400 43.20200
H  3.49900 3.67300 44.32200
H  4.13600 1.65000 40.53100
H  5.21300 0.49400 41.19600
H  6.86700 1.88200 40.87500
H  6.21500 3.14800 41.71800
H  -2.18700 2.55500 43.33700
H  -3.48200 1.83800 42.46000
H  -1.93800 1.98500 41.65400
H  -5.69800 -1.86600 44.42700
H  -4.24300 -2.20900 45.43300
H  -4.41400 -2.91400 43.76000
H  -1.00900 -5.73200 45.05300
H  0.66700 -5.79200 47.36200
H  -2.53900 -4.38600 47.03900
H  -1.50400 -5.56300 47.96100
H  -2.57900 -6.16300 46.81100
H  1.98500 -6.86200 44.96100
H  0.30600 -7.45900 45.08000
H  0.88900 -8.89200 46.62200
H  2.04900 -7.82000 47.55500
H  2.63000 -8.61600 46.22200
H  6.77800 -5.05200 45.66400
H  5.83500 -5.20100 47.13700
H  7.13500 -3.99900 46.97700
H  6.79200 -0.07600 43.27300
H  8.39500 3.70300 43.96800
H  8.75600 3.17500 45.53800
H  7.10300 3.73800 45.21200
Mg 17.30200 -0.56500 28.57300
C  15.96700 0.64500 31.57800
C  19.45500 -2.49800 30.53900
C  18.40600 -1.94400 25.79900
C  15.17000 1.46800 26.74400
N  17.72800 -0.88300 30.83600
C  17.04600 -0.24900 31.84900
C  17.52000 -0.69700 33.25000
C  18.82900 -1.50700 32.89600
C  18.66300 -1.71100 31.34700
C  20.14200 -0.82500 33.36500
C  16.33800 -1.51600 33.91200
C  15.87600 -0.95100 35.37300
H  16.98400 -0.56300 36.33000
N  18.72200 -1.99500 28.24300
C  19.49000 -2.69700 29.13000
C  20.21600 -3.77000 28.43900
C  19.84700 -3.67100 27.05700
C  18.94400 -2.49200 26.97900
C  21.19200 -4.73600 29.14400
C  20.22500 -4.51700 25.79600
O  19.75400 -4.34300 24.68900
C  21.29700 -5.55800 26.03800
N  16.99900 -0.21000 26.54500
C  17.57000 -0.85700 25.59400
C  17.16400 -0.35700 24.18200
C  16.08300 0.78200 24.55900
C  16.01900 0.65600 26.03700
C  18.27400 0.10500 23.22900
C  14.61300 0.76000 23.88200
C  14.39100 0.61900 22.35700
N  15.82000 0.78300 29.01600
C  15.08500 1.56100 28.10400
C  14.18800 2.41600 28.88900
C  14.50300 2.13600 30.21900
C  15.49800 1.10600 30.27800
C  13.21800 3.40800 28.36300
C  14.31500 2.48000 31.63500
O  13.50200 3.27600 32.09600
C  15.24600 1.58700 32.54400
C  16.15800 2.55300 33.14900
O  17.10500 3.11700 32.59400
O  15.76200 2.82300 34.42300
C  16.59300 3.79800 35.13300
H  20.10600 -3.12400 31.15200
H  18.69700 -2.45500 24.87900
H  14.67200 2.31100 26.26000
H  17.65900 0.21800 33.82600
H  18.75200 -2.52800 33.27100
H  20.64900 -0.58600 32.43000
H  20.84100 -1.43300 33.93900
H  19.98100 0.12200 33.88100
H  16.78700 -2.47900 34.15600
H  15.57400 -1.62600 33.14200
H  15.35800 -1.75700 35.89300
H  15.16300 -0.13800 35.23800
H  22.25200 -4.73200 28.89300
H  20.81000 -5.74700 28.99700
H  21.07100 -4.63000 30.22200
H  22.22900 -5.00000 26.12500
H  21.34200 -6.15100 25.12400
H  21.02000 -6.22600 26.85400
H  16.71300 -1.23900 23.72600
H  16.44100 1.78400 24.32000
H  18.06100 1.13800 22.95200
H  18.35200 -0.52900 22.34600
H  19.24100 0.19500 23.72500
H  14.10100 1.67800 24.17200
H  14.08300 -0.05900 24.36700
H  15.30500 0.19900 21.93700
H  14.32500 1.63000 21.95500
H  13.46800 0.05400 22.22600
H  12.92700 3.10600 27.35600
H  13.72200 4.37000 28.27300
H  12.41000 3.47900 29.09000
H  14.69600 1.06100 33.32400
H  16.34800 4.83000 34.88500
H  17.62900 3.50600 34.96000
H  16.48600 3.62200 36.20400

