158

Mg 2.22800 -1.09900 43.26300
C  5.63800 -0.33200 42.82800
C  1.54100 2.03800 41.77500
C  -0.88100 -2.16400 42.95400
C  3.21000 -4.37200 44.24700
N  3.44800 0.63700 42.24600
C  4.78300 0.68600 42.29500
C  5.35100 1.96500 41.67100
C  4.05300 2.81500 41.41800
C  2.97100 1.80700 41.92300
C  3.96900 4.20800 42.14300
C  6.07400 1.81400 40.33900
C  5.34700 0.98600 39.25300
H  5.21300 1.55400 37.85200
N  0.58800 -0.12900 42.68100
C  0.47200 1.13600 42.00700
C  -0.86800 1.42600 41.81200
C  -1.64600 0.29300 42.21000
C  -0.67100 -0.75800 42.58100
C  -1.41700 2.69000 41.19100
C  -3.19300 0.05600 42.22500
O  -3.93200 0.98000 41.92100
C  -3.94400 -1.20600 42.62900
N  1.32200 -3.00800 43.46200
C  0.01300 -3.11700 43.35900
C  -0.42000 -4.57100 43.54800
C  0.88900 -5.27400 44.18800
C  1.86600 -4.14400 44.09300
C  -1.76200 -4.79000 44.32100
C  1.36400 -6.46500 43.31300
C  0.37400 -7.57700 43.21900
N  4.03700 -2.23300 43.54100
C  4.34000 -3.52900 43.91600
C  5.76200 -3.73700 44.09600
C  6.29800 -2.47100 43.68100
C  5.23600 -1.62000 43.31700
C  6.43600 -4.93500 44.72400
C  7.50600 -1.68600 43.55600
O  8.70100 -1.96200 43.79300
C  7.14800 -0.41900 42.78200
C  7.70200 0.76700 43.38900
O  8.55300 1.49200 42.83800
O  7.21800 0.90400 44.64100
C  7.89900 1.88500 45.44000
H  1.26700 3.01800 41.37900
H  -1.92200 -2.46400 43.09400
H  3.42800 -5.35300 44.67200
H  6.09200 2.37000 42.36100
H  3.70700 3.00200 40.40100
H  4.60600 4.30300 43.02200
H  2.93100 4.32500 42.45700
H  4.25400 4.93300 41.38100
H  7.03900 1.33100 40.49100
H  6.25700 2.80600 39.92500
H  4.34200 0.70800 39.57100
H  5.83800 0.01400 39.19300
H  -2.15100 2.38300 40.44700
H  -0.76900 3.43400 40.72800
H  -1.95100 3.28200 41.93500
H  -3.58700 -1.50700 43.61400
H  -3.64900 -1.91000 41.85100
H  -5.01300 -1.01300 42.72800
H  -0.53200 -4.98600 42.54600
H  0.79300 -5.70400 45.18500
H  -2.15100 -3.89500 44.80800
H  -1.73000 -5.64900 44.99100
H  -2.45400 -4.94500 43.49300
H  2.30000 -6.83800 43.72800
H  1.58300 -6.06900 42.32100
H  -0.01800 -7.63100 42.20400
H  -0.38500 -7.51900 43.99900
H  1.02400 -8.45100 43.26200
H  6.50900 -5.73800 43.99000
H  5.87100 -5.30800 45.57900
H  7.41400 -4.74000 45.16300
H  7.60100 -0.44500 41.79100
H  8.90900 1.54100 45.66200
H  7.50200 1.92300 46.45500
H  7.75700 2.82900 44.91500
Mg 0.49100 7.68500 25.75600
C  1.36900 9.75700 28.35100
C  0.70000 4.92900 27.86700
C  -0.18900 5.69100 23.04500
C  0.61700 10.47000 23.53600
N  1.07200 7.36400 27.83800
C  1.20400 8.40900 28.75100
C  1.21300 7.77900 30.19400
C  1.30200 6.26300 29.98700
C  1.01100 6.18900 28.45500
C  2.56500 5.48900 30.50300
C  -0.13800 8.20700 31.06900
C  0.24100 8.78300 32.44300
H  1.47200 8.15100 33.20100
N  0.22300 5.61600 25.52700
C  0.33300 4.65800 26.55200
C  0.03700 3.34800 26.02000
C  -0.10400 3.53200 24.56300
C  -0.03600 4.97300 24.27700
C  -0.01600 2.12200 26.86200
C  -0.42800 2.50000 23.56000
O  -0.46100 2.62300 22.36200
C  -0.89500 1.21700 24.09900
N  0.44000 7.95900 23.56200
C  -0.05000 6.98400 22.74900
C  -0.26000 7.45900 21.31400
C  -0.20200 9.03500 21.51000
C  0.30300 9.19600 22.98100
C  0.90100 6.87800 20.42900
C  -1.57300 9.69600 21.33600
C  -1.58100 11.05800 20.78000
N  0.90700 9.72100 25.87100
C  0.83300 10.69200 24.91900
C  1.11500 11.93800 25.54100
C  1.36400 11.61700 26.88800
C  1.26100 10.26600 27.06300
C  1.35300 13.27100 24.93300
C  1.76400 12.09000 28.21900
O  2.09900 13.21100 28.56000
C  1.59600 10.95200 29.16300
C  2.76300 10.91900 30.05700
O  3.71700 10.21400 29.89000
O  2.37900 11.54700 31.24300
C  3.50600 11.79900 32.19600
H  0.63800 4.13000 28.61000
H  -0.49000 5.07700 22.19400
H  0.44300 11.37400 22.94900
H  2.07900 8.23200 30.67600
H  0.37800 5.78000 30.30600
H  2.27100 4.89500 31.36800
H  3.33100 6.17900 30.85900
H  3.10400 4.91300 29.75100
H  -0.78600 7.33900 31.18600
H  -0.63400 9.00000 30.50900
H  -0.55200 8.69000 33.18600
H  0.42200 9.85500 32.36000
H  0.44800 2.31800 27.82900
H  0.76900 1.45200 26.51000
H  -1.00600 1.69000 27.00600
H  -1.74100 1.39700 24.76200
H  -0.17200 0.70700 24.73600
H  -1.13100 0.56900 23.25500
H  -1.20400 7.19600 20.83700
H  0.46600 9.53000 20.80600
H  1.77000 6.84700 21.08600
H  0.98400 7.56300 19.58600
H  0.57200 5.87900 20.14300
H  -2.08400 9.76900 22.29700
H  -2.15200 9.09800 20.63200
H  -2.25100 11.07100 19.91900
H  -0.57600 11.31000 20.44200
H  -1.95300 11.83300 21.45000
H  0.34900 13.68900 24.86200
H  1.83300 13.37500 23.95900
H  1.79100 14.02900 25.58100
H  0.71000 11.04300 29.79200
H  3.47800 12.78600 32.65800
H  4.40200 11.69800 31.58400
H  3.68500 11.00700 32.92300

