158

Mg 1.39300 -1.36400 44.07900
C  4.71400 -0.62900 43.45300
C  0.58900 1.32100 42.11500
C  -1.81300 -2.47300 44.29800
C  2.43200 -4.52500 45.47700
N  2.55400 0.23200 42.93800
C  3.88500 0.34900 42.89600
C  4.37600 1.73800 42.46400
C  2.98800 2.39300 42.05300
C  1.95900 1.28700 42.36300
C  2.53500 3.75800 42.59300
C  5.38300 1.86900 41.25900
C  5.75800 0.84000 40.20800
H  5.43900 1.08600 38.69800
N  -0.28500 -0.74200 43.30600
C  -0.44500 0.36900 42.45600
C  -1.84700 0.46600 42.10300
C  -2.57600 -0.39800 42.94300
C  -1.53400 -1.24300 43.57900
C  -2.36300 1.61700 41.28900
C  -4.04100 -0.37500 43.08300
O  -4.69400 0.56500 42.60900
C  -4.83900 -1.39900 43.75500
N  0.35800 -3.22000 44.89900
C  -0.97400 -3.38500 44.94200
C  -1.34200 -4.82200 45.41700
C  0.05300 -5.41900 45.84500
C  1.01400 -4.31900 45.35300
C  -2.52600 -4.92600 46.37800
C  0.34400 -6.76400 45.19000
C  1.12300 -7.72700 46.15900
N  3.20400 -2.37300 44.48900
C  3.43600 -3.63300 45.04700
C  4.87800 -3.76200 45.15700
C  5.45100 -2.68200 44.54100
C  4.38000 -1.84100 44.09900
C  5.58900 -5.00300 45.78000
C  6.68300 -2.08000 44.12400
O  7.84300 -2.41300 44.20100
C  6.24000 -0.66200 43.50300
C  6.85900 0.38900 44.31500
O  6.37300 0.90700 45.31600
O  8.06000 0.79100 43.78800
C  8.62800 2.00200 44.30000
H  0.23600 2.26100 41.68500
H  -2.85300 -2.78800 44.19100
H  2.75300 -5.53300 45.74600
H  4.78900 2.26300 43.32500
H  2.93600 2.53000 40.97300
H  3.11900 4.11100 43.44300
H  1.47300 3.81500 42.82900
H  2.55900 4.45000 41.75200
H  6.31700 2.35200 41.54700
H  4.83100 2.66100 40.75300
H  5.20300 -0.07300 40.42200
H  6.81400 0.57400 40.24400
H  -1.62200 2.15700 40.70000
H  -2.89400 2.26400 41.98600
H  -3.12800 1.27900 40.58900
H  -5.90200 -1.16400 43.69000
H  -4.55300 -1.42000 44.80700
H  -4.63800 -2.30100 43.17700
H  -1.73600 -5.33300 44.53800
H  0.08200 -5.57100 46.92400
H  -3.41700 -5.33900 45.90700
H  -2.74700 -3.88500 46.61100
H  -2.19400 -5.37100 47.31700
H  0.97300 -6.62700 44.31100
H  -0.58500 -7.28700 44.96100
H  0.47200 -8.57900 46.35900
H  1.54400 -7.32600 47.08100
H  1.98900 -8.11400 45.62300
H  5.20300 -5.10800 46.79300
H  6.65800 -4.81000 45.86900
H  5.40900 -5.91900 45.21700
H  6.68300 -0.64000 42.50700
H  9.22500 1.68100 45.15400
H  7.78900 2.57900 44.68800
H  9.22000 2.51500 43.54200
Mg 25.47800 0.73400 29.92300
C  27.60400 0.66200 32.83900
C  22.88300 0.49400 32.12300
C  23.48100 0.58400 27.25700
C  28.24800 0.47000 27.95800
N  25.36700 0.65500 32.21100
C  26.28500 0.72300 33.18900
C  25.70300 0.81700 34.59700
C  24.19600 0.66500 34.29800
C  24.13100 0.61600 32.79100
C  23.60600 -0.65900 34.77800
C  26.18500 2.10200 35.32100
C  25.37800 2.41800 36.60100
H  26.09900 2.66800 37.91200
N  23.40900 0.60700 29.71700
C  22.48300 0.50500 30.75700
C  21.13500 0.38500 30.18100
C  21.34900 0.46000 28.77900
C  22.79400 0.59300 28.54100
C  19.88800 0.31500 31.02400
C  20.25300 0.52300 27.65800
O  20.53600 0.58600 26.46300
C  18.82400 0.59100 28.01400
N  25.84300 0.66300 27.87700
C  24.87400 0.75500 26.97700
C  25.36700 0.77900 25.58200
C  26.90000 0.92000 25.80100
C  27.01200 0.65700 27.30500
C  24.91400 -0.31800 24.57300
C  27.65200 2.12400 25.31000
C  28.76300 1.85900 24.31300
N  27.49300 0.55900 30.26300
C  28.47600 0.37000 29.31900
C  29.73500 0.19600 29.95400
C  29.45600 0.28900 31.33300
C  28.04400 0.58300 31.51200
C  30.99500 -0.09000 29.26600
C  30.00800 0.24700 32.71700
O  31.11600 -0.11300 33.09900
C  28.94700 0.71200 33.67600
C  29.01100 -0.09500 34.89500
O  28.53700 -1.17700 35.01700
O  29.83800 0.54500 35.78700
C  29.80900 -0.06300 37.13300
H  22.07700 0.57300 32.85600
H  22.90400 0.59200 26.33000
H  29.04200 0.55000 27.21200
H  26.11400 0.00500 35.19600
H  23.67200 1.53600 34.69100
H  24.22400 -1.10800 35.55600
H  23.36400 -1.39800 34.01500
H  22.64300 -0.49000 35.26000
H  26.06100 3.01900 34.74400
H  27.25300 1.96600 35.49100
H  24.82000 1.50200 36.79700
H  24.75200 3.29200 36.41600
H  19.35400 1.26300 30.96800
H  20.19100 0.09400 32.04800
H  19.22300 -0.47700 30.67900
H  18.14200 0.81400 27.19400
H  18.70100 1.48300 28.62800
H  18.43600 -0.29900 28.51000
H  25.02600 1.72100 25.15200
H  27.43200 0.10200 25.31500
H  24.38400 -1.03600 25.19900
H  25.74300 -0.87700 24.13900
H  24.24100 0.10300 23.82600
H  28.05300 2.79400 26.07000
H  26.95500 2.75800 24.76200
H  28.31600 1.83400 23.31900
H  29.28100 0.90300 24.39900
H  29.37100 2.75300 24.44900
H  31.61200 0.54200 29.90400
H  31.08800 0.29300 28.25000
H  31.23000 -1.14800 29.38600
H  29.10200 1.77600 33.85700
H  30.44400 -0.93100 36.95600
H  28.82200 -0.23500 37.56200
H  30.44700 0.48700 37.82500

