158

Mg 46.83400 17.12000 28.43100
C  45.28700 16.48100 31.53700
C  49.33600 18.66700 30.23000
C  48.11300 18.18500 25.47900
C  44.13700 15.69600 26.88000
N  47.22400 17.56600 30.65000
C  46.38900 17.24900 31.74200
C  47.01500 17.77400 33.05100
C  48.31600 18.46600 32.53800
C  48.31500 18.27800 31.03500
C  48.57700 19.95800 32.89300
C  47.29800 16.61300 34.06500
C  47.95300 16.85000 35.38200
H  47.54300 18.00300 36.28900
N  48.52100 18.15300 27.92500
C  49.45100 18.60100 28.80400
C  50.63200 18.96100 28.01100
C  50.31900 18.89400 26.63500
C  48.89500 18.44200 26.63000
C  51.92000 19.37700 28.64800
C  51.21000 19.09800 25.32600
O  50.71700 19.12400 24.21400
C  52.67100 19.46300 25.39000
N  46.36400 16.65800 26.50600
C  46.94000 17.35300 25.41500
C  46.24600 16.98000 24.17100
C  44.97900 16.27100 24.56900
C  45.16800 16.11100 26.06200
C  45.98500 18.11600 23.21100
C  44.59300 14.97700 23.87600
C  43.75900 15.24700 22.58100
N  45.08600 16.21900 29.01000
C  44.07600 15.61400 28.28800
C  42.97500 15.19200 29.12500
C  43.44800 15.49700 30.42500
C  44.72600 16.10500 30.27600
C  41.68000 14.51600 28.65100
C  43.12800 15.38100 31.88800
O  42.19200 14.89300 32.50100
C  44.26000 16.02300 32.59100
C  43.74800 17.12500 33.46000
O  43.23900 18.17800 33.08500
O  43.79200 16.68300 34.74500
C  43.01600 17.45900 35.73900
H  50.21100 18.99100 30.79800
H  48.34000 18.52500 24.46600
H  43.28000 15.17800 26.44400
H  46.27000 18.43500 33.49400
H  49.22100 17.92200 32.80900
H  48.17500 20.71300 32.21800
H  49.55500 20.32600 33.20200
H  48.01200 20.10200 33.81400
H  47.89500 15.87300 33.53300
H  46.30800 16.17600 34.19600
H  49.03600 16.77900 35.28000
H  47.49600 16.02300 35.92600
H  52.67100 18.62400 28.88500
H  51.66200 19.93600 29.54700
H  52.31700 20.14700 27.98500
H  52.68000 20.38700 25.96900
H  53.05600 19.53500 24.37300
H  53.20000 18.62800 25.84900
H  46.85100 16.21400 23.68700
H  44.09500 16.90300 24.48000
H  45.89000 19.07900 23.71400
H  45.08500 17.94900 22.61800
H  46.75100 18.31800 22.46200
H  43.91800 14.52700 24.60400
H  45.43900 14.38200 23.53300
H  43.85800 16.25900 22.18900
H  42.72000 15.05400 22.84700
H  44.08500 14.46400 21.89600
H  41.48600 14.72100 27.59900
H  40.92100 15.03400 29.23600
H  41.86600 13.44800 28.76600
H  44.63300 15.16200 33.14600
H  42.28400 16.67700 35.94000
H  42.53500 18.37800 35.40500
H  43.63700 17.58400 36.62600
Mg 49.75400 35.73600 28.35900
C  47.31400 34.24200 30.46100
C  49.86800 38.25700 30.38000
C  51.85100 37.12900 26.05500
C  49.32800 32.99100 26.12500
N  48.54100 36.23900 30.09100
C  47.76200 35.47000 30.91700
C  47.54000 36.13800 32.25000
C  47.99500 37.62700 31.97300
C  48.91100 37.38200 30.80200
C  46.99200 38.76500 31.77900
C  48.20000 35.27400 33.33500
C  49.15800 35.82600 34.34900
H  48.60700 37.01700 35.12000
N  50.74500 37.42800 28.25900
C  50.68800 38.39600 29.25300
C  51.63300 39.49200 28.97900
C  52.17600 39.14000 27.68400
C  51.56500 37.87100 27.27100
C  51.77100 40.62100 29.83800
C  53.18100 39.92900 26.83400
O  53.44900 39.58100 25.68900
C  54.04700 41.00600 27.37000
N  50.33800 35.22400 26.32700
C  51.24800 35.97300 25.62800
C  51.67500 35.34900 24.35800
C  50.91400 33.98900 24.37600
C  50.17200 34.02000 25.70700
C  51.58500 36.29300 23.07700
C  51.65400 32.67500 24.13100
C  50.95800 31.80500 23.07200
N  48.51900 34.06300 28.22100
C  48.58600 32.95300 27.31400
C  47.68800 31.88900 27.78100
C  47.24000 32.35000 29.01300
C  47.72300 33.64400 29.19000
C  47.47000 30.60600 27.08400
C  46.42500 32.01000 30.12400
O  45.67800 31.05200 30.36900
C  46.39300 33.16600 31.12300
C  46.92300 32.62900 32.39800
O  48.04500 32.22900 32.60800
O  45.92600 32.71600 33.35800
C  46.36300 32.16400 34.64500
H  50.04300 38.91300 31.23500
H  52.72300 37.43700 25.47500
H  49.30800 32.13300 25.44900
H  46.47700 36.08000 32.48500
H  48.66000 38.03300 32.73600
H  47.20600 39.13800 30.77800
H  47.17000 39.56500 32.49700
H  45.99500 38.34000 31.89800
H  48.89100 34.58200 32.85400
H  47.41100 34.92600 34.00200
H  50.08400 36.11900 33.85300
H  49.53400 35.09600 35.06500
H  52.79400 40.86700 30.12000
H  51.16800 40.49400 30.73800
H  51.36900 41.49400 29.32200
H  54.25100 40.89800 28.43500
H  53.50400 41.92300 27.14300
H  55.06800 40.84300 27.02600
H  52.72300 35.10500 24.53200
H  50.02900 34.06100 23.74400
H  51.36500 35.66900 22.21100
H  52.53100 36.82100 22.96000
H  50.85900 37.09200 23.23000
H  51.73500 32.13900 25.07700
H  52.68600 32.83500 23.81800
H  51.54900 31.58000 22.18400
H  49.95700 32.06300 22.72700
H  50.78600 30.83700 23.54400
H  48.35100 30.31800 26.50900
H  46.57000 30.85700 26.52400
H  47.16500 29.96500 27.91200
H  45.35100 33.48000 31.17000
H  45.49600 32.09700 35.30200
H  47.21900 32.69300 35.06300
H  46.65000 31.12400 34.48700

