158

Mg 53.96700 24.53400 43.86400
C  51.38300 26.90600 43.27900
C  51.65600 21.99800 43.01500
C  56.50600 22.44300 43.82800
C  55.97600 27.15800 44.75700
N  51.87300 24.53800 43.15900
C  51.05000 25.59200 42.92600
C  49.56100 25.16300 42.57600
C  49.65700 23.59400 42.72200
C  51.15200 23.30100 43.07800
C  48.63200 22.91000 43.69000
C  49.04900 25.69600 41.28500
C  50.02100 25.85900 40.04900
H  49.97000 24.90500 38.87200
N  54.02500 22.52700 43.55700
C  52.99900 21.65900 43.22800
C  53.56200 20.37700 43.09900
C  54.98600 20.37800 43.40700
C  55.24000 21.83200 43.57700
C  52.67900 19.27500 42.64400
C  55.95200 19.21800 43.43500
O  55.50200 18.16700 43.02300
C  57.46700 19.24200 43.84900
N  55.94700 24.80600 44.01400
C  56.83100 23.82300 43.99500
C  58.31500 24.30200 44.33400
C  58.04600 25.77500 44.57600
C  56.55600 25.94600 44.35700
C  58.92800 23.53500 45.49400
C  59.00800 26.77300 43.72100
C  58.52800 26.97500 42.23700
N  53.86600 26.68300 43.78300
C  54.71800 27.58900 44.43300
C  54.14900 28.84300 44.58000
C  52.84300 28.68700 44.17600
C  52.67800 27.27000 43.70200
C  54.76800 30.12300 45.14900
C  51.51400 29.27900 44.00500
O  51.11100 30.43800 44.25100
C  50.55400 28.11900 43.40900
C  50.10200 28.72400 42.10600
O  50.87100 28.89200 41.14900
O  48.82200 29.20500 42.07500
C  48.36100 29.90500 40.90800
H  50.95000 21.21700 42.72200
H  57.40800 21.82700 43.83600
H  56.72500 27.89100 45.06300
H  48.92400 25.46800 43.40600
H  49.48300 23.12900 41.75200
H  47.81100 23.61600 43.81400
H  49.09500 22.55900 44.61200
H  48.26500 21.97000 43.27700
H  48.56800 26.64100 41.53500
H  48.28000 24.96600 41.03000
H  50.99400 25.60700 40.46900
H  50.12500 26.83600 39.57700
H  53.24100 18.64700 41.95300
H  51.84600 19.67300 42.06500
H  52.34100 18.76300 43.54600
H  57.59100 18.20400 44.15900
H  57.69900 19.84700 44.72500
H  57.97100 19.37000 42.89100
H  58.86700 24.12800 43.41000
H  58.27800 25.95000 45.62700
H  59.23200 24.29100 46.21800
H  59.74200 22.89600 45.15200
H  58.09100 22.94700 45.87100
H  59.97500 26.31400 43.51400
H  59.12800 27.66700 44.33300
H  58.42700 28.00800 41.90500
H  57.57400 26.50300 42.00400
H  59.24500 26.48400 41.57800
H  53.99900 30.81500 44.80500
H  55.79200 30.28100 44.81300
H  54.77600 29.96300 46.22700
H  49.73200 27.99000 44.11400
H  47.38200 30.33500 41.12200
H  48.36000 29.22300 40.05700
H  49.01100 30.76200 40.73200
Mg 10.11600 46.99400 26.31700
C  8.06400 47.26400 29.12700
C  12.50000 48.75300 27.88500
C  11.92000 46.86300 23.44600
C  7.34000 45.72600 24.56200
N  10.26300 47.81400 28.28800
C  9.40800 47.68400 29.36500
C  10.01000 48.34600 30.62100
C  11.25500 49.15000 30.05000
C  11.38000 48.51800 28.65700
C  11.04500 50.67300 29.81900
C  10.36700 47.21900 31.60700
C  10.11800 47.50900 33.07600
H  9.75400 46.28100 34.01200
N  11.96400 47.64000 25.80700
C  12.80400 48.33500 26.59500
C  14.09900 48.49000 25.90500
C  13.90700 47.95500 24.57600
C  12.53000 47.44700 24.55600
C  15.33900 49.01700 26.62500
C  15.00100 47.67400 23.54500
O  14.81000 46.96600 22.52800
C  16.35100 48.35000 23.65100
N  9.66600 46.45500 24.31900
C  10.61200 46.40800 23.39500
C  10.10500 45.76200 22.10700
C  8.66600 45.28700 22.53800
C  8.56600 45.84700 23.91400
C  10.15600 46.55000 20.79600
C  8.52300 43.70700 22.48700
C  9.55900 42.98400 23.41800
N  8.02200 46.57400 26.64300
C  7.02500 46.12100 25.81900
C  5.75200 46.10200 26.66600
C  6.17100 46.42700 27.92800
C  7.53300 46.75000 27.89400
C  4.35100 45.68800 26.24400
C  5.71400 46.56300 29.31100
O  4.61800 46.30900 29.78700
C  6.89300 47.10600 30.05700
C  7.15100 46.05000 31.12200
O  7.77200 45.01300 30.90400
O  6.39800 46.24500 32.26500
C  5.99000 45.13500 33.14900
H  13.24700 49.34300 28.42100
H  12.49000 46.66000 22.53700
H  6.50000 45.33800 23.98200
H  9.28000 48.95600 31.15200
H  12.16700 49.03100 30.63500
H  10.32900 50.72800 28.99900
H  11.94700 51.05800 29.34200
H  10.94300 51.20900 30.76300
H  11.45100 47.11100 31.63300
H  9.96600 46.25600 31.29300
H  9.35000 48.26400 33.24200
H  11.06100 47.82200 33.52500
H  15.00900 49.32200 27.61800
H  15.73200 49.91500 26.14800
H  16.03100 48.17500 26.63000
H  16.91000 48.03800 24.53300
H  16.06400 49.39900 23.57900
H  16.90700 48.20000 22.72500
H  10.76000 44.89900 21.98500
H  7.86900 45.70700 21.92500
H  9.25500 47.13400 20.60400
H  10.19500 45.91600 19.91000
H  10.98400 47.25400 20.71900
H  8.60700 43.42900 21.43600
H  7.56300 43.28500 22.78300
H  10.09100 43.69200 24.05300
H  10.33200 42.56600 22.77300
H  9.23600 42.09600 23.96100
H  3.97700 46.55000 25.69200
H  3.73100 45.59100 27.13500
H  4.33000 44.90300 25.48800
H  6.67300 48.05000 30.55600
H  6.17900 45.59100 34.12000
H  6.69600 44.30800 33.07000
H  4.91800 44.99300 33.01000

