158

Mg 47.13600 16.10400 28.79900
C  45.05100 15.57200 31.45700
C  48.76500 18.48800 30.60900
C  49.18300 16.85500 26.12000
C  45.06200 14.30200 26.67400
N  46.90100 16.84800 30.93700
C  46.09900 16.40700 31.90100
C  46.46000 16.99700 33.28400
C  47.30200 18.21100 32.81800
C  47.71900 17.88300 31.30700
C  46.69500 19.64700 32.87200
C  47.14100 15.89600 34.19600
C  46.88700 16.06100 35.74000
H  47.93700 15.73800 36.72000
N  48.88400 17.36800 28.57600
C  49.37700 18.22300 29.41700
C  50.41800 19.03400 28.82000
C  50.59500 18.62500 27.44300
C  49.50400 17.60000 27.27700
C  51.18900 20.06800 29.65800
C  51.53400 19.13800 26.37800
O  51.50000 18.66900 25.22000
C  52.40500 20.27700 26.62800
N  47.09100 15.60400 26.68400
C  48.16000 15.88600 25.85100
C  48.15300 14.99300 24.64800
C  46.75300 14.34600 24.73300
C  46.26300 14.72000 26.11100
C  48.48800 15.65500 23.22500
C  46.79600 12.85700 24.52800
C  47.24500 11.92500 25.71900
N  45.39900 15.11900 28.94400
C  44.63300 14.44100 28.00000
C  43.44700 14.01200 28.62800
C  43.54500 14.40600 29.95800
C  44.76400 15.05800 30.13800
C  42.33900 13.08800 28.04300
C  42.83100 14.47500 31.17300
O  41.73800 14.04700 31.41100
C  43.80300 15.18800 32.26000
C  43.09100 16.34700 32.98500
O  43.14300 17.52100 32.63100
O  42.39300 16.01800 34.20200
C  41.95800 17.12400 35.02800
H  49.06500 19.29400 31.28200
H  49.87400 16.99500 25.28600
H  44.48800 13.64100 26.02200
H  45.54700 17.29000 33.80100
H  48.17400 18.15200 33.47000
H  45.67100 19.57800 33.23900
H  46.68200 20.21600 31.94200
H  47.37300 20.18700 33.53400
H  48.21700 15.81300 34.04000
H  46.74700 14.94400 33.84000
H  46.01900 15.48700 36.06400
H  46.60100 17.08600 35.97500
H  52.24000 19.83700 29.48600
H  51.00200 19.98700 30.72900
H  51.03500 21.08400 29.29400
H  52.88500 20.52600 25.68100
H  53.22400 20.01000 27.29600
H  51.93900 21.14800 27.08800
H  48.81500 14.16200 24.89400
H  46.09800 14.93500 24.09100
H  48.46400 16.74400 23.25700
H  47.94800 15.30600 22.34400
H  49.55300 15.47400 23.08100
H  47.39900 12.67600 23.63700
H  45.83800 12.49900 24.15200
H  48.16500 11.42000 25.42500
H  46.52300 11.10900 25.73900
H  47.46300 12.44100 26.65500
H  42.67400 12.05400 28.11700
H  42.24500 13.39600 27.00100
H  41.40500 13.27600 28.57300
H  43.86700 14.46900 33.07700
H  42.33500 18.10800 34.75100
H  42.15700 16.93700 36.08400
H  40.87900 17.25000 34.93900
Mg -8.56500 40.38400 43.43300
C  -7.39700 37.26300 42.26000
C  -5.96400 41.91300 41.85300
C  -10.05600 43.36100 43.92300
C  -11.38600 38.64600 44.69400
N  -6.86200 39.61400 42.26600
C  -6.48400 38.33800 41.93600
C  -5.22700 38.31800 41.05100
C  -4.79400 39.75800 41.16000
C  -5.93300 40.49000 41.86000
C  -3.45500 39.89300 41.86900
C  -5.43400 37.64600 39.62800
C  -4.63800 36.47300 39.23900
H  -3.69000 36.59400 38.03300
N  -8.03900 42.40100 43.01600
C  -6.94800 42.81700 42.33000
C  -6.99700 44.29700 42.19600
C  -8.20700 44.70700 42.83700
C  -8.79500 43.46100 43.29500
C  -5.95300 45.06100 41.41200
C  -8.71800 46.20900 42.88700
O  -8.26200 47.11800 42.18900
C  -9.79300 46.55800 43.86100
N  -10.55100 40.95600 43.99900
C  -10.84200 42.27200 44.25500
C  -12.25800 42.36500 44.85400
C  -12.62300 40.84000 45.25500
C  -11.55000 40.04200 44.44300
C  -12.40600 43.28100 46.09600
C  -14.08500 40.43800 44.88200
C  -14.72200 39.48500 45.98800
N  -9.25100 38.36900 43.59700
C  -10.39400 37.81900 44.15400
C  -10.31900 36.40200 44.21300
C  -9.19300 36.11100 43.42900
C  -8.54800 37.37600 43.07900
C  -11.36900 35.46100 44.79100
C  -8.51800 35.07500 42.76800
O  -8.67400 33.83800 42.72800
C  -7.28800 35.73600 41.93900
C  -6.08000 35.06000 42.33000
O  -5.45100 35.28700 43.33900
O  -5.68100 34.15200 41.36900
C  -4.46500 33.40500 41.60400
H  -5.11600 42.43200 41.39900
H  -10.64800 44.25600 44.12900
H  -12.24300 38.28500 45.26600
H  -4.50400 37.74600 41.63100
H  -4.77900 40.17600 40.15400
H  -2.66900 39.46200 41.24800
H  -3.50500 39.29700 42.78000
H  -3.02300 40.87100 42.08300
H  -5.14300 38.32600 38.82700
H  -6.48800 37.43200 39.45200
H  -5.29500 35.63200 39.01300
H  -4.04100 36.11000 40.07500
H  -6.40300 45.89100 40.86700
H  -5.43600 44.40300 40.71300
H  -5.18600 45.49800 42.05100
H  -9.82400 47.63100 44.04600
H  -9.69000 46.06400 44.82700
H  -10.75500 46.28400 43.42800
H  -12.91400 42.78900 44.09400
H  -12.39000 40.59200 46.29100
H  -13.10300 44.11400 46.00400
H  -11.43900 43.75300 46.27000
H  -12.82800 42.75500 46.95200
H  -13.99500 39.84400 43.97300
H  -14.78700 41.24200 44.66000
H  -14.21300 39.58400 46.94700
H  -14.55500 38.45000 45.68800
H  -15.81000 39.55200 45.96900
H  -11.94300 35.10300 43.93700
H  -11.96700 35.79800 45.63800
H  -10.67600 34.72900 45.20600
H  -7.51900 35.62000 40.88000
H  -4.78200 32.42900 41.97200
H  -3.89600 33.73600 42.47300
H  -3.90400 33.05800 40.73600

