158

Mg 35.18100 2.72700 30.27200
C  33.01200 3.93200 32.74300
C  37.78600 2.85900 32.37200
C  37.22700 1.47200 27.77800
C  32.70700 3.28600 27.92000
N  35.38900 3.29900 32.36100
C  34.28700 3.64400 33.20100
C  34.82900 3.75700 34.68300
C  36.36800 3.81700 34.44600
C  36.58100 3.27900 32.99500
C  37.00100 5.22400 34.76900
C  34.33400 2.48800 35.44200
C  33.68500 2.71700 36.79700
H  34.23900 3.85700 37.63900
N  37.15900 2.17600 30.15000
C  38.08800 2.42400 31.13300
C  39.35000 2.08400 30.69600
C  39.25000 1.58700 29.39500
C  37.86100 1.74400 29.00400
C  40.63100 2.00400 31.66700
C  40.29800 1.00300 28.46100
O  39.96300 0.64200 27.29400
C  41.71500 0.90500 28.81500
N  34.96600 2.37600 28.18100
C  35.88900 1.70200 27.41200
C  35.50100 1.79400 25.91700
C  33.97000 2.18900 25.98600
C  33.92700 2.77500 27.45500
C  36.41300 2.83500 25.22000
C  33.06800 0.96800 25.69800
C  32.73600 0.85100 24.25400
N  33.23800 3.44200 30.25800
C  32.34000 3.59700 29.23100
C  31.07200 4.04500 29.78300
C  31.26300 4.27000 31.12400
C  32.58000 3.83600 31.41400
C  29.76000 4.41500 29.00100
C  30.73800 4.82100 32.42000
O  29.66300 5.34900 32.72100
C  31.86100 4.45600 33.50900
C  32.12300 5.79900 34.11900
O  32.78600 6.68200 33.61500
O  31.51200 5.88000 35.25700
C  31.51600 7.12200 35.97600
H  38.59200 2.86200 33.10800
H  37.80400 1.26100 26.87500
H  32.00100 3.52300 27.12200
H  34.29600 4.58600 35.14900
H  36.91800 3.11200 35.07000
H  36.22300 5.89000 35.14200
H  37.68000 5.48900 33.95800
H  37.73600 5.08400 35.56200
H  35.17100 1.79100 35.47100
H  33.51400 1.98100 34.93300
H  33.79900 1.72900 37.24200
H  32.63500 2.98500 36.68800
H  40.49100 2.32400 32.70000
H  41.50900 2.58000 31.37200
H  40.89300 0.94900 31.59100
H  42.08300 1.90100 29.06200
H  42.34400 0.56500 27.99300
H  41.95900 0.19300 29.60300
H  35.62300 0.78400 25.52400
H  33.80000 2.99500 25.27100
H  35.84000 3.49200 24.56600
H  37.00600 2.19300 24.56900
H  36.98200 3.46300 25.90600
H  32.26700 1.03000 26.43500
H  33.46200 0.02300 26.07100
H  31.71000 1.13600 24.02300
H  32.91800 -0.17300 23.92900
H  33.39400 1.46300 23.63700
H  29.07700 5.07800 29.53200
H  29.34500 3.42300 28.82600
H  30.02800 4.81000 28.02100
H  31.37400 3.67200 34.08900
H  30.63200 7.73800 35.81300
H  32.40700 7.70700 35.75300
H  31.51300 6.88400 37.04000
Mg 26.85700 51.02000 25.91600
C  24.99800 52.22100 28.59800
C  29.25800 49.85700 28.31900
C  28.73700 49.87100 23.33700
C  24.83300 52.67900 23.62400
N  27.02100 50.79200 28.28200
C  26.12700 51.48200 29.14700
C  26.44900 51.13900 30.68100
C  27.89300 50.43900 30.49200
C  28.12200 50.36100 28.90400
C  29.06800 51.11300 31.27700
C  25.23600 50.38900 31.34800
C  25.53200 49.30900 32.44800
H  24.96100 49.68400 33.90300
N  28.63100 49.90900 25.84200
C  29.50800 49.62300 26.95100
C  30.76100 48.88200 26.48000
C  30.54900 48.75600 25.04100
C  29.23000 49.51500 24.66900
C  31.86900 48.45300 27.32000
C  31.51100 48.17400 23.99000
O  31.28300 48.31600 22.77900
C  32.78000 47.53100 24.49500
N  26.81300 51.27000 23.77900
C  27.64800 50.58400 22.90200
C  27.12100 50.67800 21.42700
C  25.84100 51.60300 21.69400
C  25.81600 51.89600 23.09200
C  28.15800 51.23800 20.41300
C  24.61800 50.89900 21.15000
C  24.37000 49.55400 21.80400
N  25.22700 52.21200 26.01900
C  24.53100 52.87400 25.01600
C  23.36100 53.49900 25.73100
C  23.49300 53.16600 27.07800
C  24.70100 52.49700 27.21000
C  22.24100 54.24900 25.11400
C  22.82200 53.30200 28.26900
O  21.70800 53.79000 28.51600
C  23.78800 52.73200 29.37100
C  24.22700 53.82200 30.32700
O  25.19400 54.55100 30.22600
O  23.36200 53.73800 31.37800
C  23.83900 54.36700 32.62500
H  30.04900 49.57300 29.01500
H  29.33500 49.42100 22.54100
H  24.13900 53.05000 22.86700
H  26.60600 52.08500 31.19800
H  27.86800 49.37800 30.73900
H  28.94400 52.16600 31.52800
H  30.01800 51.16400 30.74500
H  29.13700 50.72500 32.29400
H  24.71200 49.80400 30.59200
H  24.57600 51.14800 31.76700
H  26.61900 49.24900 32.50000
H  25.02400 48.35700 32.29300
H  31.94800 47.37300 27.19700
H  31.65400 48.67700 28.36500
H  32.78600 49.00400 27.11300
H  33.32800 48.16500 25.19300
H  33.51100 47.47600 23.68800
H  32.55800 46.58400 24.98600
H  26.80400 49.70400 21.05300
H  25.97900 52.56200 21.19500
H  27.77300 52.15700 19.96900
H  28.57600 50.62300 19.61600
H  28.91400 51.40300 21.18000
H  24.59600 50.85500 20.06100
H  23.74000 51.48400 21.42600
H  24.59600 49.57400 22.87000
H  24.79900 48.74300 21.21600
H  23.28500 49.49500 21.71300
H  21.50100 53.63900 24.59600
H  22.60300 54.95100 24.36300
H  21.69800 54.80800 25.87600
H  23.25300 51.99400 29.96900
H  24.10700 55.38400 32.33900
H  24.71800 53.85000 33.00800
H  23.01500 54.47200 33.33100

