158

Mg 7.71100 53.85700 40.03300
C  7.25500 50.46600 40.15400
C  11.00500 53.50600 39.05400
C  7.84900 57.17600 39.36500
C  4.12800 54.19900 40.68300
N  8.97200 52.14400 39.60500
C  8.54700 50.82000 39.65800
C  9.76000 49.88700 39.36700
C  10.98700 50.85000 39.37700
C  10.29600 52.26100 39.34600
C  12.04100 50.61800 40.42000
C  9.54300 49.13600 37.99900
C  9.36000 49.99100 36.71300
H  8.31400 49.50200 35.66900
N  9.26400 55.19000 39.33600
C  10.49000 54.83400 38.91100
C  11.18000 55.98700 38.58500
C  10.35100 57.10000 38.66700
C  9.11400 56.54200 39.15700
C  12.66400 55.84800 38.15800
C  10.71100 58.51500 38.20400
O  11.85000 58.72100 37.78300
C  9.77600 59.66300 38.30900
N  6.20100 55.45100 40.06400
C  6.59000 56.73900 39.84000
C  5.37200 57.73200 40.00400
C  4.25500 56.71400 40.50700
C  4.87600 55.36200 40.36100
C  5.57800 59.08900 40.78600
C  2.79400 56.91300 39.92600
C  1.62200 56.98100 40.98500
N  5.96300 52.58500 40.44600
C  4.64700 52.85900 40.68400
C  3.99700 51.54300 40.95900
C  5.00200 50.63100 40.80500
C  6.15000 51.25600 40.38300
C  2.58400 51.39600 41.53100
C  5.26000 49.21700 40.95600
O  4.57000 48.28300 41.33200
C  6.73000 49.03600 40.48600
C  6.64100 48.14000 39.30600
O  6.12000 48.31300 38.22700
O  7.19900 46.94900 39.62300
C  6.77900 45.77200 38.84000
H  12.07300 53.37200 38.86700
H  8.00900 58.25600 39.31800
H  3.12600 54.49600 40.99800
H  9.78600 49.14900 40.16800
H  11.50300 50.81700 38.41700
H  12.91800 50.40500 39.80800
H  11.76200 49.68400 40.90700
H  12.26100 51.40200 41.14400
H  8.83900 48.31100 38.10600
H  10.48600 48.59900 37.89100
H  10.33200 49.95300 36.22200
H  9.10100 51.03500 36.89200
H  12.68800 56.06000 37.08900
H  13.12600 54.91500 38.48100
H  13.12700 56.64300 38.74200
H  9.60200 59.82500 39.37200
H  8.88200 59.51400 37.70300
H  10.29500 60.49500 37.83300
H  5.05700 58.03800 39.00700
H  4.28000 56.79400 41.59300
H  4.76300 59.22800 41.49700
H  5.49100 59.93700 40.10600
H  6.50900 59.09000 41.35400
H  2.60200 56.08400 39.24400
H  2.75500 57.80400 39.29900
H  1.03200 57.85600 40.71600
H  1.99700 57.11200 42.00000
H  0.91600 56.15300 41.05000
H  2.17100 52.38800 41.71800
H  2.78500 50.94600 42.50300
H  1.94300 50.77600 40.90500
H  7.31700 48.55900 41.27100
H  6.69300 44.95700 39.55800
H  7.57900 45.37500 38.21500
H  5.88400 45.95000 38.24400
Mg 0.39800 43.01100 26.53700
C  2.49600 42.24600 29.21000
C  -2.24600 41.89300 28.43900
C  -1.59400 43.39600 23.89100
C  3.12300 44.02000 24.60700
N  0.18600 41.94200 28.57100
C  1.17500 41.88400 29.52300
C  0.55000 41.78000 30.88400
C  -0.96500 41.52300 30.62400
C  -1.03900 41.84500 29.09900
C  -1.54900 40.17800 30.85000
C  0.80700 43.06400 31.75200
C  1.08700 42.83600 33.27800
H  0.53000 41.59800 33.94600
N  -1.63900 42.65100 26.19600
C  -2.60000 42.25600 27.12800
C  -3.89500 42.15600 26.46100
C  -3.72100 42.53400 25.07400
C  -2.29000 42.88600 24.98400
C  -5.14400 41.75200 27.19600
C  -4.67000 42.70500 23.97000
O  -4.44400 43.22700 22.90900
C  -6.05100 42.22800 24.15900
N  0.68100 43.62000 24.55900
C  -0.32200 43.81100 23.65400
C  0.07100 44.49800 22.35100
C  1.52200 44.79300 22.73600
C  1.83700 44.11700 24.05000
C  -0.07300 43.61000 21.12800
C  2.09500 46.24400 22.42900
C  1.98200 47.29500 23.51500
N  2.40400 43.08700 26.75100
C  3.38600 43.51100 25.88400
C  4.67100 43.38900 26.55100
C  4.36800 42.89600 27.81300
C  2.94100 42.74200 27.96400
C  6.03800 43.75000 25.89700
C  4.95500 42.54300 29.05900
O  6.10200 42.34300 29.39700
C  3.74900 42.30200 30.04300
C  4.03800 41.07300 30.85200
O  3.79600 39.92500 30.49300
O  4.64300 41.41400 32.01200
C  5.03000 40.25100 32.86500
H  -3.17300 41.62700 28.95000
H  -2.26600 43.41800 23.03000
H  3.94000 44.45700 24.02900
H  1.08300 40.94000 31.33000
H  -1.60600 42.26800 31.09600
H  -1.08800 39.66100 31.69100
H  -1.28800 39.58100 29.97600
H  -2.63900 40.16700 30.89200
H  -0.09600 43.66900 31.67200
H  1.66600 43.67900 31.48400
H  0.74400 43.71800 33.82000
H  2.17500 42.86600 33.33600
H  -5.87100 42.55800 27.30000
H  -5.03600 41.40300 28.22300
H  -5.61900 40.91500 26.68400
H  -6.42200 42.19100 23.13400
H  -6.61900 42.96500 24.72800
H  -6.05400 41.21300 24.55400
H  -0.53800 45.38600 22.17900
H  2.15000 44.04400 22.25400
H  0.88600 43.29400 20.71800
H  -0.66100 44.14300 20.38100
H  -0.65800 42.71400 21.33900
H  1.51800 46.61400 21.58200
H  3.05400 46.03300 21.95400
H  1.75400 46.90800 24.50800
H  1.36600 48.16000 23.27200
H  3.05400 47.47100 23.60600
H  6.25500 43.02400 25.11300
H  6.73100 43.64800 26.73200
H  6.01700 44.74300 25.44700
H  3.64400 43.05600 30.82300
H  5.00500 40.54400 33.91400
H  6.10500 40.09500 32.77300
H  4.54200 39.31100 32.60700

