158

Mg 0.10200 7.78700 26.98000
C  0.95700 9.91800 29.53700
C  0.57200 5.02000 29.14200
C  0.11600 5.83500 24.24200
C  0.72000 10.59600 24.73700
N  0.90000 7.51100 29.06200
C  0.78400 8.55000 29.95200
C  0.70700 8.07000 31.37900
C  1.01200 6.53100 31.30500
C  0.79900 6.30500 29.72900
C  2.34400 6.02000 31.90500
C  -0.62700 8.36100 32.05800
C  -0.51300 8.82700 33.50400
H  0.52400 8.30100 34.48100
N  0.23800 5.68800 26.69900
C  0.30400 4.79400 27.74100
C  0.21500 3.49000 27.07600
C  0.10500 3.66100 25.66700
C  0.08000 5.12800 25.49900
C  0.27000 2.28700 27.92000
C  0.03500 2.71000 24.51600
O  -0.25200 3.03100 23.38800
C  -0.00800 1.24300 24.82900
N  0.29900 8.15700 24.75500
C  0.18000 7.17100 23.84900
C  0.32600 7.74100 22.43200
C  0.42200 9.28800 22.60500
C  0.42700 9.38600 24.14000
C  1.47500 7.16300 21.57100
C  -0.76100 10.17700 21.99300
C  -2.01900 10.39100 22.80000
N  0.62600 9.82800 27.08100
C  0.80700 10.83100 26.15100
C  1.09700 12.09900 26.76700
C  1.21800 11.82100 28.13000
C  0.85900 10.44100 28.25700
C  1.41000 13.42600 26.02500
C  1.58800 12.32100 29.43600
O  1.84900 13.45000 29.82100
C  1.43800 11.08800 30.43500
C  2.66800 10.76100 31.11400
O  3.70600 10.21200 30.71100
O  2.50800 11.14200 32.49200
C  3.81500 11.12300 33.26400
H  0.57500 4.16300 29.82000
H  -0.15400 5.32100 23.31800
H  0.71000 11.49900 24.12400
H  1.54500 8.44200 31.96900
H  0.19400 5.99600 31.78900
H  2.11800 5.32100 32.71000
H  2.95500 6.81100 32.33900
H  2.83400 5.46900 31.10200
H  -1.39700 7.59400 31.97900
H  -1.13800 9.20700 31.59900
H  -1.48800 8.75700 33.98600
H  -0.22700 9.87800 33.44400
H  -0.59500 1.62500 27.90800
H  0.24000 2.47200 28.99400
H  1.23600 1.82600 27.71400
H  0.13600 0.62300 23.94400
H  -0.98700 0.94400 25.20300
H  0.74700 0.87900 25.52500
H  -0.59700 7.51500 21.89900
H  1.36300 9.73700 22.28700
H  0.89000 6.66900 20.79600
H  2.18500 6.52100 22.09300
H  2.04700 7.90600 21.01600
H  -1.11700 9.72300 21.06800
H  -0.44100 11.14600 21.61100
H  -2.13700 9.59500 23.53400
H  -2.86600 10.28500 22.12300
H  -2.03300 11.38700 23.24400
H  1.76900 13.21300 25.01800
H  2.13800 14.04500 26.54900
H  0.46700 13.95500 25.88900
H  0.58900 11.06200 31.11800
H  4.27900 12.06900 32.98500
H  4.66400 10.47500 33.04800
H  3.65100 11.07500 34.34100
Mg 29.09300 57.67300 41.06900
C  26.23600 56.01300 39.91700
C  31.13500 55.49400 39.30800
C  31.85700 59.62200 41.72300
C  26.96100 60.35700 42.01800
N  28.68900 55.97600 39.75900
C  27.47300 55.44500 39.43100
C  27.74000 54.02600 38.72500
C  29.31700 53.79800 38.75400
C  29.75500 55.20800 39.30100
C  29.76100 52.57600 39.58600
C  26.91300 53.75900 37.34400
C  26.77700 54.96700 36.39700
H  27.41700 54.79900 34.98700
N  31.19900 57.52800 40.69900
C  31.85300 56.48400 39.98900
C  33.27500 56.77200 39.88600
C  33.54400 58.05200 40.62200
C  32.19400 58.46000 41.07100
C  34.20500 55.73200 39.25600
C  34.85900 58.68800 40.79000
O  35.89100 58.09800 40.45000
C  35.10900 59.99800 41.56500
N  29.39300 59.77700 41.50000
C  30.60200 60.26400 41.85200
C  30.50000 61.72000 42.48100
C  28.99300 61.90600 42.66300
C  28.35000 60.63300 42.00400
C  31.32800 62.06500 43.75700
C  28.48300 63.27000 42.02400
C  27.23300 63.89300 42.76200
N  27.07100 58.03400 41.24400
C  26.32800 59.15300 41.59500
C  24.89200 58.84200 41.55700
C  24.86100 57.62700 40.87600
C  26.16800 57.22300 40.65600
C  23.83000 59.71700 42.00500
C  23.91400 56.66600 40.37400
O  22.66300 56.56100 40.44800
C  24.81800 55.56000 39.78200
C  24.56500 54.20900 40.35800
O  25.04500 53.66800 41.34900
O  23.60800 53.67200 39.48400
C  23.37800 52.26400 39.78200
H  31.72000 54.72900 38.79300
H  32.75300 60.06300 42.16300
H  26.32500 61.16400 42.38800
H  27.27800 53.30500 39.40000
H  29.69000 53.88500 37.73400
H  30.68800 52.77900 40.12200
H  29.95600 51.78000 38.86600
H  29.07300 52.25300 40.36700
H  25.91700 53.36500 37.54300
H  27.49200 52.92500 36.94500
H  27.12600 55.88800 36.86500
H  25.71700 55.19600 36.28800
H  35.08000 56.23300 38.84200
H  33.76100 55.28600 38.36600
H  34.51300 54.95100 39.95100
H  34.50900 60.86100 41.27800
H  36.10000 60.40800 41.37100
H  35.05600 59.73300 42.62100
H  30.77300 62.47300 41.74200
H  28.64700 61.96500 43.69500
H  32.08000 61.32500 44.03100
H  30.68800 62.08400 44.63900
H  31.73800 63.06500 43.61500
H  28.07500 63.02300 41.04400
H  29.23300 64.05500 41.93400
H  27.51500 64.92400 42.97700
H  26.99700 63.41900 43.71500
H  26.31500 63.82600 42.17700
H  22.82700 59.29300 41.96000
H  23.93900 60.70000 41.54700
H  23.92300 59.87900 43.07900
H  24.58500 55.50100 38.71900
H  23.82200 51.64600 39.00100
H  22.31600 52.11800 39.58500
H  23.61700 51.87200 40.77000

