158

Mg -2.46100 16.85800 26.78400
C  -2.88500 14.52900 29.56000
C  -2.72600 19.42200 29.06900
C  -2.46900 18.79200 24.16500
C  -2.83200 13.94100 24.73800
N  -2.87400 16.97400 29.07500
C  -2.82100 15.91300 29.94200
C  -2.85500 16.47900 31.43500
C  -2.95200 18.04500 31.18800
C  -2.85500 18.15700 29.69300
C  -4.23100 18.74900 31.81400
C  -1.70400 15.94100 32.41600
C  -1.19200 16.88800 33.49700
H  -0.74800 16.21300 34.75700
N  -2.48400 18.82500 26.67400
C  -2.60000 19.76800 27.70000
C  -2.58100 21.08900 27.09500
C  -2.59300 20.91800 25.65200
C  -2.49600 19.44600 25.43700
C  -2.75300 22.28700 27.99100
C  -2.66300 21.95500 24.63300
O  -2.79500 21.67800 23.42500
C  -2.78400 23.41600 25.01500
N  -2.71700 16.38400 24.78000
C  -2.57300 17.35000 23.82700
C  -2.59400 16.84100 22.34600
C  -2.58300 15.30500 22.60700
C  -2.59200 15.13300 24.11200
C  -3.92300 17.30500 21.62400
C  -1.45200 14.52200 21.82800
C  -1.93000 13.41000 20.81100
N  -2.82100 14.67100 27.01900
C  -2.89700 13.68200 26.10100
C  -2.96700 12.40700 26.74200
C  -2.99000 12.72500 28.08700
C  -2.85600 14.09500 28.25900
C  -2.93000 11.03800 26.09300
C  -3.00100 12.09100 29.42700
O  -3.08300 10.93400 29.82400
C  -2.88200 13.28500 30.43800
C  -1.62600 13.10400 31.17500
O  -0.52300 13.42900 30.76800
O  -1.78500 12.49200 32.36300
C  -0.64200 12.36900 33.31100
H  -2.63000 20.30200 29.70800
H  -2.40400 19.44500 23.29200
H  -2.81300 13.01400 24.16300
H  -3.78100 16.05600 31.82400
H  -2.11100 18.64700 31.53000
H  -5.07700 18.80400 31.12900
H  -3.93800 19.72400 32.20600
H  -4.53200 18.13800 32.66500
H  -0.86800 15.73400 31.74800
H  -1.99700 14.98900 32.86000
H  -1.90000 17.69500 33.68500
H  -0.29700 17.31500 33.04400
H  -3.34900 21.97500 28.84900
H  -3.25600 23.15800 27.57000
H  -1.86300 22.78400 28.37600
H  -2.86900 24.06700 24.14500
H  -1.94300 23.82400 25.57500
H  -3.68900 23.55400 25.60600
H  -1.73500 17.20300 21.78100
H  -3.57000 14.95200 22.30900
H  -4.80000 17.02000 22.20400
H  -4.05700 16.65600 20.75900
H  -4.05900 18.34900 21.34100
H  -0.68900 14.11500 22.49200
H  -0.93500 15.23800 21.19000
H  -1.50400 13.63600 19.83400
H  -3.01000 13.42700 20.66400
H  -1.58700 12.40600 21.06200
H  -3.91600 10.64900 25.84100
H  -2.36800 10.42900 26.80200
H  -2.41300 11.08800 25.13500
H  -3.75900 13.22500 31.08200
H  -0.78300 11.31100 33.53100
H  -0.68200 13.04000 34.16900
H  0.36600 12.55100 32.93800
Mg 49.57300 45.66300 43.27800
C  46.15500 46.09500 42.34900
C  49.32500 42.35600 42.18200
C  52.88500 45.58200 43.17100
C  49.70300 49.19800 43.82600
N  47.88600 44.36200 42.53700
C  46.61600 44.76600 42.19000
C  45.77900 43.58900 41.59800
C  46.64800 42.31900 41.90600
C  48.06800 42.99400 42.22900
C  46.28000 41.34500 43.11200
C  45.39400 43.79300 40.07800
C  46.49800 43.94000 39.04600
H  46.34800 42.92500 37.84700
N  50.91500 44.15900 42.82100
C  50.60600 42.90500 42.37100
C  51.87500 42.16900 42.26600
C  52.93800 43.01700 42.50600
C  52.27900 44.34700 42.74500
C  51.84900 40.63100 42.02200
C  54.43000 42.59700 42.47600
O  54.72700 41.39400 42.33100
C  55.56400 43.67800 42.65600
N  50.95800 47.18100 43.40000
C  52.29500 46.80700 43.45900
C  53.22100 48.07900 43.58100
C  52.22500 49.20900 43.83900
C  50.84700 48.47900 43.68500
C  54.38100 47.93600 44.58900
C  52.35200 50.51700 42.91400
C  52.65900 51.85100 43.60400
N  48.20100 47.34800 43.23200
C  48.40300 48.69500 43.52900
C  47.16800 49.43200 43.23100
C  46.25100 48.43300 42.82600
C  46.93800 47.19300 42.81600
C  47.12400 50.95400 43.31200
C  44.88700 48.21100 42.33500
O  43.94500 48.97700 42.04400
C  44.80200 46.68800 42.05000
C  43.73800 46.05700 42.81200
O  42.91100 45.28400 42.33600
O  43.58200 46.52700 44.06900
C  42.50000 45.97400 44.82100
H  49.20200 41.29200 41.97000
H  53.97500 45.62900 43.14900
H  49.67800 50.22600 44.19400
H  44.84000 43.42600 42.12800
H  46.86300 41.67500 41.05300
H  46.59300 40.33400 42.84900
H  45.19100 41.39300 43.11800
H  46.78900 41.75000 43.98600
H  44.79200 44.67300 39.85100
H  44.73100 42.93200 39.98200
H  47.47800 43.74900 39.48300
H  46.58300 44.94400 38.62900
H  52.61500 40.34100 41.30200
H  50.90000 40.17900 41.73700
H  52.15600 40.20900 42.97900
H  55.43700 44.45700 41.90400
H  56.46600 43.10100 42.45300
H  55.54400 44.07400 43.67100
H  53.60400 48.18700 42.56600
H  52.32300 49.57500 44.86000
H  55.25500 47.68700 43.98700
H  54.17100 47.04300 45.17800
H  54.44200 48.77600 45.28100
H  51.40000 50.57700 42.38700
H  53.09200 50.46300 42.11500
H  51.70700 52.38100 43.63200
H  53.29200 52.52500 43.02500
H  53.00200 51.67500 44.62400
H  47.27400 51.37300 44.30700
H  46.12900 51.31300 43.04800
H  47.93000 51.17300 42.61200
H  44.53700 46.66700 40.99300
H  41.72700 46.73800 44.90200
H  42.83900 45.70100 45.82000
H  41.83200 45.17000 44.51200

