158

Mg 47.47700 14.87600 28.27900
C  45.43700 14.87200 30.97300
C  49.42100 17.10600 29.77400
C  49.13000 15.31500 25.35100
C  44.90500 13.11700 26.41500
N  47.37100 15.87000 30.13600
C  46.51200 15.64600 31.16700
C  47.00600 16.37700 32.43700
C  48.02300 17.39600 31.89100
C  48.26300 16.79000 30.48200
C  47.56300 18.85000 31.89100
C  47.45000 15.41200 33.66100
C  47.38000 16.00600 35.02600
H  48.52000 15.69900 35.95200
N  49.12300 15.92000 27.71000
C  49.72600 16.89800 28.43100
C  50.84600 17.48100 27.67600
C  50.90300 16.76300 26.38300
C  49.66500 15.91000 26.42900
C  51.71500 18.56800 28.24800
C  51.75700 16.88800 25.16600
O  51.71100 16.17600 24.13400
C  52.96500 17.80800 25.35500
N  47.13100 14.12900 26.23000
C  47.95600 14.54700 25.19400
C  47.46600 13.96000 23.86300
C  46.17200 13.21400 24.30400
C  46.04400 13.50200 25.72800
C  47.26900 15.05300 22.83600
C  46.15600 11.74000 23.91600
C  46.76700 10.75000 24.98100
N  45.52300 14.04600 28.60400
C  44.65100 13.41400 27.77400
C  43.55000 13.05600 28.57800
C  43.81100 13.57700 29.84100
C  45.04500 14.16800 29.80700
C  42.33900 12.30100 28.19100
C  43.34300 13.68000 31.15900
O  42.25100 13.24300 31.59200
C  44.39900 14.46300 32.00100
C  43.74000 15.66600 32.63900
O  43.34700 16.64700 32.06300
O  43.62200 15.45200 33.98100
C  42.89900 16.50800 34.73300
H  50.08100 17.77100 30.33600
H  49.59400 15.25800 24.36500
H  44.14400 12.53500 25.89100
H  46.16400 16.98700 32.76400
H  48.89600 17.38500 32.54400
H  48.17900 19.48100 32.53200
H  46.56600 18.95500 32.31700
H  47.58600 19.32200 30.90900
H  48.49000 15.09700 33.57300
H  46.76700 14.56200 33.67300
H  46.41200 15.86900 35.50800
H  47.41700 17.08400 34.86700
H  51.83600 19.32400 27.47200
H  52.58800 18.06900 28.67000
H  51.14200 19.05300 29.03900
H  53.63200 17.58900 26.18900
H  52.53700 18.80500 25.45700
H  53.57900 17.72100 24.45900
H  48.14400 13.15600 23.58100
H  45.37100 13.66800 23.72100
H  47.13000 16.06600 23.21400
H  46.44500 14.66700 22.23600
H  48.09300 14.97500 22.12700
H  46.79700 11.55200 23.05400
H  45.17100 11.41200 23.58400
H  46.10700 10.12000 25.57900
H  47.34100 11.31400 25.71600
H  47.44000 10.06700 24.46200
H  42.18500 11.57500 28.98900
H  42.40000 11.69900 27.28400
H  41.43100 12.89900 28.26600
H  44.70800 13.88300 32.87000
H  43.00500 16.20600 35.77500
H  41.86600 16.61300 34.40100
H  43.36900 17.48700 34.64500
Mg 6.97500 56.80900 41.76800
C  5.62400 53.59700 41.04500
C  9.93200 55.79500 40.85900
C  7.83100 60.18600 41.62700
C  3.68100 57.87600 42.39700
N  7.60100 54.91500 40.91300
C  6.95000 53.67700 40.71800
C  8.00000 52.58200 40.32600
C  9.39300 53.31100 40.57900
C  8.93400 54.75300 40.96000
C  10.17300 52.57800 41.69000
C  7.64600 52.21500 38.82800
C  7.61800 50.73300 38.41000
H  7.41500 50.35000 36.84900
N  8.57800 57.87600 41.22300
C  9.74700 57.25900 40.88000
C  10.76900 58.21700 40.62200
C  10.18400 59.51000 40.72200
C  8.76600 59.24700 41.18200
C  12.16700 57.83600 40.26100
C  10.81700 60.81900 40.45400
O  12.00300 60.96700 40.14300
C  10.16400 62.13800 40.57700
N  5.81700 58.82300 41.91400
C  6.50200 60.02100 41.96200
C  5.51700 61.20300 42.29300
C  4.18800 60.36000 42.54800
C  4.54300 58.93800 42.25000
C  6.04600 62.04700 43.46800
C  2.88100 60.86300 41.81600
C  1.70300 61.47200 42.61300
N  5.04200 56.00300 41.76200
C  3.83700 56.50200 42.19000
C  2.84300 55.53200 42.30500
C  3.56500 54.32100 41.92100
C  4.85200 54.66400 41.55400
C  1.42100 55.58300 42.84100
C  3.47300 52.88300 41.79700
O  2.63700 52.09600 42.16800
C  4.69000 52.37700 41.23000
C  4.33300 51.74500 39.90300
O  4.14000 52.32200 38.84100
O  4.22300 50.41200 40.02300
C  3.64400 49.62600 38.88800
H  10.93500 55.54300 40.50700
H  8.24500 61.19400 41.69700
H  2.66000 58.22400 42.56700
H  7.69100 51.79200 41.01000
H  10.08900 53.22700 39.74400
H  11.17100 53.01100 41.75100
H  10.17800 51.50000 41.53200
H  9.60300 52.91100 42.55700
H  8.33500 52.62100 38.08700
H  6.72100 52.69600 38.51000
H  6.86900 50.29500 39.06900
H  8.58000 50.32200 38.71700
H  12.43700 58.35100 39.33900
H  12.42200 56.79800 40.04600
H  12.85700 58.16400 41.03800
H  10.39800 62.47000 41.58800
H  9.11400 62.22400 40.29900
H  10.62200 62.85700 39.89800
H  5.49000 61.70200 41.32400
H  4.00100 60.31100 43.62000
H  5.36600 61.97300 44.31700
H  6.10800 63.08800 43.15100
H  7.07100 61.81200 43.75400
H  2.38200 60.09900 41.22000
H  3.25800 61.62300 41.13100
H  1.98600 61.23900 43.64000
H  0.79800 60.95700 42.29200
H  1.59800 62.49600 42.25400
H  0.75100 55.22000 42.06100
H  1.12500 56.61300 43.03600
H  1.33400 55.05400 43.79000
H  5.23800 51.64200 41.82000
H  3.29300 48.77700 39.47400
H  4.38300 49.45000 38.10700
H  2.85900 50.21900 38.41800

