158

Mg 44.76700 5.03200 47.85000
C  42.47600 7.58500 47.69300
C  42.21200 2.76500 47.78000
C  46.97500 2.64600 47.33300
C  47.35700 7.49400 47.25600
N  42.67300 5.22500 47.50800
C  41.87400 6.36000 47.56900
C  40.34800 6.05600 47.28100
C  40.35100 4.46100 47.58400
C  41.85900 4.10900 47.63800
C  39.34200 3.93400 48.70900
C  39.81300 6.43900 45.89500
C  40.72800 7.06400 44.78500
H  40.39000 6.56200 43.33400
N  44.59600 2.92200 47.58900
C  43.46400 2.21300 47.65700
C  43.82700 0.81900 47.51400
C  45.25900 0.69100 47.58900
C  45.68600 2.12000 47.49000
C  42.84300 -0.21600 47.37500
C  45.97700 -0.68800 47.56900
O  45.37700 -1.76200 47.53700
C  47.49800 -0.80900 47.60400
N  46.91800 5.06800 47.53500
C  47.57300 3.88200 47.35000
C  49.05700 4.16600 47.12500
C  49.19900 5.72600 46.95100
C  47.77300 6.16100 47.33100
C  49.95900 3.68700 48.20700
C  49.64200 6.14200 45.51400
C  48.92000 5.45700 44.33500
N  44.96000 7.15900 47.65500
C  46.04600 8.00800 47.50100
C  45.61700 9.32800 47.45700
C  44.19900 9.25600 47.63000
C  43.89500 7.89400 47.68600
C  46.51700 10.47400 47.12900
C  42.99500 10.02800 47.68300
O  42.69400 11.24300 47.62100
C  41.81700 8.94100 47.75800
C  40.96400 9.26000 48.97600
O  40.93800 8.67600 50.07700
O  40.10700 10.25100 48.58900
C  38.98400 10.46900 49.48100
H  41.35800 2.09900 47.63500
H  47.77600 1.90600 47.26500
H  48.13100 8.21700 46.99300
H  39.73300 6.53800 48.04100
H  39.94700 3.92700 46.72300
H  38.49500 4.58600 48.92000
H  39.90800 3.64300 49.59400
H  39.02800 2.98200 48.28100
H  39.05500 7.19200 46.11100
H  39.39900 5.52300 45.47500
H  41.69200 6.66500 45.10100
H  40.70000 8.15400 44.79400
H  42.76800 -0.85300 48.25600
H  43.12100 -1.04500 46.72400
H  41.79700 0.00100 47.15700
H  47.86000 -0.26200 48.47500
H  47.88000 -0.34500 46.69400
H  47.79300 -1.85800 47.57000
H  49.29600 3.67300 46.18300
H  49.92900 6.12600 47.65400
H  49.36800 3.58100 49.11700
H  50.70100 4.38400 48.59500
H  50.38400 2.71200 47.97100
H  50.72200 5.99100 45.52300
H  49.53500 7.21300 45.34600
H  47.95000 5.02100 44.57200
H  49.42900 4.60300 43.88800
H  48.67200 6.09300 43.48500
H  47.23900 10.10400 46.40000
H  47.00700 10.79100 48.04900
H  45.92000 11.28300 46.70900
H  41.17300 8.96800 46.87900
H  39.28400 10.64600 50.51400
H  38.28600 9.63300 49.44200
H  38.35200 11.31100 49.19600
Mg -10.49200 40.05500 39.79700
C  -9.19100 36.88200 39.19600
C  -7.36800 41.34400 39.17100
C  -11.85400 43.10500 39.73200
C  -13.75500 38.62200 39.85900
N  -8.59900 39.21200 39.13500
C  -8.26500 37.88400 38.97700
C  -6.77500 37.70700 38.43800
C  -6.21900 39.13700 38.74300
C  -7.47300 39.96200 39.08600
C  -5.01500 39.12400 39.78800
C  -6.63800 37.18200 36.99800
C  -7.40300 37.90400 35.88900
H  -8.67500 37.30900 35.30600
N  -9.71200 41.96200 39.58400
C  -8.39400 42.25400 39.38200
C  -8.25600 43.67600 39.32700
C  -9.48200 44.27700 39.51200
C  -10.43000 43.12600 39.68400
C  -6.88800 44.31400 39.05200
C  -9.82100 45.80400 39.58500
O  -8.91900 46.64700 39.46400
C  -11.18100 46.25700 40.04600
N  -12.50700 40.75500 39.66100
C  -12.82500 42.07200 39.80400
C  -14.29000 42.33100 40.00900
C  -14.87300 40.89800 40.16100
C  -13.64900 40.01700 39.85200
C  -14.74200 43.36900 41.09400
C  -16.11500 40.48500 39.27800
C  -17.38600 41.32600 39.56200
N  -11.33600 38.24200 39.66700
C  -12.69600 37.78300 39.79200
C  -12.72600 36.34900 39.68600
C  -11.37400 35.99000 39.45700
C  -10.59300 37.17200 39.46500
C  -13.93900 35.45300 39.64800
C  -10.63200 34.77700 39.11100
O  -10.93800 33.62100 38.89500
C  -9.17500 35.30300 39.02200
C  -8.41200 34.63100 40.12000
O  -8.75800 34.52200 41.24600
O  -7.19400 34.18200 39.70400
C  -6.41600 33.31000 40.58600
H  -6.34200 41.70900 39.10200
H  -12.34600 44.07800 39.79000
H  -14.75800 38.21300 39.99900
H  -6.30800 36.96300 39.08300
H  -5.78600 39.68400 37.90600
H  -4.95200 38.22600 40.40300
H  -5.22100 39.86500 40.56000
H  -4.03100 39.33000 39.36500
H  -6.91400 36.12700 36.97900
H  -5.59500 37.19200 36.68300
H  -6.68700 37.98900 35.07200
H  -7.66400 38.91200 36.21000
H  -6.53700 43.95900 38.08300
H  -6.25500 44.08900 39.91100
H  -6.97900 45.39000 38.90600
H  -11.63200 45.66200 40.84100
H  -11.72900 46.33600 39.10700
H  -11.06800 47.29300 40.36700
H  -14.58600 42.67600 39.01700
H  -15.08800 40.71900 41.21400
H  -15.29800 44.20400 40.66800
H  -13.90300 43.85900 41.58800
H  -15.43500 42.91200 41.80000
H  -16.39000 39.48700 39.62000
H  -15.82000 40.56600 38.23100
H  -18.15200 40.55400 39.62700
H  -17.42600 42.03100 38.73200
H  -17.34500 41.99600 40.42100
H  -14.90000 35.95100 39.52400
H  -13.90100 34.95000 40.61500
H  -13.80800 34.72400 38.84800
H  -8.75600 35.06900 38.04400
H  -6.11500 32.39000 40.08500
H  -6.92000 33.07400 41.52300
H  -5.51000 33.71600 41.03500

