158

Mg 54.16300 24.52100 45.41300
C  51.76400 26.77500 44.58100
C  52.08800 22.01100 44.47100
C  56.85700 22.41200 45.23700
C  56.31900 27.21300 46.04600
N  52.22100 24.43300 44.47000
C  51.37500 25.47300 44.31100
C  49.99900 24.94500 43.74000
C  50.00600 23.52400 44.33100
C  51.55000 23.26500 44.43500
C  49.26300 23.22400 45.66800
C  50.04800 25.06400 42.19800
C  48.60900 25.33900 41.62500
H  48.41400 25.63700 40.06900
N  54.44800 22.41800 45.00900
C  53.40100 21.60600 44.61300
C  53.94700 20.29900 44.38700
C  55.35700 20.31600 44.71900
C  55.61400 21.74400 45.00600
C  53.14400 19.18700 43.91500
C  56.24500 19.14000 44.73500
O  55.82600 18.02400 44.43800
C  57.68600 19.21700 45.10800
N  56.27700 24.83000 45.42000
C  57.13400 23.78600 45.37500
C  58.59600 24.24700 45.37200
C  58.47000 25.79300 45.81300
C  56.94700 26.00100 45.78500
C  59.56200 23.39400 46.32600
C  59.22900 26.86900 44.92600
C  60.33900 27.74500 45.53900
N  54.07100 26.61100 45.44500
C  54.91600 27.55300 45.87000
C  54.30000 28.87700 45.93800
C  53.02500 28.64200 45.44500
C  52.97000 27.25700 45.07800
C  54.86600 30.24300 46.46100
C  51.72400 29.19200 45.25200
O  51.32000 30.32300 45.46000
C  50.91300 28.07500 44.44900
C  50.68200 28.53300 43.08800
O  51.50100 28.50100 42.16600
O  49.38300 28.88000 42.88500
C  48.87800 29.35100 41.61400
H  51.33500 21.26200 44.21800
H  57.66900 21.71300 45.02800
H  56.80700 28.15900 46.28800
H  49.22700 25.61300 44.12200
H  49.72600 22.80500 43.56100
H  48.34700 22.72800 45.34800
H  49.03900 24.20300 46.09200
H  49.84500 22.67200 46.40500
H  50.33100 24.13600 41.70200
H  50.68900 25.82400 41.75000
H  48.11100 26.15700 42.14600
H  47.91400 24.56000 41.93600
H  53.11300 19.16100 42.82500
H  52.10700 19.26700 44.24000
H  53.50100 18.26500 44.37300
H  58.26800 19.65500 44.29600
H  58.12000 18.26200 45.40200
H  57.76700 19.92600 45.93200
H  58.97000 24.28100 44.34900
H  58.86500 25.89400 46.82400
H  59.64200 24.01500 47.21800
H  60.47400 23.38300 45.72900
H  59.18400 22.39800 46.55700
H  58.41400 27.44500 44.48600
H  59.74200 26.40700 44.08300
H  60.67000 27.33300 46.49200
H  59.97800 28.76800 45.63800
H  61.20500 27.78000 44.87800
H  55.23500 30.85000 45.63500
H  55.58500 30.16300 47.27700
H  54.00800 30.80900 46.82600
H  49.96000 27.86700 44.93600
H  47.83800 29.02800 41.57200
H  49.49600 28.96000 40.80500
H  48.94700 30.43800 41.65700
Mg 26.83400 49.91600 26.48000
C  24.68300 51.28200 28.84700
C  28.93100 49.14500 29.07200
C  29.16100 48.88000 24.24800
C  24.73100 51.08400 23.98700
N  26.78700 50.22600 28.80100
C  25.72000 50.64800 29.49800
C  25.90500 50.48700 31.02500
C  27.42900 49.95000 31.07900
C  27.73000 49.75900 29.49100
C  28.44500 50.92700 31.72500
C  24.95200 49.57200 31.66100
C  24.97500 49.15000 33.18700
H  25.80700 49.80400 34.28700
N  28.79400 49.17200 26.64400
C  29.42000 48.86300 27.77700
C  30.67400 48.27500 27.48400
C  30.79400 48.12400 26.04900
C  29.54700 48.69900 25.53200
C  31.74700 47.94400 28.55400
C  31.80000 47.42200 25.21100
O  31.63000 47.24500 24.02200
C  33.09200 46.88000 25.80700
N  26.95700 50.04500 24.46300
C  27.97700 49.48700 23.72200
C  27.76500 49.68200 22.16300
C  26.26400 50.14100 22.14900
C  25.95800 50.48900 23.62500
C  28.82100 50.50500 21.43200
C  25.33800 49.11200 21.47300
C  25.17300 47.73300 22.12000
N  25.00500 50.82400 26.37300
C  24.30900 51.37000 25.27200
C  23.15000 52.11200 25.71200
C  23.23000 52.06000 27.11400
C  24.39000 51.32100 27.47900
C  22.13500 52.78400 24.87800
C  22.65600 52.51300 28.36700
O  21.73700 53.32300 28.54500
C  23.47400 51.88200 29.54300
C  23.71800 52.84000 30.64400
O  24.42900 53.84200 30.59100
O  23.14200 52.44400 31.78800
C  23.39900 53.11300 33.06700
H  29.60100 48.78000 29.85300
H  29.82000 48.61400 23.41800
H  24.05200 51.45900 23.21800
H  25.71900 51.41500 31.56500
H  27.43100 48.97900 31.57400
H  27.99000 51.86500 32.04300
H  29.32300 51.07400 31.09700
H  28.79500 50.48300 32.65700
H  24.95200 48.68700 31.02500
H  23.95400 49.99900 31.56400
H  25.24700 48.10200 33.31400
H  23.93200 49.23800 33.49200
H  31.69600 48.63200 29.39700
H  32.81800 47.92500 28.35100
H  31.62700 46.93200 28.94100
H  33.72500 47.72800 26.07000
H  33.62700 46.25500 25.09300
H  33.02300 46.41500 26.79100
H  27.70900 48.72700 21.64000
H  26.13500 51.11200 21.67100
H  29.49700 50.91000 22.18400
H  28.33200 51.38100 21.00500
H  29.31900 49.88800 20.68400
H  25.58400 49.00100 20.41700
H  24.34500 49.56000 21.49500
H  24.15700 47.34300 22.05000
H  25.40800 47.68500 23.18300
H  25.72900 47.01200 21.52100
H  21.14900 52.88700 25.32900
H  21.99200 52.10100 24.04100
H  22.41100 53.81300 24.64600
H  22.89700 51.03900 29.92400
H  23.76000 54.12400 32.87900
H  24.11800 52.58000 33.69000
H  22.47400 53.30000 33.61100

