158

Mg 23.80600 -5.35700 45.44100
C  26.00300 -2.94100 44.14700
C  21.31800 -4.05700 43.47500
C  22.18300 -8.07300 45.98800
C  26.63300 -6.70200 47.18900
N  23.70700 -3.61900 44.17600
C  24.71100 -2.79900 43.77600
C  24.09500 -1.77900 42.71300
C  22.57900 -1.94100 42.87400
C  22.49900 -3.28500 43.59900
C  21.77000 -0.87000 43.69900
C  24.68400 -2.09500 41.27800
C  25.16400 -0.86500 40.42500
H  24.67200 -0.78300 38.96600
N  21.85600 -5.99700 44.88400
C  21.06500 -5.35700 43.98900
C  19.94400 -6.23700 43.66400
C  20.13800 -7.43900 44.34000
C  21.43000 -7.24800 45.11400
C  18.83900 -5.89300 42.60200
C  19.11900 -8.57400 44.31600
O  18.06100 -8.44700 43.61300
C  19.39500 -9.87400 45.07700
N  24.41100 -7.17300 46.35800
C  23.45000 -8.12300 46.52300
C  23.96700 -9.42800 47.18800
C  25.26900 -8.79200 47.84400
C  25.48400 -7.48200 47.11700
C  23.03400 -10.09600 48.24400
C  26.54200 -9.80100 47.85500
C  27.39800 -9.65800 49.15700
N  25.96800 -4.92100 45.67500
C  26.86700 -5.52100 46.43300
C  28.05900 -4.84200 46.33000
C  27.82000 -3.78200 45.43200
C  26.48900 -3.88100 45.05700
C  29.27300 -5.12500 47.07700
C  28.35000 -2.57300 44.81500
O  29.50400 -2.09000 44.80700
C  27.23300 -2.07400 43.88400
C  26.86400 -0.66200 44.22600
O  26.60100 -0.28300 45.34800
O  27.03400 0.06400 43.07900
C  26.78500 1.55900 43.24000
H  20.54900 -3.55400 42.88400
H  21.52700 -8.94300 46.06200
H  27.34500 -7.05500 47.93700
H  24.27000 -0.72300 42.91700
H  22.14000 -1.97500 41.87700
H  22.38900 -0.15000 44.23500
H  21.13000 -1.37100 44.42600
H  21.22100 -0.27200 42.97100
H  23.81900 -2.45700 40.72300
H  25.29900 -2.99500 41.28800
H  26.20500 -1.09300 40.19400
H  25.09300 0.07200 40.97700
H  18.64700 -6.57300 41.77300
H  19.02500 -4.95400 42.07900
H  17.90200 -5.91800 43.15700
H  19.16000 -9.66700 46.12100
H  20.43500 -10.18600 44.97700
H  18.69300 -10.57600 44.62800
H  24.21500 -10.02400 46.31000
H  25.07700 -8.45100 48.86100
H  21.99700 -9.83300 48.03500
H  23.27600 -9.92100 49.29300
H  22.95200 -11.16900 48.07500
H  27.19800 -9.58500 47.01300
H  26.12800 -10.80700 47.77400
H  28.45300 -9.81500 48.93100
H  27.16800 -10.42900 49.89200
H  27.16900 -8.70300 49.63000
H  29.54800 -4.15800 47.49700
H  30.06400 -5.37700 46.36900
H  29.15800 -5.81500 47.91300
H  27.53300 -2.21400 42.84500
H  26.49300 1.81300 44.25900
H  25.93100 1.79300 42.60400
H  27.70300 1.99000 42.84200
Mg 41.06100 9.24200 29.82500
C  42.93100 10.35400 32.56700
C  38.81300 7.88500 31.86100
C  39.71400 7.96100 27.10700
C  44.05400 9.91800 27.88900
N  40.83500 9.18600 31.96000
C  41.70300 9.80800 32.93900
C  41.00000 9.68100 34.33300
C  39.84900 8.64700 34.02000
C  39.80200 8.55300 32.54000
C  39.93200 7.25800 34.74500
C  40.56700 11.09500 34.84700
C  39.78800 11.10500 36.19600
H  40.31400 11.79700 37.42000
N  39.37800 8.16500 29.50600
C  38.50900 7.67700 30.44300
C  37.39200 7.12200 29.82100
C  37.57900 7.21300 28.36400
C  38.95600 7.75300 28.28400
C  36.21000 6.47700 30.63200
C  36.61500 6.90700 27.25200
O  36.91800 6.85300 26.04500
C  35.11200 6.54500 27.56900
N  41.80500 9.05800 27.72900
C  40.95400 8.50600 26.77600
C  41.66700 8.52800 25.41700
C  43.00700 9.39800 25.71100
C  42.98200 9.39500 27.21400
C  41.86500 7.04700 24.74800
C  43.09400 10.86500 25.15600
C  41.86500 11.81200 25.41300
N  43.00400 10.04200 30.09700
C  44.09200 10.26000 29.21600
C  45.13900 10.91900 29.85000
C  44.73100 10.98900 31.17900
C  43.43200 10.45100 31.26900
C  46.36300 11.42400 29.22600
C  45.04700 11.45000 32.56800
O  46.02900 12.13200 32.89900
C  43.93800 11.04100 33.53000
C  44.50900 10.16200 34.50100
O  45.13300 9.17900 34.22300
O  44.14700 10.52300 35.78300
C  44.22900 9.59100 36.90500
H  38.07100 7.55100 32.59000
H  39.26800 7.57300 26.18900
H  44.87800 10.13700 27.20700
H  41.71000 9.17200 34.98400
H  38.86300 8.99700 34.32500
H  39.50100 7.35800 35.74200
H  40.97700 6.97700 34.87200
H  39.41400 6.48400 34.17900
H  39.95700 11.57500 34.08200
H  41.49000 11.65700 34.98800
H  39.55900 10.05400 36.36600
H  38.84300 11.53500 35.86400
H  35.98300 5.48500 30.24300
H  35.33200 7.12300 30.65500
H  36.51200 6.32000 31.66800
H  34.62300 6.42800 26.60300
H  34.59000 7.40000 27.99900
H  35.05600 5.55600 28.02200
H  41.09500 9.01800 24.62900
H  43.94100 8.90200 25.44500
H  41.32000 7.04500 23.80500
H  41.55200 6.27500 25.45100
H  42.94100 6.91800 24.63700
H  43.05600 10.78000 24.07000
H  43.98900 11.41800 25.43900
H  42.10600 12.56700 26.16100
H  41.09200 11.15600 25.81400
H  41.65900 12.23700 24.43100
H  46.13200 11.99600 28.32800
H  47.06700 10.66200 28.89300
H  46.96800 12.01600 29.91200
H  43.58800 11.96100 33.99700
H  45.30200 9.50100 37.07400
H  43.69300 8.67000 36.67600
H  43.77700 9.96600 37.82400

