158

Mg 25.86600 50.93200 26.85300
C  23.43800 51.72100 29.36900
C  28.09900 50.12300 29.33800
C  27.97900 50.49100 24.47100
C  23.58800 52.16300 24.46500
N  25.76700 51.07000 29.13200
C  24.63700 51.24800 29.89600
C  24.95000 51.02900 31.33900
C  26.52500 50.69100 31.35400
C  26.83100 50.51000 29.83000
C  27.39400 51.80400 31.96400
C  24.00900 49.97800 31.94400
C  23.65800 49.95100 33.46700
H  24.16300 51.02900 34.41900
N  27.80400 50.35500 26.89700
C  28.58200 50.08500 28.01100
C  29.88700 49.70400 27.51300
C  29.83900 49.78700 26.12200
C  28.52000 50.29000 25.78500
C  31.05500 49.37400 28.35600
C  31.03600 49.59600 25.05800
O  30.91000 49.70700 23.84300
C  32.36200 49.19000 25.50600
N  25.82600 51.40100 24.75900
C  26.83000 51.01800 23.99100
C  26.62000 51.24900 22.44900
C  25.16800 51.77900 22.44200
C  24.84500 51.86700 23.97100
C  27.71000 52.14600 21.78900
C  24.17800 50.86200 21.62400
C  23.91700 49.43100 22.18700
N  23.93400 51.73900 26.88300
C  23.15100 52.17000 25.81300
C  21.82600 52.45300 26.26300
C  21.93200 52.46200 27.66600
C  23.20200 51.87200 27.99100
C  20.56900 52.96000 25.46400
C  21.17500 52.74700 28.91800
O  20.06900 53.26700 29.13700
C  22.20400 52.31500 30.04000
C  22.56000 53.52700 30.79500
O  22.92500 54.59600 30.36300
O  22.56800 53.19200 32.10700
C  23.15700 54.21300 33.03200
H  28.70200 49.82400 30.19700
H  28.63400 50.09100 23.69400
H  22.83400 52.50100 23.75200
H  24.71900 52.00100 31.77500
H  26.73900 49.72100 31.80200
H  26.71700 52.65100 32.07400
H  28.14500 52.20100 31.28100
H  27.87800 51.51300 32.89700
H  24.54100 49.02800 31.88200
H  23.17900 49.85300 31.24900
H  23.90400 48.96000 33.84800
H  22.57400 50.06400 33.47500
H  31.70500 50.24700 28.42600
H  31.58100 48.54500 27.88200
H  30.66500 49.07300 29.32800
H  32.44500 48.26000 26.06900
H  32.64800 49.99400 26.18400
H  33.01600 49.02500 24.65000
H  26.75300 50.31700 21.90000
H  25.15900 52.78300 22.01800
H  27.27600 53.14400 21.73000
H  27.91200 51.80800 20.77300
H  28.57600 52.40400 22.40000
H  24.51000 50.90600 20.58700
H  23.23300 51.39400 21.73600
H  24.05500 48.64600 21.44300
H  22.91200 49.28200 22.58200
H  24.68600 49.09000 22.88100
H  19.70900 52.82600 26.12000
H  20.34300 52.43300 24.53700
H  20.81400 53.98700 25.19300
H  21.75800 51.54700 30.67200
H  22.60300 55.12600 32.81100
H  24.22100 54.28500 32.80600
H  22.97000 53.98800 34.08200
Mg -0.29600 43.39500 25.22600
C  2.22500 42.79800 27.67000
C  -2.58800 42.30600 27.48300
C  -2.42700 43.19800 22.69100
C  2.39700 43.91900 22.92000
N  -0.10800 42.59900 27.33400
C  0.91000 42.64800 28.18500
C  0.38600 42.34400 29.62600
C  -1.12600 41.86500 29.44500
C  -1.32200 42.25600 27.97500
C  -1.37400 40.35200 29.72200
C  0.45400 43.55400 30.53600
C  -0.27600 43.56700 31.90900
H  -0.42400 42.34400 32.88700
N  -2.30400 42.99500 25.16100
C  -3.13300 42.55700 26.18000
C  -4.48100 42.47800 25.67800
C  -4.41700 42.62300 24.30700
C  -3.00500 42.96700 23.97400
C  -5.64900 42.15200 26.61800
C  -5.55200 42.63200 23.33000
O  -5.41500 42.92400 22.11400
C  -6.99200 42.13300 23.76200
N  -0.08400 43.56800 23.15800
C  -1.13900 43.45700 22.29400
C  -0.85000 43.66800 20.84300
C  0.69500 43.91400 20.96400
C  1.06100 43.83600 22.43800
C  -1.35300 42.50400 19.89100
C  1.20600 45.21200 20.28900
C  1.05900 46.49600 21.08200
N  1.87200 43.37700 25.21800
C  2.80300 43.77100 24.26300
C  4.18900 43.63100 24.79200
C  3.97400 43.25100 26.12700
C  2.54400 43.15900 26.34500
C  5.53600 43.87200 23.98200
C  4.65300 42.94500 27.42400
O  5.83400 42.71700 27.73000
C  3.48800 42.90900 28.47900
C  3.76300 41.78900 29.43700
O  3.70300 40.59300 29.26000
O  4.24300 42.32600 30.56600
C  4.60400 41.41900 31.69800
H  -3.25800 42.05900 28.31000
H  -3.11300 43.33300 21.85300
H  3.14000 44.15000 22.15400
H  0.96600 41.54600 30.09000
H  -1.81800 42.43100 30.06900
H  -2.01800 39.89000 28.97400
H  -1.87000 40.38800 30.69200
H  -0.44500 39.78600 29.79600
H  0.03100 44.33900 29.90800
H  1.47400 43.85900 30.77200
H  -1.28700 43.94300 31.75500
H  0.27400 44.34400 32.44000
H  -5.33700 42.48100 27.60900
H  -5.62800 41.06700 26.71500
H  -6.64900 42.49100 26.34800
H  -7.00200 41.14300 24.21700
H  -7.56600 41.99100 22.84600
H  -7.53900 42.82200 24.40500
H  -1.37600 44.58000 20.56200
H  1.25800 43.06700 20.57300
H  -1.83400 43.07600 19.09700
H  -2.01300 41.76700 20.34900
H  -0.47300 42.08100 19.40700
H  0.74200 45.30700 19.30800
H  2.26000 45.23200 20.01000
H  0.63600 46.39700 22.08200
H  0.39300 47.11700 20.48400
H  1.99500 47.05200 21.03500
H  6.32600 44.17700 24.66700
H  5.41000 44.61100 23.19100
H  5.75300 42.88600 23.56900
H  3.39900 43.86500 28.99500
H  4.56400 40.34700 31.50800
H  3.84100 41.56900 32.46200
H  5.64400 41.51400 32.01100

