158

Mg 25.37900 -7.44400 47.92800
C  27.72900 -4.98800 46.92700
C  23.32600 -6.50400 45.28900
C  23.57700 -10.23200 48.36000
C  27.81700 -8.74600 50.02400
N  25.59000 -6.07700 46.11500
C  26.61200 -5.07800 45.97900
C  26.32600 -4.05500 44.90200
C  24.82800 -4.45000 44.60400
C  24.56700 -5.80600 45.28200
C  23.76500 -3.31500 45.01100
C  27.34300 -4.34200 43.80900
C  28.23300 -3.17700 43.24900
H  27.80600 -2.62200 41.83900
N  23.61400 -8.23300 46.98600
C  22.90400 -7.65900 46.00800
C  21.75800 -8.48600 45.76800
C  21.75000 -9.50500 46.76900
C  22.98200 -9.39300 47.43600
C  20.71000 -8.12200 44.69300
C  20.56700 -10.57200 46.88700
O  19.50900 -10.42800 46.33400
C  20.56500 -11.73200 47.92400
N  25.52900 -9.16000 49.16500
C  24.64700 -10.17100 49.14700
C  25.13200 -11.32600 50.04400
C  26.50700 -10.87700 50.63700
C  26.65900 -9.47700 49.97200
C  24.06300 -11.58900 51.15100
C  27.67200 -11.88700 50.31800
C  28.56200 -12.14300 51.52600
N  27.32100 -6.79500 48.66200
C  28.18000 -7.51300 49.46300
C  29.48800 -6.85000 49.36600
C  29.33100 -5.72400 48.60500
C  28.00800 -5.81400 48.04300
C  30.72900 -7.35500 49.98900
C  29.96700 -4.55100 48.00800
O  31.10300 -4.10200 48.17600
C  28.93600 -3.94200 47.00600
C  28.55200 -2.55500 47.40100
O  27.83800 -2.26900 48.30100
O  28.93900 -1.72200 46.37800
C  28.35900 -0.38600 46.38600
H  22.61300 -6.12100 44.55600
H  22.95300 -11.10700 48.55900
H  28.59900 -9.25000 50.59600
H  26.56100 -3.09400 45.35800
H  24.73500 -4.64200 43.53500
H  24.24100 -2.41300 45.39800
H  23.12800 -3.72200 45.79600
H  23.25600 -2.96700 44.11200
H  26.80900 -4.71000 42.93300
H  28.01600 -5.15600 44.07800
H  29.20100 -3.65900 43.11300
H  28.31100 -2.44900 44.05700
H  20.30100 -9.01000 44.20900
H  21.10700 -7.41700 43.96300
H  19.91600 -7.58300 45.21100
H  20.74000 -11.35600 48.93200
H  21.36100 -12.40500 47.60400
H  19.56500 -12.16500 47.95000
H  25.22000 -12.18500 49.37900
H  26.48600 -10.68200 51.70900
H  23.45400 -12.45300 50.88500
H  23.32100 -10.79500 51.06700
H  24.62300 -11.81300 52.05900
H  28.23100 -11.54500 49.44700
H  27.31900 -12.86200 49.98100
H  28.96600 -13.15000 51.42500
H  28.00700 -11.92700 52.43900
H  29.41300 -11.46700 51.43200
H  31.35400 -6.48600 50.19300
H  31.28500 -7.90900 49.23300
H  30.57300 -7.90600 50.91600
H  29.32100 -3.91500 45.98600
H  28.52000 -0.06100 45.35800
H  29.01800 0.28600 46.93400
H  27.31300 -0.27200 46.67200
Mg 46.82400 45.88000 43.39000
C  43.48800 44.79500 42.83500
C  47.90600 42.87900 42.32800
C  49.99300 47.28900 42.78100
C  45.50800 49.27000 43.48100
N  45.83300 44.11500 42.38400
C  44.47400 43.82100 42.54300
C  44.13300 42.43300 42.01000
C  45.51000 41.73900 42.18300
C  46.48900 42.98300 42.30000
C  45.60500 40.64800 43.28200
C  43.61000 42.52000 40.54000
C  42.30300 41.79000 40.16000
H  42.36500 41.04900 38.83200
N  48.69900 45.06600 42.86100
C  48.89300 43.77700 42.53800
C  50.31200 43.55700 42.60000
C  50.92900 44.81300 42.76700
C  49.85400 45.81600 42.81800
C  50.95200 42.20800 42.56800
C  52.49400 45.08100 42.91400
O  53.29600 44.16400 42.73500
C  53.03100 46.43200 43.23700
N  47.56800 47.91700 43.08100
C  48.92600 48.22400 42.73900
C  49.17300 49.70600 42.60100
C  47.80300 50.34800 42.86400
C  46.88500 49.11300 43.17600
C  50.44400 50.24000 43.43700
C  47.19700 51.27700 41.76700
C  47.32300 52.83600 42.08300
N  44.95700 46.85300 43.47400
C  44.59800 48.17900 43.52800
C  43.11200 48.23400 43.70800
C  42.65500 46.93000 43.44300
C  43.79800 46.11300 43.23400
C  42.32700 49.45800 44.25100
C  41.45100 46.10900 43.33400
O  40.27600 46.41600 43.34300
C  41.95200 44.69900 42.80900
C  41.40700 43.71100 43.81400
O  40.62000 42.80100 43.52700
O  41.92400 43.86300 45.03100
C  41.46100 42.96500 46.09300
H  48.11500 41.83400 42.09200
H  50.93500 47.80100 42.57400
H  45.05700 50.26200 43.41400
H  43.35400 41.90800 42.56300
H  45.85100 41.25100 41.27000
H  46.51700 40.73700 43.87200
H  45.56200 39.65100 42.84300
H  44.77100 40.75500 43.97700
H  44.45900 42.39300 39.86700
H  43.40800 43.58900 40.46600
H  41.49200 42.51800 40.14100
H  42.09000 41.10100 40.97700
H  51.84900 42.20700 43.18800
H  51.37000 41.97700 41.58900
H  50.21300 41.44000 42.79800
H  52.64300 46.70000 44.21900
H  52.97400 47.16900 42.43600
H  54.10100 46.40400 43.44300
H  49.39600 49.73200 41.53400
H  47.85000 51.02100 43.72000
H  50.68200 49.50700 44.20700
H  50.35200 51.28200 43.74500
H  51.28500 50.19300 42.74500
H  46.12600 51.09700 41.67700
H  47.67100 51.06800 40.80700
H  46.59000 53.24700 42.77800
H  47.06000 53.35300 41.16000
H  48.35300 53.01500 42.39400
H  42.65100 49.73100 45.25500
H  41.26500 49.22300 44.32700
H  42.39700 50.38400 43.68100
H  41.64400 44.41500 41.80300
H  40.60000 43.51400 46.47400
H  42.23500 42.85500 46.85300
H  41.10300 41.95700 45.88400

