158

Mg 17.51900 -1.77000 27.22900
C  16.55200 0.15800 29.98200
C  19.32500 -3.68200 29.35500
C  18.85800 -3.18800 24.63700
C  15.53100 0.27500 25.21200
N  17.93900 -1.68800 29.42200
C  17.41500 -0.87200 30.39200
C  17.95700 -1.27300 31.78100
C  18.96500 -2.33600 31.46800
C  18.71300 -2.61400 30.00600
C  20.38500 -2.05100 31.94700
C  16.87700 -1.80900 32.74800
C  16.86900 -1.32700 34.18800
H  18.04000 -0.56900 34.72400
N  18.81300 -3.37300 27.02700
C  19.37800 -4.09900 28.05900
C  20.14400 -5.28300 27.50400
C  19.88900 -5.15800 26.09300
C  19.16300 -3.86500 25.84500
C  20.90800 -6.32900 28.29500
C  20.19300 -6.11100 24.98500
O  19.94500 -5.89200 23.80100
C  20.58500 -7.60500 25.35400
N  17.47200 -1.22300 25.29700
C  18.11700 -2.01200 24.38300
C  17.93700 -1.47100 22.94900
C  16.90700 -0.38500 23.05900
C  16.52700 -0.43800 24.58900
C  19.24400 -0.94200 22.30000
C  15.65900 -0.67700 22.10500
C  15.02200 0.58000 21.50700
N  16.30000 -0.02200 27.45800
C  15.53700 0.64800 26.55000
C  14.86000 1.77300 27.13200
C  15.15600 1.56700 28.56500
C  16.07500 0.48800 28.66800
C  14.05900 2.80600 26.49800
C  14.89500 2.02700 29.93800
O  14.26300 2.98400 30.32800
C  15.89600 1.11700 30.88200
C  16.79800 2.11100 31.51400
O  17.79700 2.55600 30.97500
O  16.50600 2.33100 32.81800
C  17.25000 3.40000 33.45800
H  20.01800 -4.20400 30.01900
H  19.15100 -3.51000 23.63600
H  14.92000 0.87700 24.53500
H  18.45600 -0.36200 32.10800
H  18.69500 -3.21200 32.05800
H  20.51600 -1.02900 32.30100
H  21.06200 -2.05200 31.09200
H  20.74200 -2.80700 32.64600
H  16.71500 -2.88600 32.72600
H  15.96100 -1.32700 32.40700
H  16.60800 -2.25200 34.70300
H  15.94600 -0.76700 34.33400
H  21.15500 -5.90700 29.26900
H  21.80600 -6.79900 27.89300
H  20.14000 -7.07700 28.48800
H  19.80300 -8.12900 25.90500
H  21.56100 -7.60100 25.84000
H  20.81000 -8.03100 24.37600
H  17.50000 -2.31800 22.42000
H  17.37200 0.59400 22.93800
H  19.02500 -0.07800 21.67200
H  19.76600 -1.69000 21.70400
H  19.84500 -0.64500 23.16000
H  14.95500 -1.30700 22.64800
H  15.99000 -1.18000 21.19700
H  15.37000 1.55800 21.84000
H  13.93800 0.48000 21.56900
H  15.30700 0.62500 20.45600
H  14.49000 3.80500 26.56300
H  13.25600 2.91200 27.22700
H  13.65800 2.45900 25.54500
H  15.37300 0.66600 31.72500
H  18.23700 3.52300 33.01100
H  17.52800 3.09600 34.46700
H  16.65800 4.30100 33.62000
Mg 30.12000 58.38000 40.80200
C  27.41800 56.55700 39.64700
C  32.27100 56.02500 39.32500
C  32.73800 60.51400 41.36800
C  27.84100 61.06400 41.51800
N  29.89000 56.52600 39.71000
C  28.67300 55.99700 39.29000
C  28.88700 54.80900 38.43900
C  30.39700 54.46700 38.51000
C  30.91800 55.73600 39.28700
C  30.87200 53.18000 39.16600
C  28.41000 55.14900 37.01400
C  27.35500 54.17800 36.36400
H  26.51300 54.84200 35.30000
N  32.26900 58.29200 40.40900
C  32.97100 57.18000 39.87300
C  34.36500 57.47400 39.88500
C  34.47500 58.79900 40.50500
C  33.18400 59.25700 40.80700
C  35.42300 56.67200 39.28300
C  35.80700 59.47400 41.00000
O  36.83400 58.90200 40.70000
C  35.89500 60.75100 41.86300
N  30.27100 60.46900 41.25100
C  31.50900 61.07400 41.53500
C  31.35500 62.58600 41.76100
C  29.75900 62.74500 41.82600
C  29.22600 61.32400 41.62900
C  32.19600 63.09300 42.98800
C  29.16300 63.84500 40.88700
C  27.92800 64.57900 41.41800
N  28.00500 58.72200 40.87900
C  27.24800 59.87600 41.09100
C  25.88800 59.54700 40.87300
C  25.91500 58.24000 40.36600
C  27.22900 57.77600 40.28300
C  24.63700 60.30400 41.07300
C  25.01200 57.13600 39.94600
O  23.82000 56.98500 39.95200
C  26.01000 56.05700 39.32300
C  25.69400 54.74200 39.98400
O  26.18500 54.44600 41.05500
O  24.78700 54.10200 39.28900
C  24.35300 52.80800 39.89500
H  32.85500 55.18700 38.93800
H  33.44700 61.33400 41.50400
H  27.22100 61.92000 41.79200
H  28.31000 53.96100 38.80900
H  30.76700 54.41900 37.48600
H  31.44800 53.29200 40.08400
H  31.46700 52.69300 38.39300
H  30.14000 52.41500 39.42200
H  29.19900 55.03600 36.27000
H  27.97200 56.14200 36.91900
H  26.82200 53.42000 36.93900
H  27.88200 53.48900 35.70400
H  36.15000 56.35000 40.02900
H  35.92200 57.27900 38.52900
H  35.02000 55.82200 38.73200
H  35.26200 60.56000 42.72900
H  35.56300 61.65400 41.35000
H  36.93600 60.81700 42.18100
H  31.67900 63.09200 40.85200
H  29.45500 62.95600 42.85100
H  32.39400 62.20300 43.58500
H  31.67600 63.86300 43.55700
H  33.13700 63.59600 42.76500
H  28.88200 63.39900 39.93300
H  29.91300 64.60900 40.68200
H  28.14400 65.64600 41.47000
H  27.63400 64.23700 42.41000
H  27.02800 64.49100 40.81000
H  24.67100 61.29100 41.53500
H  23.87600 59.74200 41.61400
H  24.14100 60.41400 40.10900
H  25.72000 56.00400 38.27400
H  25.25500 52.20300 39.98300
H  23.67400 52.33600 39.18600
H  23.93400 52.86500 40.89900

