158

Mg 0.59300 8.68700 27.08400
C  1.51200 10.72200 29.83200
C  1.34500 5.89200 29.16300
C  0.18400 6.63600 24.41500
C  0.89300 11.47100 24.96000
N  1.59200 8.39200 29.16900
C  1.61400 9.37600 30.14000
C  1.63900 8.73200 31.50400
C  1.89600 7.23800 31.21200
C  1.70400 7.12100 29.73600
C  3.21100 6.56900 31.73100
C  0.25400 8.86800 32.26500
C  0.21700 8.81400 33.81600
H  1.44300 8.19700 34.63100
N  0.58800 6.54100 26.86700
C  0.88200 5.62700 27.85400
C  0.72800 4.33700 27.20100
C  0.27400 4.55200 25.89500
C  0.29100 5.95500 25.68800
C  1.12300 3.12200 27.93900
C  -0.16500 3.53200 24.83100
O  -0.58800 3.82100 23.70500
C  0.09900 2.08200 25.20300
N  0.56700 9.03000 24.90300
C  0.32000 8.06100 24.02200
C  0.39100 8.63600 22.58200
C  0.18000 10.13000 22.89600
C  0.65400 10.24100 24.32100
C  1.70900 8.26800 21.91400
C  -1.32100 10.45100 22.78400
C  -1.75800 11.88700 22.58400
N  0.98900 10.69600 27.25300
C  1.17000 11.74100 26.34100
C  1.53000 12.94000 27.02400
C  1.56500 12.58900 28.42900
C  1.26700 11.22100 28.52300
C  1.74900 14.29700 26.41800
C  1.82500 13.14900 29.70900
O  2.15100 14.28100 30.08600
C  1.66100 11.95600 30.65600
C  2.71400 11.96100 31.67400
O  3.94500 12.13200 31.40900
O  2.27400 11.91600 32.95700
C  3.28200 12.28300 33.99800
H  1.35600 5.06100 29.87100
H  0.04900 6.02400 23.52000
H  0.88200 12.34900 24.31100
H  2.43100 9.20400 32.08500
H  1.10900 6.65400 31.69000
H  3.60800 7.06000 32.62000
H  3.93200 6.61800 30.91500
H  2.94900 5.56500 32.06500
H  -0.43200 8.09600 31.91600
H  -0.26600 9.74300 31.87500
H  -0.63900 8.24400 34.17700
H  0.06300 9.81700 34.21300
H  1.60000 3.38800 28.88200
H  1.74400 2.45000 27.34600
H  0.13900 2.70300 28.14900
H  -0.32000 1.70300 26.13500
H  1.18800 2.05500 25.23600
H  -0.17900 1.46800 24.34600
H  -0.40100 8.13900 22.02200
H  0.82500 10.79700 22.32500
H  1.44700 7.93400 20.91100
H  2.11700 7.43600 22.48800
H  2.32400 9.16600 21.85100
H  -1.94300 10.17300 23.63500
H  -1.68000 9.92000 21.90200
H  -0.88700 12.54200 22.58700
H  -2.34100 12.17700 23.45800
H  -2.49900 12.07900 21.80800
H  1.68700 14.25500 25.33100
H  2.66000 14.72400 26.83800
H  1.00300 14.94900 26.87200
H  0.69600 11.94300 31.16300
H  3.32800 13.37200 34.00900
H  4.30000 11.93100 33.83400
H  3.00600 11.91700 34.98700
Mg 45.70400 3.50500 48.53600
C  43.76700 6.24300 47.39500
C  42.85600 1.55700 47.85200
C  47.54800 0.74200 48.88400
C  48.42700 5.53500 48.80600
N  43.47200 3.89500 47.66600
C  42.97200 5.06600 47.35100
C  41.53100 4.92800 46.84800
C  41.31800 3.43100 46.98400
C  42.62700 2.88700 47.59100
C  40.07300 3.03800 47.84600
C  41.17900 5.53100 45.43400
C  39.85100 6.26000 45.29600
H  39.07400 6.01300 43.98700
N  45.29000 1.37900 48.34400
C  44.04900 0.83000 48.12200
C  44.21000 -0.64100 48.13000
C  45.59600 -0.89800 48.43700
C  46.23200 0.42200 48.62600
C  43.06500 -1.64600 47.89100
C  46.18100 -2.28800 48.57000
O  45.54300 -3.33800 48.32100
C  47.54300 -2.55300 49.00700
N  47.75300 3.16200 48.65000
C  48.26000 1.92700 48.87100
C  49.74400 2.04900 49.24400
C  50.03800 3.65400 49.26400
C  48.72700 4.16100 48.88600
C  50.21700 1.28500 50.53400
C  51.04600 4.17400 48.22700
C  52.31200 4.96200 48.68900
N  46.11800 5.46300 48.22500
C  47.28500 6.22600 48.41500
C  47.07500 7.54800 48.27000
C  45.67900 7.58200 47.89300
C  45.10600 6.31000 47.88600
C  47.96500 8.68500 48.26300
C  44.59600 8.55400 47.53700
O  44.60900 9.79000 47.42100
C  43.36200 7.68500 47.31800
C  42.22500 8.01300 48.23000
O  41.79900 7.34700 49.17600
O  41.57600 9.23300 47.86500
C  40.44100 9.82900 48.59100
H  42.01500 0.93200 47.54500
H  48.21200 -0.12000 48.96700
H  49.22500 6.25200 49.00600
H  40.97000 5.50000 47.58600
H  41.28200 2.83700 46.07000
H  39.41400 3.90200 47.76100
H  40.45700 2.86200 48.85000
H  39.57900 2.18300 47.38300
H  41.14600 4.75000 44.67400
H  41.98800 6.16200 45.06500
H  40.08100 7.30400 45.50600
H  39.27500 6.09700 46.20700
H  42.50000 -1.36900 47.00100
H  42.34900 -1.63700 48.71300
H  43.40400 -2.67800 47.80000
H  48.27100 -2.19100 48.28100
H  47.59800 -3.63700 49.10400
H  47.76900 -2.04500 49.94500
H  50.30300 1.67200 48.38700
H  50.16300 3.98300 50.29600
H  50.67200 2.01200 51.20700
H  50.96500 0.51100 50.36200
H  49.28200 0.99800 51.01700
H  50.53700 4.73700 47.44500
H  51.60300 3.40100 47.69700
H  52.45200 5.03600 49.76800
H  52.15400 5.96000 48.28000
H  53.25200 4.58000 48.29000
H  47.56300 9.41200 47.55800
H  48.96700 8.38300 47.95800
H  47.97000 9.12400 49.26100
H  43.07300 7.78900 46.27200
H  40.28600 9.21700 49.48100
H  39.49700 9.79100 48.04600
H  40.69900 10.85100 48.86700

