158

Mg 25.03700 -8.35900 46.61500
C  27.22100 -5.77300 45.53000
C  22.74600 -7.11800 44.47000
C  23.25500 -11.12700 47.09000
C  27.86300 -9.78300 48.38200
N  25.08000 -6.66000 45.13900
C  26.04300 -5.67600 44.83900
C  25.50800 -4.63200 43.82100
C  24.12000 -5.18700 43.44300
C  23.96100 -6.39700 44.42300
C  23.01500 -4.10500 43.58900
C  26.51800 -4.54600 42.61000
C  26.77300 -3.17100 42.01500
H  27.11200 -3.15000 40.53900
N  23.21100 -8.97200 46.04900
C  22.37900 -8.32300 45.16400
C  21.08300 -9.01100 45.04500
C  21.26100 -10.17000 45.83000
C  22.62300 -10.10700 46.37600
C  19.84900 -8.47900 44.23800
C  20.26200 -11.28300 45.89100
O  19.24200 -11.25500 45.20100
C  20.39400 -12.45700 46.84300
N  25.58200 -10.26500 47.39900
C  24.57700 -11.19800 47.61300
C  25.10000 -12.42200 48.40900
C  26.51900 -11.92000 48.89100
C  26.69300 -10.55800 48.21600
C  24.06600 -12.93100 49.54600
C  27.66600 -12.98300 48.82500
C  28.59600 -12.97500 50.05700
N  27.10700 -7.92500 46.91800
C  28.08300 -8.56700 47.64800
C  29.32100 -7.78100 47.60600
C  28.95400 -6.59800 46.93700
C  27.67600 -6.85300 46.37600
C  30.48200 -8.05600 48.44200
C  29.37600 -5.24300 46.52100
O  30.44900 -4.67600 46.69800
C  28.31200 -4.67700 45.55500
C  27.70700 -3.48000 46.09400
O  27.47500 -3.42200 47.28300
O  27.49600 -2.53200 45.15200
C  27.01800 -1.23900 45.62100
H  21.97600 -6.82400 43.75400
H  22.73900 -12.03400 47.41200
H  28.74700 -10.24900 48.82200
H  25.38500 -3.72600 44.41400
H  24.20700 -5.60900 42.44200
H  23.43600 -3.17100 43.21800
H  22.80000 -4.10200 44.65700
H  22.07600 -4.20100 43.04300
H  26.27200 -5.10500 41.70700
H  27.40200 -4.99900 43.05600
H  27.66500 -2.78200 42.50600
H  25.88500 -2.58200 42.24500
H  19.89700 -7.39200 44.16600
H  18.98700 -8.78000 44.83300
H  19.87100 -8.91600 43.24000
H  20.80400 -12.04000 47.76300
H  21.09700 -13.19000 46.45000
H  19.46100 -12.98800 47.03200
H  25.35100 -13.23800 47.73200
H  26.41700 -11.63300 49.93800
H  23.19600 -12.28100 49.64300
H  24.62600 -13.11700 50.46200
H  23.71400 -13.87700 49.13400
H  28.29300 -12.83800 47.94500
H  27.19500 -13.96600 48.81300
H  28.50900 -13.99500 50.43100
H  28.14900 -12.34100 50.82200
H  29.65000 -12.76500 49.87200
H  30.78800 -9.09500 48.32400
H  30.11200 -7.90400 49.45600
H  31.20700 -7.35100 48.03600
H  28.74500 -4.53100 44.56600
H  27.71100 -0.58800 45.08900
H  27.06200 -1.04900 46.69300
H  25.98300 -0.96100 45.42200
Mg -8.80400 40.45800 42.57900
C  -8.08200 36.97100 41.70700
C  -6.10200 41.35300 40.90000
C  -10.01500 43.52200 42.75300
C  -12.08600 39.16900 43.52000
N  -7.49700 39.28500 41.19400
C  -7.17700 37.91400 41.22400
C  -5.90100 37.61800 40.37900
C  -5.16900 39.02300 40.45900
C  -6.31900 39.96200 40.86000
C  -4.01700 39.20900 41.52500
C  -6.18300 37.03800 38.93900
C  -5.42700 35.76200 38.50900
H  -4.53400 35.81700 37.24700
N  -8.10700 42.27400 42.01600
C  -6.89800 42.41200 41.37500
C  -6.66400 43.82300 41.19100
C  -7.74800 44.53700 41.76000
C  -8.68000 43.47200 42.28900
C  -5.40800 44.26100 40.45400
C  -8.03000 46.04200 41.72400
O  -7.23400 46.77400 41.11500
C  -9.24200 46.62300 42.29700
N  -10.78200 41.16900 43.06100
C  -10.92100 42.51000 43.08100
C  -12.36500 42.90300 43.52400
C  -13.08200 41.50500 43.74500
C  -11.98100 40.54800 43.36800
C  -12.58900 43.85100 44.67700
C  -14.36100 41.25500 42.94100
C  -15.60900 40.58300 43.56500
N  -9.78900 38.48800 42.90900
C  -11.07100 38.19600 43.31200
C  -11.24800 36.75800 43.26300
C  -10.08400 36.26800 42.77500
C  -9.28200 37.33000 42.37800
C  -12.48700 36.08500 43.81100
C  -9.39300 35.03900 42.41200
O  -9.59000 33.84100 42.61900
C  -8.09000 35.53600 41.63500
C  -6.84000 35.00100 42.21800
O  -6.31100 35.37200 43.25500
O  -6.36400 33.98700 41.43700
C  -5.05700 33.50700 41.98900
H  -5.07000 41.60500 40.64800
H  -10.45600 44.49500 42.97900
H  -12.99100 38.70400 43.91600
H  -5.22100 36.93800 40.89200
H  -4.78000 39.18000 39.45300
H  -3.89800 38.31500 42.13800
H  -4.37000 39.89400 42.29600
H  -3.05900 39.49100 41.08700
H  -6.00400 37.86500 38.25100
H  -7.27200 37.01200 38.90100
H  -6.20100 35.03900 38.25200
H  -4.89900 35.35600 39.37100
H  -5.03500 45.13800 40.98300
H  -5.53700 44.65700 39.44700
H  -4.54400 43.60800 40.56900
H  -9.31700 47.71000 42.27000
H  -9.21500 46.26800 43.32700
H  -10.15000 46.34100 41.76300
H  -12.76400 43.37100 42.62400
H  -13.32600 41.39200 44.80100
H  -11.62000 44.24700 44.98000
H  -13.09000 43.39700 45.53200
H  -13.20000 44.71000 44.39600
H  -14.12700 40.76000 41.99900
H  -14.65800 42.20100 42.48700
H  -15.44200 40.47400 44.63700
H  -15.81300 39.60900 43.12100
H  -16.49400 41.21900 43.53200
H  -12.08300 35.11600 44.10300
H  -13.19800 36.05000 42.98500
H  -12.89400 36.59000 44.68700
H  -7.95500 35.13600 40.63000
H  -4.33200 34.30700 42.14400
H  -4.65300 32.94400 41.14700
H  -5.05700 32.83600 42.84700

