158

Mg 30.39200 58.73800 40.49500
C  27.74500 56.76500 39.15500
C  32.50700 56.37700 39.57900
C  32.68200 61.02100 41.09800
C  27.87500 61.22700 41.28300
N  30.10800 56.84600 39.47800
C  29.02700 56.22100 38.94900
C  29.34200 55.00100 38.10800
C  30.72400 54.71600 38.64900
C  31.17600 56.07500 39.19800
C  30.81900 53.62700 39.76700
C  29.18100 55.39800 36.66800
C  28.46800 54.45000 35.71000
H  28.86700 54.53900 34.23300
N  32.37700 58.66300 40.45300
C  33.10500 57.60300 40.07900
C  34.45600 57.84600 40.40200
C  34.57400 59.22300 40.84600
C  33.19900 59.69600 40.77100
C  35.54900 56.92000 40.13700
C  35.87200 59.84600 41.28100
O  36.92800 59.31800 41.03600
C  35.99000 61.29400 41.85300
N  30.21800 60.84500 41.05900
C  31.38900 61.52800 41.25300
C  31.09200 62.89100 41.76000
C  29.59500 62.83800 42.22300
C  29.16500 61.58700 41.44400
C  32.11800 63.47800 42.76700
C  28.80100 64.06100 41.93700
C  28.14800 64.69800 43.17000
N  28.29800 59.05500 40.15700
C  27.43000 60.04400 40.59100
C  26.05300 59.70700 40.16400
C  26.16800 58.43600 39.63700
C  27.50700 58.03000 39.72600
C  24.84500 60.60900 40.33200
C  25.34800 57.37700 39.16000
O  24.14300 57.31200 38.94700
C  26.42200 56.23000 38.80300
C  26.25500 55.04400 39.61200
O  26.43500 55.01300 40.83700
O  25.87100 53.98600 38.81300
C  25.90300 52.72600 39.57400
H  33.36300 55.73200 39.37100
H  33.48700 61.74000 41.26200
H  27.12700 61.97500 41.55200
H  28.71600 54.16700 38.42800
H  31.36300 54.22400 37.91600
H  30.91100 54.13300 40.72800
H  31.69300 53.02300 39.52700
H  29.95400 52.96400 39.73600
H  30.18900 55.50300 36.26500
H  28.63600 56.34100 36.62800
H  27.40100 54.62200 35.85300
H  28.69500 53.41500 35.96500
H  36.11800 57.23100 39.26100
H  35.26800 55.88100 39.96400
H  36.23400 56.93400 40.98400
H  37.03900 61.54200 42.01500
H  35.33500 61.37400 42.72100
H  35.65600 62.05700 41.15000
H  31.15500 63.48400 40.84800
H  29.63100 62.55300 43.27400
H  32.69300 62.71900 43.29600
H  31.74000 64.20900 43.48300
H  32.83500 64.07800 42.20700
H  28.05500 63.80200 41.18600
H  29.48800 64.75000 41.44500
H  28.48100 65.73400 43.09600
H  28.63000 64.36400 44.08900
H  27.06900 64.54600 43.16200
H  24.37300 60.25500 41.24800
H  24.20300 60.33400 39.49500
H  25.15500 61.65400 40.32500
H  26.32700 56.02900 37.73600
H  25.48400 52.85900 40.57200
H  26.92000 52.41400 39.81000
H  25.32600 51.97800 39.03000
Mg -4.83500 25.40300 26.47700
C  -3.41300 26.79800 29.32300
C  -7.05200 23.62800 28.48800
C  -5.86700 23.95600 23.72400
C  -2.62800 27.43900 24.58000
N  -5.12000 25.21000 28.65500
C  -4.41900 25.83500 29.68800
C  -5.03700 25.48900 31.09100
C  -5.84400 24.22700 30.65900
C  -6.04800 24.37500 29.18400
C  -5.22200 22.83600 31.07900
C  -5.92700 26.59500 31.67000
C  -6.01800 26.54700 33.27900
H  -5.50500 25.26100 33.98300
N  -6.31600 23.98700 26.11700
C  -7.13000 23.45300 27.08200
C  -8.08200 22.54700 26.38500
C  -7.69600 22.62000 24.99500
C  -6.55900 23.48500 24.88500
C  -9.16400 21.87500 27.14000
C  -8.32300 21.95900 23.79600
O  -7.82100 21.97500 22.71700
C  -9.56700 21.16600 24.01200
N  -4.29200 25.65800 24.43400
C  -4.87900 24.92000 23.49500
C  -4.50900 25.42300 22.07500
C  -3.56600 26.65000 22.27600
C  -3.51700 26.59600 23.86100
C  -4.06800 24.32400 21.18900
C  -4.23000 27.99400 21.80200
C  -3.50000 28.49600 20.52000
N  -3.31500 26.78600 26.83300
C  -2.52500 27.52500 26.01100
C  -1.69400 28.42600 26.75000
C  -1.91800 28.09800 28.07600
C  -2.93400 27.19500 28.05300
C  -0.73400 29.36100 26.15100
C  -1.51800 28.38400 29.41600
O  -0.63500 29.15000 29.83300
C  -2.39800 27.48900 30.30300
C  -1.67700 26.53700 31.24200
O  -1.15400 25.50100 30.94900
O  -1.85000 27.10800 32.49400
C  -1.37100 26.49600 33.71600
H  -7.73500 23.09200 29.15100
H  -6.24000 23.67700 22.73600
H  -2.03500 28.20000 24.06900
H  -4.16000 25.18500 31.66400
H  -6.83300 24.26400 31.11600
H  -5.96100 22.16300 31.51400
H  -4.41700 23.04900 31.78300
H  -4.67700 22.31500 30.29200
H  -6.89400 26.48100 31.18000
H  -5.58200 27.53400 31.23800
H  -7.06500 26.74100 33.51200
H  -5.34700 27.33200 33.62700
H  -9.19400 20.80400 26.93900
H  -10.19500 22.12400 26.89100
H  -9.02900 21.93300 28.22000
H  -9.26400 20.25000 24.52000
H  -10.04300 21.05900 23.03800
H  -10.28900 21.77100 24.56100
H  -5.46500 25.76000 21.67300
H  -2.66100 26.35700 21.74300
H  -3.36400 24.70000 20.44600
H  -4.96100 23.98200 20.66600
H  -3.71800 23.60300 21.92900
H  -4.02800 28.84500 22.45300
H  -5.31400 27.90800 21.72000
H  -4.22000 28.67000 19.72000
H  -2.76800 27.75600 20.19300
H  -2.93000 29.42400 20.55000
H  -0.17100 28.86800 25.35900
H  0.01800 29.71900 26.85500
H  -1.22200 30.20200 25.65900
H  -2.80300 28.28000 30.93400
H  -1.00100 25.48600 33.54300
H  -2.14200 26.52800 34.48500
H  -0.43900 27.01300 33.94800

