158

Mg 8.03100 3.24700 27.83400
C  9.56300 1.60400 30.44000
C  6.30600 5.19600 30.12300
C  6.32300 4.72300 25.18900
C  9.31200 0.86200 25.65400
N  7.80800 3.18900 29.99700
C  8.70700 2.63200 30.84700
C  8.55000 3.24600 32.28300
C  7.27400 4.15200 32.21700
C  7.15700 4.21700 30.66300
C  5.98200 3.61200 32.95300
C  9.86700 3.83500 32.97100
C  10.42500 3.16400 34.16400
H  10.96100 4.01500 35.26800
N  6.52000 4.69800 27.65600
C  6.01100 5.47200 28.73000
C  5.30700 6.57200 28.14600
C  5.34300 6.45200 26.73200
C  6.04600 5.24400 26.46300
C  4.60100 7.46500 29.18700
C  4.73100 7.41700 25.75100
O  4.92200 7.19300 24.54400
C  4.06900 8.66400 26.25200
N  7.76200 2.74900 25.74000
C  7.07500 3.51500 24.87700
C  7.20500 2.93200 23.39500
C  8.06200 1.57400 23.65000
C  8.44200 1.74200 25.10400
C  5.86800 2.75500 22.67000
C  9.29200 1.47600 22.62500
C  9.49000 0.14400 21.97100
N  9.34500 1.56300 27.97800
C  9.73800 0.67100 27.03200
C  10.60900 -0.23900 27.67700
C  10.68800 0.06900 29.06500
C  9.79900 1.17700 29.12900
C  11.25000 -1.35300 26.87800
C  11.15500 -0.35000 30.36000
O  11.93700 -1.23500 30.70300
C  10.39100 0.63400 31.26900
C  9.55300 -0.00200 32.28100
O  8.48100 -0.65100 32.09800
O  10.09700 0.08000 33.54400
C  9.15700 -0.29200 34.65000
H  5.93500 5.84700 30.91700
H  6.02200 5.23800 24.27400
H  9.63100 0.07500 24.96700
H  8.33300 2.34700 32.86100
H  7.38700 5.20200 32.48600
H  5.30200 3.20500 32.20500
H  5.56000 4.36200 33.62100
H  6.26500 2.73600 33.53700
H  9.46100 4.78900 33.31000
H  10.73500 3.99200 32.33100
H  11.18800 2.42100 33.92900
H  9.66100 2.50700 34.58000
H  5.29900 8.10000 29.73400
H  4.16500 6.84400 29.97000
H  3.85900 8.17200 28.81600
H  4.76700 9.30800 26.78800
H  3.17300 8.42900 26.82600
H  3.71700 9.16300 25.35000
H  7.74700 3.67500 22.81000
H  7.44700 0.67600 23.60500
H  5.78800 3.34300 21.75600
H  5.09500 3.10300 23.35700
H  5.62100 1.70800 22.49800
H  10.15800 1.61500 23.27200
H  9.27600 2.22500 21.83400
H  8.68700 -0.55100 22.21700
H  10.44300 -0.13600 22.42000
H  9.48700 0.20500 20.88300
H  11.84800 -0.91000 26.08200
H  10.63900 -2.16300 26.47900
H  11.94700 -1.85000 27.55200
H  11.15700 1.10300 31.88700
H  8.74600 -1.28300 34.45700
H  8.48800 0.56200 34.74900
H  9.83100 -0.40600 35.49900
Mg 25.15100 1.88800 29.82100
C  27.32500 1.64300 32.54800
C  22.48600 1.70500 32.03500
C  23.04500 1.80700 27.19900
C  27.85300 1.17900 27.73000
N  24.94000 1.77900 31.96700
C  26.00300 1.84800 32.84300
C  25.50000 2.15100 34.24300
C  23.97700 1.86000 34.19400
C  23.79100 1.86800 32.62700
C  23.56200 0.47300 34.82400
C  25.91700 3.53400 34.72800
C  26.51800 3.77500 36.11400
H  26.13000 2.81900 37.28100
N  23.05800 1.76500 29.64800
C  22.17400 1.66400 30.65200
C  20.86400 1.59300 30.18800
C  20.98600 1.55200 28.76600
C  22.39700 1.72600 28.46400
C  19.68500 1.40400 31.04700
C  19.84300 1.60400 27.75900
O  20.15100 1.78500 26.56900
C  18.46000 1.32400 28.22500
N  25.43400 1.70300 27.77700
C  24.42300 1.86600 26.89200
C  24.99300 2.10700 25.44700
C  26.47400 1.67800 25.57400
C  26.65100 1.51900 27.14700
C  24.14900 1.45200 24.32800
C  27.33300 2.90100 25.09800
C  27.53300 2.93600 23.55900
N  27.13200 1.48000 30.00500
C  28.08900 1.13600 29.04700
C  29.31000 0.90600 29.73500
C  29.11200 1.20600 31.07800
C  27.73500 1.42100 31.23000
C  30.61600 0.68500 29.02500
C  29.77300 1.23000 32.40000
O  30.97900 1.18300 32.71300
C  28.55100 1.55300 33.45800
C  28.43900 0.49700 34.50500
O  27.62800 -0.39300 34.47800
O  29.31900 0.61900 35.49600
C  28.99800 -0.38200 36.57400
H  21.76600 1.84500 32.84300
H  22.39100 1.85100 26.32500
H  28.67200 1.04300 27.02100
H  25.93700 1.44500 34.94900
H  23.15600 2.53800 34.42800
H  23.04500 -0.13700 34.08400
H  22.82300 0.71700 35.58700
H  24.42200 -0.14700 35.07600
H  25.09000 4.24300 34.77000
H  26.64600 3.97800 34.05000
H  26.05600 4.70800 36.43700
H  27.60700 3.79400 36.06500
H  19.08500 2.21400 30.63100
H  19.86600 1.59200 32.10500
H  19.19200 0.43300 31.01900
H  18.46400 0.55700 28.99900
H  17.72100 1.13700 27.44600
H  18.18700 2.23100 28.76500
H  24.71100 3.15300 25.33300
H  26.70900 0.74500 25.06300
H  24.86000 1.24400 23.52800
H  23.31400 2.10700 24.08100
H  23.67900 0.60200 24.82300
H  28.28800 2.77800 25.60900
H  26.82700 3.83900 25.32900
H  28.61100 2.90600 23.39700
H  27.18000 3.87400 23.13100
H  26.98700 2.14300 23.04900
H  30.50000 0.02600 28.16500
H  31.19200 0.24200 29.83800
H  30.98700 1.63400 28.63700
H  28.90200 2.50100 33.86800
H  29.63900 -0.29700 37.45100
H  28.99200 -1.38700 36.15300
H  28.06200 -0.28100 37.12400

