158

Mg 48.47500 35.30800 27.53600
C  46.71400 33.48800 29.93400
C  48.22200 38.07400 29.54100
C  50.02800 36.97200 25.16000
C  48.06000 32.55100 25.33600
N  47.68600 35.60600 29.62400
C  47.17200 34.68700 30.50100
C  47.14800 35.25100 31.91000
C  47.28400 36.82300 31.61800
C  47.76800 36.89600 30.19000
C  46.07700 37.60500 31.95400
C  48.38900 34.75300 32.70900
C  48.32800 34.75400 34.24200
H  47.17300 35.50400 34.97000
N  48.92200 37.25800 27.31600
C  48.73900 38.25000 28.24500
C  49.32700 39.49500 27.76200
C  49.98800 39.23600 26.51000
C  49.68500 37.80700 26.25800
C  49.28200 40.68200 28.62600
C  50.76500 40.24100 25.51000
O  51.12600 39.91500 24.38100
C  51.06000 41.63600 26.00600
N  48.80400 34.86000 25.40900
C  49.61800 35.68500 24.74800
C  50.22500 34.99800 23.46700
C  49.82100 33.54400 23.69100
C  48.76800 33.62700 24.86400
C  49.90300 35.72400 22.16400
C  51.01000 32.46700 24.08200
C  50.92000 31.21700 23.31800
N  47.52800 33.48200 27.51700
C  47.44900 32.45100 26.58500
C  46.73700 31.29900 27.08800
C  46.33000 31.71300 28.34800
C  46.83300 33.06900 28.56800
C  46.55600 30.08000 26.39700
C  45.60400 31.35100 29.50300
O  45.04000 30.33700 29.79800
C  45.68900 32.57700 30.55700
C  46.12500 32.15200 31.87600
O  47.22700 31.86900 32.26400
O  45.03100 32.16200 32.71000
C  45.22000 32.01100 34.19300
H  48.09800 38.96000 30.16700
H  50.63800 37.40600 24.36500
H  48.21100 31.69400 24.67600
H  46.22400 35.02600 32.44200
H  48.04800 37.23900 32.27400
H  46.09200 37.97900 32.97800
H  45.15400 37.04700 31.79600
H  46.15200 38.48800 31.31900
H  49.27300 35.35200 32.49000
H  48.75400 33.75700 32.45800
H  49.25600 35.24800 34.52900
H  48.32700 33.70000 34.52000
H  50.17600 40.64400 29.24800
H  48.31900 40.77400 29.12900
H  49.23900 41.54300 27.96000
H  51.96100 42.09600 25.60100
H  51.24900 41.41500 27.05700
H  50.28000 42.37900 25.84000
H  51.30000 35.07300 23.63100
H  49.26900 33.20200 22.81500
H  49.69500 34.95800 21.41800
H  50.76700 36.30100 21.83400
H  49.01000 36.34400 22.24000
H  51.06000 32.34300 25.16400
H  51.94700 32.95900 23.81900
H  51.86200 31.04000 22.79700
H  50.04500 31.12200 22.67600
H  50.77300 30.45700 24.08500
H  46.04100 30.15700 25.43900
H  45.84300 29.65300 27.10200
H  47.49100 29.52000 26.38600
H  44.72200 33.03200 30.77500
H  45.14600 30.94600 34.41300
H  44.35100 32.52100 34.60900
H  46.17200 32.38000 34.57400
Mg 31.44300 58.69800 39.82900
C  28.80800 56.83000 38.53600
C  33.53500 56.07000 39.56300
C  33.98300 60.93900 39.97700
C  29.15900 61.43100 40.31400
N  31.23300 56.77200 38.92500
C  30.03600 56.16000 38.49400
C  30.38400 54.73200 37.99700
C  31.70500 54.49400 38.76100
C  32.18500 55.84000 39.21800
C  31.62600 53.46900 39.98600
C  30.51500 54.48600 36.39100
C  29.38300 53.79400 35.60500
H  28.53900 54.62700 34.61000
N  33.49700 58.54100 39.67600
C  34.16600 57.38400 39.65000
C  35.56800 57.66400 39.49500
C  35.78300 59.01800 39.72900
C  34.40100 59.59000 39.80500
C  36.55100 56.55300 39.21800
C  37.13400 59.73500 39.92600
O  38.17800 59.08200 39.86100
C  37.28100 61.15800 40.21800
N  31.58400 60.93300 40.05800
C  32.76400 61.58300 40.17100
C  32.54700 63.10600 40.45100
C  31.03900 63.21300 40.79900
C  30.47600 61.75600 40.39500
C  33.68600 63.66000 41.34400
C  30.24800 64.33600 39.97300
C  29.43700 65.29600 40.85300
N  29.33800 59.07000 39.57400
C  28.53300 60.22500 39.82200
C  27.16500 59.92100 39.42900
C  27.20900 58.57900 39.01400
C  28.54300 58.17900 39.02200
C  26.02200 60.89400 39.37600
C  26.40700 57.48900 38.49600
O  25.20700 57.41900 38.24000
C  27.41800 56.30800 38.06900
C  26.93900 55.17300 38.93500
O  27.47500 54.89900 40.00100
O  25.87400 54.61600 38.37600
C  25.49300 53.34900 38.99200
H  34.14400 55.17500 39.71000
H  34.81100 61.61700 40.19400
H  28.46700 62.21300 40.63300
H  29.55800 54.06500 38.24200
H  32.46800 54.02000 38.14500
H  31.92400 52.44400 39.76400
H  30.58800 53.32300 40.28500
H  32.14700 53.82400 40.87600
H  31.43900 54.03000 36.03500
H  30.57900 55.51700 36.04100
H  28.65100 53.44700 36.33400
H  29.73400 52.92000 35.05700
H  36.96900 56.62500 38.21400
H  36.08500 55.58100 39.37700
H  37.30400 56.49200 40.00300
H  36.87200 61.75300 39.40100
H  38.28800 61.57700 40.23500
H  36.86400 61.34400 41.20800
H  32.66800 63.59100 39.48200
H  30.91600 63.38400 41.86800
H  34.16700 62.85900 41.90400
H  33.20900 64.26000 42.11800
H  34.43200 64.34300 40.93800
H  29.55700 63.83200 39.29700
H  30.98900 64.85600 39.36700
H  29.60400 66.33800 40.57900
H  29.75900 65.29700 41.89400
H  28.37900 65.04600 40.77700
H  25.14600 60.26600 39.21300
H  26.20800 61.50000 38.48900
H  25.87600 61.41700 40.32100
H  27.41400 55.96700 37.03400
H  25.17100 53.59200 40.00400
H  26.29700 52.61400 38.95200
H  24.62200 53.05600 38.40600

