158

Mg 47.22100 24.86900 28.66800
C  47.67700 27.09100 31.35300
C  46.26700 22.48200 31.08900
C  47.00900 22.67000 26.13500
C  48.21700 27.29100 26.32800
N  47.02100 24.74100 30.99400
C  47.18800 25.86800 31.84000
C  46.85700 25.45600 33.29000
C  46.49500 23.98600 33.25700
C  46.59800 23.70100 31.71700
C  47.33100 23.07600 34.22600
C  45.69800 26.42900 33.68500
C  45.98800 27.31000 34.98300
H  44.96100 27.36000 36.05900
N  46.65700 22.89400 28.58500
C  46.29800 22.07900 29.69100
C  45.96700 20.80000 29.13300
C  46.06500 20.82200 27.70600
C  46.61200 22.19800 27.38700
C  45.44500 19.69600 29.95400
C  45.68400 19.86900 26.58600
O  45.79100 20.12800 25.41000
C  45.26800 18.45000 26.95300
N  47.65200 24.94600 26.57000
C  47.54700 23.86300 25.76200
C  47.68100 24.17000 24.29500
C  47.82900 25.76200 24.31500
C  47.91500 26.02100 25.81400
C  48.90500 23.48000 23.53800
C  46.68700 26.45800 23.62200
C  45.29100 26.28300 24.22100
N  47.80600 26.76800 28.73900
C  48.19600 27.64500 27.70200
C  48.53500 28.97500 28.31700
C  48.35700 28.76000 29.71200
C  47.97400 27.41100 29.94600
C  48.95600 30.18300 27.59900
C  48.51600 29.35800 31.03300
O  48.94400 30.49000 31.34400
C  47.98600 28.34500 32.07300
C  49.06800 28.07800 33.06400
O  50.00500 27.33700 32.87900
O  48.94400 28.90600 34.15600
C  49.84500 28.77500 35.26100
H  45.78000 21.78800 31.77700
H  46.95700 22.04200 25.24300
H  48.49000 27.98900 25.53300
H  47.75300 25.72300 33.85000
H  45.50700 23.94400 33.71600
H  47.98700 23.51100 34.98000
H  47.94700 22.30600 33.76200
H  46.55000 22.49200 34.71400
H  44.75600 25.91900 33.88300
H  45.41200 27.17200 32.94000
H  46.15800 28.35600 34.72800
H  46.95800 26.96500 35.34200
H  44.45300 19.38300 29.62700
H  45.31800 19.86000 31.02400
H  46.11500 18.84300 29.84200
H  44.75300 18.13200 26.04600
H  44.56900 18.47300 27.78900
H  46.18800 17.89000 27.12000
H  46.74900 23.84700 23.83000
H  48.78800 26.07300 23.90200
H  49.47800 22.83000 24.19800
H  49.52600 24.23400 23.05300
H  48.50800 22.73400 22.85000
H  46.73500 26.24100 22.55500
H  46.91000 27.52000 23.72600
H  45.33600 25.86300 25.22600
H  44.72200 25.50600 23.71100
H  44.73600 27.22100 24.24400
H  48.93000 31.08900 28.20300
H  48.48600 30.30300 26.62300
H  50.02500 30.00600 27.47400
H  47.17100 28.84000 32.60100
H  49.50400 28.03900 35.98800
H  49.91500 29.66600 35.88400
H  50.82700 28.41000 34.96000
Mg -10.63400 16.64600 43.11600
C  -7.12800 17.23600 42.86700
C  -11.14800 19.94400 42.58900
C  -13.76100 15.97800 43.32500
C  -9.94700 13.20400 43.58600
N  -9.23000 18.42100 42.60100
C  -7.91500 18.42800 42.63600
C  -7.36600 19.83900 42.31400
C  -8.61200 20.76500 42.56100
C  -9.72600 19.70800 42.49000
C  -8.62600 21.56000 43.91700
C  -6.82100 20.04500 40.89900
C  -5.47200 20.84000 40.91700
H  -4.28800 20.08300 40.26500
N  -12.25400 17.73800 42.77100
C  -12.30300 19.11100 42.55400
C  -13.65600 19.52000 42.47400
C  -14.45900 18.40100 42.87300
C  -13.50400 17.32400 43.08000
C  -14.06900 20.91700 42.02000
C  -16.03700 18.36800 42.94000
O  -16.64300 19.28600 42.42400
C  -16.81100 17.21400 43.49800
N  -11.77000 14.72100 43.14700
C  -12.97300 14.83500 43.49800
C  -13.59800 13.46100 43.76700
C  -12.38600 12.50100 43.65500
C  -11.28200 13.49500 43.43100
C  -14.43400 13.41000 45.09400
C  -12.36700 11.48400 42.43400
C  -12.49500 10.00100 42.73400
N  -8.91100 15.37700 43.15700
C  -8.80900 14.02300 43.40100
C  -7.36500 13.72200 43.51400
C  -6.68200 14.89400 43.25300
C  -7.64200 15.94800 43.10000
C  -6.86900 12.31400 43.86300
C  -5.36000 15.51200 43.11700
O  -4.22900 15.00500 43.22700
C  -5.58600 17.01400 43.01000
C  -5.06800 17.50400 44.29500
O  -5.62900 17.35300 45.40100
O  -3.90600 18.15600 44.05500
C  -3.34800 18.65700 45.30400
H  -11.37600 20.97800 42.32400
H  -14.83200 15.77400 43.26200
H  -9.81000 12.20200 43.99900
H  -6.65900 20.25500 43.03200
H  -8.72200 21.52900 41.79200
H  -7.91500 21.08200 44.59100
H  -9.61600 21.62900 44.36800
H  -8.32600 22.58900 43.71900
H  -7.53700 20.66500 40.36000
H  -6.66600 19.03300 40.52600
H  -5.07200 21.09000 41.90000
H  -5.68200 21.79800 40.44100
H  -14.88300 21.28800 42.64300
H  -14.41000 20.69800 41.00800
H  -13.33200 21.71500 41.93300
H  -17.81900 17.47800 43.82100
H  -16.32700 16.85100 44.40500
H  -16.90800 16.42100 42.75700
H  -14.23700 13.30700 42.89800
H  -12.26200 12.02400 44.62700
H  -15.28400 14.07100 44.92600
H  -13.89400 13.82100 45.94700
H  -14.61900 12.35900 45.31800
H  -11.35200 11.61200 42.05700
H  -13.03100 11.80700 41.63200
H  -13.47900 9.75300 43.13100
H  -11.56500 9.80100 43.26700
H  -12.37300 9.52600 41.76000
H  -6.06900 12.40800 44.59700
H  -6.53200 11.73100 43.00500
H  -7.71300 11.83500 44.35800
H  -5.01600 17.42700 42.17800
H  -2.33900 19.04700 45.17700
H  -3.23000 17.82000 45.99100
H  -4.01000 19.46400 45.61700

