158

Mg 30.73900 57.64400 40.48400
C  27.61500 56.11500 39.68000
C  32.32400 54.92900 39.19200
C  33.40200 59.41200 40.53000
C  28.69100 60.62100 40.97900
N  30.06300 55.69500 39.79100
C  28.78700 55.36100 39.44300
C  28.70200 54.04200 38.69400
C  30.18200 53.42900 39.01500
C  30.91000 54.75400 39.36000
C  30.36700 52.57900 40.24000
C  28.53400 54.29300 37.15500
C  28.22600 53.07100 36.28400
H  27.54100 53.27700 34.90900
N  32.69300 57.18800 39.92500
C  33.20100 56.07400 39.37900
C  34.63900 56.27800 39.15900
C  34.98700 57.55300 39.66100
C  33.68100 58.10300 39.97800
C  35.47900 55.19000 38.59700
C  36.41600 58.06500 39.82400
O  37.35300 57.32400 39.64400
C  36.70400 59.50100 40.27700
N  31.03200 59.74500 40.76400
C  32.28000 60.15800 40.77600
C  32.33900 61.59600 41.14800
C  30.85600 62.04300 41.23700
C  30.12200 60.75800 40.99200
C  33.20000 61.93700 42.32800
C  30.58700 63.13100 40.19000
C  30.81900 64.64200 40.68900
N  28.51700 58.18600 40.58600
C  27.94000 59.44300 40.73200
C  26.47600 59.36800 40.42200
C  26.29100 58.04700 39.99400
C  27.57500 57.38800 40.11300
C  25.42100 60.46800 40.52100
C  25.34200 57.02700 39.44900
O  24.18000 57.10700 39.23000
C  26.17500 55.76300 39.38800
C  25.67200 54.71300 40.30600
O  25.73200 54.77500 41.48100
O  25.23400 53.58800 39.56300
C  24.60900 52.54100 40.40400
H  32.89800 54.05100 38.88800
H  34.33100 59.97500 40.64000
H  28.12800 61.53000 41.20500
H  27.84300 53.44900 39.00600
H  30.67700 52.88200 38.21300
H  31.17000 52.76900 40.95200
H  30.63400 51.57300 39.91800
H  29.44300 52.52900 40.81600
H  29.55600 54.48100 36.82500
H  27.86400 55.13400 36.97700
H  27.55600 52.39200 36.81200
H  29.10300 52.46500 36.05900
H  36.22800 55.50000 37.86900
H  34.85900 54.46400 38.07100
H  35.94900 54.70900 39.45500
H  36.10900 60.23500 39.73300
H  37.76900 59.64400 40.09100
H  36.47800 59.52400 41.34300
H  32.80300 62.04600 40.26900
H  30.71300 62.28700 42.29000
H  33.78900 61.11100 42.72700
H  32.55500 62.35700 43.10000
H  33.96500 62.68800 42.13200
H  29.51200 62.98900 40.07500
H  31.02400 62.91000 39.21600
H  31.33900 64.79000 41.63600
H  29.78600 64.98000 40.77400
H  31.35500 65.26500 39.97300
H  25.06800 60.73800 41.51600
H  24.59300 60.21500 39.85800
H  25.93300 61.35200 40.14200
H  26.11700 55.31100 38.39800
H  25.47500 52.05900 40.85800
H  24.12000 51.79000 39.78300
H  23.86100 52.85300 41.13200
Mg -10.89800 15.98300 41.45800
C  -7.39900 15.78000 41.05000
C  -10.74400 19.19000 40.33100
C  -14.14800 15.82500 41.12900
C  -10.86600 12.51500 42.38500
N  -9.24800 17.26100 40.58900
C  -7.86100 17.02600 40.65100
C  -7.09300 18.25200 40.20200
C  -8.17500 19.37900 40.59100
C  -9.46100 18.59500 40.50400
C  -7.91900 20.06900 41.93900
C  -6.64000 18.13300 38.70600
C  -5.09900 18.09200 38.50300
H  -4.67800 18.65500 37.19000
N  -12.24000 17.29100 40.86000
C  -11.96000 18.60500 40.45000
C  -13.22100 19.24100 40.03900
C  -14.25300 18.34400 40.41100
C  -13.58600 17.09000 40.78900
C  -13.43200 20.63300 39.44000
C  -15.72800 18.68300 40.34700
O  -16.12100 19.71000 39.84200
C  -16.74500 17.68500 40.93700
N  -12.35000 14.39300 41.66200
C  -13.63000 14.60800 41.50600
C  -14.56400 13.39700 41.88600
C  -13.47700 12.32300 42.23000
C  -12.12800 13.11200 42.18200
C  -15.64400 13.71700 42.89900
C  -13.50700 11.05300 41.27000
C  -12.62900 11.20700 39.94400
N  -9.46900 14.45800 41.64600
C  -9.58000 13.15600 42.08900
C  -8.24000 12.50400 42.11800
C  -7.36200 13.55200 41.79400
C  -8.15400 14.70600 41.49200
C  -7.95000 11.04400 42.60500
C  -5.93800 13.93400 41.67900
O  -4.93000 13.30700 41.82900
C  -5.96100 15.36400 41.14200
C  -5.29000 16.10600 42.20300
O  -5.73800 16.22300 43.33000
O  -4.00500 16.43000 41.79000
C  -3.27300 17.32900 42.70800
H  -10.67900 20.26300 40.13400
H  -15.23500 15.74600 41.05800
H  -10.96700 11.53200 42.84900
H  -6.17000 18.15900 40.77400
H  -8.22300 20.17100 39.84300
H  -7.37900 19.42000 42.62900
H  -8.87000 20.43900 42.32200
H  -7.28700 20.94800 41.81100
H  -7.18200 18.96200 38.25100
H  -7.04500 17.18900 38.34200
H  -4.78300 17.05300 38.41100
H  -4.60800 18.57000 39.35000
H  -14.13100 20.54400 38.60900
H  -12.54200 21.07800 38.99500
H  -13.95300 21.32800 40.09800
H  -17.65800 18.26600 41.06600
H  -16.46900 17.47700 41.97100
H  -16.99600 16.83800 40.29900
H  -15.02400 13.12000 40.93700
H  -13.66100 12.08600 43.27800
H  -15.82100 14.79200 42.88600
H  -15.18800 13.62800 43.88500
H  -16.52200 13.07800 42.80400
H  -14.46400 10.75000 40.84700
H  -13.08900 10.24700 41.87300
H  -11.61200 10.99200 40.27100
H  -12.61800 12.21300 39.52400
H  -12.97100 10.54100 39.15300
H  -6.90800 10.76500 42.44900
H  -8.45100 10.30600 41.97800
H  -8.22500 10.87700 43.64600
H  -5.52400 15.41000 40.14400
H  -3.68500 18.33700 42.75400
H  -2.29000 17.60200 42.32400
H  -3.14800 17.04200 43.75200

