158

Mg 48.18600 35.53500 27.80900
C  46.46800 33.66600 30.26500
C  48.39100 38.04900 30.17400
C  49.42200 37.44200 25.48800
C  47.52000 32.92400 25.56000
N  47.49400 35.79400 30.00500
C  47.04900 34.84400 30.80000
C  47.08100 35.24400 32.27800
C  47.31900 36.78200 32.15800
C  47.79100 36.94800 30.66000
C  46.04100 37.68700 32.47800
C  48.23400 34.50200 33.02200
C  48.14200 34.17900 34.44000
H  47.18500 35.05900 35.25200
N  48.75500 37.51100 27.78800
C  48.90200 38.32000 28.86000
C  49.54800 39.48200 28.47200
C  49.86600 39.35000 27.13500
C  49.36900 38.09100 26.73700
C  49.71200 40.68900 29.41300
C  50.58200 40.38300 26.29600
O  50.79300 40.15700 25.08000
C  51.16500 41.65100 26.79000
N  48.20900 35.30000 25.81600
C  48.83000 36.20100 25.06500
C  49.13600 35.77200 23.67000
C  48.80900 34.26500 23.73300
C  48.14800 34.12200 25.09600
C  48.27100 36.50100 22.57000
C  50.04100 33.37900 23.51200
C  50.02100 32.27600 22.49400
N  47.21100 33.68000 27.89900
C  47.03300 32.72000 26.86800
C  46.35800 31.59000 27.47700
C  46.12600 31.92900 28.79600
C  46.63000 33.16800 29.00500
C  46.05500 30.25100 26.78200
C  45.46500 31.44800 29.97200
O  44.89000 30.40500 30.18200
C  45.58900 32.68400 31.03000
C  45.99900 32.20000 32.35900
O  46.97300 31.45500 32.47000
O  44.99900 32.19700 33.31500
C  45.27100 31.43000 34.54800
H  48.56600 38.73100 31.00900
H  49.96100 37.87300 24.64100
H  47.66200 32.16800 24.78500
H  46.09400 34.99900 32.67000
H  48.13200 37.11500 32.80300
H  46.47500 38.59500 32.89700
H  45.40200 37.08500 33.12500
H  45.49300 37.83900 31.54900
H  49.19300 34.98900 32.84200
H  48.38400 33.56400 32.48600
H  49.09200 34.25600 34.96900
H  47.77200 33.15400 34.44200
H  49.31300 41.53200 28.84800
H  50.77100 40.88900 29.57600
H  49.16600 40.60200 30.35200
H  50.37400 42.39700 26.86700
H  51.93300 41.94900 26.07600
H  51.58200 41.44700 27.77700
H  50.20400 35.93600 23.52500
H  48.06300 34.02900 22.97400
H  48.11600 37.50600 22.96200
H  47.39900 35.92400 22.26200
H  48.93700 36.57500 21.71000
H  50.30000 32.90300 24.45800
H  50.87900 33.96000 23.12600
H  49.19600 32.37500 21.78800
H  49.90100 31.36100 23.07300
H  50.95900 32.25100 21.94000
H  44.99800 30.10900 26.55500
H  46.51300 29.46200 27.37800
H  46.53800 30.11400 25.81400
H  44.62300 33.15700 31.20500
H  46.13400 30.76400 34.57500
H  44.43700 30.77300 34.79400
H  45.34400 32.08500 35.41600
Mg -12.75600 16.97500 41.58100
C  -9.92100 15.08900 40.86500
C  -11.44600 19.63600 39.71600
C  -15.86700 18.35200 41.47600
C  -14.34800 13.92500 42.77000
N  -10.88200 17.32800 40.39100
C  -9.90400 16.36400 40.24800
C  -8.68800 17.02000 39.54200
C  -9.05400 18.48200 39.41300
C  -10.52300 18.52800 39.89100
C  -8.12300 19.43600 40.13700
C  -8.38800 16.29000 38.25000
C  -6.90100 15.83600 38.16600
H  -6.18300 16.52600 37.07900
N  -13.45900 18.69200 40.84800
C  -12.72500 19.72400 40.16700
C  -13.70100 20.79600 39.85700
C  -14.90400 20.52400 40.50000
C  -14.76800 19.11800 40.93300
C  -13.30500 22.02100 39.11700
C  -16.06700 21.51000 40.66700
O  -16.12600 22.56300 40.01600
C  -17.14300 21.30900 41.66000
N  -14.84100 16.17900 41.93300
C  -15.90600 17.02600 41.98100
C  -17.20600 16.36900 42.45300
C  -16.67300 14.94200 42.95100
C  -15.22400 14.97600 42.55100
C  -18.04000 17.10300 43.53800
C  -17.36900 13.69200 42.43700
C  -18.23400 12.83400 43.38600
N  -12.25300 15.00400 41.98300
C  -12.98000 13.92700 42.42800
C  -12.04900 12.79400 42.47400
C  -10.84000 13.19500 41.81800
C  -11.03500 14.55200 41.51900
C  -12.35200 11.42900 43.13500
C  -9.54800 12.69000 41.47100
O  -8.95900 11.61600 41.57900
C  -8.92100 13.90600 40.80400
C  -7.65900 14.11500 41.57400
O  -7.52900 14.64100 42.65600
O  -6.65400 13.69000 40.81100
C  -5.34900 13.94700 41.50700
H  -10.96200 20.39600 39.09900
H  -16.86600 18.79000 41.52500
H  -14.82400 13.03200 43.18200
H  -7.96800 16.94700 40.35700
H  -9.11600 18.76900 38.36300
H  -7.07600 19.35600 39.84300
H  -8.30700 19.30100 41.20300
H  -8.41700 20.44200 39.83900
H  -8.56600 16.87800 37.35000
H  -9.09500 15.47100 38.12300
H  -6.93700 14.75900 38.00500
H  -6.37800 16.07900 39.09200
H  -14.10600 22.26000 38.41800
H  -12.50200 21.96500 38.38200
H  -13.10300 22.80200 39.85000
H  -17.62300 22.20100 42.06300
H  -16.81100 20.86200 42.59700
H  -17.87300 20.77200 41.05500
H  -17.82500 16.17200 41.57700
H  -16.75000 14.88800 44.03700
H  -17.96500 16.65700 44.53000
H  -19.12100 17.13000 43.40300
H  -17.56000 18.08100 43.58300
H  -16.68200 13.00500 41.94200
H  -18.01100 13.96300 41.59800
H  -19.27500 12.70200 43.09100
H  -18.29900 13.20800 44.40800
H  -17.71100 11.88400 43.48800
H  -11.37300 11.00200 43.35300
H  -12.96700 10.87200 42.42900
H  -12.90400 11.43600 44.07500
H  -8.61600 13.62200 39.79700
H  -5.12600 13.24000 42.30600
H  -5.36800 14.89400 42.04700
H  -4.55200 13.92300 40.76300

