158

Mg 35.08600 3.47500 30.40000
C  32.70700 4.55400 32.71600
C  37.40100 3.59500 32.98800
C  37.29900 2.74500 28.16600
C  32.58800 3.73600 27.90500
N  35.00800 4.03500 32.59000
C  33.92200 4.35900 33.31300
C  34.25600 4.25300 34.86600
C  35.85800 4.29900 34.88100
C  36.08800 3.90400 33.38200
C  36.39500 5.72300 35.13900
C  33.72200 2.95700 35.59200
C  34.01300 2.76000 37.08900
H  34.44900 3.98100 37.91300
N  37.10400 3.12200 30.60500
C  37.93600 3.14500 31.72600
C  39.28900 2.72800 31.36600
C  39.30700 2.76200 29.92000
C  37.86800 2.85900 29.50500
C  40.41400 2.66200 32.46200
C  40.39800 2.61300 28.94100
O  40.15500 2.83300 27.76500
C  41.73300 2.08800 29.38700
N  34.94300 3.37000 28.29900
C  35.99400 2.99300 27.61300
C  35.77400 3.06600 26.01400
C  34.23100 3.29200 25.98600
C  33.86700 3.47200 27.48700
C  36.55200 4.18800 25.19300
C  33.50700 2.13900 25.26500
C  33.10700 0.94400 26.07200
N  33.07100 4.11900 30.27700
C  32.18800 4.08900 29.17400
C  30.84000 4.27000 29.66900
C  31.02100 4.50900 31.05300
C  32.41000 4.41000 31.38800
C  29.61900 4.28900 28.78200
C  30.37300 4.75500 32.29700
O  29.18700 4.93300 32.47900
C  31.39100 4.74600 33.46000
C  31.21100 6.02800 34.12100
O  30.98400 7.13200 33.56100
O  31.27900 5.81700 35.46600
C  31.49600 7.08400 36.14100
H  38.12100 3.70500 33.80200
H  38.03200 2.45200 27.41100
H  31.78400 3.67100 27.16900
H  33.78900 5.11300 35.34600
H  36.20400 3.64300 35.68000
H  36.91600 5.71400 36.09600
H  35.65900 6.52100 35.22400
H  37.15800 5.86900 34.37400
H  34.12400 2.05600 35.12900
H  32.63500 2.93400 35.51100
H  34.64300 1.87000 37.10700
H  33.15100 2.33600 37.60400
H  40.13700 3.22000 33.35600
H  41.23900 3.20800 32.00400
H  40.85700 1.70800 32.74900
H  41.50000 1.28700 30.08800
H  42.28500 2.94700 29.76800
H  42.36500 1.73800 28.57100
H  36.16700 2.13800 25.59700
H  34.01000 4.18800 25.40700
H  37.12200 4.71900 25.95600
H  35.81600 4.84100 24.72500
H  37.17700 3.63200 24.49400
H  34.18700 1.77600 24.49500
H  32.66200 2.58600 24.74200
H  33.63700 0.88000 27.02300
H  33.20300 0.08800 25.40500
H  32.04600 0.98700 26.32200
H  29.00200 3.39200 28.81300
H  29.88300 4.35100 27.72600
H  28.95300 5.11400 29.03400
H  31.06800 3.99000 34.17500
H  32.27800 7.61900 35.60100
H  31.96000 6.83200 37.09400
H  30.63200 7.74900 36.12800
Mg 49.52900 45.95300 43.20300
C  46.22500 46.82000 42.34400
C  49.04700 43.00000 41.35300
C  52.79000 45.47000 43.41200
C  50.01700 49.35200 44.08700
N  47.78500 45.06900 41.86600
C  46.57900 45.57700 41.77700
C  45.73500 44.71600 40.87300
C  46.63800 43.40400 40.65100
C  47.87300 43.80900 41.33100
C  46.07300 42.10300 41.20100
C  45.17700 45.34700 39.60700
C  43.70200 45.17000 39.24100
H  43.31800 44.90400 37.76800
N  50.73100 44.36800 42.56900
C  50.34300 43.19600 41.93000
C  51.55100 42.34500 41.69900
C  52.60300 42.99600 42.38300
C  52.10000 44.36100 42.79200
C  51.47500 41.05100 40.90600
C  53.99000 42.41800 42.74700
O  54.15700 41.22100 42.49800
C  55.01300 43.19000 43.27700
N  51.18900 47.30700 43.65200
C  52.41000 46.76800 43.85500
C  53.33400 47.92600 44.41200
C  52.33200 49.12300 44.56300
C  51.10900 48.56700 43.96400
C  54.08300 47.61600 45.73000
C  52.81300 50.51200 43.96200
C  53.36100 51.63200 44.92200
N  48.34800 47.70900 43.29500
C  48.65200 48.96500 43.75100
C  47.45900 49.75600 43.84000
C  46.47400 48.96300 43.25800
C  47.07300 47.75400 42.89700
C  47.38300 51.02600 44.50700
C  45.02600 48.86800 42.92100
O  44.11600 49.69200 43.02500
C  44.82800 47.47600 42.20800
C  43.83100 46.71900 42.96700
O  43.82200 46.56600 44.17900
O  42.93300 46.09600 42.14800
C  42.07400 45.11800 42.80200
H  48.88800 41.96500 41.04400
H  53.87600 45.35800 43.38200
H  50.17900 50.36500 44.46000
H  44.91300 44.33700 41.48000
H  46.84300 43.30600 39.58500
H  44.98500 42.10000 41.26000
H  46.43000 41.92900 42.21600
H  46.35500 41.29500 40.52600
H  45.82600 45.13900 38.75600
H  45.34000 46.42000 39.70100
H  43.07400 46.00900 39.54000
H  43.37600 44.26100 39.74800
H  52.16000 40.28100 41.26000
H  51.55800 41.33100 39.85600
H  50.47600 40.64300 41.05600
H  54.86200 43.65400 44.25100
H  55.32400 43.97700 42.59100
H  55.89300 42.55100 43.35200
H  54.08600 48.26500 43.70000
H  52.13400 49.32700 45.61500
H  53.88900 46.54600 45.81100
H  53.60100 48.13800 46.55600
H  55.14700 47.84800 45.68300
H  52.04800 50.97600 43.33900
H  53.57900 50.28800 43.22000
H  53.19400 51.22100 45.91700
H  52.74500 52.51800 44.76500
H  54.38900 51.90800 44.68600
H  48.06400 51.78400 44.11800
H  47.62200 50.96300 45.56900
H  46.37100 51.42400 44.42700
H  44.53000 47.67300 41.17800
H  41.24700 45.66400 43.25700
H  42.61900 44.45500 43.47300
H  41.50500 44.60800 42.02400

