158

Mg 6.88300 54.20400 40.83600
C  6.00500 50.67000 40.37800
C  10.07400 53.32400 39.68900
C  7.46400 57.45400 40.64900
C  3.54400 54.75200 41.43200
N  7.84900 52.11300 40.07600
C  7.38900 50.88400 40.02800
C  8.46700 49.88200 39.55900
C  9.78100 50.68100 39.76100
C  9.24500 52.16200 39.89500
C  10.72500 50.25400 40.95100
C  8.31300 49.28600 38.13600
C  7.59800 50.14300 37.08200
H  7.05800 49.53000 35.83100
N  8.50900 55.25600 40.14100
C  9.78200 54.71000 39.83600
C  10.68900 55.85100 39.61200
C  9.91300 56.99100 39.62100
C  8.58400 56.66600 40.16800
C  12.18400 55.68400 39.26600
C  10.49100 58.40500 39.40400
O  11.64100 58.58000 39.10700
C  9.76300 59.64200 39.72500
N  5.71400 55.89700 41.04100
C  6.15800 57.11500 40.98800
C  5.05800 58.09800 41.36700
C  3.78200 57.28100 41.18600
C  4.37300 55.90800 41.27000
C  5.32700 58.75300 42.73500
C  2.91700 57.64600 39.98900
C  1.54600 58.32500 40.17200
N  5.17800 52.97300 40.97600
C  3.90200 53.37100 41.35500
C  2.95100 52.26800 41.34900
C  3.74600 51.20400 41.06400
C  5.09500 51.59200 40.76300
C  1.49300 52.30600 41.55700
C  3.73800 49.75600 40.78800
O  2.81000 48.99300 40.87100
C  5.31500 49.36300 40.57200
C  5.41700 48.49400 39.34000
O  4.96200 48.70700 38.22000
O  5.90500 47.25800 39.61700
C  5.58600 46.17300 38.61300
H  11.12600 53.08500 39.52000
H  7.65300 58.50600 40.87500
H  2.50200 54.98300 41.66700
H  8.56900 49.03900 40.24200
H  10.34600 50.69800 38.82900
H  11.73800 50.36200 40.56300
H  10.60600 49.21100 41.24700
H  10.81600 50.90800 41.81800
H  7.82600 48.31200 38.08300
H  9.30300 49.01600 37.76800
H  8.32500 50.80900 36.61900
H  6.78300 50.67500 37.57200
H  12.72600 56.28400 39.99600
H  12.23300 55.93100 38.20600
H  12.48800 54.63800 39.30500
H  10.22900 60.48100 39.20900
H  9.73600 59.62200 40.81500
H  8.82600 59.48000 39.19300
H  5.19000 58.90800 40.65000
H  3.17800 57.46900 42.07400
H  4.87300 58.21500 43.56700
H  4.86600 59.72400 42.55700
H  6.40200 58.73100 42.91600
H  2.89900 56.72600 39.40500
H  3.49900 58.25500 39.29700
H  1.50800 59.13000 39.43700
H  1.41500 58.78600 41.15100
H  0.73000 57.61900 40.02100
H  0.93300 52.34600 40.62300
H  1.42100 53.17700 42.20800
H  1.13200 51.44400 42.11700
H  5.61700 48.87900 41.50100
H  5.94800 45.19000 38.91400
H  6.10800 46.45400 37.69800
H  4.55700 45.87000 38.42000
Mg -5.33400 25.23300 25.45300
C  -3.87100 26.63500 28.25700
C  -7.07100 23.17400 27.54400
C  -6.19000 23.42100 22.70700
C  -3.27500 27.20200 23.53400
N  -5.28700 24.85300 27.65400
C  -4.71500 25.59600 28.62400
C  -5.04300 25.17600 30.02600
C  -5.95100 23.93400 29.79000
C  -6.09200 23.92600 28.22700
C  -5.54400 22.54500 30.31600
C  -5.71900 26.29500 30.88500
C  -5.30600 26.44200 32.38000
H  -4.58600 25.27500 33.05900
N  -6.68900 23.62600 25.15100
C  -7.32200 22.99000 26.12900
C  -8.28600 22.09600 25.52800
C  -7.86600 22.03600 24.14400
C  -6.93000 23.09200 23.89300
C  -9.27800 21.27800 26.34100
C  -8.37400 21.09500 23.01200
O  -8.00800 21.19100 21.85200
C  -9.47900 20.11900 23.34700
N  -4.96300 25.41800 23.40700
C  -5.26700 24.48900 22.50200
C  -4.63200 24.77300 21.19700
C  -3.78400 26.08400 21.41800
C  -4.02900 26.22200 22.89500
C  -3.82200 23.52600 20.58000
C  -4.36300 27.35700 20.68000
C  -3.46400 27.92700 19.60700
N  -3.93800 26.69300 25.73600
C  -3.16800 27.39400 24.84700
C  -2.25800 28.28400 25.55400
C  -2.54200 28.07300 26.94400
C  -3.51300 27.05200 26.96900
C  -1.24900 29.13700 24.97200
C  -2.30500 28.52100 28.31800
O  -1.59900 29.43300 28.80100
C  -2.98500 27.42900 29.19700
C  -1.83600 26.69200 29.85600
O  -0.96000 26.08100 29.26800
O  -1.81200 26.82500 31.18500
C  -0.64700 26.28400 31.95300
H  -7.64900 22.58000 28.25500
H  -6.31900 22.82200 21.80400
H  -2.58400 27.70800 22.85600
H  -4.11100 24.90200 30.52100
H  -6.98500 23.98600 30.13000
H  -6.51000 22.13400 30.61100
H  -4.80300 22.51700 31.11500
H  -5.22700 21.88500 29.50900
H  -6.77800 26.04600 30.95700
H  -5.61100 27.27900 30.42900
H  -6.26100 26.51400 32.90000
H  -4.81300 27.38400 32.61900
H  -9.05300 20.21300 26.39100
H  -10.32100 21.34400 26.03200
H  -9.35500 21.65200 27.36200
H  -9.72900 19.52400 22.46900
H  -10.28000 20.83800 23.52100
H  -9.18700 19.52300 24.21100
H  -5.51900 24.97500 20.59800
H  -2.70800 25.92700 21.35000
H  -3.65800 22.81900 21.39300
H  -2.86000 23.89800 20.22600
H  -4.38300 23.08500 19.75500
H  -4.72300 28.15200 21.33400
H  -5.26300 27.02100 20.16500
H  -2.94300 28.85600 19.83700
H  -4.12100 28.10000 18.75500
H  -2.62100 27.26100 19.42200
H  -0.39000 29.42000 25.58100
H  -1.79000 29.99900 24.58300
H  -0.77000 28.65300 24.12100
H  -3.48900 28.05500 29.93300
H  0.31100 26.70200 31.64400
H  -0.63000 25.19800 31.86200
H  -0.82800 26.50500 33.00500

