158

Mg 24.46000 -7.51100 46.11400
C  26.90200 -5.12700 45.05900
C  22.11400 -5.99100 44.13600
C  22.41400 -10.02300 46.78000
C  27.13300 -9.26100 47.63100
N  24.54200 -5.79400 44.81600
C  25.61100 -4.91800 44.60100
C  25.22900 -3.79000 43.59100
C  23.62900 -3.99600 43.41200
C  23.42800 -5.35500 44.27200
C  22.76100 -2.82600 43.91400
C  25.92800 -3.86300 42.30900
C  26.48100 -2.53000 41.76500
H  25.52000 -1.89500 40.73900
N  22.38000 -7.86300 45.68600
C  21.63500 -7.17000 44.82000
C  20.33900 -7.77500 44.78700
C  20.34200 -8.95300 45.59200
C  21.72600 -8.98700 46.11100
C  19.14800 -7.06300 44.16300
C  19.16600 -9.87900 45.83500
O  18.20000 -9.71200 45.07400
C  19.22300 -10.98900 46.77800
N  24.81100 -9.31600 46.97800
C  23.75400 -10.15700 47.12700
C  24.14100 -11.47100 47.89200
C  25.64200 -11.24700 48.23900
C  25.87700 -9.90000 47.52600
C  23.26000 -11.94000 49.13700
C  26.74000 -12.31000 48.08600
C  27.49300 -12.85700 49.31600
N  26.56500 -7.34000 46.28100
C  27.53700 -8.10900 46.97100
C  28.85400 -7.48900 46.88000
C  28.67600 -6.32800 46.11400
C  27.26900 -6.28900 45.77300
C  30.01500 -7.93000 47.67700
C  29.32000 -5.04900 45.63900
O  30.43100 -4.64300 45.87500
C  28.21900 -4.34100 44.79800
C  28.23100 -2.96600 45.05300
O  28.91500 -2.19800 44.35400
O  27.49000 -2.57500 46.13800
C  27.50700 -1.19300 46.45100
H  21.35700 -5.51400 43.51000
H  21.72100 -10.80100 47.10500
H  28.05000 -9.68300 48.04800
H  25.43600 -2.80200 44.00200
H  23.30800 -4.14000 42.38000
H  23.32100 -2.04600 44.42900
H  21.93300 -3.11800 44.56100
H  22.19800 -2.19600 43.22500
H  25.17300 -4.21100 41.60500
H  26.76900 -4.55700 42.31300
H  27.48000 -2.79100 41.41600
H  26.71100 -1.80500 42.54500
H  19.30600 -6.00500 43.95800
H  18.21900 -7.30100 44.68200
H  19.00600 -7.44800 43.15400
H  19.49500 -10.51900 47.72300
H  20.03000 -11.63100 46.42600
H  18.31200 -11.58100 46.86300
H  23.90200 -12.25100 47.16900
H  25.69100 -11.00200 49.30000
H  22.92300 -12.94800 48.89700
H  22.48100 -11.20700 49.34700
H  23.90900 -11.99100 50.01000
H  27.39500 -11.98500 47.27800
H  26.27600 -13.15500 47.57700
H  27.03900 -13.84800 49.33700
H  27.14000 -12.21700 50.12400
H  28.57100 -12.84200 49.15400
H  29.75400 -8.47200 48.58700
H  30.75200 -7.14800 47.85900
H  30.58300 -8.68300 47.13100
H  28.44500 -4.58500 43.76000
H  27.07000 -1.18700 47.44900
H  27.04900 -0.59400 45.66400
H  28.50400 -0.78800 46.62700
Mg 52.70200 25.09500 45.21600
C  49.71700 26.77100 44.07900
C  51.20600 22.15800 44.02900
C  55.53700 23.58300 45.70800
C  53.75400 27.99200 46.67200
N  50.71200 24.63500 43.95400
C  49.68400 25.40600 43.76700
C  48.41100 24.64400 43.33200
C  48.94300 23.16700 43.49000
C  50.39800 23.33500 43.86300
C  48.05800 22.39300 44.53100
C  47.86400 24.95200 41.87800
C  48.93100 25.41600 40.96300
H  48.50300 25.56900 39.47100
N  53.34900 23.12100 44.84800
C  52.54700 22.07600 44.53300
C  53.46400 20.93500 44.40300
C  54.76300 21.29100 44.85000
C  54.56400 22.68900 45.28400
C  53.08100 19.65000 43.80300
C  55.95700 20.46900 44.66900
O  55.83000 19.24700 44.35300
C  57.38000 20.95200 44.95600
N  54.45800 25.70400 45.96700
C  55.55100 24.95500 45.99900
C  56.74600 25.71700 46.52300
C  56.10400 27.01500 47.03900
C  54.66300 26.95500 46.50700
C  57.50700 24.91700 47.64200
C  56.79600 28.39500 46.62900
C  57.38600 29.25600 47.77900
N  51.91700 27.04900 45.36900
C  52.45800 28.09000 46.08900
C  51.44700 29.20000 46.06900
C  50.36200 28.65100 45.30100
C  50.71500 27.36600 44.81900
C  51.61600 30.56100 46.75200
C  49.06900 29.01000 44.80800
O  48.38700 30.04900 44.90800
C  48.60700 27.80700 43.98400
C  48.33800 28.40500 42.70400
O  49.12300 29.07200 42.05900
O  47.11600 27.97100 42.29100
C  46.60000 28.65200 41.10700
H  50.70400 21.18900 43.97700
H  56.50800 23.16100 45.97500
H  53.98400 28.94200 47.15800
H  47.69300 24.87600 44.11900
H  48.88400 22.76400 42.47900
H  47.91800 22.84300 45.51400
H  48.66100 21.50800 44.73400
H  47.02200 22.23100 44.23300
H  47.02500 25.64800 41.88400
H  47.63700 23.97600 41.45000
H  49.79700 24.76700 41.09500
H  49.34300 26.37300 41.28400
H  52.01100 19.52000 43.96700
H  53.53300 18.83200 44.36400
H  53.29400 19.54200 42.73900
H  57.59700 21.85800 44.39100
H  58.12300 20.20500 44.67600
H  57.56200 21.24000 45.99100
H  57.45400 25.79400 45.69800
H  56.02400 27.06200 48.12500
H  58.43200 24.66100 47.12600
H  57.03400 24.02000 48.04300
H  57.85000 25.52000 48.48300
H  56.32300 29.03000 45.87900
H  57.74800 28.08700 46.19700
H  57.71700 28.61400 48.59500
H  56.60200 29.99100 47.96600
H  58.31900 29.69200 47.42400
H  50.57100 30.82600 46.91000
H  52.06800 31.21200 46.00400
H  52.22900 30.32800 47.62300
H  47.61500 27.50200 44.31900
H  46.26000 29.63000 41.44900
H  45.71600 28.24800 40.61500
H  47.36800 28.71100 40.33600

