158

Mg 16.78800 52.38700 26.67700
C  19.14400 50.59700 28.48400
C  14.90000 52.76900 29.44000
C  14.68200 53.99800 24.73800
C  18.60800 51.32000 23.69000
N  17.05000 51.89700 28.69800
C  18.08700 51.17000 29.27600
C  18.04600 51.20200 30.81000
C  16.55100 51.56300 31.01200
C  16.14400 52.10700 29.60300
C  15.60800 50.41400 31.31400
C  19.11200 52.21400 31.46700
C  19.20700 52.39200 32.96800
H  18.11500 51.77900 33.87600
N  15.02600 53.21500 27.00200
C  14.37400 53.30000 28.26800
C  13.13500 54.06900 28.17300
C  13.08000 54.52800 26.81600
C  14.29600 53.95800 26.09500
C  12.13900 54.24200 29.25100
C  12.11700 55.47700 26.13700
O  12.02800 55.57400 24.91700
C  11.19000 56.29800 26.98200
N  16.67200 52.63700 24.58600
C  15.74300 53.44100 24.00100
C  15.81400 53.55700 22.42200
C  17.10700 52.71400 22.22700
C  17.51200 52.21500 23.60300
C  14.69200 52.99100 21.55300
C  18.26400 53.45200 21.51000
C  19.17300 54.27400 22.48700
N  18.54000 51.21400 26.13800
C  19.15600 50.90300 24.92700
C  20.37100 50.07200 25.24000
C  20.38700 49.96400 26.65200
C  19.24600 50.67000 27.10500
C  21.39400 49.59500 24.18100
C  21.05100 49.36300 27.80000
O  21.99200 48.59700 27.83700
C  20.40300 49.96200 29.01000
C  20.19700 48.81000 29.96900
O  19.40900 47.88600 29.85500
O  20.76800 49.13700 31.19200
C  20.40700 48.37400 32.36400
H  14.30600 52.99000 30.32900
H  14.04000 54.60400 24.09500
H  19.23400 51.00300 22.85300
H  18.12700 50.21700 31.27000
H  16.39500 52.36300 31.73600
H  14.90200 50.89000 31.99500
H  16.12900 49.60100 31.82000
H  15.08300 50.09600 30.41300
H  18.90900 53.22700 31.12100
H  20.13200 51.95700 31.17700
H  19.26500 53.47700 33.05900
H  20.19500 52.02000 33.24000
H  11.47800 55.10800 29.25700
H  12.68100 54.30600 30.19500
H  11.45000 53.39800 29.29500
H  11.71900 56.71900 27.83700
H  10.34600 55.72400 27.36300
H  10.86300 57.15900 26.39900
H  16.02300 54.56500 22.06500
H  16.92300 51.74700 21.76000
H  13.96600 52.37500 22.08300
H  15.11300 52.38200 20.75300
H  14.12500 53.77200 21.04500
H  17.89800 54.12100 20.73100
H  18.74100 52.70100 20.88100
H  19.46000 55.26600 22.13600
H  20.05800 53.64300 22.56700
H  18.75400 54.43000 23.48100
H  22.21800 49.10800 24.70200
H  21.74800 50.37900 23.51300
H  20.86600 48.94200 23.48600
H  21.11300 50.72600 29.32600
H  21.35700 48.34000 32.89800
H  20.03700 47.37800 32.12300
H  19.72700 48.98700 32.95600
Mg 9.60700 47.40400 26.66000
C  7.66000 46.99000 29.55000
C  12.04800 48.69200 28.54200
C  11.22800 48.10900 23.76200
C  6.83600 46.37000 24.73400
N  9.82700 47.84500 28.77700
C  8.96100 47.51700 29.78800
C  9.54400 47.91600 31.17000
C  10.90400 48.60500 30.77800
C  10.95800 48.38300 29.27000
C  10.97800 50.17000 31.09100
C  9.77500 46.82700 32.26100
C  9.52700 47.45900 33.66500
H  9.63900 46.49700 34.81500
N  11.46100 48.21700 26.20200
C  12.36500 48.61500 27.12200
C  13.61000 48.77300 26.43600
C  13.38200 48.51400 25.07400
C  11.96400 48.26700 24.96900
C  14.95400 49.04800 27.18900
C  14.38300 48.64100 23.92500
O  14.07900 48.36500 22.76300
C  15.87800 48.89900 24.16600
N  9.12600 47.42300 24.55000
C  9.95000 47.70600 23.50400
C  9.33200 47.48300 22.08900
C  8.18800 46.56400 22.53400
C  8.02500 46.80100 24.03700
C  8.97100 48.82800 21.38000
C  8.19900 45.10100 22.12600
C  8.74400 44.09300 23.17800
N  7.69000 46.77800 27.03300
C  6.68300 46.36000 26.12600
C  5.55700 45.91400 26.81500
C  5.86000 46.17000 28.19400
C  7.19300 46.68900 28.27500
C  4.23900 45.26200 26.27300
C  5.32200 46.12200 29.47300
O  4.22400 45.67700 29.85200
C  6.52000 46.50400 30.49400
C  6.74700 45.19000 31.20000
O  7.37400 44.28900 30.73000
O  6.26000 45.22200 32.44100
C  6.42600 44.06600 33.33800
H  12.91200 48.93700 29.16300
H  11.72300 48.47600 22.86000
H  5.96200 45.91600 24.26300
H  8.87000 48.61800 31.66100
H  11.85400 48.18600 31.11000
H  11.82800 50.32000 31.75600
H  10.11100 50.54200 31.63800
H  11.09300 50.74100 30.17000
H  10.74300 46.33200 32.19100
H  9.03500 46.04900 32.07100
H  8.48300 47.77200 33.65400
H  10.20000 48.30100 33.83000
H  15.49300 49.88700 26.74600
H  15.51300 48.11500 27.12000
H  14.91300 49.25600 28.25800
H  16.29500 48.23000 24.91900
H  15.91500 49.94500 24.46800
H  16.34300 48.81700 23.18400
H  10.03900 46.93900 21.46300
H  7.23100 46.98500 22.22600
H  9.38300 49.65500 21.95800
H  7.88100 48.83700 21.35200
H  9.39400 48.74800 20.37900
H  8.84400 44.99200 21.25400
H  7.19400 44.78600 21.84900
H  9.41000 44.53900 23.91600
H  9.37600 43.40300 22.61900
H  7.90700 43.55400 23.62400
H  4.46500 44.27500 25.87000
H  3.76700 45.79500 25.44800
H  3.43000 45.13300 26.99300
H  6.26700 47.25600 31.24100
H  6.70100 44.45300 34.31900
H  7.17300 43.34500 33.00600
H  5.50900 43.48500 33.42900

