158

Mg 44.11200 3.86800 47.55500
C  42.19900 6.70400 46.96400
C  41.50800 1.90400 47.23100
C  46.32200 1.19000 47.50600
C  46.98200 6.00400 47.34700
N  42.09800 4.31500 47.00100
C  41.47500 5.50500 46.87000
C  40.02300 5.30300 46.65300
C  39.88800 3.82800 47.14300
C  41.28100 3.29000 47.03400
C  39.18100 3.64200 48.52300
C  39.51600 5.69100 45.18600
C  38.43000 6.78700 44.94400
H  37.85200 6.77000 43.52200
N  43.93600 1.79500 47.49100
C  42.73000 1.15500 47.43600
C  42.92800 -0.28000 47.46100
C  44.34100 -0.46200 47.51600
C  44.95700 0.88400 47.46100
C  41.79900 -1.32700 47.17900
C  44.99300 -1.86300 47.55000
O  44.33200 -2.88000 47.35300
C  46.52900 -2.04400 47.53100
N  46.30400 3.69900 47.25900
C  46.88700 2.47500 47.51300
C  48.39200 2.67200 47.83300
C  48.61900 4.19200 47.41800
C  47.23500 4.66400 47.23500
C  48.79400 2.32500 49.24100
C  49.41600 4.54200 46.16200
C  50.92500 4.43500 46.19900
N  44.59300 5.95000 47.23600
C  45.71700 6.68800 47.24100
C  45.42700 8.09300 47.24900
C  44.01800 8.14900 47.18200
C  43.56000 6.77600 47.14500
C  46.40300 9.18300 47.34100
C  42.88500 8.97200 47.23800
O  42.87100 10.16600 47.60600
C  41.62900 8.09100 47.02400
C  40.68600 8.37900 48.20100
O  40.84500 7.95400 49.28600
O  39.59700 9.07800 47.76400
C  38.67400 9.44600 48.82900
H  40.57400 1.35900 47.38300
H  47.00900 0.36900 47.72200
H  47.76800 6.75400 47.46200
H  39.42500 5.99500 47.24700
H  39.19600 3.36400 46.44100
H  38.40200 2.89100 48.38700
H  38.67800 4.54100 48.87900
H  39.91900 3.36500 49.27600
H  39.03100 4.80500 44.77600
H  40.38700 5.81000 44.54100
H  38.80000 7.77600 45.21400
H  37.54900 6.70300 45.58000
H  41.73500 -1.42300 46.09600
H  40.85800 -0.97400 47.60200
H  41.96900 -2.32600 47.58000
H  46.92800 -1.87900 48.53200
H  46.90600 -1.37000 46.76200
H  46.79700 -3.08000 47.32600
H  48.94800 2.01600 47.16300
H  48.96600 4.80400 48.25000
H  48.17700 1.47500 49.53600
H  48.61100 3.19900 49.86600
H  49.80100 1.90800 49.25300
H  49.04600 5.47700 45.74200
H  49.02800 3.87800 45.39000
H  51.45800 4.25900 47.13300
H  51.33900 5.36400 45.80600
H  51.35900 3.68900 45.53300
H  46.06000 9.95600 46.65400
H  47.39200 8.85500 47.02000
H  46.45100 9.50500 48.38200
H  40.98700 8.39500 46.19800
H  39.24100 9.79200 49.69300
H  37.93200 8.70800 49.13300
H  38.12000 10.31600 48.47600
Mg -5.28400 25.41700 25.83300
C  -3.80800 26.93300 28.62000
C  -6.88600 23.22700 28.12500
C  -6.60600 23.74800 23.25900
C  -3.49700 27.44100 23.78100
N  -5.50100 25.22400 28.08400
C  -4.70900 25.92700 28.97900
C  -5.01000 25.45100 30.42000
C  -5.84000 24.16300 30.23800
C  -6.16100 24.25400 28.73000
C  -5.10600 22.88400 30.60100
C  -5.71100 26.59800 31.22300
C  -6.50100 26.36000 32.53100
H  -6.19200 25.09600 33.34100
N  -6.59700 23.70700 25.70600
C  -7.14300 22.93400 26.76600
C  -7.99900 21.95000 26.19500
C  -8.01400 22.12500 24.76900
C  -7.11100 23.23900 24.49500
C  -8.61300 20.88600 27.06600
C  -8.82700 21.34000 23.75600
O  -8.84800 21.68600 22.59000
C  -9.52100 20.02700 24.17200
N  -5.04100 25.61900 23.75900
C  -5.68600 24.80100 22.88900
C  -5.41900 25.21800 21.47300
C  -4.42300 26.36600 21.63600
C  -4.31100 26.52500 23.14100
C  -4.77900 24.03500 20.66000
C  -4.92200 27.63500 20.96500
C  -4.32900 27.83900 19.58900
N  -3.86700 26.85400 26.06200
C  -3.24500 27.60700 25.14100
C  -2.36400 28.64500 25.76800
C  -2.50200 28.37300 27.09500
C  -3.43300 27.33100 27.25600
C  -1.59400 29.70000 24.98900
C  -2.09500 28.74700 28.42100
O  -1.33000 29.64000 28.74700
C  -2.77000 27.79500 29.43700
C  -1.82000 27.01800 30.33000
O  -1.12200 26.08400 29.91100
O  -1.94400 27.48000 31.59100
C  -1.23800 26.72000 32.60200
H  -7.37600 22.61600 28.88600
H  -7.12700 23.23700 22.44600
H  -2.84100 28.05900 23.16400
H  -4.05200 25.19600 30.87200
H  -6.77800 24.34900 30.76100
H  -5.86600 22.21200 30.99900
H  -4.28000 22.95200 31.30900
H  -4.62700 22.46100 29.71700
H  -6.37300 27.15400 30.55900
H  -4.91600 27.29500 31.48900
H  -7.56900 26.38400 32.31700
H  -6.46100 27.18500 33.24200
H  -8.53300 19.88900 26.63200
H  -9.67800 21.09500 27.17100
H  -8.18200 20.75400 28.05800
H  -8.89900 19.35700 24.76500
H  -9.76000 19.50900 23.24400
H  -10.47000 20.24500 24.66200
H  -6.35700 25.54500 21.02400
H  -3.44700 26.12900 21.21200
H  -5.53900 23.46000 20.13100
H  -4.11900 23.45700 21.30700
H  -4.11000 24.42200 19.89100
H  -4.77600 28.38000 21.74700
H  -5.98500 27.46700 20.78900
H  -3.63900 27.04600 19.30400
H  -3.64300 28.68500 19.56000
H  -5.03400 28.03200 18.77900
H  -2.05300 29.92100 24.02500
H  -0.53000 29.46300 25.00600
H  -1.66700 30.58800 25.61700
H  -3.30800 28.45900 30.11300
H  -0.18700 26.74500 32.31400
H  -1.53200 25.67100 32.63100
H  -1.15800 27.30000 33.52100

