158

Mg 16.99500 -1.81900 27.35900
C  16.27500 0.08800 30.10800
C  19.09500 -3.71700 29.39000
C  18.28300 -3.41200 24.60600
C  15.51500 0.62400 25.33100
N  17.80900 -1.60200 29.42700
C  17.06800 -1.02300 30.39200
C  17.57700 -1.36700 31.78500
C  18.70000 -2.36500 31.48800
C  18.54700 -2.59000 30.00000
C  20.15400 -2.07300 31.78800
C  16.42200 -1.77100 32.81300
C  16.50700 -1.23500 34.26900
H  17.80200 -0.53900 34.74500
N  18.34400 -3.40400 27.07000
C  19.01000 -4.10800 28.03200
C  19.60000 -5.29500 27.47200
C  19.36200 -5.23200 26.11200
C  18.62500 -4.01800 25.86000
C  20.33500 -6.22000 28.31200
C  19.82700 -6.21500 25.03700
O  19.50600 -6.20900 23.87000
C  20.68200 -7.39400 25.48600
N  17.07700 -1.30300 25.31300
C  17.61400 -2.14100 24.35500
C  17.54600 -1.50700 22.99500
C  16.35600 -0.50900 23.18200
C  16.29800 -0.37400 24.72400
C  18.83300 -0.82000 22.50900
C  14.96300 -1.13600 22.65400
C  14.33800 -0.55900 21.32600
N  15.90100 -0.04800 27.55700
C  15.38500 0.82400 26.70700
C  14.61000 1.87100 27.36100
C  14.95400 1.59500 28.73700
C  15.80600 0.47600 28.79800
C  13.86100 2.93500 26.75100
C  14.72300 2.04100 30.05300
O  14.08900 2.98500 30.50600
C  15.54600 1.14000 31.03000
C  16.51000 2.02000 31.69100
O  17.59700 2.34500 31.25900
O  16.02300 2.44300 32.93100
C  16.93800 3.39300 33.65300
H  19.61500 -4.39800 30.06800
H  18.61800 -4.00900 23.75500
H  15.13400 1.43500 24.70800
H  18.06600 -0.44600 32.10100
H  18.45500 -3.27500 32.03600
H  20.78500 -2.23800 30.91500
H  20.63900 -2.74300 32.49900
H  20.22600 -1.02200 32.06600
H  16.24900 -2.84700 32.84000
H  15.58100 -1.23400 32.37400
H  16.52800 -2.06900 34.97000
H  15.61700 -0.67900 34.56400
H  20.22700 -7.26300 28.01200
H  20.06600 -6.37800 29.35700
H  21.36900 -5.90100 28.18300
H  19.97500 -8.06300 25.97800
H  21.57300 -7.04400 26.00700
H  21.06000 -7.80800 24.55200
H  17.22600 -2.32400 22.34800
H  16.50300 0.41700 22.62500
H  19.38100 -0.65500 23.43700
H  18.71100 0.09200 21.92500
H  19.49600 -1.48700 21.95900
H  14.23500 -1.20200 23.46300
H  15.15800 -2.18100 22.41300
H  14.96500 0.28000 21.02400
H  13.30500 -0.24800 21.48400
H  14.38600 -1.39500 20.62800
H  14.32200 3.91000 26.90900
H  12.94700 2.91900 27.34400
H  13.60000 2.89700 25.69300
H  14.96400 0.57300 31.75600
H  16.73200 4.41300 33.33000
H  17.98700 3.17200 33.45800
H  16.99700 3.43000 34.74100
Mg 41.58200 41.82900 27.79400
C  40.68400 44.33700 30.18000
C  42.45400 39.79900 30.44400
C  42.80600 39.67700 25.61300
C  41.40200 44.23400 25.33600
N  41.62200 42.04200 30.07200
C  41.06700 43.12200 30.77500
C  40.92700 42.65800 32.25600
C  41.62900 41.25400 32.35500
C  41.97300 41.02000 30.85900
C  42.87100 41.08800 33.21200
C  39.36300 42.65000 32.79700
C  38.89400 43.78000 33.75000
H  38.45100 43.42100 35.19800
N  42.53500 39.91300 27.98700
C  42.76600 39.30800 29.16700
C  43.12300 37.92300 28.83100
C  43.10000 37.80200 27.40100
C  42.77000 39.13700 26.94900
C  43.52500 36.85100 29.87100
C  43.31000 36.65300 26.60600
O  43.33100 36.67800 25.37600
C  43.49000 35.33700 27.16700
N  42.04300 41.89400 25.87000
C  42.58600 40.93100 25.15300
C  42.67900 41.22200 23.65800
C  42.04300 42.59600 23.50500
C  41.83700 42.95100 25.01500
C  44.08500 41.08000 23.10000
C  40.67700 42.62200 22.71700
C  39.54000 41.83100 23.34100
N  41.04500 43.82100 27.72600
C  41.00700 44.65300 26.61300
C  40.51300 45.96800 27.02500
C  40.32400 45.83400 28.42600
C  40.67000 44.58100 28.82100
C  40.19700 47.14300 26.13800
C  39.86800 46.54300 29.63700
O  39.49700 47.66600 29.83000
C  40.16100 45.57000 30.78200
C  40.99700 46.25400 31.82300
O  42.12500 45.95800 32.28000
O  40.13600 47.16400 32.48400
C  40.52400 47.85700 33.71000
H  42.74400 39.06200 31.19500
H  43.27200 39.05300 24.84800
H  41.15200 44.92200 24.52600
H  41.51600 43.30700 32.90400
H  40.96500 40.41000 32.54100
H  42.55500 40.43700 34.02700
H  43.00600 42.05200 33.70100
H  43.75700 40.75100 32.67500
H  39.04600 41.66600 33.14100
H  38.87700 42.71200 31.82300
H  38.03800 44.28400 33.29900
H  39.69900 44.51100 33.82800
H  43.20200 37.03400 30.89500
H  44.59300 36.63400 29.85000
H  42.96100 35.99700 29.49800
H  42.48800 35.14700 27.55300
H  44.34100 35.34500 27.84900
H  43.69000 34.60900 26.38100
H  41.96500 40.53100 23.21100
H  42.74300 43.29000 23.04000
H  43.95500 40.13700 22.56900
H  44.79900 40.83500 23.88600
H  44.50000 41.80400 22.40000
H  40.82300 42.12700 21.75700
H  40.35000 43.63000 22.46400
H  38.67200 42.48400 23.43100
H  39.82100 41.47500 24.33200
H  39.36900 40.96600 22.69900
H  39.32500 47.67800 26.51200
H  39.99700 46.76900 25.13400
H  41.01400 47.86300 26.07500
H  39.24700 45.30400 31.31400
H  39.75800 48.54300 34.06900
H  41.27700 48.56500 33.36400
H  40.67200 47.24600 34.60000

