158

Mg -1.09700 18.05600 27.02300
C  -1.99100 16.04900 29.72000
C  -1.99800 20.80800 29.00400
C  -0.92100 20.05500 24.27200
C  -1.18400 15.28000 24.89900
N  -1.90100 18.29400 29.08000
C  -2.13200 17.39600 30.01400
C  -2.34900 17.92500 31.44100
C  -2.57500 19.44200 31.08600
C  -2.06200 19.53500 29.64100
C  -4.04100 19.99800 31.12800
C  -1.20900 17.67000 32.47800
C  -1.71800 16.98300 33.74900
H  -0.67300 16.86700 34.92200
N  -1.38100 20.18400 26.69700
C  -1.71300 21.10300 27.64300
C  -1.65800 22.43600 27.03700
C  -1.33700 22.26800 25.61200
C  -1.18300 20.80200 25.44100
C  -2.05300 23.76200 27.86100
C  -1.24700 23.36400 24.52600
O  -0.88200 23.09400 23.37600
C  -1.42000 24.83900 24.82800
N  -1.26300 17.72400 24.89000
C  -0.90700 18.66300 23.96300
C  -0.62300 18.14300 22.59400
C  -0.56000 16.57900 22.83100
C  -1.09400 16.49300 24.26900
C  -1.57100 18.68600 21.50800
C  0.81600 16.03400 22.65500
C  1.95300 16.46300 23.61700
N  -1.36700 16.02300 27.17700
C  -1.35300 15.03500 26.27500
C  -1.57100 13.74700 27.05600
C  -1.80100 14.15000 28.32000
C  -1.65100 15.47200 28.40800
C  -1.87900 12.44700 26.46900
C  -2.14900 13.58100 29.67200
O  -2.42600 12.44900 29.98300
C  -2.19700 14.81800 30.65400
C  -1.07900 14.54600 31.52400
O  0.06400 14.94000 31.28200
O  -1.44600 13.67200 32.54700
C  -0.41500 13.38100 33.55000
H  -2.15000 21.67400 29.65000
H  -0.67100 20.68300 23.41500
H  -0.92100 14.38600 24.33100
H  -3.26700 17.50800 31.85600
H  -1.98000 20.02800 31.78700
H  -4.06700 20.62000 32.02300
H  -4.67200 19.12600 31.30200
H  -4.33900 20.54600 30.23500
H  -0.77100 18.59700 32.84900
H  -0.41200 17.04800 32.07100
H  -2.13800 16.00500 33.51200
H  -2.57700 17.56500 34.08300
H  -1.33100 24.26300 28.50600
H  -2.93500 23.53100 28.45800
H  -2.31900 24.63200 27.26000
H  -2.50100 24.98000 24.83900
H  -0.96700 25.45500 24.05200
H  -0.82800 25.08400 25.71000
H  0.36500 18.53000 22.34300
H  -1.27000 15.99000 22.25100
H  -1.07200 19.22900 20.70600
H  -2.28800 19.38100 21.94500
H  -2.07500 17.81100 21.09800
H  1.01600 16.25200 21.60600
H  0.71600 14.95200 22.75000
H  2.42300 15.57900 24.04900
H  1.47000 17.07900 24.37600
H  2.78100 17.03200 23.19400
H  -1.87000 12.42100 25.37900
H  -2.92800 12.24700 26.68600
H  -1.32600 11.68200 27.01400
H  -3.13800 14.77000 31.20300
H  -0.65200 12.34100 33.77700
H  -0.63500 14.05400 34.37800
H  0.62500 13.46100 33.23500
Mg -5.66900 25.41700 26.26000
C  -4.44600 26.86700 29.25000
C  -7.65800 23.36800 28.16600
C  -6.43300 23.93900 23.37300
C  -3.42700 27.59800 24.53100
N  -5.90500 25.12000 28.52700
C  -5.41800 25.91200 29.50100
C  -6.04500 25.57400 30.80200
C  -6.88100 24.29800 30.40000
C  -6.82600 24.23500 28.94700
C  -6.43000 22.93700 31.01700
C  -6.85900 26.79300 31.44200
C  -6.79300 27.03900 32.92900
H  -6.27500 25.83200 33.77900
N  -6.88300 23.87600 25.78400
C  -7.68000 23.17500 26.71500
C  -8.51000 22.21600 26.05000
C  -8.06100 22.28800 24.64300
C  -7.12800 23.42300 24.49500
C  -9.45500 21.28900 26.71700
C  -8.40600 21.35000 23.47900
O  -8.08000 21.50000 22.29700
C  -9.35600 20.22300 23.66000
N  -5.05700 25.76100 24.20100
C  -5.52300 24.95000 23.21900
C  -4.80800 25.28300 21.87500
C  -4.13500 26.63200 22.21300
C  -4.25700 26.74800 23.74200
C  -3.88600 24.06300 21.53800
C  -4.84600 27.84700 21.58400
C  -4.49300 28.28800 20.15000
N  -4.20100 27.00500 26.81600
C  -3.36300 27.64200 25.95900
C  -2.47500 28.49900 26.77200
C  -2.89600 28.25200 28.05800
C  -3.93900 27.27900 28.00800
C  -1.45800 29.44900 26.09700
C  -2.70500 28.61800 29.45900
O  -1.99300 29.48000 29.91000
C  -3.66200 27.73500 30.26500
C  -2.88400 26.92300 31.21700
O  -2.44300 25.80400 31.02500
O  -2.63000 27.65000 32.33000
C  -2.00900 26.89000 33.42400
H  -8.40000 22.85700 28.78300
H  -6.73700 23.53400 22.40500
H  -2.83100 28.31500 23.96200
H  -5.22000 25.33500 31.47400
H  -7.90900 24.61000 30.58700
H  -6.66500 22.95000 32.08100
H  -5.34800 22.84200 30.92600
H  -7.02400 22.16600 30.52600
H  -7.91500 26.63000 31.22800
H  -6.58800 27.74100 30.97700
H  -7.76700 27.39800 33.26200
H  -6.18800 27.93200 33.08800
H  -10.40000 21.11600 26.20200
H  -9.53000 21.43100 27.79500
H  -8.92000 20.34300 26.63300
H  -10.39200 20.56000 23.62500
H  -9.05700 19.54600 24.46000
H  -9.29800 19.55400 22.80200
H  -5.48100 25.49400 21.04400
H  -3.10500 26.58900 21.86000
H  -2.84700 24.38600 21.59200
H  -4.10900 23.71800 20.52800
H  -4.00100 23.17200 22.15600
H  -4.63400 28.72400 22.19500
H  -5.90900 27.63200 21.48300
H  -5.27100 28.80800 19.59100
H  -3.95900 27.55800 19.54300
H  -3.77900 29.10800 20.22700
H  -2.07500 30.32200 25.89000
H  -0.92900 29.13400 25.19700
H  -0.76800 29.70600 26.90000
H  -4.35700 28.37600 30.80800
H  -0.92200 26.95800 33.38300
H  -2.32100 25.85200 33.54100
H  -1.97600 27.40500 34.38500

