158

Mg 48.40400 45.48500 42.71800
C  44.91600 45.01300 42.62800
C  48.82100 41.99700 42.21700
C  51.60800 46.00500 42.26000
C  47.72900 49.00200 42.59600
N  47.04500 43.76600 42.39100
C  45.62800 43.76300 42.36400
C  45.02000 42.34800 42.23400
C  46.27700 41.42300 42.27200
C  47.49500 42.45100 42.28200
C  46.27700 40.43200 43.46500
C  44.26100 42.26900 40.85900
C  44.87100 42.94600 39.62400
H  45.19300 42.08600 38.47400
N  50.08900 44.12800 42.38200
C  50.01500 42.80500 42.17900
C  51.34300 42.35100 41.96500
C  52.21100 43.45800 42.02200
C  51.35100 44.61700 42.28400
C  51.64500 40.90300 41.51600
C  53.67000 43.44600 41.92700
O  54.29100 42.40800 41.64500
C  54.41600 44.71900 42.32400
N  49.47300 47.25900 42.43700
C  50.82600 47.19200 42.33000
C  51.38500 48.53700 41.99200
C  50.21700 49.52700 42.23300
C  49.02400 48.56600 42.45100
C  52.63500 48.92300 42.93100
C  50.01000 50.49100 40.98000
C  50.21000 52.00400 41.26800
N  46.67600 46.80100 42.59000
C  46.58800 48.19900 42.58300
C  45.20600 48.62000 42.76900
C  44.57500 47.42300 42.78200
C  45.49300 46.35000 42.71700
C  44.77000 49.99800 42.88200
C  43.25700 46.79000 42.88000
O  42.14400 47.32000 43.05100
C  43.39700 45.31200 42.71000
C  42.91700 44.66200 43.94500
O  43.41300 44.66300 45.03200
O  41.84600 43.81700 43.64400
C  41.24200 43.10600 44.79800
H  48.95400 40.96200 41.89400
H  52.59100 46.38600 41.97800
H  47.56800 50.07900 42.67200
H  44.25000 42.27700 43.00200
H  46.35200 40.89000 41.32300
H  46.83000 40.91200 44.27200
H  46.62300 39.45000 43.14300
H  45.29600 40.40700 43.94000
H  43.26100 42.69600 40.93700
H  44.11400 41.23800 40.53900
H  45.83500 43.37000 39.90900
H  44.27600 43.80600 39.31800
H  50.80100 40.24200 41.71400
H  52.47100 40.45100 42.06300
H  51.82400 40.77900 40.44800
H  53.97600 45.23800 43.17600
H  54.50900 45.33800 41.43200
H  55.42300 44.42200 42.61700
H  51.67800 48.49400 40.94300
H  50.34400 50.12800 43.13300
H  52.97500 48.04800 43.48500
H  52.40600 49.59800 43.75500
H  53.42200 49.48600 42.42900
H  48.98200 50.30400 40.67100
H  50.73700 50.17600 40.23100
H  50.43600 52.39500 42.26000
H  49.31800 52.51200 40.90100
H  51.00400 52.25400 40.56400
H  43.96200 50.24200 42.19200
H  45.59700 50.69900 42.77100
H  44.29500 50.12600 43.85400
H  42.89700 44.95300 41.81000
H  41.99300 42.57900 45.38600
H  40.35200 42.50300 44.61700
H  40.93000 43.85300 45.52800
Mg 7.07100 54.05700 39.62300
C  6.40000 50.60900 39.53800
C  10.27600 53.42800 38.55200
C  7.63800 57.36700 39.42600
C  3.68200 54.61200 40.02300
N  8.10500 52.21100 39.08700
C  7.71300 50.89500 39.14100
C  8.82100 49.87500 38.81700
C  10.13500 50.86800 38.81100
C  9.47300 52.23300 38.80700
C  10.94300 50.74300 40.06600
C  8.72800 49.15800 37.39400
C  8.35700 50.02400 36.19400
H  7.20400 49.52000 35.26500
N  8.72300 55.25800 38.95200
C  10.00800 54.80700 38.64000
C  10.92400 55.90900 38.44400
C  10.20900 57.05900 38.83400
C  8.79500 56.63100 39.03600
C  12.37100 55.73700 38.08000
C  10.71500 58.43700 39.03000
O  11.92200 58.73100 38.87500
C  9.80600 59.58400 39.21900
N  5.70400 55.74800 39.53300
C  6.23400 57.03100 39.50900
C  5.14100 58.05600 39.73700
C  3.79600 57.16700 39.95800
C  4.39000 55.77000 39.77900
C  5.39100 59.14200 40.79900
C  2.60400 57.44500 38.99900
C  1.52900 58.33100 39.66100
N  5.36300 52.85300 39.80900
C  4.07100 53.23600 40.00900
C  3.23500 52.06300 40.23000
C  4.14600 51.04400 40.14600
C  5.43000 51.55000 39.85500
C  1.68800 52.06700 40.44200
C  4.21700 49.56600 40.22400
O  3.37400 48.75000 40.65500
C  5.69500 49.21500 39.83100
C  5.72300 48.32700 38.65800
O  5.10700 48.46800 37.58700
O  6.36700 47.23200 39.04300
C  6.25900 46.07400 38.10700
H  11.32200 53.16000 38.39100
H  7.75200 58.44400 39.56500
H  2.62500 54.72500 40.27400
H  8.74500 49.18700 39.65900
H  10.64500 50.71600 37.86000
H  11.18800 51.73600 40.44200
H  11.86400 50.22200 39.80500
H  10.41000 50.18500 40.83500
H  8.13900 48.24300 37.32800
H  9.77300 48.86800 37.28900
H  9.18100 50.19400 35.50100
H  7.94300 50.96200 36.56500
H  12.91600 56.19400 38.90600
H  12.65700 56.22200 37.14700
H  12.68600 54.69600 38.15000
H  10.43600 60.46300 39.08000
H  9.47400 59.55500 40.25700
H  9.09500 59.56100 38.39400
H  5.15200 58.57400 38.77800
H  3.43600 57.14500 40.98600
H  6.42000 59.16100 41.15700
H  4.70700 59.13700 41.64800
H  5.26200 60.08200 40.26400
H  2.14800 56.48800 38.74400
H  2.98200 58.10100 38.21600
H  0.55800 57.83500 39.68900
H  1.34000 59.09800 38.91000
H  1.87400 58.81500 40.57400
H  1.29000 53.05900 40.65600
H  1.47900 51.46800 41.32900
H  1.24100 51.68100 39.52600
H  5.99000 48.73700 40.76600
H  6.96600 46.18600 37.28400
H  5.23400 45.89900 37.77900
H  6.57400 45.20400 38.68400

