158

Mg 17.33500 -0.59100 27.59200
C  16.41200 1.37300 30.55500
C  19.08300 -2.52900 29.78900
C  18.74900 -1.90000 24.89500
C  15.93400 1.94500 25.64700
N  17.87000 -0.45400 29.94900
C  17.24600 0.28200 30.89800
C  17.63500 -0.14600 32.29200
C  18.80200 -1.18800 32.07300
C  18.54500 -1.44300 30.52300
C  20.24700 -0.77000 32.32700
C  16.52100 -0.87000 33.01100
C  16.59500 -0.89000 34.57200
H  17.87400 -0.31500 35.24800
N  18.73200 -2.02300 27.34900
C  19.30300 -2.80000 28.40500
C  20.04900 -3.89500 27.78300
C  19.89900 -3.80100 26.35200
C  19.14700 -2.56100 26.11300
C  20.89600 -4.96100 28.62900
C  20.45700 -4.70100 25.25500
O  20.31500 -4.50100 24.10900
C  21.06500 -5.98300 25.71800
N  17.18800 -0.11000 25.65100
C  18.01000 -0.71300 24.70800
C  18.02700 -0.05200 23.27500
C  16.81600 0.93400 23.48200
C  16.61600 0.97200 24.98700
C  19.38700 0.70000 22.90100
C  15.48100 0.65500 22.72900
C  15.17500 1.43700 21.49300
N  16.22600 1.16000 27.98700
C  15.79000 2.03900 27.02600
C  15.03500 3.03300 27.67300
C  15.16600 2.74600 29.07100
C  15.97600 1.68100 29.24200
C  14.33800 4.15700 27.04400
C  14.85600 3.30800 30.42100
O  14.22400 4.30800 30.71200
C  15.53700 2.37200 31.43900
C  16.33400 3.22400 32.41500
O  17.51500 3.53700 32.40300
O  15.44500 3.69100 33.37000
C  15.85900 4.85300 34.13700
H  19.57900 -3.26200 30.42900
H  19.28800 -2.25000 24.01200
H  15.49000 2.70700 25.00200
H  17.96800 0.75400 32.80900
H  18.75200 -2.16500 32.55300
H  20.35900 0.20400 32.80400
H  20.74600 -0.78000 31.35800
H  20.72900 -1.39600 33.07800
H  16.60100 -1.89400 32.64700
H  15.56000 -0.47700 32.68000
H  16.49900 -1.96300 34.73600
H  15.67000 -0.37700 34.83600
H  21.01600 -4.53600 29.62500
H  21.86200 -5.22500 28.19800
H  20.35100 -5.90100 28.71300
H  21.09200 -6.62600 24.83900
H  20.34100 -6.42600 26.40100
H  22.02800 -5.80800 26.19900
H  17.80900 -0.82800 22.54100
H  17.20000 1.92400 23.23400
H  19.22400 1.76600 22.74100
H  19.88800 0.15400 22.10200
H  19.94800 0.52000 23.81800
H  14.65300 0.76400 23.43000
H  15.48800 -0.40900 22.49300
H  16.01800 2.11300 21.34700
H  14.24000 1.93000 21.75900
H  15.11900 0.76400 20.63700
H  14.90100 4.67500 26.26700
H  13.99300 4.75700 27.88600
H  13.44900 3.79400 26.52900
H  14.80700 1.88100 32.08400
H  16.66900 4.58400 34.81500
H  14.97500 5.22300 34.65700
H  16.39500 5.57100 33.51600
Mg 48.49200 34.40800 26.07500
C  46.73100 33.16500 28.74300
C  48.79800 37.37300 27.72400
C  49.69800 35.71200 23.30700
C  47.67100 31.47600 24.20800
N  47.97300 35.03800 28.10200
C  47.30400 34.36500 29.05500
C  47.36500 35.09900 30.39000
C  47.78800 36.57500 29.98400
C  48.24900 36.33900 28.53100
C  46.61000 37.60600 29.95000
C  48.52500 34.50600 31.35300
C  48.45000 34.76800 32.83300
H  47.31300 35.58800 33.30900
N  49.21800 36.29800 25.59100
C  49.22100 37.37800 26.39900
C  49.90800 38.43700 25.71800
C  50.23400 38.01700 24.45900
C  49.67500 36.65700 24.35700
C  50.13400 39.79300 26.24900
C  50.86100 38.67600 23.31600
O  51.05300 38.13000 22.21500
C  51.37400 40.16500 23.48900
N  48.31200 33.85300 23.98700
C  48.99300 34.57900 23.10500
C  49.06200 33.87900 21.76100
C  49.03600 32.40000 22.17500
C  48.23200 32.54000 23.53600
C  47.86200 34.31000 20.81600
C  50.46800 31.71900 22.47300
C  50.90200 30.55800 21.56500
N  47.41700 32.69800 26.38000
C  47.12800 31.59900 25.51900
C  46.45700 30.54100 26.22100
C  46.17300 31.13700 27.45100
C  46.80600 32.44500 27.49100
C  46.08800 29.32700 25.70500
C  45.52500 30.98700 28.67200
O  44.74000 30.14400 28.97700
C  45.83500 32.21200 29.56400
C  46.46500 31.69400 30.76100
O  47.60500 31.25600 30.81600
O  45.59800 31.70100 31.87800
C  46.18300 31.55400 33.25000
H  48.66300 38.35400 28.18400
H  50.22100 36.05200 22.41100
H  47.67700 30.51800 23.68500
H  46.33400 35.11100 30.74600
H  48.54600 37.08500 30.57700
H  45.68300 37.13600 30.27800
H  46.38200 38.07200 28.99100
H  46.91500 38.39100 30.64200
H  49.45800 34.96900 31.03200
H  48.69100 33.44100 31.19500
H  49.44000 35.13800 33.09900
H  48.42600 33.90100 33.49400
H  51.20500 39.99200 26.25200
H  49.78000 39.77900 27.28000
H  49.54800 40.50300 25.66600
H  52.20100 40.26000 24.19300
H  50.59900 40.90500 23.68700
H  51.87200 40.50600 22.58200
H  50.00300 34.10400 21.25800
H  48.41900 31.78500 21.52000
H  47.41800 33.49400 20.24700
H  48.26700 35.05800 20.13500
H  47.07800 34.66400 21.48600
H  50.49200 31.40100 23.51500
H  51.16100 32.55800 22.39600
H  51.91600 30.76500 21.22100
H  50.42000 30.63300 20.59000
H  50.83600 29.57800 22.03600
H  45.34100 28.91100 26.38200
H  46.99200 28.71900 25.73800
H  45.71200 29.33600 24.68200
H  44.88600 32.66100 29.85700
H  47.23500 31.84000 33.24200
H  46.06800 30.64600 33.84200
H  45.66900 32.22000 33.94300

