158

Mg 26.83000 0.81400 29.90600
C  28.58800 0.40700 32.87700
C  23.99300 1.13600 32.02700
C  24.82700 0.47700 27.21700
C  29.64900 -0.11300 28.10200
N  26.35500 0.75600 32.24600
C  27.24200 0.65600 33.22800
C  26.64300 0.70900 34.61100
C  25.13500 1.12000 34.24100
C  25.14500 0.94100 32.72100
C  24.06500 0.24600 34.93800
C  27.45200 1.71700 35.54200
C  26.68800 2.33700 36.72200
H  27.47200 2.78000 37.96600
N  24.72800 0.84100 29.64100
C  23.73700 1.02900 30.62400
C  22.46200 1.18600 29.96900
C  22.66500 0.81200 28.61400
C  24.14500 0.67900 28.42600
C  21.19600 1.59100 30.58600
C  21.63700 0.65100 27.48200
O  21.93000 0.28100 26.32200
C  20.14200 0.74000 27.75300
N  27.21000 0.23400 27.89100
C  26.23400 0.26700 26.96600
C  26.83600 -0.12400 25.55900
C  28.40800 -0.17200 25.84400
C  28.46500 0.06200 27.38600
C  26.20400 -1.48900 25.12400
C  29.39900 0.74200 25.07700
C  29.84100 2.06000 25.61600
N  28.75000 0.32000 30.33600
C  29.75700 -0.05600 29.47300
C  30.99900 -0.21900 30.25600
C  30.57600 -0.05500 31.56800
C  29.18100 0.25000 31.59300
C  32.34000 -0.64200 29.75800
C  30.98100 -0.09900 32.97900
O  32.08500 -0.36400 33.49000
C  29.78200 0.24700 33.88100
C  29.62800 -0.97000 34.69700
O  29.21200 -2.01200 34.29400
O  30.00400 -0.76900 35.99400
C  29.83600 -1.89900 36.93200
H  23.19400 1.45300 32.70100
H  24.14300 0.28000 26.38900
H  30.54000 -0.33800 27.51200
H  26.76900 -0.29500 35.01600
H  24.98800 2.19900 34.28500
H  23.38200 0.81700 35.56600
H  24.62300 -0.28800 35.70600
H  23.58200 -0.45900 34.26000
H  27.87100 2.52200 34.93800
H  28.28700 1.11800 35.90500
H  25.99800 1.52500 36.95300
H  26.14500 3.17300 36.28200
H  21.41200 2.12300 31.51200
H  20.60900 0.69700 30.79800
H  20.62400 2.27100 29.95500
H  19.89700 0.23200 28.68600
H  19.66800 0.27000 26.89100
H  19.74700 1.74500 27.90300
H  26.48900 0.63200 24.85500
H  28.79700 -1.19000 25.81200
H  25.52200 -2.08500 25.73000
H  27.06900 -2.04200 24.75700
H  25.56000 -1.29000 24.26800
H  29.02400 0.82100 24.05600
H  30.21400 0.06200 24.82900
H  29.45500 2.25800 26.61700
H  29.40200 2.81400 24.96300
H  30.92200 2.18400 25.56600
H  32.63800 0.04700 28.96800
H  32.30700 -1.68700 29.44900
H  33.14500 -0.53700 30.48500
H  29.98200 1.10500 34.52300
H  29.99500 -2.89700 36.52500
H  28.86900 -1.87200 37.43300
H  30.59600 -1.71900 37.69400
Mg 47.45000 35.28400 26.93500
C  45.43300 33.83500 29.39100
C  48.34700 37.78500 29.07900
C  49.14700 36.62500 24.44400
C  46.49900 32.71700 24.73600
N  46.75000 35.76600 28.85800
C  46.11000 34.98100 29.76000
C  46.44900 35.38700 31.19000
C  46.91600 36.86000 30.99300
C  47.36500 36.81200 29.52800
C  45.80900 37.97200 31.27000
C  47.48900 34.36000 31.72400
C  47.54900 34.23000 33.24500
H  46.60200 35.06300 34.09600
N  48.57700 36.97600 26.83800
C  48.87600 37.89100 27.79500
C  49.73200 38.93000 27.24700
C  49.95200 38.60900 25.91000
C  49.19600 37.35100 25.59800
C  50.11300 40.12000 28.13400
C  50.83600 39.38000 24.97100
O  50.96600 39.06100 23.80700
C  51.64300 40.54400 25.56900
N  47.69100 34.74200 24.78500
C  48.45600 35.49000 24.00000
C  48.65700 34.86100 22.60200
C  47.97200 33.48500 22.73000
C  47.38200 33.60100 24.11800
C  48.10300 35.65800 21.36700
C  48.77000 32.12500 22.47200
C  50.05900 32.20100 21.65100
N  46.24200 33.61400 27.03900
C  45.92100 32.69900 26.04500
C  45.01000 31.76800 26.58600
C  44.70600 32.17900 27.88700
C  45.48900 33.32100 28.08900
C  44.55500 30.55700 25.72900
C  43.95000 31.83700 29.02700
O  43.18900 30.89000 29.28000
C  44.33100 32.96300 30.05200
C  44.58000 32.37700 31.44200
O  45.55900 31.68500 31.76000
O  43.52000 32.75100 32.29900
C  43.44700 32.25700 33.69200
H  48.61200 38.45800 29.89700
H  49.94100 36.92500 23.75700
H  46.24300 31.86900 24.09700
H  45.57600 35.36300 31.84200
H  47.73400 37.06000 31.68500
H  45.98900 38.55600 32.17300
H  44.81100 37.57000 31.44200
H  45.78800 38.72500 30.48200
H  48.48500 34.69800 31.44100
H  47.46200 33.40200 31.20400
H  48.57900 34.41400 33.55200
H  47.37400 33.17000 33.42800
H  49.58200 40.93000 27.63400
H  51.19600 40.23100 28.19900
H  49.77400 40.19100 29.16700
H  52.16600 40.02200 26.37100
H  50.94400 41.33400 25.84500
H  52.36100 40.90400 24.83200
H  49.70300 34.61300 22.42500
H  47.04700 33.45700 22.15300
H  47.75600 34.97700 20.59000
H  48.84100 36.29000 20.87300
H  47.22400 36.25400 21.61300
H  48.10700 31.38900 22.01600
H  49.00100 31.72300 23.45800
H  49.99100 33.04000 20.95700
H  50.14900 31.29300 21.05500
H  50.96300 32.12900 22.25600
H  43.84300 29.98700 26.32600
H  45.38800 29.87900 25.54000
H  44.10500 30.98500 24.83400
H  43.33800 33.40800 30.10300
H  43.30500 33.15000 34.30000
H  44.31400 31.67700 34.00900
H  42.61600 31.55300 33.65600

