158

Mg 23.82200 -5.61900 44.96100
C  26.11900 -3.26200 43.28400
C  21.44700 -4.78400 42.55400
C  21.96600 -8.15200 45.96600
C  26.60700 -6.81200 46.67200
N  23.79700 -4.13900 43.13600
C  24.82700 -3.18800 42.76100
C  24.29400 -2.26800 41.66300
C  22.73500 -2.64400 41.67900
C  22.64400 -4.01800 42.36700
C  21.88900 -1.52300 42.27400
C  25.05200 -2.42200 40.34400
C  25.72500 -1.15600 39.76400
H  25.33000 -0.77400 38.35700
N  21.96800 -6.28400 44.47600
C  21.13800 -5.73500 43.51900
C  19.83500 -6.33300 43.64400
C  19.90400 -7.29900 44.68600
C  21.30800 -7.29200 45.07800
C  18.67100 -5.79600 42.83200
C  18.72600 -8.06100 45.24100
O  17.70700 -7.90100 44.60300
C  18.73900 -9.00300 46.36300
N  24.24300 -7.14700 46.27600
C  23.21700 -8.09700 46.49400
C  23.87100 -9.27200 47.25800
C  25.19200 -8.64100 47.82700
C  25.39900 -7.51700 46.84000
C  22.94900 -9.88000 48.34300
C  26.33100 -9.69000 47.82500
C  26.89900 -9.86100 49.26800
N  25.86200 -5.08900 45.10600
C  26.90100 -5.67700 45.85000
C  28.11800 -5.01000 45.62800
C  27.83100 -4.00100 44.65200
C  26.49400 -4.18700 44.24500
C  29.38300 -5.30700 46.38900
C  28.46200 -2.92500 43.98200
O  29.56600 -2.37300 44.06000
C  27.33600 -2.35600 43.08100
C  27.07800 -0.97000 43.50400
O  26.65700 -0.65500 44.57700
O  27.22900 -0.07500 42.42100
C  26.84200 1.27800 42.78100
H  20.62100 -4.47500 41.91000
H  21.35100 -9.03500 46.15300
H  27.51900 -7.11600 47.18900
H  24.50700 -1.26800 42.04000
H  22.27700 -2.92200 40.73000
H  22.32200 -0.52900 42.16600
H  21.62300 -1.69000 43.31800
H  20.99000 -1.61100 41.66500
H  24.35300 -2.71200 39.56000
H  25.71900 -3.28400 40.33300
H  26.80800 -1.15500 39.88500
H  25.38600 -0.24700 40.26100
H  18.99800 -5.85100 41.79400
H  18.39600 -4.75400 42.99400
H  17.75500 -6.38600 42.84400
H  19.28600 -8.53300 47.18000
H  19.22700 -9.93700 46.08300
H  17.71700 -9.18300 46.69600
H  24.09300 -10.10800 46.59500
H  24.94700 -8.10000 48.74200
H  22.88100 -10.84900 47.84800
H  21.93500 -9.49000 48.43800
H  23.47800 -9.94100 49.29400
H  27.26500 -9.56300 47.27800
H  25.89500 -10.64900 47.54400
H  27.98700 -9.83500 49.32000
H  26.56900 -10.83900 49.61900
H  26.41300 -9.08000 49.85300
H  29.98600 -5.98900 45.79000
H  29.07300 -5.76800 47.32700
H  29.96100 -4.39500 46.53600
H  27.77100 -2.29200 42.08400
H  25.80800 1.24500 43.12500
H  26.92300 1.90500 41.89300
H  27.40400 1.75400 43.58400
Mg 25.55000 1.41600 28.98200
C  27.50700 1.21700 31.92000
C  22.89300 1.68800 30.77000
C  23.84800 1.26500 26.07700
C  28.49400 0.51100 27.14900
N  25.28900 1.38100 31.06100
C  26.12600 1.54000 32.15600
C  25.45000 1.70500 33.48500
C  23.94500 1.75600 33.10000
C  24.02900 1.54800 31.49600
C  22.99500 0.65300 33.73700
C  25.90700 2.88800 34.39200
C  26.49100 2.58000 35.76500
H  26.35100 3.67300 36.86400
N  23.56800 1.56200 28.46200
C  22.61900 1.76400 29.41400
C  21.36800 1.93800 28.73900
C  21.62900 1.75000 27.31700
C  23.07300 1.53400 27.22900
C  20.01700 2.09100 29.47200
C  20.58700 1.69100 26.16000
O  20.98000 1.33600 25.00800
C  19.17300 1.92900 26.35500
N  26.07900 0.77300 26.94200
C  25.23000 1.12100 25.95600
C  25.79700 1.00600 24.57800
C  27.34100 0.75000 24.92400
C  27.34600 0.70700 26.47100
C  25.28600 -0.18800 23.59300
C  28.28600 1.86200 24.38700
C  29.49300 1.33700 23.63600
N  27.63100 1.04700 29.38500
C  28.70300 0.65200 28.56100
C  29.86100 0.44300 29.36000
C  29.46600 0.73200 30.67900
C  28.08900 0.96500 30.68500
C  31.14000 -0.15800 28.95000
C  29.81500 0.79400 32.10000
O  30.90800 0.66200 32.64000
C  28.60800 1.19200 32.92000
C  28.50800 0.13800 34.00800
O  28.10800 -1.01800 33.85700
O  29.00400 0.58800 35.24700
C  28.89400 -0.25900 36.45700
H  22.02500 2.04700 31.32800
H  23.38000 1.29900 25.09100
H  29.48600 0.45100 26.69600
H  25.59400 0.79700 34.07100
H  23.48100 2.68600 33.42900
H  23.47800 -0.16900 34.26400
H  22.36800 0.18100 32.98000
H  22.32800 1.24200 34.36700
H  25.10200 3.59500 34.59100
H  26.74100 3.40600 33.91800
H  27.57600 2.56800 35.66200
H  26.12000 1.62100 36.12700
H  19.39600 2.82800 28.96100
H  20.12600 2.39300 30.51300
H  19.59500 1.08600 29.48800
H  18.71700 1.26800 27.09200
H  18.70100 1.81600 25.37900
H  18.97000 2.95100 26.67200
H  25.61900 1.98400 24.13100
H  27.73600 -0.17700 24.51000
H  24.62600 -0.78200 24.22500
H  26.03100 -0.82300 23.11200
H  24.76400 0.29700 22.76900
H  28.57300 2.56300 25.17100
H  27.66600 2.50300 23.76000
H  30.24800 2.10300 23.46200
H  29.16300 0.90500 22.69000
H  29.92400 0.51000 24.20000
H  30.86700 -0.96700 28.27300
H  31.66200 -0.51500 29.83800
H  31.78200 0.50400 28.36800
H  28.81300 2.20500 33.26700
H  27.94600 -0.18300 36.99000
H  29.67200 -0.04400 37.18900
H  29.09000 -1.30200 36.20800

