158

Mg 16.60800 -1.36300 28.57300
C  15.37500 0.71700 30.97000
C  18.63500 -2.96200 30.99100
C  17.92000 -3.25700 26.09600
C  14.49300 0.16700 26.17900
N  16.84700 -1.27800 30.78700
C  16.22300 -0.28600 31.53700
C  16.59800 -0.40100 33.02000
C  17.79300 -1.32500 32.95900
C  17.78100 -1.91900 31.48600
C  19.18900 -0.81700 33.46100
C  15.38500 -0.93200 33.81000
C  15.21700 -0.32600 35.21500
H  16.41300 0.41900 35.89000
N  18.07100 -2.77200 28.52000
C  18.72000 -3.37700 29.66400
C  19.48400 -4.51700 29.23100
C  19.22100 -4.71200 27.79800
C  18.40100 -3.53600 27.40600
C  20.24300 -5.50700 30.12100
C  19.69500 -5.80800 26.77900
O  19.31100 -5.92600 25.62800
C  20.43400 -7.04300 27.36200
N  16.35000 -1.39200 26.42000
C  16.99800 -2.27300 25.63400
C  16.59400 -2.31000 24.14100
C  15.42400 -1.20600 24.18500
C  15.39000 -0.77800 25.66900
C  17.77800 -1.93200 23.10500
C  14.05300 -1.45700 23.49900
C  13.93200 -1.08400 22.04100
N  15.16700 0.17300 28.51000
C  14.41500 0.66800 27.49200
C  13.64400 1.79600 28.00200
C  13.97400 1.83300 29.34700
C  14.92300 0.84500 29.66900
C  12.86100 2.73600 27.10000
C  13.71300 2.56400 30.60700
O  12.97500 3.46900 30.91400
C  14.63900 1.83500 31.71600
C  15.58800 2.86200 32.28200
O  16.82800 2.84400 32.19900
O  14.86900 3.66900 33.12600
C  15.72100 4.57100 33.95500
H  19.28100 -3.56500 31.63300
H  18.39800 -3.89900 25.35400
H  13.86000 0.70700 25.47100
H  16.87200 0.60800 33.32900
H  17.69700 -2.14600 33.67000
H  19.12000 0.21200 33.81600
H  19.80900 -0.82700 32.56500
H  19.71400 -1.38800 34.22700
H  15.34300 -2.01600 33.91500
H  14.51000 -0.67800 33.21200
H  14.93100 -1.12900 35.89500
H  14.38900 0.37800 35.14100
H  20.60700 -4.90900 30.95700
H  21.18600 -5.71400 29.61600
H  19.58400 -6.33700 30.37600
H  19.84100 -7.36700 28.21700
H  21.47200 -6.76100 27.53800
H  20.39300 -7.88600 26.67200
H  16.21900 -3.29700 23.87000
H  15.73400 -0.27000 23.72000
H  17.54800 -1.07600 22.47000
H  17.98000 -2.84600 22.54600
H  18.65300 -1.78500 23.73800
H  13.30100 -0.94300 24.09800
H  13.82900 -2.51100 23.66100
H  14.84900 -0.78400 21.53300
H  13.19300 -0.29100 21.92700
H  13.57500 -2.01300 21.59600
H  12.25400 2.14600 26.41300
H  13.57600 3.24600 26.45400
H  12.10100 3.36300 27.56800
H  13.94200 1.59200 32.51800
H  16.43100 5.11700 33.33400
H  16.32400 4.03500 34.68900
H  14.97000 5.25100 34.35800
Mg 54.81800 24.18100 44.28000
C  52.37500 26.67900 43.93400
C  52.46300 21.85500 43.36900
C  57.30700 22.03200 43.98800
C  57.16000 26.75900 44.87100
N  52.77100 24.27700 43.61100
C  51.95000 25.37600 43.46400
C  50.45900 25.02000 43.15600
C  50.50000 23.47100 43.42900
C  51.97200 23.10900 43.52700
C  49.69800 22.83500 44.65200
C  50.00200 25.40700 41.68700
C  51.11100 25.36300 40.62900
H  50.64000 25.12600 39.17300
N  54.83300 22.17900 43.86800
C  53.80000 21.37400 43.52200
C  54.22500 20.04800 43.51300
C  55.66300 20.08400 43.68400
C  56.00000 21.47100 43.89200
C  53.33000 18.85600 43.16400
C  56.56600 18.78900 43.79500
O  56.05200 17.67800 43.57100
C  58.02600 18.85000 44.12400
N  56.96000 24.36400 44.31800
C  57.77000 23.33500 44.11700
C  59.26200 23.72200 44.25100
C  59.16200 25.18600 44.51000
C  57.69000 25.48300 44.59700
C  60.11200 22.92100 45.35000
C  59.91600 26.04600 43.44800
C  59.10900 26.44100 42.14800
N  54.81400 26.25900 44.55900
C  55.78700 27.20500 44.84800
C  55.25800 28.49900 45.01800
C  53.88400 28.30700 44.66500
C  53.66700 26.99600 44.34800
C  56.02200 29.72800 45.32900
C  52.62800 28.98600 44.56600
O  52.32600 30.14500 44.79200
C  51.57200 27.96600 44.04100
C  50.98100 28.46600 42.76900
O  51.60500 28.54000 41.70000
O  49.67500 28.83200 42.95900
C  49.12900 29.40100 41.72700
H  51.60100 21.18900 43.29700
H  58.11400 21.32200 43.79300
H  57.90100 27.55600 44.96400
H  49.74300 25.48000 43.83800
H  50.23100 22.99300 42.48800
H  49.25100 23.63100 45.24700
H  50.34800 22.34600 45.37700
H  48.89200 22.18500 44.31100
H  49.59600 26.41800 41.66500
H  49.33200 24.62900 41.32100
H  51.90400 24.71000 40.99300
H  51.66700 26.30000 40.65200
H  53.67900 18.18700 42.37800
H  52.26600 19.07600 43.07500
H  53.39900 18.20400 44.03500
H  58.31300 17.90400 44.58400
H  58.14100 19.63100 44.87500
H  58.71600 19.05000 43.30400
H  59.71900 23.62200 43.26700
H  59.59600 25.49000 45.46300
H  60.99300 22.52100 44.84700
H  59.53200 22.04600 45.64200
H  60.26400 23.46900 46.28000
H  60.75200 25.42200 43.13300
H  60.44500 26.91000 43.85100
H  59.46800 27.46500 42.04600
H  58.02200 26.50600 42.20400
H  59.39600 26.03600 41.17700
H  55.44600 30.57600 44.95700
H  56.97900 29.77400 44.81000
H  56.32100 29.80100 46.37400
H  50.77900 27.87200 44.78300
H  48.09600 29.05200 41.74500
H  49.36300 29.00800 40.73800
H  49.23500 30.48200 41.63700

