158

Mg 9.74700 4.21000 27.57500
C  10.88300 2.83600 30.39100
C  7.84200 6.48100 29.39300
C  8.67700 5.62300 24.68100
C  11.04300 1.51900 25.67400
N  9.34300 4.48800 29.65100
C  9.98200 3.88700 30.62600
C  9.69500 4.52900 32.07100
C  8.60700 5.54200 31.70000
C  8.52500 5.48700 30.19700
C  7.16100 5.40600 32.31500
C  10.99100 5.17800 32.63000
C  11.49100 4.59400 33.89400
H  11.83800 5.51500 35.12200
N  8.51100 5.82000 27.09900
C  7.79500 6.62400 27.98700
C  7.15700 7.72400 27.26600
C  7.47000 7.58800 25.85500
C  8.30300 6.34500 25.80300
C  6.24600 8.70300 27.98200
C  6.97900 8.31200 24.66000
O  7.35600 7.98000 23.55400
C  6.04100 9.52800 24.75700
N  9.73300 3.58000 25.42800
C  9.35200 4.42700 24.47700
C  9.83100 3.95500 23.14000
C  10.61600 2.64400 23.47900
C  10.37300 2.51100 24.92900
C  8.63000 3.72900 22.18500
C  12.13500 2.78800 23.13700
C  12.39100 2.88600 21.62900
N  10.66100 2.42100 27.93200
C  11.27700 1.52900 27.07900
C  12.07800 0.67300 27.88000
C  12.02100 1.15700 29.22200
C  11.11700 2.21700 29.14000
C  13.01300 -0.43500 27.42900
C  12.53800 0.93900 30.48000
O  13.33300 0.12000 30.90200
C  11.81100 2.04500 31.34900
C  11.16700 1.39900 32.56200
O  9.95400 1.18700 32.55600
O  12.06000 1.20400 33.56400
C  11.31500 0.77100 34.83100
H  7.44800 7.35500 29.91600
H  8.50700 5.95400 23.65400
H  11.54300 0.71400 25.13100
H  9.16200 3.80500 32.68700
H  8.98500 6.52300 31.98800
H  6.32200 5.61500 31.65100
H  7.16800 6.25400 33.00000
H  6.93800 4.46400 32.81600
H  10.76200 6.23900 32.72700
H  11.80400 5.16500 31.90400
H  12.42300 4.11600 33.59300
H  10.73400 3.89600 34.25300
H  6.32600 9.65400 27.45500
H  6.55100 8.85800 29.01700
H  5.26400 8.23500 28.04800
H  5.82600 9.90500 23.75700
H  6.51500 10.33200 25.32100
H  5.11700 9.20000 25.23200
H  10.51300 4.67100 22.68100
H  10.13600 1.77400 23.03000
H  8.41400 2.70600 21.87600
H  8.83400 4.18900 21.21800
H  7.67100 4.00800 22.62300
H  12.66300 1.86400 23.37300
H  12.50500 3.65900 23.67700
H  12.93200 2.06100 21.16600
H  12.94200 3.82200 21.53100
H  11.51600 3.05300 21.00000
H  12.65100 -0.74000 26.44700
H  12.98800 -1.23600 28.16900
H  14.06600 -0.19800 27.28400
H  12.52000 2.72500 31.82000
H  10.71000 -0.12300 34.68000
H  10.66900 1.58500 35.15700
H  11.99100 0.47500 35.63300
Mg 30.73900 57.64400 40.48400
C  27.61500 56.11500 39.68000
C  32.32400 54.92900 39.19200
C  33.40200 59.41200 40.53000
C  28.69100 60.62100 40.97900
N  30.06300 55.69500 39.79100
C  28.78700 55.36100 39.44300
C  28.70200 54.04200 38.69400
C  30.18200 53.42900 39.01500
C  30.91000 54.75400 39.36000
C  30.36700 52.57900 40.24000
C  28.53400 54.29300 37.15500
C  28.22600 53.07100 36.28400
H  27.54100 53.27700 34.90900
N  32.69300 57.18800 39.92500
C  33.20100 56.07400 39.37900
C  34.63900 56.27800 39.15900
C  34.98700 57.55300 39.66100
C  33.68100 58.10300 39.97800
C  35.47900 55.19000 38.59700
C  36.41600 58.06500 39.82400
O  37.35300 57.32400 39.64400
C  36.70400 59.50100 40.27700
N  31.03200 59.74500 40.76400
C  32.28000 60.15800 40.77600
C  32.33900 61.59600 41.14800
C  30.85600 62.04300 41.23700
C  30.12200 60.75800 40.99200
C  33.20000 61.93700 42.32800
C  30.58700 63.13100 40.19000
C  30.81900 64.64200 40.68900
N  28.51700 58.18600 40.58600
C  27.94000 59.44300 40.73200
C  26.47600 59.36800 40.42200
C  26.29100 58.04700 39.99400
C  27.57500 57.38800 40.11300
C  25.42100 60.46800 40.52100
C  25.34200 57.02700 39.44900
O  24.18000 57.10700 39.23000
C  26.17500 55.76300 39.38800
C  25.67200 54.71300 40.30600
O  25.73200 54.77500 41.48100
O  25.23400 53.58800 39.56300
C  24.60900 52.54100 40.40400
H  32.89800 54.05100 38.88800
H  34.33100 59.97500 40.64000
H  28.12800 61.53000 41.20500
H  27.84300 53.44900 39.00600
H  30.67700 52.88200 38.21300
H  31.17000 52.76900 40.95200
H  30.63400 51.57300 39.91800
H  29.44300 52.52900 40.81600
H  29.55600 54.48100 36.82500
H  27.86400 55.13400 36.97700
H  27.55600 52.39200 36.81200
H  29.10300 52.46500 36.05900
H  36.22800 55.50000 37.86900
H  34.85900 54.46400 38.07100
H  35.94900 54.70900 39.45500
H  36.10900 60.23500 39.73300
H  37.76900 59.64400 40.09100
H  36.47800 59.52400 41.34300
H  32.80300 62.04600 40.26900
H  30.71300 62.28700 42.29000
H  33.78900 61.11100 42.72700
H  32.55500 62.35700 43.10000
H  33.96500 62.68800 42.13200
H  29.51200 62.98900 40.07500
H  31.02400 62.91000 39.21600
H  31.33900 64.79000 41.63600
H  29.78600 64.98000 40.77400
H  31.35500 65.26500 39.97300
H  25.06800 60.73800 41.51600
H  24.59300 60.21500 39.85800
H  25.93300 61.35200 40.14200
H  26.11700 55.31100 38.39800
H  25.47500 52.05900 40.85800
H  24.12000 51.79000 39.78300
H  23.86100 52.85300 41.13200

