158

Mg -0.26900 43.42500 26.85700
C  1.71800 43.35700 29.77200
C  -2.95100 42.27700 28.76100
C  -2.17100 43.55600 24.09500
C  2.57600 44.06300 24.90200
N  -0.55600 42.93100 29.04400
C  0.35600 43.00700 30.04100
C  -0.27200 42.76800 31.35600
C  -1.63600 42.05700 30.96800
C  -1.74800 42.47100 29.50600
C  -1.60700 40.50200 31.00000
C  -0.39600 44.10900 32.15700
C  0.17800 44.11800 33.66200
H  -0.20100 42.89300 34.58600
N  -2.31100 43.01200 26.46100
C  -3.16400 42.54200 27.40600
C  -4.46100 42.40600 26.71600
C  -4.30600 42.82100 25.34700
C  -2.90200 43.23100 25.26400
C  -5.72400 41.87400 27.43000
C  -5.28000 42.87000 24.24300
O  -4.99400 43.26900 23.10200
C  -6.64600 42.36900 24.37600
N  0.08700 43.75700 24.75300
C  -0.85600 43.78000 23.83100
C  -0.32300 44.41000 22.46800
C  1.15800 44.50300 22.83300
C  1.29500 44.04200 24.28100
C  -0.53100 43.49900 21.26900
C  1.76000 45.86500 22.39900
C  1.73600 47.02400 23.45700
N  1.74900 43.71900 27.18000
C  2.81700 43.90300 26.29700
C  4.02500 44.03200 27.07600
C  3.65100 43.80500 28.39100
C  2.26700 43.58400 28.43200
C  5.39700 44.37500 26.50900
C  4.12900 43.69300 29.77200
O  5.27200 43.68700 30.21800
C  2.87300 43.51600 30.71100
C  3.23900 42.35300 31.60500
O  2.93300 41.16700 31.39700
O  3.88900 42.77800 32.72200
C  4.37300 41.77800 33.64400
H  -3.68700 41.66300 29.28400
H  -2.80600 43.77100 23.23300
H  3.46400 44.46200 24.40700
H  0.32700 42.06700 31.93800
H  -2.47900 42.37600 31.58100
H  -2.07200 40.11500 31.90700
H  -0.57600 40.15200 30.95100
H  -2.16300 40.09600 30.15500
H  -1.41400 44.49600 32.19900
H  0.08400 44.83200 31.49700
H  -0.15800 45.03100 34.15400
H  1.25800 44.25700 33.61300
H  -6.59600 42.52400 27.35900
H  -5.46500 41.62800 28.46000
H  -5.76100 40.95100 26.85100
H  -6.46600 41.36500 24.75900
H  -7.29300 42.63400 23.54000
H  -7.06000 42.92700 25.21600
H  -0.83800 45.36700 22.38500
H  1.64000 43.73000 22.23500
H  -1.59600 43.49700 21.03900
H  -0.29200 42.46200 21.50600
H  0.01000 43.72100 20.35000
H  1.28400 46.22700 21.48800
H  2.75100 45.60700 22.02400
H  1.38700 47.90700 22.92200
H  2.80200 47.16100 23.64000
H  1.15800 46.81300 24.35700
H  5.90700 43.41100 26.52300
H  5.91400 45.03600 27.20500
H  5.32600 44.83800 25.52500
H  2.70400 44.42900 31.28100
H  3.58900 41.41000 34.30500
H  5.19300 42.20700 34.22100
H  4.82900 40.96200 33.08300
Mg -5.23100 25.48000 25.10600
C  -3.66500 26.91100 28.02700
C  -6.66600 23.27000 27.14400
C  -6.49600 24.31700 22.30900
C  -3.02300 27.65600 23.23100
N  -5.05900 25.08500 27.28900
C  -4.41900 25.78400 28.31600
C  -4.95100 25.34000 29.68600
C  -5.87400 24.15300 29.36000
C  -5.74400 24.05900 27.84400
C  -5.47300 22.76900 29.95100
C  -5.68900 26.55700 30.33200
C  -5.73500 26.53500 31.87100
H  -5.17000 25.30600 32.56500
N  -6.46800 24.05300 24.79500
C  -7.04000 23.25700 25.73900
C  -8.05200 22.53100 25.17500
C  -8.09300 22.81800 23.77200
C  -6.98700 23.76300 23.58900
C  -8.87900 21.60700 25.95900
C  -9.09400 22.37300 22.71400
O  -8.96300 22.61700 21.53800
C  -10.41500 21.73400 23.10000
N  -4.79100 25.94400 23.16400
C  -5.41100 25.24800 22.17600
C  -4.83000 25.58800 20.75700
C  -4.17300 26.95700 21.10600
C  -3.86300 26.80100 22.59000
C  -3.83000 24.46100 20.21500
C  -4.96900 28.22000 20.92600
C  -4.18500 29.42600 20.39900
N  -3.73700 27.06900 25.51300
C  -2.84900 27.74000 24.62100
C  -1.93300 28.66300 25.37500
C  -2.17900 28.28900 26.72100
C  -3.35900 27.41400 26.76900
C  -0.97400 29.63200 24.72600
C  -1.85300 28.49800 28.10100
O  -0.97200 29.26200 28.56000
C  -2.73600 27.68100 29.02000
C  -1.96000 26.77600 29.91000
O  -1.52800 25.64100 29.61300
O  -1.81300 27.45400 31.12200
C  -0.81900 26.91000 31.99800
H  -7.11800 22.57500 27.85500
H  -6.93700 23.75700 21.48200
H  -2.39300 28.35600 22.67800
H  -4.05800 25.00900 30.21700
H  -6.83600 24.48900 29.74700
H  -4.59800 22.85100 30.59500
H  -5.31500 22.00400 29.19100
H  -6.34900 22.45700 30.52100
H  -6.68600 26.63000 29.89600
H  -5.26200 27.51500 30.03400
H  -6.78100 26.60600 32.16800
H  -5.39600 27.49200 32.26700
H  -8.82600 20.59900 25.54700
H  -9.83100 22.13300 25.89500
H  -8.59100 21.60600 27.01000
H  -10.20600 20.68900 23.32600
H  -11.05400 21.76700 22.21700
H  -10.88600 22.23000 23.94900
H  -5.66100 25.71100 20.06300
H  -3.23300 27.11900 20.57800
H  -3.32600 24.00300 21.06600
H  -3.03300 24.96300 19.66700
H  -4.45200 23.77800 19.63700
H  -5.26000 28.59000 21.90900
H  -5.94200 28.17400 20.43700
H  -3.35100 29.13000 19.76200
H  -3.89500 30.06300 21.23400
H  -4.91600 30.05700 19.89300
H  -1.42800 30.61600 24.84300
H  -0.84200 29.49400 23.65300
H  0.01200 29.65400 25.19100
H  -3.24900 28.39100 29.66900
H  -1.31400 26.35000 32.79100
H  -0.11500 27.65300 32.37500
H  -0.20900 26.17600 31.47200

