158

Mg 41.43700 41.20800 27.15400
C  41.00100 43.78400 29.62400
C  42.32600 39.12100 29.76800
C  42.19000 38.95400 24.90500
C  40.89800 43.59500 24.71200
N  41.58200 41.48500 29.33800
C  41.21700 42.51100 30.19900
C  41.28700 42.26300 31.74000
C  41.70200 40.77700 31.69300
C  41.90900 40.38800 30.16500
C  42.80500 40.42500 32.70700
C  39.90600 42.46300 32.53900
C  39.97100 43.42700 33.67700
H  39.21900 43.08500 34.98900
N  42.11200 39.35700 27.31700
C  42.56400 38.71000 28.42200
C  43.06900 37.40900 28.01100
C  43.03700 37.32100 26.56500
C  42.46400 38.59000 26.22800
C  43.43700 36.29200 29.15400
C  43.55500 36.19000 25.67200
O  43.58700 36.21100 24.41600
C  44.06900 34.92000 26.31800
N  41.65800 41.26200 25.08800
C  41.76800 40.13900 24.36800
C  41.62300 40.42200 22.87100
C  40.82200 41.76500 22.93200
C  41.15200 42.27000 24.33300
C  42.99400 40.46600 22.13100
C  39.20400 41.75200 22.71000
C  38.38400 40.55300 23.25000
N  41.09800 43.19600 27.14200
C  40.86500 44.06200 26.03500
C  40.59100 45.41400 26.49600
C  40.67400 45.28900 27.88500
C  40.95000 43.93300 28.25600
C  40.39000 46.60200 25.58200
C  40.46500 46.04000 29.12300
O  40.21700 47.19300 29.31700
C  40.61000 45.05100 30.26300
C  41.79200 45.49000 31.08300
O  42.94700 45.58900 30.73700
O  41.27600 45.97700 32.31400
C  42.26900 46.55900 33.27600
H  42.56600 38.41300 30.56400
H  42.15800 38.13100 24.18900
H  40.55800 44.27000 23.92400
H  42.05300 42.90500 32.17400
H  40.81500 40.22000 31.99800
H  43.84100 40.52700 32.38400
H  42.78400 39.35300 32.90500
H  42.70000 40.99700 33.62900
H  39.55300 41.52600 32.96900
H  39.14500 42.84100 31.85600
H  39.54000 44.37900 33.36700
H  41.01000 43.50500 33.99800
H  43.79700 36.81600 30.03900
H  44.21800 35.57600 28.90100
H  42.57200 35.72800 29.50300
H  43.43700 34.63400 27.15900
H  45.04600 35.28300 26.63700
H  44.25700 34.17800 25.54200
H  40.95500 39.70900 22.38900
H  41.30100 42.38100 22.17100
H  43.82800 40.37900 22.82700
H  43.01400 41.43500 21.63300
H  43.21200 39.66200 21.42800
H  39.04600 41.86000 21.63700
H  38.78800 42.61700 23.22500
H  37.61600 40.41800 22.48800
H  37.87300 40.80000 24.18000
H  38.97700 39.64900 23.39400
H  40.95000 46.49200 24.65300
H  40.76000 47.45300 26.15400
H  39.33700 46.77600 25.36100
H  39.64700 45.13900 30.76600
H  42.56500 45.88200 34.07800
H  41.80400 47.49000 33.60000
H  43.21300 46.84100 32.81000
Mg -10.54100 17.27800 42.69600
C  -7.08600 16.64700 42.53000
C  -9.95800 20.40100 41.39200
C  -13.78600 17.83900 42.65200
C  -11.14000 13.82000 43.09600
N  -8.71600 18.26200 41.90800
C  -7.40800 17.91600 42.19500
C  -6.32300 19.05100 41.91000
C  -7.35500 20.30900 41.72900
C  -8.75800 19.66500 41.63600
C  -7.20700 21.54100 42.66100
C  -5.34200 18.85900 40.70400
C  -5.77500 18.10100 39.43700
H  -5.54400 18.86600 38.11100
N  -11.69900 18.92500 42.04500
C  -11.29700 20.11000 41.56000
C  -12.39700 20.97400 41.39200
C  -13.59100 20.24300 41.69200
C  -13.08200 18.96200 42.13500
C  -12.18900 22.38700 40.96900
C  -15.01300 20.78800 41.56200
O  -15.18600 21.96100 41.22100
C  -16.12100 19.96400 42.04200
N  -12.24900 15.99200 42.61900
C  -13.47100 16.55100 42.92500
C  -14.48000 15.50400 43.43600
C  -13.71900 14.15000 43.12900
C  -12.24300 14.65800 42.93100
C  -14.93000 15.73400 44.92200
C  -14.21800 13.40400 41.89200
C  -15.19600 12.22500 42.25900
N  -9.38000 15.55000 42.91400
C  -9.73000 14.22600 43.03900
C  -8.49600 13.42600 43.36200
C  -7.42800 14.32300 43.11700
C  -8.02200 15.59900 42.82700
C  -8.46400 11.96400 43.76200
C  -5.99100 14.53600 43.14600
O  -5.02200 13.76100 43.34000
C  -5.73300 16.02100 42.65400
C  -4.80300 16.65200 43.75200
O  -3.61100 17.00700 43.53100
O  -5.47500 16.74900 44.88200
C  -4.74300 17.48000 45.96100
H  -9.66100 21.43100 41.18800
H  -14.85400 17.81500 42.88100
H  -11.29800 12.77400 43.36800
H  -5.68400 19.14300 42.78800
H  -7.25100 20.78600 40.75500
H  -8.19000 21.82400 43.03800
H  -6.83400 22.38900 42.08700
H  -6.53400 21.38800 43.50400
H  -4.37400 18.52800 41.08000
H  -5.20600 19.90300 40.42100
H  -6.78000 17.68800 39.52900
H  -5.16700 17.21200 39.27300
H  -13.04900 23.00300 41.23000
H  -12.09400 22.39900 39.88300
H  -11.38300 22.96100 41.42400
H  -15.97200 18.94000 41.69900
H  -16.96000 20.37100 41.47700
H  -16.21700 20.16100 43.10900
H  -15.36700 15.58700 42.80700
H  -13.68600 13.60100 44.07000
H  -15.93200 16.16100 44.88600
H  -14.24200 16.44500 45.37900
H  -15.00600 14.75800 45.40100
H  -13.38500 12.97500 41.33500
H  -14.75600 14.10000 41.24800
H  -14.79200 11.28300 41.88700
H  -16.16000 12.44100 41.79800
H  -15.21900 12.03300 43.33200
H  -7.63900 11.94200 44.47400
H  -8.28100 11.32800 42.89600
H  -9.33400 11.57000 44.28700
H  -5.25800 15.95100 41.67500
H  -3.77600 17.96300 45.81500
H  -4.51100 16.79300 46.77400
H  -5.44000 18.17400 46.43200

