158

Mg 17.47100 -2.98100 27.80800
C  16.30800 -0.96200 30.36800
C  19.39300 -4.64800 29.95400
C  18.72300 -4.77500 25.16800
C  16.01200 -0.67900 25.53500
N  17.86600 -2.74400 29.89100
C  17.18900 -1.98400 30.75300
C  17.67800 -2.21800 32.21700
C  18.83000 -3.24700 32.04500
C  18.78100 -3.54700 30.51800
C  20.21800 -2.81100 32.51200
C  16.51000 -2.71100 33.17400
C  16.52100 -2.12600 34.55100
H  17.84800 -1.50200 35.12500
N  18.68300 -4.59900 27.59700
C  19.33200 -5.16700 28.59500
C  20.04500 -6.32500 28.11500
C  19.83700 -6.34900 26.74600
C  18.96200 -5.27000 26.44400
C  20.72700 -7.26400 29.07600
C  20.39900 -7.35600 25.73900
O  20.22600 -7.26600 24.50500
C  21.22400 -8.46200 26.20000
N  17.43600 -2.72500 25.66900
C  18.08400 -3.54900 24.84000
C  18.12700 -2.97200 23.39500
C  16.97600 -1.92800 23.52300
C  16.83600 -1.71600 25.02900
C  19.51000 -2.37700 23.02200
C  15.59400 -2.30600 22.80700
C  14.40400 -2.66600 23.70200
N  16.22400 -1.25400 27.89600
C  15.77000 -0.36100 26.86100
C  15.07500 0.68700 27.47000
C  15.20900 0.45900 28.82400
C  15.95500 -0.66900 29.02500
C  14.38700 1.79000 26.81100
C  14.78700 0.95100 30.12200
O  14.02000 1.94100 30.30700
C  15.58200 0.02800 31.13100
C  16.32900 0.97400 31.97900
O  17.45600 1.35700 31.76000
O  15.43700 1.33600 32.90200
C  15.98200 2.09300 34.01800
H  19.94900 -5.23300 30.69000
H  19.23300 -5.18100 24.29100
H  15.38400 -0.05500 24.89700
H  18.02100 -1.28000 32.65300
H  18.61200 -4.18200 32.56100
H  21.05600 -2.84100 31.81500
H  20.49800 -3.44000 33.35700
H  20.24500 -1.77800 32.85900
H  16.44500 -3.79700 33.25200
H  15.56400 -2.48000 32.68400
H  16.32200 -2.98200 35.19500
H  15.76400 -1.34300 34.58500
H  21.75500 -7.44400 28.76200
H  20.19400 -8.20500 28.94600
H  20.86300 -6.97800 30.11900
H  20.60800 -8.90000 26.98600
H  22.18000 -8.10900 26.58800
H  21.39200 -9.08500 25.32100
H  17.79600 -3.73600 22.69100
H  17.28800 -0.94700 23.16400
H  20.23700 -2.20100 23.81500
H  19.44500 -1.36000 22.63600
H  19.94700 -3.06200 22.29600
H  15.78800 -3.20000 22.21400
H  15.34100 -1.44600 22.18700
H  14.01700 -1.81600 24.26300
H  14.75900 -3.41100 24.41300
H  13.52300 -3.06200 23.19700
H  14.75600 2.76800 27.12000
H  13.34900 1.74800 27.14000
H  14.44500 1.66900 25.72900
H  14.90100 -0.55700 31.75000
H  17.00400 1.86200 34.31700
H  15.57200 1.95300 35.01900
H  15.77300 3.13600 33.78300
Mg 40.24000 41.60400 27.10200
C  39.56100 44.05700 29.67200
C  41.24500 39.57700 29.39300
C  41.07500 39.65900 24.58300
C  39.32900 44.21600 24.82500
N  40.59300 41.97700 29.28900
C  40.07200 42.85500 30.12000
C  40.00800 42.37700 31.55100
C  40.73300 40.96500 31.40400
C  40.85200 40.79900 29.86900
C  42.00800 40.70700 32.22200
C  38.66500 42.40200 32.26600
C  38.62000 41.78100 33.65100
H  38.27500 42.66800 34.86100
N  41.04300 39.78000 26.97600
C  41.42200 39.09600 28.08900
C  41.96900 37.83800 27.64100
C  42.04100 37.91800 26.22500
C  41.35900 39.15200 25.85800
C  42.50100 36.75700 28.53200
C  42.69300 36.94300 25.25500
O  42.79200 37.24400 24.04200
C  43.36500 35.63900 25.74500
N  40.16600 41.89400 25.04700
C  40.46300 40.85500 24.22800
C  40.20300 41.23600 22.79700
C  39.31200 42.50900 22.86200
C  39.66500 42.93700 24.29400
C  41.54100 41.28000 21.98200
C  37.82300 42.25000 22.58000
C  37.27400 41.14000 23.49700
N  39.60000 43.64300 27.15400
C  39.34000 44.59100 26.16600
C  39.06500 45.91400 26.68300
C  39.07600 45.72900 28.06200
C  39.41100 44.38100 28.29900
C  38.73600 47.17500 25.86800
C  38.83700 46.36000 29.32200
O  38.42200 47.49000 29.63000
C  39.07300 45.28400 30.39000
C  39.95300 45.68500 31.52700
O  41.18000 45.55900 31.54700
O  39.19200 46.16700 32.53300
C  39.93800 46.45100 33.80100
H  41.50900 38.83000 30.14500
H  41.21400 39.03700 23.69600
H  39.16700 45.02300 24.10700
H  40.65900 43.08600 32.06300
H  39.93900 40.27600 31.69400
H  42.17400 41.60300 32.81900
H  42.78300 40.43100 31.50800
H  41.92500 39.90300 32.95400
H  37.97600 41.94000 31.55900
H  38.35200 43.43200 32.43400
H  39.55200 41.29000 33.93000
H  37.92800 40.94400 33.55300
H  43.58100 36.65400 28.41900
H  42.11100 35.74500 28.42200
H  42.35700 37.06900 29.56600
H  43.71100 35.13800 24.84100
H  42.64400 34.93000 26.15200
H  44.10000 35.95800 26.48400
H  39.59300 40.53500 22.22700
H  39.66600 43.28400 22.18200
H  41.71400 42.30200 21.64500
H  41.38600 40.58800 21.15400
H  42.36100 40.92500 22.60600
H  37.72200 42.07700 21.50800
H  37.30400 43.20500 22.65700
H  36.49900 41.51100 24.16800
H  38.01000 40.44400 23.89900
H  36.86600 40.49100 22.72200
H  38.57200 47.97800 26.58700
H  37.83900 46.86200 25.33400
H  39.56700 47.39900 25.19900
H  38.12900 44.99700 30.85200
H  40.74500 45.74400 33.99300
H  39.25600 46.31400 34.64000
H  40.42100 47.42200 33.91000

