158

Mg 24.64200 -7.11100 48.67000
C  27.13700 -5.12300 47.05400
C  22.54100 -6.47400 45.91900
C  22.61600 -9.58500 49.69600
C  27.16400 -8.14100 50.94700
N  24.87300 -5.96900 46.72200
C  25.96500 -5.24700 46.32100
C  25.64100 -4.55100 44.96700
C  24.11700 -4.84000 44.61200
C  23.79600 -5.79400 45.84400
C  23.19100 -3.58600 44.59300
C  26.56800 -4.95200 43.80900
C  27.39200 -3.92000 43.09900
H  27.21600 -3.69000 41.64100
N  22.68400 -7.76600 48.14500
C  22.04300 -7.28600 47.03200
C  20.70000 -7.89700 47.05200
C  20.63500 -8.81200 48.19000
C  22.03900 -8.82600 48.68200
C  19.69300 -7.73900 46.00500
C  19.49800 -9.63200 48.79600
O  18.39300 -9.62700 48.30600
C  19.61500 -10.33500 50.10700
N  24.86800 -8.57100 50.17000
C  23.88700 -9.60800 50.33100
C  24.16600 -10.39000 51.63700
C  25.56000 -9.84200 52.12600
C  25.88100 -8.77700 51.06600
C  23.00000 -10.43700 52.70200
C  26.56000 -11.03700 52.31200
C  27.25300 -10.96300 53.66700
N  26.67500 -6.57900 49.11400
C  27.54600 -7.18800 49.95900
C  28.87900 -6.62800 49.83400
C  28.76800 -5.75800 48.72300
C  27.43400 -5.86700 48.27700
C  29.99600 -6.95900 50.76600
C  29.46700 -4.84000 47.86800
O  30.64200 -4.36400 47.98800
C  28.44000 -4.39300 46.73400
C  28.31200 -2.92000 46.97000
O  27.98400 -2.35500 48.03400
O  28.55200 -2.28200 45.79800
C  28.69800 -0.80400 45.88100
H  21.86300 -6.28400 45.08400
H  22.13100 -10.43800 50.17300
H  27.90800 -8.54300 51.63700
H  25.75400 -3.48700 45.17800
H  24.00100 -5.39200 43.67900
H  22.64900 -3.56100 43.64800
H  23.62400 -2.61500 44.83700
H  22.40900 -3.64700 45.35000
H  26.00400 -5.41000 42.99600
H  27.23400 -5.69700 44.24500
H  28.45400 -4.16100 43.07400
H  27.17900 -2.96800 43.58600
H  18.68700 -7.71000 46.42300
H  19.77000 -8.56300 45.29700
H  19.81800 -6.76800 45.52600
H  20.09800 -11.29600 49.92800
H  18.59900 -10.51700 50.45600
H  20.16300 -9.64700 50.75100
H  24.28000 -11.41800 51.29200
H  25.48500 -9.30700 53.07200
H  22.12400 -9.91900 52.31300
H  23.36500 -9.89100 53.57100
H  22.66800 -11.42800 53.01300
H  27.36600 -10.85100 51.60200
H  26.15100 -12.04000 52.18900
H  28.29100 -10.73300 53.42700
H  27.18400 -11.93700 54.15300
H  26.93300 -10.28800 54.46000
H  30.07900 -6.23600 51.57700
H  30.87300 -6.90500 50.12100
H  29.83500 -7.96100 51.16400
H  28.92600 -4.66500 45.79600
H  28.93600 -0.54200 44.85000
H  29.43900 -0.43700 46.59100
H  27.69100 -0.46300 46.12400
Mg -10.01000 17.73000 42.25000
C  -6.54700 17.26100 42.29400
C  -9.47200 21.01800 41.72400
C  -13.21100 17.94300 41.47500
C  -10.21000 14.18900 42.28500
N  -8.12900 18.99100 42.08600
C  -6.86500 18.61400 42.10900
C  -5.90800 19.77300 41.99200
C  -6.89400 21.04200 41.94100
C  -8.23400 20.33700 41.94800
C  -6.78900 22.10800 43.14800
C  -4.92200 19.62300 40.79900
C  -5.37100 18.85500 39.53200
H  -4.73000 19.26800 38.16500
N  -11.21700 19.34200 41.80400
C  -10.76800 20.57200 41.70600
C  -11.91200 21.45200 41.38400
C  -13.03400 20.58600 41.33300
C  -12.51400 19.21700 41.47400
C  -11.87400 22.88500 40.89600
C  -14.61000 21.05300 41.10700
O  -14.83600 22.19300 40.86400
C  -15.75400 20.15200 41.30400
N  -11.53300 16.25700 41.66600
C  -12.77400 16.63000 41.67100
C  -13.76000 15.46400 41.68900
C  -12.78200 14.28400 41.94300
C  -11.40000 14.90400 42.02000
C  -15.00000 15.58900 42.64500
C  -12.82000 13.12600 40.80700
C  -13.68900 11.96100 41.13900
N  -8.73200 16.02300 42.38900
C  -8.96400 14.73700 42.56900
C  -7.79700 13.97300 42.87600
C  -6.81900 14.95200 42.77300
C  -7.40000 16.17000 42.46300
C  -7.57700 12.51900 43.10800
C  -5.37400 15.12600 42.73900
O  -4.46700 14.34000 42.91700
C  -5.18000 16.63400 42.56900
C  -4.44800 17.03300 43.76200
O  -3.23700 17.05100 43.80300
O  -5.19200 17.40300 44.82300
C  -4.45900 18.04900 45.88500
H  -9.32200 22.07300 41.48600
H  -14.29000 18.11500 41.46800
H  -10.46500 13.15600 42.52800
H  -5.37800 19.89700 42.93700
H  -6.84000 21.60600 41.01000
H  -5.76700 22.44500 43.32100
H  -7.31000 21.72600 44.02600
H  -7.35700 22.95000 42.75100
H  -4.01100 19.13100 41.14100
H  -4.58200 20.61100 40.48800
H  -6.39100 18.47900 39.45600
H  -4.78800 17.94600 39.67600
H  -12.81000 23.36600 41.18000
H  -11.86900 23.03700 39.81600
H  -10.99200 23.33300 41.35200
H  -15.86000 19.54000 40.40800
H  -16.55400 20.88400 41.41000
H  -15.51800 19.62600 42.22900
H  -14.19200 15.24300 40.71300
H  -12.95300 13.67000 42.82700
H  -15.12500 16.58800 43.06400
H  -15.06800 14.73700 43.32100
H  -15.84900 15.60900 41.96200
H  -11.84000 12.66500 40.68800
H  -13.18000 13.41300 39.81900
H  -14.54300 11.92700 40.46300
H  -14.14500 12.12600 42.11600
H  -13.10800 11.04700 41.26000
H  -8.30000 11.98000 42.49600
H  -7.78600 12.22200 44.13600
H  -6.57500 12.25000 42.77200
H  -4.46200 16.73800 41.75500
H  -5.21900 18.32900 46.61300
H  -3.97800 18.93300 45.46600
H  -3.81300 17.28800 46.32300

