158

Mg 7.45800 52.92200 41.84400
C  7.43900 49.43600 41.79100
C  10.70000 52.77200 40.48400
C  7.10500 56.14000 41.04400
C  3.98700 52.67700 42.64100
N  8.84000 51.34500 41.20500
C  8.64500 49.96200 41.31500
C  9.94900 49.20000 40.90600
C  10.96500 50.26700 41.08600
C  10.14300 51.55700 40.88800
C  11.74500 50.29400 42.41000
C  9.95800 48.50700 39.49700
C  9.59900 49.26800 38.17500
H  8.25300 48.98000 37.47400
N  8.80100 54.29200 40.94400
C  10.05200 54.04600 40.49200
C  10.56200 55.26900 39.96600
C  9.59800 56.36800 40.23900
C  8.43400 55.66400 40.78200
C  11.99400 55.37700 39.44300
C  9.95800 57.83700 40.10900
O  10.98900 58.15600 39.56800
C  8.95800 58.88300 40.54900
N  5.84100 54.14600 41.80100
C  5.92300 55.45100 41.41300
C  4.42200 56.06600 41.44800
C  3.56700 55.00700 42.10500
C  4.53500 53.88700 42.26000
C  4.41700 57.53200 42.00300
C  2.25500 54.69700 41.37400
C  1.02900 54.55100 42.33400
N  6.11200 51.37100 42.34100
C  4.78700 51.47800 42.75000
C  4.31600 50.15400 43.09700
C  5.31900 49.31500 42.81400
C  6.35900 50.10100 42.27500
C  2.96400 49.86600 43.71500
C  5.68400 47.90100 42.82900
O  5.08700 46.89800 43.24100
C  7.08900 47.91700 42.12900
C  7.00200 46.88700 41.01800
O  6.30200 46.94500 39.97700
O  7.71400 45.71000 41.44900
C  7.59500 44.55300 40.58700
H  11.76700 52.67600 40.27200
H  7.05500 57.17900 40.71200
H  2.92200 52.59500 42.87000
H  10.06900 48.40600 41.64200
H  11.62900 50.28800 40.22200
H  11.37200 49.55000 43.11400
H  11.54000 51.24500 42.90100
H  12.82300 50.20500 42.27100
H  9.41300 47.56500 39.55100
H  10.99100 48.16400 39.43900
H  10.40000 49.07900 37.46000
H  9.45900 50.32900 38.37800
H  11.88200 55.62200 38.38700
H  12.67000 54.53600 39.60300
H  12.48000 56.27100 39.83500
H  8.24400 58.92800 39.72600
H  9.43300 59.86300 40.60500
H  8.47900 58.76200 41.52100
H  4.29400 56.16600 40.37000
H  3.50300 55.47600 43.08700
H  4.45500 58.24200 41.17700
H  5.24800 57.71200 42.68500
H  3.41900 57.73500 42.39000
H  2.28300 53.79200 40.76700
H  2.06200 55.60100 40.79700
H  0.39500 55.42900 42.20600
H  1.46600 54.51900 43.33200
H  0.37600 53.69300 42.17200
H  2.70900 48.81000 43.80500
H  2.21500 50.24900 43.02100
H  2.78500 50.46900 44.60500
H  7.90800 47.53300 42.73700
H  7.72300 44.73900 39.52000
H  6.58600 44.16600 40.73100
H  8.27700 43.76600 40.90900
Mg -5.74500 25.35000 25.67600
C  -4.29700 26.70500 28.47800
C  -7.51500 23.21900 27.91700
C  -7.17000 24.02300 23.05000
C  -3.81900 27.45700 23.67600
N  -5.89700 25.03700 27.92200
C  -5.25300 25.78200 28.83000
C  -5.72200 25.50500 30.27200
C  -6.55500 24.22900 30.03000
C  -6.77500 24.15300 28.56400
C  -5.86600 22.97500 30.64300
C  -6.52800 26.65800 30.97600
C  -6.10900 26.90800 32.43300
H  -6.01000 25.70300 33.38700
N  -7.07800 23.75300 25.53300
C  -7.65800 23.00100 26.50800
C  -8.54200 22.04000 25.84700
C  -8.53900 22.32400 24.42600
C  -7.60400 23.41000 24.28800
C  -9.42900 21.07900 26.64500
C  -9.18500 21.51200 23.25400
O  -9.11400 21.83700 22.07600
C  -10.00900 20.27000 23.47000
N  -5.37800 25.56300 23.68800
C  -6.22400 24.99500 22.73600
C  -6.02600 25.53600 21.39900
C  -5.09300 26.76800 21.63300
C  -4.79300 26.65300 23.12600
C  -5.45900 24.45100 20.38100
C  -5.70300 28.13700 21.17200
C  -4.86400 28.88700 20.13600
N  -4.30900 26.77600 25.98000
C  -3.57100 27.57800 25.06800
C  -2.56500 28.39300 25.78500
C  -2.88300 28.08600 27.12700
C  -3.94000 27.10700 27.15000
C  -1.61400 29.41700 25.28500
C  -2.59500 28.49300 28.48500
O  -1.69100 29.20300 28.91400
C  -3.46700 27.58900 29.39100
C  -2.58400 26.87400 30.26600
O  -1.83600 25.94500 30.00800
O  -2.62700 27.45200 31.51300
C  -1.73900 26.79500 32.54500
H  -8.14000 22.56600 28.52900
H  -7.75900 23.71300 22.18400
H  -3.41900 28.22600 23.01200
H  -4.82400 25.23800 30.82900
H  -7.56500 24.27500 30.43600
H  -4.99600 23.28600 31.22200
H  -5.65500 22.31900 29.79800
H  -6.59100 22.52200 31.32000
H  -7.60900 26.52400 30.94100
H  -6.38000 27.61500 30.47600
H  -6.87900 27.63200 32.70000
H  -5.15700 27.43500 32.36300
H  -10.47800 21.34800 26.52300
H  -9.28300 21.20800 27.71800
H  -9.16500 20.06200 26.35800
H  -9.43800 19.39600 23.78400
H  -10.23500 20.03300 22.43100
H  -10.82000 20.36100 24.19200
H  -7.02600 25.81700 21.06800
H  -4.08100 26.67100 21.24100
H  -5.98100 24.47200 19.42400
H  -5.31300 23.43000 20.73200
H  -4.45600 24.78400 20.11400
H  -5.79900 28.72700 22.08300
H  -6.70400 28.04100 20.75300
H  -4.91000 29.97000 20.25400
H  -5.34300 28.68300 19.17800
H  -3.82700 28.56200 20.05700
H  -2.04000 30.41900 25.25100
H  -1.38900 29.04300 24.28500
H  -0.76500 29.38900 25.96800
H  -4.12400 28.22200 29.98700
H  -1.90600 27.32100 33.48500
H  -0.66500 26.89600 32.38300
H  -2.09500 25.76500 32.56200

