158

Mg 47.12600 16.31900 28.26800
C  44.95300 15.80400 30.89600
C  49.21500 18.02800 30.25000
C  48.98300 17.08200 25.56900
C  44.75200 14.74100 26.13400
N  47.02300 16.81300 30.41500
C  46.14600 16.44900 31.33800
C  46.55400 16.83800 32.68500
C  47.79500 17.79500 32.40100
C  48.07400 17.52900 30.89900
C  47.68700 19.24700 32.81700
C  46.71900 15.52900 33.51700
C  47.76500 15.73200 34.59700
H  47.86400 17.00600 35.47900
N  48.96900 17.28100 27.96500
C  49.63300 17.93300 28.94100
C  50.93500 18.39900 28.41200
C  50.86900 18.18200 26.99400
C  49.54600 17.54500 26.77800
C  52.02700 19.09800 29.34300
C  51.79000 18.62500 25.93100
O  51.52000 18.49500 24.73100
C  53.09300 19.17700 26.36100
N  46.77200 16.07900 26.18200
C  47.78800 16.40700 25.31700
C  47.41200 15.98400 23.86200
C  46.13200 15.13100 24.12100
C  45.92000 15.30700 25.53700
C  47.24800 17.17500 22.86100
C  46.04300 13.69900 23.56000
C  44.82800 13.34800 22.55100
N  45.17300 15.51300 28.40900
C  44.35300 14.89700 27.43100
C  43.25100 14.25000 28.17100
C  43.42900 14.67000 29.45200
C  44.64600 15.35700 29.56400
C  42.13600 13.41900 27.54300
C  42.83200 14.66000 30.74400
O  41.84700 14.08800 31.20300
C  43.84600 15.25200 31.72000
C  43.13000 16.29100 32.57300
O  42.71700 17.33000 32.14100
O  43.01500 15.86300 33.87800
C  42.42100 16.74800 34.90400
H  49.83800 18.41400 31.05900
H  49.64900 17.24200 24.71800
H  43.98600 14.26500 25.51700
H  45.71600 17.41800 33.07200
H  48.67300 17.48300 32.96700
H  47.61400 19.93300 31.97300
H  48.65500 19.50000 33.24900
H  46.80200 19.46000 33.41800
H  47.08100 14.79700 32.79600
H  45.83700 15.11300 34.00500
H  48.77800 15.59900 34.21800
H  47.59200 14.91600 35.29800
H  53.05700 18.77200 29.20700
H  51.74600 18.68900 30.31300
H  52.02100 20.18500 29.25600
H  53.05700 20.16800 26.81300
H  53.61200 19.44700 25.44100
H  53.66200 18.36700 26.81800
H  48.09300 15.25300 23.42600
H  45.29500 15.68400 23.69400
H  47.58800 18.05700 23.40400
H  46.26500 17.22800 22.39300
H  47.94100 16.94000 22.05300
H  46.10700 12.93000 24.33100
H  46.91600 13.51400 22.93400
H  44.25600 14.25700 22.36400
H  44.29300 12.49900 22.97400
H  45.33100 13.08600 21.62000
H  42.16900 13.32800 26.45700
H  41.24800 13.97500 27.84500
H  41.90800 12.48000 28.04700
H  44.29000 14.43800 32.29200
H  41.48400 17.08700 34.46300
H  43.19200 17.50300 35.05900
H  42.40900 16.13400 35.80500
Mg 47.20000 24.60200 27.17400
C  48.48500 26.85300 29.64000
C  46.27200 22.49800 29.72800
C  46.46000 22.24600 24.88200
C  48.48600 26.73700 24.63500
N  47.52000 24.66600 29.46600
C  47.83900 25.72900 30.20800
C  47.55900 25.45800 31.67800
C  47.23100 23.91100 31.61800
C  46.87700 23.75100 30.13900
C  48.48300 22.98700 32.03700
C  46.38600 26.36300 32.21800
C  45.88100 25.85100 33.63700
H  46.03300 26.84200 34.75000
N  46.38400 22.70800 27.24300
C  46.06600 22.05000 28.40300
C  45.51000 20.76200 28.09000
C  45.43900 20.70100 26.69200
C  46.17000 21.89500 26.16700
C  45.01000 19.74200 29.12400
C  44.90500 19.59200 25.76400
O  45.02800 19.75100 24.55700
C  44.31300 18.29400 26.32900
N  47.24800 24.60300 25.03700
C  46.99600 23.42400 24.39000
C  47.14500 23.71100 22.85700
C  47.64100 25.16700 22.79900
C  47.86200 25.52500 24.26500
C  47.91600 22.64800 22.15000
C  46.65600 26.14300 22.08700
C  47.29700 27.10200 21.09400
N  48.27100 26.35700 27.10100
C  48.77500 27.09900 26.00200
C  49.55600 28.30000 26.48900
C  49.40900 28.18800 27.86400
C  48.64100 27.03200 28.23900
C  50.21800 29.38800 25.71400
C  49.62900 28.94300 29.16900
O  50.23200 29.95200 29.35700
C  48.89500 28.17600 30.34200
C  49.84000 27.87700 31.44100
O  50.72100 27.06600 31.55200
O  49.29600 28.56500 32.51500
C  49.98200 28.42600 33.80700
H  46.02500 21.84000 30.56400
H  46.30400 21.67500 23.96400
H  48.69700 27.48200 23.86400
H  48.43400 25.65300 32.29800
H  46.35600 23.64400 32.21200
H  48.91100 22.51400 31.15300
H  48.21400 22.14300 32.67300
H  49.24600 23.56700 32.55600
H  45.52700 26.13900 31.58600
H  46.52800 27.44200 32.26600
H  46.51800 25.07200 34.05500
H  44.87600 25.42900 33.65100
H  45.00400 20.05900 30.16700
H  45.48300 18.77300 28.97100
H  43.95800 19.50900 28.95700
H  43.44600 18.48400 26.96200
H  45.08900 17.81800 26.92900
H  43.91300 17.70400 25.50400
H  46.16300 23.66200 22.38600
H  48.57100 25.25300 22.23600
H  47.28400 21.89600 21.67600
H  48.46100 22.12500 22.93600
H  48.63500 23.07700 21.45200
H  46.08700 26.80600 22.73900
H  45.81700 25.71200 21.54100
H  47.18400 28.11400 21.48100
H  46.95900 27.14900 20.05900
H  48.36300 26.90900 20.96900
H  50.33400 29.10100 24.66900
H  51.19600 29.51900 26.17600
H  49.78600 30.38700 25.78700
H  48.13300 28.91700 30.58600
H  51.06300 28.28600 33.80100
H  49.49800 27.66900 34.42300
H  49.92800 29.34300 34.39400

