158

Mg 28.43300 57.42600 43.07600
C  26.06400 55.19300 41.66100
C  30.87900 55.48800 41.45800
C  30.66100 59.73400 43.97500
C  25.93800 59.22100 44.38900
N  28.42500 55.59500 41.56800
C  27.36700 54.88500 41.20000
C  27.74400 53.82800 40.07900
C  29.24400 53.61100 40.46500
C  29.55100 54.96800 41.20700
C  29.64900 52.45700 41.41700
C  27.59100 54.41700 38.72600
C  27.18900 53.57100 37.47100
H  28.11200 53.57300 36.23100
N  30.48500 57.59500 42.75000
C  31.27700 56.68600 42.09800
C  32.65600 57.23700 42.05000
C  32.62300 58.44000 42.83000
C  31.23000 58.59800 43.26500
C  33.68300 56.62100 41.15600
C  33.77300 59.45300 43.00000
O  34.92200 59.13700 42.54000
C  33.69000 60.68400 43.78600
N  28.26300 59.30400 43.93000
C  29.35300 60.06000 44.29400
C  28.88400 61.37700 44.97500
C  27.36600 61.23900 45.12100
C  27.18300 59.83100 44.44200
C  29.71200 61.73600 46.22500
C  26.58900 62.33800 44.45000
C  26.70500 62.46900 42.93500
N  26.46500 57.15500 43.20900
C  25.52500 57.96600 43.80900
C  24.20000 57.45500 43.71800
C  24.37800 56.35300 42.81600
C  25.74100 56.20500 42.55600
C  22.90500 58.06400 44.28000
C  23.70500 55.35400 42.05700
O  22.49300 55.15500 41.89100
C  24.79800 54.56800 41.28200
C  24.69200 53.12300 41.69300
O  24.82700 52.64600 42.80100
O  24.50400 52.30100 40.63000
C  24.68000 50.85000 40.75600
H  31.62700 54.88100 40.94400
H  31.29800 60.56100 44.29600
H  25.13900 59.79300 44.86600
H  27.16000 52.90800 40.10600
H  29.78500 53.60700 39.51800
H  28.81500 51.76700 41.54800
H  29.81000 52.88900 42.40500
H  30.46100 51.94100 40.90600
H  28.44300 55.02800 38.42900
H  26.80000 55.14200 38.91700
H  26.20200 53.77300 37.05500
H  27.00600 52.53900 37.76900
H  33.24500 56.51100 40.16400
H  33.97900 55.63000 41.50000
H  34.58700 57.22500 41.07300
H  33.16900 61.53800 43.35300
H  34.70100 61.01700 44.02200
H  33.28200 60.46500 44.77200
H  29.02800 62.25700 44.34900
H  27.09700 61.04200 46.15800
H  30.65400 61.20800 46.37200
H  29.25000 61.72600 47.21200
H  29.86800 62.80200 46.05700
H  27.01100 63.27700 44.81000
H  25.58200 62.17600 44.83600
H  27.55900 61.91200 42.54900
H  26.87200 63.52300 42.71300
H  25.82900 62.13400 42.38000
H  22.09800 57.35800 44.08100
H  22.58300 59.00100 43.82500
H  23.00300 58.30600 45.33800
H  24.74100 54.47500 40.19700
H  24.13100 50.41100 41.58900
H  25.72500 50.62200 40.96600
H  24.37300 50.28500 39.87600
Mg 27.64900 49.70800 26.91200
C  25.48600 50.72800 29.67100
C  29.99000 48.90500 29.17100
C  29.67100 49.30400 24.35600
C  25.08100 50.88800 24.72100
N  27.68400 49.77400 29.27200
C  26.69200 50.16300 30.12000
C  27.12500 49.85500 31.51400
C  28.67600 49.39200 31.37600
C  28.80400 49.30700 29.86200
C  29.78300 50.26100 32.03600
C  26.13900 48.87200 32.21800
C  25.38900 49.27700 33.50400
H  26.15900 49.86100 34.73200
N  29.53300 49.22000 26.79900
C  30.37300 48.85900 27.84800
C  31.68300 48.41800 27.31800
C  31.56300 48.53800 25.90000
C  30.19700 48.98900 25.61600
C  32.91100 48.05700 28.15000
C  32.62700 48.29700 24.79900
O  32.45800 48.50600 23.57700
C  33.95600 47.65600 25.24300
N  27.43800 50.13600 24.83300
C  28.44700 49.80600 23.96100
C  27.99500 49.99600 22.45100
C  26.42100 50.18500 22.62100
C  26.24900 50.31200 24.10100
C  28.82200 51.12800 21.74000
C  25.62300 49.02000 22.01100
C  24.48500 49.45600 21.10700
N  25.78500 50.66500 27.08200
C  24.87900 51.04100 26.10100
C  23.72900 51.62400 26.73000
C  23.95600 51.52700 28.14200
C  25.18300 50.90000 28.28100
C  22.62900 52.27000 25.91500
C  23.36800 51.78100 29.43200
O  22.32400 52.39900 29.75700
C  24.35300 51.24300 30.51100
C  24.74100 52.37600 31.41000
O  25.65100 53.17400 31.30800
O  23.85000 52.34000 32.47200
C  24.06900 53.31800 33.56500
H  30.77900 48.70400 29.90000
H  30.21200 48.97000 23.46800
H  24.18000 51.12700 24.15300
H  27.06100 50.80200 32.04800
H  28.69400 48.34400 31.67800
H  30.08300 49.72500 32.93600
H  29.55700 51.31000 32.22500
H  30.70700 50.25200 31.45800
H  26.69300 48.07800 32.72000
H  25.38900 48.35200 31.62100
H  24.93300 48.32000 33.76000
H  24.56900 49.92700 33.19800
H  33.62600 48.81400 27.82700
H  33.31200 47.07100 27.91800
H  32.78100 48.13400 29.22900
H  33.79200 46.76900 25.85400
H  34.49800 48.47300 25.72100
H  34.54700 47.40100 24.36300
H  28.32800 49.15700 21.84000
H  26.09600 51.17500 22.30300
H  29.41700 51.60500 22.51900
H  28.12600 51.70900 21.13500
H  29.51000 50.66000 21.03600
H  25.24000 48.46900 22.87000
H  26.41400 48.62400 21.37500
H  24.59800 50.46600 20.71400
H  23.62300 49.46900 21.77400
H  24.35700 48.64900 20.38600
H  23.00600 52.98800 25.18700
H  22.06300 52.81700 26.66900
H  22.08500 51.44300 25.45800
H  23.86300 50.48800 31.12600
H  23.47600 52.96800 34.41000
H  23.70500 54.34100 33.47700
H  25.11500 53.49200 33.81500

