158

Mg 9.20800 3.72400 27.47700
C  10.42300 2.15600 30.46300
C  7.58000 5.96100 29.58100
C  8.00100 5.00400 24.85500
C  10.48500 0.92800 25.61300
N  8.91900 3.92700 29.82700
C  9.67200 3.31200 30.77400
C  9.47700 3.97200 32.17300
C  8.37100 5.07000 31.86100
C  8.25700 4.96400 30.34600
C  6.98100 4.69600 32.51200
C  10.83100 4.67800 32.62900
C  10.93300 5.37800 33.95300
H  10.22200 4.79600 35.22300
N  7.96200 5.20000 27.26400
C  7.41900 6.06300 28.19700
C  6.53500 7.09800 27.54500
C  6.71600 6.85000 26.18400
C  7.59000 5.65500 26.03100
C  5.77500 8.21900 28.21700
C  6.14900 7.68200 24.97600
O  6.44800 7.36200 23.83500
C  5.27200 8.87700 25.22700
N  9.47000 3.14100 25.42100
C  8.72400 3.86300 24.57200
C  8.78100 3.15600 23.17400
C  9.72000 1.89600 23.33600
C  9.90900 1.97200 24.82200
C  7.46700 2.85800 22.55100
C  11.06200 2.00900 22.53900
C  11.08700 1.11100 21.29400
N  10.29900 1.95500 27.87700
C  10.74800 0.93600 27.01800
C  11.40400 -0.11500 27.80500
C  11.38600 0.39000 29.11900
C  10.63800 1.59700 29.16200
C  12.01000 -1.35400 27.20700
C  11.82200 0.07300 30.48700
O  12.51800 -0.80900 30.85500
C  11.17800 1.20200 31.39600
C  10.27800 0.57900 32.39500
O  9.44900 -0.18100 32.06700
O  10.59600 0.90600 33.70900
C  9.91000 0.10600 34.71200
H  7.15500 6.78700 30.15600
H  7.68000 5.42000 23.89800
H  10.96700 0.06500 25.14800
H  9.21400 3.28700 32.97800
H  8.73500 6.06600 32.11200
H  7.05100 3.90000 33.25300
H  6.43800 4.38500 31.61900
H  6.65900 5.68300 32.84500
H  11.24100 5.24400 31.79300
H  11.39800 3.74800 32.64800
H  10.86800 6.46600 33.95600
H  11.98000 5.29800 34.24700
H  5.95100 8.36100 29.28400
H  4.72200 7.96200 28.11000
H  5.95300 9.20600 27.79000
H  5.95800 9.70600 25.39800
H  4.53400 8.62100 25.98800
H  4.74200 9.04600 24.29000
H  9.33100 3.76800 22.45900
H  9.14800 1.02000 23.03100
H  7.31100 1.81400 22.27900
H  7.39700 3.41000 21.61400
H  6.66000 3.15800 23.21800
H  11.84500 1.59600 23.17400
H  11.32800 3.05200 22.36400
H  10.04900 0.93400 21.01400
H  11.70900 0.22500 21.41900
H  11.48300 1.68900 20.45900
H  12.08800 -2.13500 27.96200
H  13.02200 -1.14100 26.86000
H  11.37500 -1.74100 26.41000
H  12.00900 1.66400 31.92900
H  9.09100 -0.54200 34.40000
H  9.47800 0.81900 35.41400
H  10.66200 -0.41500 35.30400
Mg -10.53700 18.01900 43.50300
C  -7.07700 18.44100 43.42500
C  -10.93100 21.46000 43.31900
C  -13.62400 17.44700 42.66600
C  -9.82100 14.51800 43.21200
N  -9.14100 19.74200 43.30900
C  -7.77200 19.66900 43.26800
C  -7.18100 21.12300 43.14400
C  -8.38300 21.93800 43.59700
C  -9.59300 21.02000 43.37600
C  -8.23600 22.52000 45.02900
C  -6.56000 21.42500 41.72600
C  -5.02600 21.61200 41.61000
H  -4.40700 22.13100 40.33800
N  -12.12600 19.31500 43.13100
C  -12.13300 20.69400 43.10200
C  -13.47600 21.09300 42.91200
C  -14.32000 19.93600 42.75900
C  -13.39900 18.85500 42.85100
C  -13.91100 22.57800 42.93000
C  -15.76900 19.94200 42.37300
O  -16.35500 21.02000 42.26800
C  -16.49100 18.75500 42.02000
N  -11.58100 16.18400 42.97600
C  -12.83900 16.24600 42.69900
C  -13.47100 14.83500 42.63500
C  -12.24800 13.90000 42.63400
C  -11.14000 14.89900 42.99400
C  -14.72100 14.55300 43.62200
C  -11.96000 13.09300 41.34600
C  -11.65400 11.55300 41.44500
N  -8.84600 16.66300 43.40300
C  -8.74900 15.30900 43.36700
C  -7.40000 14.86100 43.64300
C  -6.66700 16.11400 43.61200
C  -7.61600 17.15500 43.53200
C  -6.90500 13.45500 43.79100
C  -5.34000 16.74100 43.77400
O  -4.24000 16.23300 44.00000
C  -5.59100 18.31700 43.68700
C  -5.15500 19.01100 44.97100
O  -5.70900 18.93500 46.05800
O  -4.15200 19.89400 44.63800
C  -3.62700 20.66900 45.71600
H  -11.00400 22.54900 43.28700
H  -14.64500 17.11200 42.47000
H  -9.60400 13.44900 43.16100
H  -6.45700 21.13500 43.95900
H  -8.58900 22.78900 42.94800
H  -7.28600 22.99900 45.26800
H  -8.32200 21.65400 45.68500
H  -9.00400 23.28200 45.16000
H  -6.99400 22.34400 41.33000
H  -6.83800 20.68400 40.97800
H  -4.74300 20.56200 41.67700
H  -4.77100 22.26900 42.44200
H  -14.69500 22.60700 43.68700
H  -14.34000 22.88700 41.97700
H  -13.11200 23.27500 43.18300
H  -15.93000 18.20800 41.26300
H  -17.46000 19.12100 41.68200
H  -16.41500 18.22600 42.97000
H  -13.95700 14.76000 41.66300
H  -12.31400 13.17600 43.44700
H  -14.46900 13.59500 44.07700
H  -15.58600 14.49300 42.96200
H  -14.90800 15.37300 44.31500
H  -11.02000 13.50900 40.98200
H  -12.67800 13.44200 40.60400
H  -10.90700 11.41000 40.66400
H  -12.51100 10.89000 41.32500
H  -11.17000 11.34500 42.39900
H  -7.21500 13.01900 44.74100
H  -5.82000 13.49000 43.69800
H  -7.41900 12.98500 42.95300
H  -4.89000 18.60600 42.90400
H  -3.34400 21.58900 45.20400
H  -2.68900 20.21900 46.04100
H  -4.27000 20.83700 46.58000

