158

Mg 24.75700 -4.03500 45.67200
C  26.98500 -1.76400 43.89700
C  22.34300 -3.06500 43.56100
C  23.13300 -6.87400 46.48900
C  27.73400 -5.26400 47.33400
N  24.70800 -2.47800 43.95800
C  25.64500 -1.70800 43.38500
C  25.09200 -0.79500 42.25400
C  23.62500 -1.26300 42.25300
C  23.52100 -2.34900 43.31000
C  22.60400 -0.12700 42.36300
C  25.78000 -1.00800 40.92800
C  25.88300 0.07700 39.89000
H  25.16800 -0.14400 38.52600
N  22.92300 -4.76400 45.25300
C  22.05700 -4.23400 44.33800
C  20.80100 -4.95900 44.35000
C  21.01000 -6.10100 45.19800
C  22.44200 -5.97300 45.70900
C  19.57400 -4.51800 43.57200
C  20.00000 -7.22200 45.35700
O  18.84400 -7.06900 44.97000
C  20.35800 -8.57200 45.99000
N  25.45800 -5.87700 46.57200
C  24.48200 -6.82100 46.92800
C  25.15800 -7.96800 47.70900
C  26.54500 -7.34000 48.14800
C  26.62700 -6.10000 47.25400
C  24.35200 -8.67600 48.82400
C  27.80200 -8.31300 48.13700
C  28.24200 -8.91600 49.38800
N  26.85500 -3.58300 45.79300
C  27.88300 -4.13500 46.52100
C  29.06700 -3.37100 46.31100
C  28.80200 -2.44100 45.29800
C  27.42500 -2.63000 44.93200
C  30.38600 -3.46300 47.03900
C  29.36600 -1.32500 44.48800
O  30.51000 -0.83800 44.46500
C  28.19000 -0.79200 43.62900
C  28.04800 0.68400 43.96200
O  27.32600 1.10100 44.79500
O  28.63500 1.46300 42.95300
C  28.32200 2.91500 42.94300
H  21.49500 -2.73700 42.95700
H  22.65200 -7.76400 46.89900
H  28.55500 -5.65900 47.93500
H  25.28000 0.24800 42.50800
H  23.30900 -1.78900 41.35200
H  21.84700 -0.13300 41.57900
H  23.11100 0.83100 42.24200
H  22.15300 -0.18000 43.35400
H  25.22300 -1.83600 40.49100
H  26.82100 -1.30700 41.05400
H  26.89300 0.38700 39.62000
H  25.34800 0.92400 40.31800
H  19.78100 -4.60500 42.50600
H  19.61700 -3.43000 43.62600
H  18.63700 -5.02600 43.79900
H  20.57600 -8.39500 47.04300
H  21.12500 -9.13200 45.45300
H  19.48400 -9.22200 46.02800
H  25.31700 -8.68400 46.90300
H  26.46400 -6.99200 49.17800
H  24.18200 -9.74700 48.70800
H  23.33600 -8.36200 49.06100
H  24.95900 -8.48300 49.70800
H  28.67100 -7.80600 47.71600
H  27.63500 -9.17400 47.49100
H  28.02700 -9.98500 49.39100
H  27.63400 -8.46700 50.17400
H  29.28900 -8.85900 49.68400
H  31.10700 -2.89600 46.45000
H  30.72100 -4.43800 47.39200
H  30.41400 -2.85700 47.94400
H  28.47700 -0.97100 42.59300
H  28.72900 3.52800 43.74700
H  27.24800 3.10200 42.97800
H  28.67700 3.35500 42.01200
Mg 35.84300 48.01500 25.90300
C  36.03000 46.12200 28.81900
C  34.17600 50.42600 27.60800
C  35.36500 49.59500 22.85800
C  37.38000 45.41900 24.19700
N  35.08700 48.18600 27.91000
C  35.42500 47.36800 28.99400
C  34.98900 48.01800 30.34000
C  34.29600 49.29100 29.96000
C  34.53000 49.28900 28.41100
C  32.76600 49.47400 30.47100
C  36.18300 48.13200 31.31900
C  35.89800 47.87400 32.72800
H  35.92800 49.14600 33.66500
N  34.88500 49.73500 25.29800
C  34.38200 50.69700 26.20500
C  34.09600 51.93100 25.44600
C  34.49600 51.70200 24.09700
C  34.95800 50.28900 23.97900
C  33.49800 53.13300 26.14900
C  34.62300 52.72200 23.00000
O  35.00900 52.47200 21.90400
C  34.37900 54.19000 23.33600
N  36.12300 47.48600 23.77500
C  35.90100 48.29000 22.76400
C  36.50700 47.69500 21.44300
C  37.20600 46.41700 21.87500
C  36.96800 46.48100 23.42400
C  35.57700 47.31200 20.30400
C  38.72800 46.36300 21.48900
C  39.02700 45.79200 20.11000
N  36.59700 46.13200 26.39000
C  37.13200 45.15300 25.57300
C  37.42900 43.94600 26.30300
C  36.99500 44.24900 27.68400
C  36.48100 45.60800 27.61900
C  38.07200 42.67600 25.82800
C  36.94200 43.75200 29.02600
O  37.27500 42.68200 29.50300
C  36.35300 45.01300 29.85400
C  35.19100 44.51000 30.64600
O  34.24800 43.87800 30.11700
O  35.31500 44.75500 32.02300
C  34.16600 44.42100 32.87600
H  33.88700 51.30200 28.19300
H  35.31200 50.09400 21.88800
H  37.95300 44.64600 23.68100
H  34.22500 47.37600 30.77900
H  34.90700 50.08800 30.38200
H  32.78100 50.24200 31.24400
H  32.39100 48.57000 30.95100
H  32.11600 49.83400 29.67300
H  36.63300 49.11500 31.18000
H  37.01200 47.50400 30.99200
H  36.72100 47.23100 33.03800
H  34.93200 47.38500 32.85800
H  33.92100 54.07400 25.79700
H  33.77800 53.25500 27.19500
H  32.41600 53.14500 26.01900
H  33.32900 54.46100 23.44800
H  34.64400 54.74400 22.43600
H  35.08000 54.59200 24.06700
H  37.12300 48.48700 21.01700
H  36.74100 45.48800 21.54400
H  35.50100 48.05400 19.50900
H  34.61200 46.95500 20.66500
H  36.00700 46.50800 19.70600
H  39.34200 45.75000 22.15000
H  39.09100 47.37800 21.65500
H  38.08600 45.49500 19.64800
H  39.75400 44.98100 20.14100
H  39.53700 46.54100 19.50400
H  39.08800 42.62200 26.22000
H  38.13800 42.60500 24.74200
H  37.46900 41.83200 26.16600
H  37.07600 45.35800 30.59300
H  33.95000 45.22300 33.58100
H  34.38000 43.53700 33.47700
H  33.22600 44.32900 32.33200

