158

Mg 1.20000 8.05300 25.41700
C  2.02200 9.75900 28.36500
C  1.74300 5.01200 27.27400
C  0.40500 6.37100 22.80400
C  1.47800 11.04800 23.71700
N  1.94900 7.42100 27.53400
C  1.95900 8.32700 28.59400
C  2.10800 7.67700 29.99300
C  2.13700 6.14500 29.59500
C  1.91700 6.16500 28.02800
C  3.42200 5.25900 30.03100
C  0.96200 8.08200 30.96200
C  1.40600 8.26500 32.47100
H  2.55300 7.56200 33.01800
N  1.19100 6.01700 25.04800
C  1.49600 4.92300 25.91000
C  1.23800 3.69200 25.19000
C  0.70100 4.02800 23.91800
C  0.73000 5.56400 23.89000
C  1.52600 2.33700 25.80600
C  0.25000 3.17200 22.75800
O  -0.11800 3.62300 21.66700
C  0.04500 1.67100 22.93600
N  1.14100 8.61800 23.45100
C  0.60100 7.74400 22.57300
C  0.35300 8.46100 21.19900
C  0.63600 10.00800 21.54800
C  1.18600 9.90100 22.97100
C  1.19700 7.83400 20.06300
C  -0.68500 10.87500 21.42700
C  -1.82400 10.29900 22.23600
N  1.68200 10.02600 25.89200
C  1.73300 11.13200 25.13100
C  1.99100 12.29500 25.87900
C  2.14300 11.82200 27.15900
C  1.90000 10.42700 27.12100
C  2.16000 13.71900 25.37300
C  2.43400 12.21800 28.53500
O  2.78900 13.29500 28.91700
C  2.11300 10.91800 29.40300
C  3.29900 10.81400 30.29400
O  4.39700 10.24000 30.14500
O  3.03100 11.46200 31.45800
C  4.12700 11.41400 32.43300
H  1.74100 4.03000 27.75400
H  -0.01200 5.88300 21.92000
H  1.45400 12.01800 23.21800
H  3.12700 7.87200 30.32900
H  1.20000 5.74000 29.97800
H  2.92100 4.37600 30.42800
H  3.95400 5.77300 30.83100
H  4.15000 4.89600 29.30500
H  0.06500 7.47100 30.85900
H  0.69500 9.08900 30.64100
H  0.52400 7.97600 33.04300
H  1.47900 9.32900 32.69700
H  1.21200 1.53200 25.14100
H  0.68600 2.32900 26.50100
H  2.50300 2.19900 26.27000
H  -0.47800 1.43400 23.86300
H  1.05400 1.26600 22.86700
H  -0.62900 1.27000 22.18000
H  -0.63800 8.34100 20.76200
H  1.41500 10.46600 20.93800
H  1.73500 8.60000 19.50600
H  0.55500 7.41000 19.29100
H  1.89000 7.07300 20.42100
H  -0.99000 11.04100 20.39400
H  -0.49100 11.92000 21.66900
H  -2.23300 11.16500 22.75700
H  -1.60900 9.48300 22.92500
H  -2.56600 9.91900 21.53400
H  2.76900 13.84400 24.47800
H  2.69000 14.46100 25.96900
H  1.17700 14.14600 25.17100
H  1.23600 11.13400 30.01300
H  5.09900 11.55800 31.96200
H  4.02600 10.44100 32.91600
H  3.95800 12.08400 33.27500
Mg 47.85300 24.59600 28.06000
C  48.42900 27.02700 30.33700
C  46.62700 22.63000 30.53800
C  47.32700 22.24000 25.73000
C  49.25600 26.65700 25.60100
N  47.77700 24.77200 30.22900
C  47.90300 25.89800 30.96500
C  47.47200 25.69700 32.44200
C  47.04300 24.26600 32.48500
C  47.13000 23.82800 30.99300
C  47.74400 23.25600 33.39900
C  46.43700 26.76200 32.97100
C  46.71300 27.31400 34.43700
H  45.53900 27.33300 35.41800
N  47.06900 22.68100 28.16100
C  46.55700 21.99000 29.24900
C  46.09600 20.71200 28.85600
C  46.26000 20.63400 27.45300
C  46.96900 21.87300 27.05900
C  45.49700 19.75900 29.80700
C  45.75300 19.57900 26.48300
O  45.97300 19.52700 25.23900
C  44.88500 18.49200 27.00600
N  48.37500 24.40900 26.00100
C  48.05000 23.34600 25.26400
C  48.36400 23.60200 23.75400
C  48.70500 25.13300 23.67700
C  48.81400 25.41200 25.20500
C  49.48200 22.67600 23.11100
C  47.68100 25.91600 22.91100
C  46.47900 26.53000 23.66000
N  48.75900 26.44400 27.92600
C  49.27600 27.18900 26.85000
C  49.75200 28.50000 27.32900
C  49.46600 28.47000 28.71200
C  48.83100 27.21200 28.98800
C  50.19000 29.56700 26.44800
C  49.54500 29.21200 29.96900
O  50.08300 30.26500 30.15100
C  48.75100 28.32300 31.05600
C  49.79900 28.12300 32.13100
O  50.63800 27.28700 32.11200
O  49.44200 28.85700 33.20100
C  50.19000 28.67100 34.45300
H  46.24600 22.06700 31.39200
H  47.10800 21.45900 24.99900
H  49.65400 27.35700 24.86400
H  48.39000 25.85000 33.01000
H  46.02700 24.15800 32.86400
H  48.60100 23.79300 33.80400
H  48.03000 22.35100 32.86200
H  47.09400 22.92900 34.21100
H  45.41800 26.38300 33.04700
H  46.33400 27.57200 32.25000
H  47.04400 28.35000 34.35500
H  47.49900 26.68100 34.85000
H  44.43200 19.95200 29.93700
H  45.89900 19.93000 30.80500
H  45.72600 18.73600 29.50700
H  44.30900 18.12000 26.15900
H  44.14900 18.94700 27.67000
H  45.46100 17.69600 27.47700
H  47.49700 23.30400 23.16500
H  49.66400 25.32400 23.19700
H  50.29500 23.37400 22.91000
H  49.11300 22.03400 22.31200
H  49.88600 22.01300 23.87500
H  47.22000 25.38500 22.07800
H  48.21400 26.73900 22.43300
H  46.52300 27.61900 23.68000
H  46.43700 26.07500 24.64900
H  45.58100 26.27600 23.09700
H  49.75700 29.69500 25.45600
H  51.24200 29.34000 26.27500
H  50.12900 30.50300 27.00300
H  47.87300 28.84900 31.43100
H  49.42500 28.34300 35.15700
H  50.53400 29.65900 34.76000
H  51.02400 27.97500 34.53300

