158

Mg 1.14600 8.57900 26.81900
C  1.73000 10.46100 29.71500
C  1.06800 5.66800 28.81800
C  1.16800 6.71600 24.05300
C  1.54300 11.38600 24.81900
N  1.70900 8.14100 29.00500
C  1.64100 9.10100 29.99800
C  1.47400 8.39700 31.37800
C  1.56400 6.81200 31.08300
C  1.52000 6.80900 29.49800
C  2.83200 5.94400 31.65500
C  0.18800 8.85000 32.11900
C  0.44000 9.05000 33.65900
H  1.57900 8.33000 34.41800
N  1.12700 6.50800 26.47800
C  0.97700 5.48500 27.39800
C  0.54800 4.25100 26.70100
C  0.62700 4.58000 25.29200
C  0.97700 5.98100 25.25700
C  0.18200 2.99100 27.45800
C  0.29900 3.67100 24.07600
O  0.23600 4.00700 22.88600
C  -0.04800 2.24600 24.26500
N  1.13100 8.99500 24.73100
C  1.23600 8.05000 23.79200
C  1.38800 8.69600 22.36600
C  1.08000 10.12600 22.72600
C  1.13100 10.22900 24.17200
C  2.83000 8.52100 21.85800
C  -0.14100 10.76000 22.12600
C  -1.42600 10.85300 22.90400
N  1.55600 10.55200 27.13700
C  1.71400 11.56500 26.23800
C  2.00100 12.81200 26.96700
C  2.03100 12.46000 28.28800
C  1.71500 11.05200 28.34700
C  2.26800 14.14300 26.32800
C  2.20900 12.91400 29.66300
O  2.36200 14.07300 30.02800
C  1.93400 11.62000 30.61000
C  3.10400 11.40800 31.56300
O  4.13300 10.82500 31.36900
O  2.89700 12.07200 32.72100
C  3.91300 11.90500 33.77100
H  0.87400 4.75600 29.38700
H  1.17400 6.21500 23.08300
H  1.66700 12.31500 24.26000
H  2.30100 8.66500 32.03500
H  0.65800 6.35400 31.48000
H  2.46700 5.47800 32.57000
H  3.74800 6.51500 31.80400
H  3.05100 5.17000 30.92000
H  -0.62100 8.12300 32.04200
H  -0.10400 9.83400 31.75200
H  -0.50000 8.77600 34.14000
H  0.58900 10.12200 33.78300
H  -0.83100 2.84000 27.08400
H  0.08300 3.12600 28.53500
H  0.93100 2.21100 27.32300
H  0.77300 1.75100 24.78300
H  -0.21800 1.85200 23.26200
H  -1.00400 2.15400 24.78100
H  0.66100 8.25300 21.68500
H  1.89100 10.79200 22.43200
H  3.55900 8.29600 22.63600
H  3.16300 9.39600 21.29900
H  2.95000 7.63000 21.24200
H  -0.28900 10.40300 21.10700
H  0.14400 11.79300 21.93000
H  -1.80400 11.87200 22.98600
H  -1.36100 10.41900 23.90100
H  -2.27800 10.36500 22.43000
H  1.49000 14.22100 25.56900
H  3.19800 14.10500 25.76000
H  2.25100 14.95700 27.05300
H  1.01100 11.77600 31.16800
H  4.10800 12.82100 34.33000
H  4.86300 11.46900 33.46200
H  3.55000 11.24700 34.56100
Mg -11.12000 17.14700 41.04600
C  -7.65800 16.69000 40.71800
C  -10.57300 20.46800 39.94900
C  -14.37600 17.63200 40.49700
C  -11.46800 13.68500 41.09400
N  -9.26800 18.38500 40.40000
C  -7.99900 17.99200 40.45800
C  -6.97400 19.14600 40.28700
C  -7.99700 20.40000 40.45500
C  -9.35900 19.76500 40.20100
C  -7.89800 21.23800 41.73200
C  -6.37000 19.22400 38.90400
C  -4.88600 18.89000 38.83200
H  -4.37300 18.06800 37.71300
N  -12.32200 18.86900 40.53600
C  -11.90200 20.03800 39.95200
C  -13.00800 20.84700 39.56400
C  -14.16700 20.14200 40.03600
C  -13.66600 18.80300 40.42300
C  -13.00700 22.28600 39.05000
C  -15.63300 20.60700 39.81200
O  -15.93600 21.66900 39.23400
C  -16.77200 19.81200 40.26400
N  -12.64600 15.78500 40.77000
C  -13.93100 16.29700 40.73300
C  -14.97700 15.18400 40.65700
C  -14.01200 13.85600 40.82600
C  -12.64200 14.43300 40.93400
C  -16.05400 15.31400 41.73800
C  -14.05500 12.74300 39.64200
C  -14.72200 11.41700 39.98800
N  -9.89500 15.39800 41.03200
C  -10.17800 14.08300 41.24300
C  -8.90200 13.38900 41.39800
C  -7.83900 14.31200 41.19500
C  -8.54800 15.60200 40.94300
C  -8.67400 11.97700 41.72100
C  -6.41500 14.54600 41.15400
O  -5.50300 13.74300 41.29100
C  -6.26900 16.09000 40.94800
C  -5.52600 16.54400 42.03500
O  -4.42900 17.13600 41.91000
O  -6.14000 16.39900 43.21000
C  -5.46200 16.88600 44.40900
H  -10.40900 21.52900 39.75200
H  -15.41400 17.67500 40.16000
H  -11.56400 12.60100 41.18500
H  -6.32200 19.09800 41.15800
H  -7.75800 21.08600 39.64300
H  -7.08700 20.87200 42.36200
H  -8.83800 21.11500 42.27100
H  -7.82000 22.29200 41.46800
H  -6.51500 20.17200 38.38700
H  -6.89800 18.48600 38.30000
H  -4.63200 18.49700 39.81600
H  -4.31700 19.81400 38.72800
H  -13.83800 22.26800 38.34600
H  -12.03700 22.37300 38.56000
H  -13.23100 22.97600 39.86300
H  -17.09500 19.11900 39.48700
H  -17.57500 20.52400 40.45300
H  -16.65000 19.29600 41.21600
H  -15.44700 15.12700 39.67500
H  -14.34400 13.28200 41.69100
H  -16.91000 15.31100 41.06200
H  -16.12100 16.23500 42.31700
H  -16.29100 14.55100 42.48000
H  -13.09300 12.47600 39.20500
H  -14.66600 13.19500 38.86000
H  -15.56600 11.37500 39.29900
H  -15.10400 11.34100 41.00600
H  -14.13400 10.54900 39.69300
H  -8.62000 11.79100 42.79400
H  -7.80600 11.53800 41.22900
H  -9.59400 11.46100 41.44500
H  -5.61500 16.34300 40.11300
H  -5.90600 17.84400 44.68000
H  -4.38200 17.03200 44.38300
H  -5.68300 16.16000 45.19100

