158

Mg 47.22100 34.08000 26.61500
C  45.06500 33.08200 29.13100
C  48.24600 36.70500 28.60000
C  48.72800 35.20200 23.86500
C  46.21100 31.23600 24.57500
N  46.66300 34.80000 28.61300
C  45.81800 34.26500 29.50700
C  45.99100 34.81900 30.86800
C  46.65400 36.14000 30.51100
C  47.26500 35.93000 29.17100
C  45.74700 37.41500 30.57800
C  46.89300 33.85300 31.80600
C  46.84300 33.93900 33.32300
H  46.12300 35.09600 33.95500
N  48.21400 35.79200 26.20300
C  48.59800 36.75000 27.17500
C  49.42700 37.69000 26.57000
C  49.55700 37.34800 25.16900
C  48.79700 36.03400 24.98800
C  50.16200 38.80000 27.36200
C  50.07600 38.13500 23.94800
O  50.19400 37.61900 22.76500
C  50.51400 39.53900 24.21200
N  47.56800 33.22300 24.66200
C  48.14100 33.94800 23.72800
C  48.18900 33.23900 22.28200
C  47.72500 31.80800 22.63500
C  47.18000 32.03000 24.05600
C  47.30400 33.92300 21.22000
C  48.82100 30.67300 22.58700
C  49.70500 30.40800 23.79900
N  45.89900 32.42300 26.77900
C  45.56800 31.40300 25.86900
C  44.69700 30.46800 26.59700
C  44.40900 31.16700 27.82700
C  45.11500 32.35800 27.85000
C  44.32700 29.01300 26.17300
C  43.74000 30.93800 29.10000
O  43.02500 30.07300 29.52900
C  44.00500 32.33300 29.87700
C  44.22600 31.87200 31.23300
O  45.11500 31.10000 31.59800
O  43.17900 32.27000 31.99000
C  43.38100 32.05500 33.41800
H  48.64300 37.48000 29.26000
H  49.11800 35.46200 22.87900
H  45.85800 30.36600 24.01700
H  44.99800 34.85900 31.31600
H  47.58400 36.38400 31.02500
H  45.92800 38.06900 31.43000
H  44.67500 37.22300 30.61700
H  45.92100 37.94700 29.64200
H  47.85400 34.27200 31.50600
H  46.87700 32.81000 31.49100
H  47.86000 33.94200 33.71500
H  46.36000 33.04900 33.72500
H  50.78300 38.39100 28.15900
H  49.40400 39.39900 27.86600
H  50.88200 39.34800 26.75400
H  50.53500 39.99900 23.22400
H  51.51500 39.63800 24.63300
H  49.84100 40.04600 24.90400
H  49.15500 33.06900 21.80800
H  46.91500 31.52500 21.96200
H  46.91900 34.91700 21.44500
H  46.45100 33.25300 21.11900
H  47.83800 33.94400 20.27000
H  49.51900 30.97500 21.80600
H  48.34200 29.73500 22.30600
H  49.30200 30.96300 24.64600
H  50.68300 30.77800 23.49000
H  49.67300 29.37200 24.13600
H  44.50300 28.27300 26.95400
H  44.95200 28.75400 25.31900
H  43.27000 29.09400 25.92000
H  43.12000 32.96700 29.93400
H  44.09900 32.74800 33.85700
H  43.52300 30.99600 33.63200
H  42.48800 32.33500 33.97700
Mg -4.39600 25.12200 26.29700
C  -3.23800 26.90500 29.10800
C  -6.25900 23.25400 28.37400
C  -5.47600 23.38600 23.54700
C  -2.76100 27.27600 24.25600
N  -4.74600 25.15700 28.51200
C  -4.13600 25.88000 29.50900
C  -4.77400 25.61800 30.84200
C  -5.49400 24.23600 30.53600
C  -5.60600 24.26800 29.05900
C  -4.65000 23.09200 31.02700
C  -5.68900 26.82600 31.20600
C  -5.76300 27.00500 32.73400
H  -5.39900 25.86700 33.62900
N  -5.63100 23.42900 26.00200
C  -6.34600 22.91300 26.96900
C  -7.28700 21.91000 26.42000
C  -7.04600 21.90900 24.95600
C  -5.95200 22.91600 24.76600
C  -8.27500 21.21200 27.30900
C  -7.67100 21.00000 23.95800
O  -7.30500 20.85900 22.79400
C  -8.90300 20.23200 24.36800
N  -4.14500 25.25800 24.17000
C  -4.63400 24.43000 23.23100
C  -4.26000 24.79200 21.77700
C  -3.57700 26.18000 22.09500
C  -3.49100 26.27500 23.61400
C  -3.31400 23.72400 21.03300
C  -4.28100 27.42400 21.55100
C  -3.68600 28.13400 20.32700
N  -3.10200 26.62700 26.60300
C  -2.48700 27.39600 25.63800
C  -1.63500 28.39200 26.30000
C  -1.95500 28.27100 27.63800
C  -2.79500 27.17700 27.75000
C  -0.78200 29.40900 25.58800
C  -1.76600 28.84800 28.98100
O  -1.10900 29.89100 29.33100
C  -2.40800 27.79100 29.96000
C  -1.27600 27.11800 30.78600
O  -0.51000 26.20000 30.33500
O  -1.43700 27.44300 32.07200
C  -0.79000 26.59900 33.02300
H  -6.83900 22.66200 29.08600
H  -5.87200 22.85200 22.68100
H  -2.19900 27.93700 23.59300
H  -3.93000 25.47300 31.51600
H  -6.51700 24.13900 30.89900
H  -5.21700 22.42300 31.67400
H  -3.67200 23.33500 31.44300
H  -4.41300 22.39300 30.22500
H  -6.72600 26.66000 30.91300
H  -5.33800 27.72700 30.70300
H  -6.77600 27.29300 33.01300
H  -5.14500 27.87900 32.94100
H  -7.95600 21.00500 28.33100
H  -8.34000 20.17400 26.98200
H  -9.12200 21.89400 27.22600
H  -9.59300 20.69400 25.07300
H  -8.51800 19.26700 24.69900
H  -9.52200 19.91100 23.53000
H  -5.17800 24.88000 21.19600
H  -2.59900 26.13700 21.61600
H  -3.28600 22.83400 21.66200
H  -2.29100 24.09600 20.97400
H  -3.87300 23.57100 20.11000
H  -4.39400 28.23500 22.27100
H  -5.25600 27.23000 21.10500
H  -4.38000 28.55100 19.59700
H  -3.02700 27.39500 19.87100
H  -3.01400 28.93700 20.63000
H  0.20200 29.01200 25.83600
H  -0.85900 30.38700 26.06300
H  -1.07300 29.36400 24.53900
H  -2.97600 28.24300 30.77400
H  0.12300 27.07800 33.37800
H  -0.51500 25.61700 32.63700
H  -1.40500 26.46400 33.91200

