158

Mg 46.09100 4.54500 47.86200
C  43.78800 7.34900 47.46600
C  43.37100 2.51600 46.81600
C  48.26000 2.01800 47.38000
C  48.60900 6.82400 48.17700
N  43.83700 4.91300 47.27300
C  43.19900 6.09500 47.16200
C  41.70800 5.94300 46.77900
C  41.59700 4.35100 46.61400
C  42.97100 3.86700 46.94500
C  40.49000 3.74200 47.47500
C  41.26700 6.79600 45.52700
C  42.25500 6.92200 44.31200
H  41.55800 6.94100 42.94800
N  45.83300 2.52600 47.38000
C  44.62200 1.90600 47.03100
C  44.94600 0.51600 46.75100
C  46.32600 0.31200 47.02200
C  46.88300 1.61700 47.34000
C  43.94700 -0.51400 46.21400
C  47.01200 -0.98000 46.75000
O  46.42900 -1.98000 46.43800
C  48.51400 -1.01300 46.70900
N  48.11300 4.35900 47.80300
C  48.83000 3.22500 47.76000
C  50.32200 3.50600 47.80400
C  50.38300 5.03500 47.99000
C  48.95300 5.48200 48.01600
C  50.95900 2.60700 48.96200
C  51.03900 5.86500 46.83500
C  52.09800 6.82100 47.37300
N  46.22100 6.62600 47.82300
C  47.32500 7.40000 48.01000
C  46.96400 8.80500 48.00800
C  45.58900 8.86000 47.81600
C  45.20000 7.47400 47.71800
C  47.90900 9.86200 48.28300
C  44.49700 9.73500 47.74500
O  44.38400 10.98000 47.76000
C  43.27500 8.76400 47.48900
C  42.26300 9.05800 48.47900
O  42.08200 8.22900 49.41100
O  41.54800 10.19000 48.25900
C  40.52100 10.46500 49.26000
H  42.59300 1.85400 46.43200
H  49.02500 1.26100 47.19400
H  49.40300 7.57300 48.17800
H  41.12300 6.43200 47.55800
H  41.49600 4.12100 45.55400
H  39.70200 4.46000 47.70100
H  40.89000 3.22700 48.34800
H  40.06100 2.96900 46.83700
H  40.84300 7.75600 45.82100
H  40.32900 6.38500 45.15300
H  42.94700 6.08200 44.36700
H  42.88100 7.81100 44.22400
H  44.16700 -0.72600 45.16800
H  42.90700 -0.18900 46.23200
H  44.03000 -1.44600 46.77300
H  48.92400 -0.79900 47.69600
H  48.95400 -0.27900 46.03500
H  48.97700 -1.94700 46.39000
H  50.79800 3.26100 46.85400
H  50.79800 5.36500 48.94200
H  51.58200 3.30800 49.51800
H  51.76700 2.05500 48.48200
H  50.34300 1.94700 49.57400
H  50.35500 6.40900 46.18400
H  51.65600 5.12000 46.33200
H  53.09900 6.66500 46.97100
H  52.23400 6.90100 48.45100
H  51.92300 7.84600 47.04600
H  48.36800 9.74700 49.26500
H  47.50700 10.86000 48.11100
H  48.72500 9.94100 47.56600
H  42.85200 9.05000 46.52600
H  40.47500 11.53500 49.45800
H  40.65600 10.02800 50.25000
H  39.54800 10.11900 48.91100
Mg 48.08700 34.00100 26.48000
C  46.45800 32.84400 29.17600
C  48.98900 36.88800 28.17800
C  49.53000 35.23500 23.65100
C  47.03600 31.23300 24.63600
N  47.70300 34.77900 28.41500
C  47.17100 34.01700 29.45600
C  47.23800 34.76200 30.71400
C  47.78100 36.19900 30.33700
C  48.19200 35.97100 28.90000
C  46.65700 37.23100 30.35900
C  48.32400 34.04100 31.62400
C  48.31500 34.32100 33.10100
H  47.11700 35.12500 33.65900
N  49.12800 35.90700 25.96200
C  49.42300 36.90600 26.86700
C  50.28800 37.82600 26.15300
C  50.42500 37.33600 24.85000
C  49.70700 36.10200 24.76700
C  50.92700 39.03800 26.81100
C  51.25800 37.93800 23.67700
O  51.32100 37.42000 22.55500
C  52.16300 39.19500 23.92100
N  48.37400 33.29300 24.51400
C  49.01500 33.98300 23.56300
C  49.05900 33.29800 22.21100
C  48.59000 31.85300 22.59000
C  47.90000 32.10100 23.92500
C  48.24300 33.94600 21.07400
C  49.59400 30.69500 22.68300
C  50.02600 30.00200 21.40900
N  46.86400 32.42600 26.70300
C  46.56300 31.36200 25.90900
C  45.71300 30.46500 26.73200
C  45.57600 31.07500 27.92800
C  46.38300 32.19700 27.89200
C  45.05700 29.11900 26.36000
C  45.03800 30.83600 29.25000
O  44.55500 29.78100 29.64600
C  45.45100 32.08000 30.15500
C  45.86000 31.67500 31.49500
O  46.87400 31.04600 31.75200
O  44.87500 31.99500 32.35500
C  44.77000 31.22000 33.60700
H  49.29000 37.80500 28.68800
H  50.07500 35.48300 22.73700
H  46.72600 30.28800 24.18700
H  46.33400 34.88000 31.31200
H  48.63400 36.58900 30.89300
H  45.93000 37.09600 29.55800
H  47.17100 38.17400 30.17500
H  46.14900 37.27300 31.32300
H  49.19000 34.59700 31.26500
H  48.46700 32.98600 31.38800
H  49.28100 34.62500 33.50300
H  48.24100 33.33600 33.56100
H  50.37300 39.84300 26.32900
H  51.99800 39.10500 26.62100
H  50.69400 39.05400 27.87500
H  52.52200 39.38100 22.90900
H  52.95000 38.93500 24.62900
H  51.56400 40.05000 24.23300
H  50.06100 33.30700 21.78100
H  47.89100 31.38100 21.89900
H  47.40100 33.33300 20.75100
H  48.91100 34.14300 20.23600
H  47.76200 34.85800 21.43000
H  49.19000 29.98300 23.40300
H  50.41900 31.14500 23.23600
H  49.51600 30.48400 20.57500
H  49.71500 28.96800 21.56300
H  51.10300 30.16500 21.43200
H  44.38200 29.24200 25.51400
H  44.54900 28.67500 27.21600
H  45.79500 28.37100 26.07200
H  44.53300 32.66400 30.21700
H  45.31800 30.28300 33.69900
H  43.70500 31.10900 33.81200
H  45.13400 31.82000 34.44100

