158

Mg 49.11700 47.36000 42.12700
C  45.78200 47.49000 41.25100
C  49.31900 44.18600 40.75100
C  52.42200 47.70900 41.87100
C  48.85400 50.73800 43.11900
N  47.67900 45.96900 41.05000
C  46.34400 46.24400 40.90300
C  45.69900 45.05000 40.11200
C  46.79800 43.88900 40.16200
C  48.02400 44.68300 40.65300
C  46.48800 42.71900 41.20800
C  45.31200 45.54300 38.69200
C  43.90600 45.07500 38.16400
H  43.80800 44.57100 36.78900
N  50.66000 46.04000 41.57500
C  50.50000 44.75200 41.15200
C  51.87400 44.18600 41.00000
C  52.82800 45.22500 41.22000
C  51.97500 46.40700 41.59900
C  52.19900 42.78100 40.44600
C  54.37800 45.11400 41.12000
O  54.89700 44.05700 40.87000
C  55.20800 46.28700 41.30300
N  50.38100 48.97900 42.33400
C  51.77100 48.81000 42.26300
C  52.54500 50.11500 42.62800
C  51.37800 51.07000 43.07900
C  50.08400 50.18800 42.85400
C  53.65700 49.94200 43.68400
C  51.19700 52.32800 42.25100
C  51.02900 53.59600 43.11100
N  47.67700 48.89000 42.19600
C  47.68800 50.21000 42.72600
C  46.39700 50.82300 42.60700
C  45.58200 49.75100 42.03200
C  46.42300 48.62900 41.82200
C  45.80900 52.14300 42.91400
C  44.32600 49.37200 41.67800
O  43.26900 49.93700 41.74900
C  44.32500 47.96400 41.18200
C  43.42600 47.09100 41.96600
O  43.54100 46.81000 43.10900
O  42.54900 46.56700 41.10200
C  41.51200 45.62200 41.50200
H  49.31200 43.14100 40.43600
H  53.44600 48.00300 41.63000
H  48.85300 51.66800 43.69000
H  44.77300 44.77100 40.61500
H  47.03300 43.47500 39.18200
H  45.68000 42.86900 41.92500
H  47.38700 42.63600 41.81800
H  46.20700 41.77200 40.74700
H  46.06400 45.25600 37.95700
H  45.22500 46.62900 38.68400
H  43.15800 45.86300 38.24100
H  43.57200 44.30800 38.86300
H  51.30300 42.16100 40.46200
H  52.76200 42.10300 41.08700
H  52.61300 42.82100 39.43900
H  54.84400 47.05500 40.62100
H  56.26000 46.07200 41.11900
H  55.10400 46.53200 42.36000
H  53.02500 50.45100 41.70800
H  51.39700 51.28700 44.14700
H  53.31800 49.04100 44.19500
H  53.63400 50.86600 44.26100
H  54.57500 49.74400 43.12900
H  50.38400 52.29900 41.52600
H  52.11200 52.40700 41.66300
H  52.01400 53.98300 43.37200
H  50.26500 53.35000 43.84900
H  50.51300 54.38400 42.56300
H  45.77000 52.27100 43.99600
H  44.74800 52.13800 42.66600
H  46.34300 53.02600 42.56300
H  43.96100 48.02200 40.15600
H  42.04500 44.70200 41.74400
H  40.78200 45.42500 40.71800
H  40.99800 46.03300 42.37000
Mg 48.33700 35.36700 28.27900
C  46.79200 33.51600 30.79700
C  48.58300 38.00900 30.50200
C  49.95400 37.18200 25.79500
C  47.73300 32.80400 26.12900
N  47.93000 35.63700 30.50000
C  47.33300 34.73000 31.29100
C  47.52100 35.15400 32.70600
C  47.51800 36.70900 32.50000
C  47.99000 36.82200 31.04700
C  46.13000 37.33900 32.65200
C  48.80400 34.67900 33.34700
C  48.76000 34.59800 34.81100
H  47.70300 35.47100 35.57500
N  49.07700 37.32600 28.14200
C  49.09900 38.22400 29.18800
C  49.72900 39.46700 28.73600
C  50.18300 39.28700 27.35300
C  49.79800 37.82700 27.04400
C  49.65100 40.64500 29.68000
C  50.91400 40.25900 26.40100
O  51.30800 39.93100 25.26500
C  51.38200 41.60000 26.90700
N  48.71500 35.05200 26.28000
C  49.37600 35.90700 25.47100
C  49.49200 35.39500 24.02200
C  48.98300 33.91700 24.26100
C  48.52100 33.85200 25.68400
C  48.64000 36.15200 22.94800
C  50.00400 32.85500 23.99200
C  49.87500 32.19100 22.55800
N  47.36300 33.52600 28.37900
C  47.14500 32.63100 27.39000
C  46.41700 31.46600 27.86100
C  46.25400 31.79500 29.25100
C  46.78000 33.02100 29.47900
C  46.02000 30.29500 27.09800
C  45.68800 31.33700 30.56800
O  45.15000 30.23800 30.89500
C  45.87800 32.51700 31.57700
C  46.43700 31.94000 32.77200
O  47.54500 31.45600 32.85900
O  45.51900 32.11900 33.76500
C  45.95800 31.83700 35.17800
H  48.60500 38.80300 31.25100
H  50.41700 37.63800 24.91700
H  47.57400 31.97700 25.43300
H  46.60400 34.79000 33.16800
H  48.21000 37.15400 33.21600
H  45.47000 36.82600 33.35100
H  45.71400 37.47800 31.65400
H  46.24200 38.35100 33.04100
H  49.58200 35.39300 33.07600
H  49.16200 33.79900 32.81100
H  49.80500 34.72200 35.09600
H  48.57500 33.53500 34.96600
H  50.59400 40.68500 30.22500
H  48.75200 40.75700 30.28700
H  49.67700 41.52700 29.04000
H  52.27300 41.89000 26.35100
H  51.64200 41.65000 27.96400
H  50.56800 42.30500 26.74000
H  50.54700 35.40700 23.74800
H  48.09200 33.85600 23.63500
H  48.72000 37.23300 23.05400
H  47.60200 35.83200 23.04200
H  49.04600 35.83000 21.98900
H  50.03000 32.09800 24.77700
H  50.96900 33.35500 23.91400
H  49.36400 32.92200 21.93200
H  49.24700 31.30400 22.64000
H  50.85100 31.96000 22.13100
H  45.44700 29.61500 27.72700
H  46.93700 29.83800 26.72600
H  45.42000 30.70400 26.28500
H  44.87300 32.92300 31.69500
H  46.43800 32.75800 35.51000
H  46.60500 30.96800 35.29900
H  45.08700 31.68800 35.81500

