158

Mg 47.32000 24.81700 27.66300
C  48.50400 26.86700 30.33800
C  46.64400 22.39700 29.99700
C  46.42700 22.81000 25.11100
C  48.37900 27.29600 25.35200
N  47.54700 24.68300 29.86100
C  47.90100 25.64900 30.75900
C  47.87900 25.19500 32.25200
C  47.44700 23.69600 32.03800
C  47.11000 23.59700 30.55000
C  48.46800 22.66300 32.48100
C  46.88500 26.11600 33.13400
C  47.15100 25.99100 34.63200
H  46.42000 26.86200 35.68600
N  46.61200 22.86000 27.58800
C  46.41200 22.02600 28.69800
C  45.90000 20.75100 28.18200
C  45.94200 20.82800 26.74700
C  46.32900 22.18000 26.39100
C  45.69300 19.56700 29.05300
C  45.78400 19.68600 25.80800
O  45.99200 19.68100 24.59700
C  45.17400 18.40300 26.35600
N  47.60000 24.92900 25.53000
C  46.95900 24.07900 24.65900
C  46.78800 24.61100 23.23700
C  47.38500 26.06900 23.34500
C  47.71800 26.15900 24.85200
C  47.46500 23.79000 22.05800
C  46.56300 27.27100 22.81400
C  47.14300 27.92900 21.55400
N  48.28900 26.63800 27.77100
C  48.76600 27.49300 26.73800
C  49.45700 28.61900 27.33900
C  49.26500 28.46400 28.70000
C  48.64100 27.19000 28.95900
C  50.08900 29.76200 26.65600
C  49.58800 29.08500 29.95800
O  50.17200 30.16100 30.19000
C  49.10400 28.05400 31.06400
C  50.09500 27.71700 32.06700
O  51.06200 26.99300 31.84800
O  49.85200 28.35600 33.24300
C  50.75600 28.22000 34.41200
H  46.32100 21.72500 30.79500
H  46.02700 22.17600 24.31700
H  48.56500 28.11500 24.65400
H  48.88000 25.34300 32.65800
H  46.58400 23.53900 32.68400
H  47.94900 21.90700 33.07000
H  49.21900 23.05500 33.16700
H  49.05500 22.20600 31.68500
H  45.83500 25.88400 32.95300
H  47.01700 27.17800 32.92800
H  48.22500 25.93000 34.81200
H  46.82300 24.99200 34.91800
H  44.65800 19.23000 28.99600
H  45.82900 19.76300 30.11600
H  46.43700 18.82900 28.75200
H  45.81300 18.01200 27.14800
H  45.21000 17.71800 25.50900
H  44.16300 18.56400 26.72900
H  45.78800 24.76100 22.83000
H  48.36100 26.02500 22.86000
H  48.30300 24.31700 21.60100
H  46.81500 23.67700 21.19100
H  47.79800 22.83700 22.47000
H  46.48000 28.10100 23.51600
H  45.56400 26.96700 22.50100
H  47.51700 28.95300 21.57700
H  46.26400 28.12300 20.93900
H  47.78500 27.32000 20.91800
H  49.56500 30.70500 26.80900
H  50.22500 29.59200 25.58800
H  51.13000 29.93400 26.93000
H  48.27800 28.62500 31.49000
H  51.25700 29.11300 34.78800
H  51.47200 27.40800 34.28700
H  50.09600 28.13500 35.27500
Mg 9.18800 48.29500 25.66000
C  6.95200 49.00000 28.18800
C  11.79900 49.63600 27.41800
C  11.01300 47.71900 22.92500
C  6.20600 47.66300 23.64000
N  9.31600 49.41800 27.56600
C  8.28900 49.40500 28.47100
C  8.83300 49.85500 29.88100
C  10.26500 50.44200 29.51900
C  10.51300 49.73100 28.10500
C  10.51000 51.96800 29.70700
C  8.97900 48.62300 30.82900
C  8.40400 48.84500 32.26900
H  8.33200 47.56200 33.05900
N  11.17000 48.49200 25.25500
C  12.08700 48.96000 26.20600
C  13.42900 48.89100 25.60500
C  13.28100 48.25200 24.26800
C  11.80000 48.14200 24.07300
C  14.70300 49.23000 26.35900
C  14.33200 47.86200 23.33100
O  14.12500 47.49000 22.16700
C  15.74300 47.96300 23.68900
N  8.64600 47.92000 23.46900
C  9.62800 47.66300 22.63500
C  9.03800 47.25300 21.23000
C  7.54700 47.12500 21.47400
C  7.45600 47.62400 22.93200
C  9.46600 48.12700 20.00000
C  6.90700 45.67700 21.26400
C  5.93800 45.55100 20.11900
N  6.99700 48.23900 25.85600
C  5.97900 47.94000 25.03400
C  4.71900 47.89800 25.74200
C  5.05800 48.32800 27.03800
C  6.45600 48.51100 26.99200
C  3.30900 47.71400 25.16100
C  4.49800 48.60500 28.29300
O  3.34700 48.53600 28.71500
C  5.68700 48.98800 29.20600
C  5.77700 47.87300 30.14200
O  6.39200 46.87000 29.83200
O  5.13100 48.22200 31.25400
C  4.73400 47.07000 32.13200
H  12.64000 49.98700 28.01800
H  11.69500 47.42900 22.12300
H  5.30800 47.41500 23.07000
H  8.25200 50.57900 30.45200
H  11.03800 50.14200 30.22700
H  9.68800 52.40300 30.27500
H  10.56600 52.38000 28.69900
H  11.43100 52.23300 30.22600
H  10.02200 48.36700 31.01700
H  8.50300 47.75400 30.37500
H  7.39800 49.25400 32.17400
H  8.93900 49.68800 32.70600
H  15.32700 48.34200 26.46000
H  14.57500 49.58200 27.38300
H  15.28300 49.97100 25.80800
H  16.02300 48.93100 24.10300
H  16.41300 47.68800 22.87500
H  15.79700 47.23700 24.50100
H  9.41800 46.26300 20.97600
H  7.01700 47.87700 20.88900
H  8.71400 48.45400 19.28200
H  10.06200 47.45100 19.38600
H  10.11600 48.96500 20.25300
H  6.22400 45.48500 22.09100
H  7.62500 44.86100 21.18500
H  5.12800 44.93500 20.50900
H  6.43000 44.94900 19.35500
H  5.59300 46.50300 19.71600
H  2.78500 46.88500 25.63500
H  3.36900 47.51800 24.09000
H  2.82200 48.68600 25.24800
H  5.56100 49.96600 29.67100
H  4.97500 47.16100 33.19100
H  5.00100 46.08700 31.74400
H  3.65900 46.95800 31.99600

