158

Mg -1.63400 17.64100 25.79900
C  -2.29100 15.51700 28.62000
C  -1.91100 20.32600 27.99600
C  -1.25300 19.65900 23.13900
C  -1.44100 14.78400 23.80200
N  -2.23900 17.88200 28.05300
C  -2.24500 16.87900 29.04100
C  -2.05800 17.43800 30.49800
C  -2.18500 18.97000 30.19500
C  -2.01700 19.09100 28.66500
C  -3.53500 19.63600 30.59100
C  -0.83600 16.94000 31.34800
C  -0.44600 17.80500 32.60100
H  -0.35900 17.05700 33.90800
N  -1.52300 19.73800 25.56400
C  -1.69200 20.66800 26.61100
C  -1.67200 21.99600 26.03000
C  -1.59000 21.76200 24.65100
C  -1.46200 20.33100 24.39800
C  -1.81100 23.29500 26.86800
C  -1.75000 22.73400 23.51800
O  -1.88600 22.48200 22.30200
C  -1.82100 24.23400 23.89500
N  -1.30900 17.28500 23.78600
C  -1.19400 18.27600 22.84800
C  -0.97100 17.72400 21.45500
C  -0.83300 16.16000 21.68700
C  -1.18300 16.03700 23.18000
C  -2.10400 18.17500 20.54800
C  0.61500 15.68600 21.33400
C  1.66400 16.04900 22.38900
N  -1.91700 15.56800 26.03800
C  -1.84700 14.53100 25.11000
C  -2.10200 13.25000 25.74800
C  -2.30500 13.57200 27.17400
C  -2.17900 15.03400 27.26500
C  -1.94700 11.97300 25.06300
C  -2.49100 13.06600 28.54200
O  -2.50300 11.88900 28.93000
C  -2.55200 14.30400 29.52700
C  -1.44900 14.06400 30.45300
O  -0.28100 14.04900 30.14600
O  -1.94400 13.70000 31.65300
C  -1.17200 12.96800 32.66300
H  -2.09100 21.20800 28.61500
H  -1.18900 20.26700 22.23400
H  -1.38000 13.89700 23.16700
H  -2.96100 17.12900 31.02500
H  -1.37500 19.52200 30.67200
H  -4.07700 18.88000 31.15900
H  -4.08800 20.09600 29.77100
H  -3.38900 20.49000 31.25200
H  0.01200 16.87300 30.66700
H  -1.20700 16.04500 31.84800
H  -1.14500 18.61400 32.81600
H  0.51600 18.25300 32.35100
H  -2.62800 23.94400 26.55200
H  -0.90500 23.88000 26.71000
H  -2.11300 23.16700 27.90700
H  -2.83500 24.43000 24.24400
H  -1.66100 24.78100 22.96600
H  -1.03000 24.50200 24.59600
H  -0.00900 18.13600 21.14800
H  -1.56500 15.51300 21.20400
H  -2.86200 18.63200 21.18400
H  -2.57300 17.33600 20.03300
H  -1.67400 18.96600 19.93300
H  0.94600 16.28600 20.48600
H  0.64100 14.60500 21.19500
H  1.33900 16.86100 23.04000
H  2.52400 16.40200 21.82100
H  1.95400 15.20800 23.01900
H  -1.14800 11.90900 24.32300
H  -2.77700 11.79700 24.37900
H  -2.00800 11.09600 25.70800
H  -3.51600 14.26300 30.03400
H  -0.38600 12.30600 32.29900
H  -1.86700 12.47700 33.34400
H  -0.58800 13.78600 33.08600
Mg 17.27000 -1.99600 28.28900
C  16.21900 0.19200 30.87500
C  19.16800 -3.73000 30.78500
C  18.69800 -3.72900 25.85100
C  15.36100 -0.16000 26.06400
N  17.73100 -1.63500 30.57900
C  16.99800 -0.80400 31.40100
C  17.17100 -1.15300 32.82700
C  18.34000 -2.31300 32.84100
C  18.42100 -2.67600 31.34600
C  19.67100 -1.85300 33.52300
C  15.93300 -1.68000 33.54500
C  15.74300 -1.04600 34.91400
H  16.88200 -0.44600 35.76300
N  18.66100 -3.51800 28.30300
C  19.25100 -4.17000 29.35900
C  20.08800 -5.25800 28.91100
C  20.15700 -5.16400 27.47600
C  19.14400 -4.12400 27.13000
C  20.85800 -6.12700 29.87100
C  21.10700 -5.92600 26.49800
O  21.04800 -5.72800 25.28100
C  22.07000 -7.00800 27.08300
N  17.08800 -1.90600 26.30600
C  17.74900 -2.75000 25.47700
C  17.09100 -2.74100 23.98400
C  15.98300 -1.68000 24.13700
C  16.10400 -1.27200 25.61900
C  18.16500 -2.52300 22.85500
C  14.51000 -2.13600 23.72900
C  14.38200 -2.19000 22.17800
N  16.07700 -0.26400 28.36000
C  15.30300 0.30800 27.39500
C  14.62100 1.40900 27.96400
C  14.94500 1.39200 29.29900
C  15.79200 0.33100 29.53100
C  13.64400 2.37700 27.34500
C  14.81000 2.17000 30.49100
O  14.22300 3.24500 30.77100
C  15.51900 1.36300 31.63300
C  16.42400 2.26600 32.39000
O  17.58600 2.59600 32.09400
O  15.66300 2.61200 33.58600
C  16.31700 3.52200 34.54400
H  19.62700 -4.36500 31.54500
H  19.10100 -4.28400 25.00100
H  14.75600 0.31100 25.28600
H  17.54600 -0.25200 33.31400
H  18.08800 -3.27900 33.27900
H  19.55200 -0.87500 33.98800
H  20.47000 -1.80800 32.78400
H  20.00400 -2.50700 34.32900
H  15.87000 -2.76200 33.65900
H  15.05400 -1.44300 32.94500
H  15.23100 -1.75700 35.56200
H  15.04200 -0.22500 34.76200
H  20.94200 -7.17100 29.56800
H  20.25800 -6.20000 30.77800
H  21.81100 -5.61700 30.01000
H  22.51500 -6.60000 27.99100
H  22.80500 -7.02300 26.27900
H  21.62000 -7.97400 27.31500
H  16.66500 -3.73900 23.87400
H  16.21500 -0.82800 23.49800
H  19.11800 -2.20700 23.28000
H  17.84400 -1.83600 22.07200
H  18.22700 -3.50800 22.39200
H  13.87600 -1.31800 24.07200
H  14.28900 -3.08500 24.21900
H  13.68600 -3.01200 22.01300
H  15.31600 -2.44800 21.67900
H  13.96300 -1.24800 21.82300
H  13.14000 1.95000 26.47700
H  14.18400 3.24100 26.95800
H  13.05700 2.75200 28.18300
H  14.60200 0.98800 32.08800
H  15.76800 3.44900 35.48300
H  16.45600 4.54800 34.20300
H  17.30700 3.10800 34.73600

