158

Mg 53.47200 24.64000 44.54500
C  50.69400 26.78700 44.16900
C  51.38800 22.01800 44.23300
C  56.22900 22.78000 43.98200
C  55.54200 27.41400 44.86000
N  51.27700 24.48600 44.10500
C  50.30700 25.44900 44.07400
C  48.90600 24.95400 44.09700
C  49.20100 23.47300 44.63600
C  50.70200 23.26300 44.31400
C  48.96800 23.09000 46.08800
C  48.12300 25.01500 42.79800
C  48.59700 24.14700 41.56900
H  49.64200 24.66500 40.59900
N  53.76500 22.70700 44.14600
C  52.79500 21.77500 44.13100
C  53.42900 20.49800 44.05900
C  54.80800 20.61400 44.01500
C  54.99500 22.08400 44.04700
C  52.69400 19.18400 44.08400
C  55.89700 19.52200 44.15600
O  55.59300 18.33600 43.95900
C  57.40800 19.75000 44.35300
N  55.66700 25.11400 44.15800
C  56.53800 24.10100 44.06100
C  58.01200 24.57700 43.97000
C  57.74800 26.06900 44.40700
C  56.23600 26.24800 44.52100
C  59.17600 23.93500 44.74300
C  58.34500 27.13000 43.48600
C  59.37800 28.09200 44.07100
N  53.20800 26.69900 44.52700
C  54.14700 27.71400 44.76000
C  53.52600 28.97300 44.79100
C  52.14300 28.65100 44.55800
C  51.94300 27.28400 44.43800
C  54.17500 30.27300 44.92900
C  50.85300 29.29100 44.42700
O  50.53500 30.48500 44.50200
C  49.85200 28.09000 44.11700
C  49.16800 28.45100 42.82300
O  49.67700 28.52900 41.72700
O  47.81600 28.68400 43.03100
C  47.01100 28.77500 41.79300
H  50.90500 21.05100 44.38300
H  57.02600 22.13600 43.60300
H  56.25900 28.18200 45.16000
H  48.44700 25.57000 44.87000
H  48.53000 22.85600 44.03900
H  48.37300 23.86300 46.57200
H  49.79300 22.87000 46.76600
H  48.36500 22.18200 46.06200
H  48.23700 26.05200 42.48300
H  47.06100 24.78000 42.87000
H  47.74800 23.69600 41.05500
H  49.03400 23.28700 42.07500
H  52.15000 18.93000 43.17500
H  51.90700 19.24700 44.83600
H  53.32800 18.32000 44.28300
H  57.86200 19.84200 43.36600
H  57.97600 18.95900 44.84200
H  57.50400 20.63800 44.97800
H  58.38000 24.51500 42.94600
H  58.06200 26.33400 45.41600
H  59.94300 23.54100 44.07700
H  58.75900 23.04000 45.20400
H  59.70200 24.59600 45.43100
H  57.50800 27.62600 42.99400
H  58.94100 26.57800 42.76000
H  60.37400 28.04700 43.63000
H  59.54100 27.88600 45.12900
H  59.00400 29.10700 43.93500
H  54.69000 30.59700 44.02400
H  54.93500 30.17400 45.70400
H  53.55200 31.10700 45.25200
H  49.06500 28.11100 44.87100
H  46.66700 29.79300 41.60900
H  46.12400 28.20400 42.06800
H  47.37000 28.31900 40.87100
Mg -5.41400 25.91300 26.04900
C  -4.06400 27.05200 29.06200
C  -7.44100 23.64300 27.93200
C  -6.32700 24.45400 23.27400
C  -2.87800 27.73600 24.40500
N  -5.69600 25.46400 28.16100
C  -5.05400 26.04800 29.19100
C  -5.53600 25.54600 30.58000
C  -6.42800 24.31300 30.18500
C  -6.60500 24.51800 28.66200
C  -5.75800 22.96200 30.65500
C  -6.34400 26.65400 31.24400
C  -6.71500 26.51900 32.75800
H  -6.12100 25.34800 33.62400
N  -6.85000 24.37000 25.65100
C  -7.62600 23.62500 26.50600
C  -8.48500 22.74200 25.71300
C  -8.16700 22.93600 24.29800
C  -7.06200 23.89200 24.35400
C  -9.51600 21.84600 26.29200
C  -8.84000 22.32600 23.13300
O  -8.41700 22.44200 21.98700
C  -10.00700 21.42400 23.23200
N  -4.86900 26.12500 24.17300
C  -5.37400 25.42700 23.13000
C  -4.68300 25.71300 21.79100
C  -3.87100 26.99300 22.12200
C  -3.87400 26.96500 23.67200
C  -3.97600 24.44200 21.24300
C  -4.55100 28.29200 21.58900
C  -3.68500 29.17400 20.65300
N  -3.91200 27.30700 26.57900
C  -3.00900 27.92200 25.77600
C  -2.13500 28.75000 26.56500
C  -2.56700 28.43900 27.87200
C  -3.61000 27.60200 27.80600
C  -1.10400 29.67000 26.12400
C  -2.25300 28.69100 29.27000
O  -1.47100 29.44700 29.86100
C  -3.24500 27.79100 30.08300
C  -2.45300 27.07700 31.05500
O  -1.81000 26.01600 30.95200
O  -2.57000 27.80900 32.21800
C  -1.89100 27.11400 33.39200
H  -8.07600 22.98800 28.53200
H  -6.63300 23.98000 22.33900
H  -2.12100 28.20800 23.77400
H  -4.74200 25.17500 31.22900
H  -7.39300 24.46500 30.67000
H  -5.10100 23.07600 31.51700
H  -5.18100 22.45600 29.88000
H  -6.52400 22.22300 30.89000
H  -7.20200 26.88200 30.61100
H  -5.71900 27.54700 31.27500
H  -7.80300 26.48900 32.80400
H  -6.34800 27.44500 33.20100
H  -10.46900 22.30300 26.02600
H  -9.55300 21.97300 27.37400
H  -9.43300 20.79200 26.02700
H  -9.84200 20.42200 23.62800
H  -10.36800 21.20600 22.22600
H  -10.80400 21.86600 23.83100
H  -5.51300 25.98700 21.14100
H  -2.87100 26.96000 21.69000
H  -4.46800 24.20600 20.29900
H  -3.99600 23.56400 21.88800
H  -2.90600 24.61300 21.13300
H  -4.73900 28.90200 22.47300
H  -5.54700 28.10800 21.18600
H  -2.76800 28.63800 20.40800
H  -3.49200 30.18300 21.01800
H  -4.25600 29.30400 19.73400
H  -0.31700 29.25300 25.49600
H  -0.51000 29.94700 26.99400
H  -1.48700 30.59100 25.68600
H  -3.96200 28.43600 30.59100
H  -0.80700 27.22700 33.40900
H  -2.03000 26.03400 33.42000
H  -2.09800 27.54800 34.37100

