158

Mg 25.06500 2.04800 29.83400
C  27.56100 2.11400 32.51100
C  22.73700 2.32900 32.01700
C  22.98400 1.97100 27.18800
C  27.82800 1.32900 27.60600
N  25.21200 2.33300 31.96700
C  26.21500 2.45100 32.88800
C  25.67300 2.48200 34.32000
C  24.16200 2.47300 34.04000
C  24.01100 2.35600 32.58200
C  23.39200 1.52400 34.97400
C  26.20800 3.72800 35.16600
C  26.91600 3.39900 36.48100
H  26.88200 4.39500 37.62900
N  23.08500 2.16800 29.62400
C  22.22900 2.29400 30.64600
C  20.85000 2.20300 30.16800
C  20.90500 1.95600 28.77500
C  22.38400 2.04700 28.46300
C  19.68600 2.15200 31.12100
C  19.80600 1.66600 27.73900
O  20.04400 1.51600 26.57400
C  18.44800 1.58200 28.06200
N  25.32500 1.66100 27.71100
C  24.32300 1.72900 26.79500
C  24.77500 1.54900 25.35200
C  26.31600 1.54500 25.56500
C  26.54400 1.48100 27.04800
C  24.10300 0.30300 24.61100
C  27.19300 2.57100 24.72200
C  27.82600 3.77600 25.47000
N  27.25100 1.78700 29.99800
C  28.11600 1.47700 29.00400
C  29.46600 1.39000 29.63300
C  29.25300 1.57000 30.99500
C  27.93100 1.94000 31.13600
C  30.77600 1.04800 28.96000
C  29.86900 1.53200 32.32400
O  31.05200 1.24300 32.69400
C  28.78100 1.95800 33.35400
C  28.68500 0.89900 34.41300
O  27.94100 -0.04100 34.41400
O  29.33800 1.38000 35.58000
C  29.04500 0.69600 36.80900
H  21.99000 2.47300 32.80100
H  22.30600 1.84000 26.34200
H  28.51200 1.01400 26.81600
H  25.91400 1.52800 34.78900
H  23.91000 3.48200 34.36700
H  22.60700 2.10800 35.45400
H  24.06800 1.05200 35.68700
H  22.93300 0.78100 34.32100
H  25.41900 4.44000 35.40800
H  26.94300 4.20700 34.51900
H  27.96900 3.30700 36.21400
H  26.50800 2.43100 36.77000
H  19.12300 1.22100 31.05000
H  18.93000 2.86100 30.78400
H  19.95900 2.27800 32.16900
H  18.44200 0.61600 28.56800
H  17.82100 1.55600 27.17000
H  18.00000 2.36500 28.67300
H  24.40800 2.49300 24.94900
H  26.69600 0.59500 25.19200
H  23.29700 -0.01300 25.27300
H  24.86300 -0.46800 24.48400
H  23.77500 0.76700 23.68100
H  26.55600 3.03400 23.96900
H  28.00100 2.12200 24.14500
H  28.88900 3.53800 25.51100
H  27.47000 3.88100 26.49500
H  27.74800 4.72600 24.94000
H  30.63500 1.14600 27.88400
H  31.07800 0.05000 29.27800
H  31.50800 1.82300 29.18900
H  29.09500 2.90600 33.79100
H  29.95000 0.35400 37.31200
H  28.34400 -0.13800 36.84200
H  28.55500 1.38500 37.49800
Mg 42.83900 42.04300 25.82100
C  41.87100 44.15600 28.60800
C  44.75800 40.22700 28.17100
C  44.05800 40.35800 23.32800
C  41.50000 44.39100 23.65300
N  43.17900 42.19500 28.05700
C  42.60300 42.98200 29.00400
C  42.69400 42.39700 30.39900
C  43.60200 41.19500 30.17200
C  43.88200 41.19300 28.71300
C  44.89700 41.20000 31.09200
C  41.36500 42.16100 31.16500
C  41.30700 41.10700 32.31500
H  40.61700 41.54000 33.66200
N  44.06700 40.40500 25.79200
C  44.84300 39.84400 26.82300
C  45.58800 38.71800 26.28800
C  45.30500 38.69800 24.89300
C  44.38800 39.83600 24.59400
C  46.58400 37.90500 27.15400
C  45.79400 37.77300 23.85600
O  45.35400 37.80900 22.72300
C  46.73700 36.70900 24.19800
N  42.63000 42.19700 23.80700
C  43.36700 41.47700 22.97400
C  43.24400 41.98500 21.53800
C  42.12600 43.05500 21.64100
C  42.12500 43.25600 23.13000
C  44.58700 42.55400 20.98400
C  40.75500 42.67700 20.99900
C  39.78800 41.80400 21.90600
N  41.92700 43.91200 25.99600
C  41.37000 44.74400 24.98000
C  40.67100 45.88300 25.54700
C  40.85300 45.67200 26.95200
C  41.57700 44.44400 27.13800
C  40.09300 47.03200 24.80100
C  40.51400 46.24300 28.25800
O  39.88400 47.26600 28.49200
C  41.04200 45.23300 29.38500
C  41.76500 45.90500 30.42500
O  42.87700 46.40000 30.31300
O  41.13500 45.79300 31.59200
C  41.76900 46.27800 32.87200
H  45.31400 39.64400 28.90800
H  44.51200 39.89700 22.44800
H  40.91500 45.12900 23.09900
H  43.27100 43.17600 30.89800
H  43.19600 40.22500 30.45700
H  45.04400 42.19300 31.51700
H  45.83300 41.08800 30.54500
H  45.02300 40.51400 31.93000
H  40.63200 41.90200 30.40000
H  41.18600 43.13500 31.62000
H  42.32000 40.71600 32.40500
H  40.78800 40.20900 31.98000
H  46.40200 36.83100 27.13200
H  46.71900 38.35600 28.13700
H  47.59200 37.92600 26.74100
H  47.51900 37.10700 24.84400
H  47.14200 36.43300 23.22500
H  46.32300 35.85300 24.73000
H  42.96700 41.09600 20.97100
H  42.48900 44.03100 21.31700
H  45.42900 42.19300 21.57500
H  44.54400 43.63900 20.88100
H  44.86200 42.18600 19.99600
H  40.91900 42.16100 20.05300
H  40.32100 43.67600 20.96000
H  40.06100 41.65500 22.95000
H  39.71400 40.79700 21.49600
H  38.79900 42.25100 21.79900
H  40.89000 47.62300 24.35000
H  39.54700 47.60300 25.55200
H  39.44500 46.78600 23.95900
H  40.14900 44.86400 29.88800
H  42.82900 46.53200 32.84600
H  41.67400 45.40800 33.52300
H  41.22500 47.13000 33.27900

