158

Mg 24.41100 -7.32200 47.41400
C  26.84400 -4.98500 46.46200
C  22.20700 -5.92900 45.20700
C  22.37000 -10.15700 47.66900
C  26.75500 -8.95300 49.24700
N  24.57700 -5.61500 45.98900
C  25.63400 -4.78900 45.75100
C  25.27200 -3.78500 44.70600
C  23.76600 -3.98500 44.45100
C  23.46300 -5.27600 45.26800
C  22.91000 -2.78600 44.80500
C  26.09800 -3.91400 43.40200
C  26.75500 -2.70600 42.84100
H  26.05100 -1.92400 41.69600
N  22.42300 -7.92800 46.59700
C  21.70800 -7.14800 45.70400
C  20.50600 -7.84900 45.34900
C  20.40100 -9.01200 46.23800
C  21.79200 -9.13800 46.84600
C  19.45100 -7.15400 44.42300
C  19.26200 -10.00000 46.33800
O  18.26800 -9.77000 45.67400
C  19.35100 -11.27600 47.07300
N  24.51800 -9.22900 48.35600
C  23.53600 -10.20000 48.42000
C  24.05300 -11.48800 49.02500
C  25.41700 -11.07300 49.58400
C  25.61000 -9.63300 49.06500
C  23.12600 -12.19800 50.05300
C  26.49400 -12.07800 49.03000
C  27.64200 -12.30700 50.11600
N  26.46300 -7.07500 47.75800
C  27.22100 -7.75600 48.65000
C  28.49200 -7.07500 48.71300
C  28.38500 -6.00500 47.89100
C  27.14500 -6.02000 47.27600
C  29.68700 -7.46700 49.51600
C  29.11500 -4.81400 47.34400
O  30.25100 -4.43400 47.52300
C  28.07800 -4.13700 46.40600
C  27.77200 -2.71200 46.76700
O  27.26700 -2.35100 47.79100
O  28.14200 -1.85300 45.75600
C  27.77300 -0.46400 45.89300
H  21.58300 -5.36200 44.51300
H  21.78900 -11.06800 47.82600
H  27.55100 -9.37600 49.86300
H  25.42700 -2.81300 45.17500
H  23.52700 -4.20400 43.41000
H  21.91500 -2.74900 44.36000
H  23.40600 -1.93500 44.34000
H  22.68900 -2.59300 45.85500
H  25.52300 -4.31900 42.57000
H  26.82200 -4.69700 43.62800
H  27.80400 -2.87300 42.59600
H  26.95400 -1.99100 43.63900
H  18.76500 -7.92800 44.07900
H  20.00500 -6.67100 43.61900
H  18.83200 -6.46300 44.99500
H  20.21200 -11.89800 46.83100
H  18.51900 -11.97000 46.95600
H  19.39000 -10.98600 48.12300
H  24.16700 -12.12700 48.14900
H  25.42200 -11.15300 50.67100
H  22.38100 -11.52300 50.47400
H  23.79700 -12.55600 50.83300
H  22.59900 -13.02800 49.58100
H  26.91100 -11.63600 48.12600
H  26.07500 -13.04200 48.74300
H  27.71100 -11.46500 50.80500
H  28.59000 -12.39400 49.58600
H  27.53900 -13.28200 50.59400
H  29.84600 -8.52900 49.33000
H  29.82400 -7.16600 50.55500
H  30.49700 -6.98200 48.97000
H  28.45500 -4.15300 45.38300
H  28.36800 0.08500 45.16400
H  27.81000 -0.00700 46.88200
H  26.77800 -0.25300 45.50000
Mg 47.34400 35.10500 27.82300
C  45.31500 33.29100 30.24500
C  47.59600 37.55700 30.31500
C  48.36700 37.19500 25.48400
C  46.47100 32.77000 25.47000
N  46.42500 35.40200 29.97900
C  45.84000 34.48900 30.78700
C  45.96900 34.84800 32.23800
C  46.22800 36.34300 32.19700
C  46.87100 36.41400 30.77600
C  45.06500 37.31600 32.36100
C  47.21200 34.07400 32.78600
C  47.35700 34.01400 34.34000
H  46.46700 34.82200 35.32500
N  47.95800 37.08600 27.89700
C  48.14500 37.87000 29.05500
C  48.80400 39.10800 28.65900
C  49.15100 39.00300 27.20800
C  48.51300 37.72700 26.78000
C  49.23600 40.16100 29.69600
C  49.83800 39.93800 26.31900
O  50.14400 39.72400 25.15800
C  50.25900 41.26200 26.96300
N  47.12600 35.10700 25.76400
C  47.76100 36.03600 24.99200
C  48.03700 35.58000 23.55800
C  47.27400 34.19700 23.52200
C  46.93500 33.98700 25.06100
C  47.68000 36.57500 22.45600
C  48.23100 33.02500 22.94900
C  47.60900 32.07400 21.88300
N  46.17100 33.37700 27.80500
C  46.04600 32.45900 26.77900
C  45.40700 31.27400 27.26700
C  45.05900 31.59000 28.62200
C  45.47000 32.89000 28.88600
C  45.02100 30.13900 26.49900
C  44.38700 31.04800 29.85100
O  43.90900 29.97700 30.15100
C  44.33500 32.35700 30.82700
C  44.42600 31.94000 32.29000
O  45.40500 31.41500 32.82500
O  43.18700 32.02300 32.78300
C  42.89300 31.40700 34.13500
H  47.78200 38.37200 31.01700
H  48.84500 37.80300 24.71300
H  46.24400 32.08700 24.64800
H  45.07500 34.60300 32.81000
H  46.97800 36.73000 32.88600
H  45.07300 37.76000 33.35600
H  44.14500 36.75500 32.19900
H  44.90800 38.16600 31.69700
H  48.12400 34.45000 32.32200
H  47.15200 33.02700 32.48900
H  48.40200 34.32100 34.38400
H  47.36200 32.95500 34.59800
H  50.24300 40.53500 29.51200
H  49.31300 39.62900 30.64400
H  48.50300 40.91200 29.98900
H  49.30900 41.69800 27.27400
H  50.72800 41.81700 26.15000
H  51.04600 41.11000 27.70100
H  49.11100 35.44400 23.42700
H  46.40200 34.29200 22.87400
H  48.57600 36.80300 21.88000
H  47.22300 37.39500 23.01100
H  46.94200 36.24100 21.72600
H  48.51000 32.34000 23.75000
H  49.17200 33.36800 22.52000
H  47.30700 31.16700 22.40700
H  48.22200 31.85100 21.01000
H  46.70600 32.50200 21.45000
H  45.89300 29.80900 25.93500
H  44.15400 30.43600 25.90900
H  44.75500 29.41400 27.26800
H  43.35100 32.81900 30.74700
H  43.47400 30.53100 34.42500
H  41.83400 31.16500 34.23200
H  42.98500 32.25200 34.81700

