158

Mg 8.33500 48.17100 28.00400
C  6.54500 47.69900 30.97600
C  11.16000 48.44000 29.80600
C  9.88800 48.99600 25.16800
C  5.20500 48.81700 26.31200
N  8.77400 47.99700 30.19900
C  7.92500 47.76100 31.28700
C  8.66400 47.70200 32.66400
C  10.13900 48.14400 32.22200
C  10.05800 48.27200 30.64000
C  10.68800 49.50900 32.76400
C  8.59100 46.40100 33.51300
C  8.54700 46.64300 35.09900
H  9.18000 45.52600 35.92900
N  10.22700 48.53000 27.58700
C  11.30600 48.54100 28.46800
C  12.57600 48.58000 27.76800
C  12.21700 48.76000 26.40600
C  10.73600 48.74700 26.29300
C  13.91600 48.41800 28.46600
C  13.10900 48.96500 25.16000
O  12.69400 49.20200 24.03900
C  14.53400 48.93600 25.17000
N  7.65100 48.73100 26.05600
C  8.48800 48.92900 25.04400
C  7.74000 49.24800 23.72500
C  6.27200 49.07600 24.07000
C  6.38500 48.83400 25.51000
C  8.11100 50.62000 22.95400
C  5.55000 47.94600 23.32800
C  5.67000 47.91000 21.81200
N  6.29000 48.16200 28.42700
C  5.17300 48.52700 27.66000
C  4.04000 48.35200 28.49800
C  4.52700 48.08800 29.80200
C  5.91400 47.98300 29.73300
C  2.60300 48.28300 27.95300
C  4.09400 47.85200 31.16200
O  2.97600 47.79700 31.68400
C  5.38500 47.52800 31.94200
C  5.35000 46.22400 32.54700
O  5.55700 45.16300 31.95500
O  5.07400 46.29500 33.89700
C  4.83600 45.05400 34.57000
H  12.07500 48.24900 30.37100
H  10.32300 49.31900 24.21900
H  4.26700 49.04000 25.79900
H  8.19900 48.42100 33.33800
H  10.78300 47.31500 32.51500
H  11.43000 49.28600 33.53000
H  9.96300 50.12400 33.29700
H  11.26100 50.10000 32.05000
H  9.38400 45.66600 33.37500
H  7.69400 45.85300 33.22100
H  7.50600 46.67300 35.42200
H  8.99900 47.61300 35.31000
H  14.35400 47.51000 28.05100
H  13.90500 48.35500 29.55400
H  14.52700 49.29100 28.23600
H  14.90000 49.63800 25.91800
H  15.01900 49.26500 24.25200
H  14.82000 47.90900 25.39800
H  7.95700 48.44700 23.01800
H  5.91300 50.06600 23.78900
H  8.47900 50.33900 21.96800
H  8.84800 51.23600 23.46900
H  7.24500 51.27900 22.88800
H  4.47300 48.03800 23.46700
H  5.74200 46.95000 23.72700
H  6.03800 46.94200 21.47400
H  6.41900 48.67400 21.60300
H  4.70500 48.15200 21.36600
H  2.07300 49.23500 27.95300
H  1.95700 47.60600 28.51200
H  2.58600 48.05300 26.88800
H  5.55300 48.24700 32.74400
H  4.76300 45.36200 35.61300
H  5.64600 44.32600 34.52500
H  3.90300 44.61200 34.22000
Mg -0.96900 44.01500 26.54800
C  1.34000 43.65700 29.18000
C  -3.34200 42.71000 28.56500
C  -3.12200 43.88800 23.92600
C  1.74200 44.73300 24.30400
N  -1.02600 43.47600 28.69200
C  0.02800 43.46700 29.60800
C  -0.47100 43.12700 30.98400
C  -1.91700 42.56900 30.71700
C  -2.10900 42.91400 29.21900
C  -2.05800 41.08400 31.02600
C  -0.53300 44.43200 31.89500
C  -0.86800 44.44800 33.38100
H  -0.83800 43.14100 34.09700
N  -2.95900 43.54500 26.30200
C  -3.80400 43.05500 27.29200
C  -5.08600 42.94100 26.76100
C  -5.13600 43.23700 25.38600
C  -3.70600 43.60900 25.18200
C  -6.31300 42.53600 27.65200
C  -6.21000 43.02200 24.32800
O  -5.97400 43.25100 23.14900
C  -7.58400 42.71500 24.81500
N  -0.67200 44.29400 24.45500
C  -1.80500 44.23200 23.60200
C  -1.34800 44.45200 22.14500
C  0.21200 44.90000 22.27200
C  0.47000 44.65400 23.74500
C  -1.54900 43.25200 21.13300
C  0.52300 46.36800 21.85100
C  1.81600 46.64600 21.09000
N  1.16700 44.13400 26.62100
C  2.08100 44.46200 25.68100
C  3.30500 44.53700 26.39500
C  3.09300 44.19900 27.69200
C  1.73400 44.01800 27.80100
C  4.59900 45.03000 25.72000
C  3.77300 44.18900 29.02200
O  4.93500 44.30500 29.40300
C  2.65000 43.82300 30.03400
C  2.92500 42.45500 30.59700
O  2.32300 41.43400 30.23800
O  3.96000 42.47500 31.47700
C  4.03400 41.28200 32.36500
H  -4.03500 42.14700 29.19500
H  -3.68600 43.86800 22.99100
H  2.63400 45.01200 23.74000
H  0.11400 42.38200 31.52200
H  -2.54600 43.12800 31.41000
H  -2.99900 40.93500 31.55700
H  -1.22400 40.85900 31.69000
H  -2.02700 40.61200 30.04400
H  -0.94400 45.30000 31.37900
H  0.52600 44.68200 31.84700
H  -1.81000 44.98800 33.48100
H  -0.14100 45.12600 33.82500
H  -7.15300 43.18900 27.42000
H  -6.14200 42.74900 28.70700
H  -6.62900 41.49500 27.58000
H  -7.52200 41.68300 25.16200
H  -8.20100 42.91000 23.93800
H  -7.90200 43.40900 25.59300
H  -1.82900 45.26200 21.59600
H  0.92300 44.24000 21.77400
H  -1.62900 42.27100 21.60100
H  -0.78000 43.29200 20.36200
H  -2.47500 43.42500 20.58500
H  0.53600 46.91800 22.79200
H  -0.24700 46.76600 21.19000
H  2.66300 46.28500 21.67400
H  1.81800 47.72600 20.94300
H  1.77800 46.14000 20.12600
H  4.96200 45.84600 26.34500
H  4.33800 45.31600 24.70100
H  5.45600 44.35900 25.67600
H  2.57000 44.48700 30.89400
H  3.02100 40.88700 32.44900
H  4.44500 41.52800 33.34400
H  4.76200 40.60300 31.92200

