158

Mg 8.67400 4.61900 27.44600
C  9.46000 2.56200 30.23400
C  6.28500 6.11100 29.36300
C  7.56300 6.07400 24.64200
C  10.12200 2.00100 25.43400
N  7.88300 4.24300 29.49900
C  8.54500 3.52700 30.57000
C  8.02400 4.08300 31.88300
C  6.84100 5.00600 31.55300
C  6.97800 5.10500 30.02500
C  5.43000 4.47700 31.91100
C  9.07400 4.87500 32.67600
C  9.18100 4.74700 34.20000
H  10.49200 4.73800 35.00700
N  7.17700 5.92700 27.06300
C  6.35500 6.51600 28.02900
C  5.48000 7.46800 27.41600
C  5.86500 7.51100 26.00700
C  6.95500 6.50700 25.86800
C  4.27100 8.23800 28.07400
C  5.30700 8.41100 24.88400
O  5.70500 8.39000 23.73900
C  4.18000 9.38500 25.17800
N  8.82200 4.06000 25.30100
C  8.30000 4.95300 24.38500
C  8.70100 4.45600 22.99600
C  9.46100 3.09800 23.19900
C  9.45900 3.02000 24.73500
C  7.63700 4.35500 21.96500
C  10.90100 3.14600 22.52800
C  11.20400 2.14700 21.34300
N  9.84800 2.77100 27.66200
C  10.28300 1.81100 26.83100
C  10.91500 0.74300 27.55500
C  10.71300 1.13100 28.93300
C  9.91400 2.25600 28.94800
C  11.58100 -0.48800 26.90400
C  11.04500 0.71800 30.25600
O  11.85300 -0.15200 30.66600
C  10.24300 1.67100 31.20100
C  9.26100 0.89700 32.06400
O  8.21000 0.38900 31.69700
O  9.68400 0.97500 33.36800
C  8.67700 0.39400 34.32500
H  5.63300 6.82900 29.86500
H  7.39000 6.69200 23.75900
H  10.44000 1.21700 24.74300
H  7.75500 3.20000 32.46100
H  6.91200 6.01400 31.96200
H  5.71900 3.59200 32.47800
H  4.81300 4.12100 31.08500
H  4.89700 5.19700 32.53100
H  9.01500 5.91500 32.35300
H  10.08000 4.60100 32.35700
H  8.47700 4.00800 34.58200
H  8.68300 5.64100 34.57600
H  4.08300 7.99900 29.12000
H  3.33200 7.96900 27.59000
H  4.13600 9.28200 27.79300
H  4.51700 10.10600 25.92300
H  3.24200 8.91000 25.46600
H  3.88400 9.93300 24.28300
H  9.45200 5.18100 22.68100
H  8.99400 2.20700 22.77700
H  6.62200 4.45700 22.34900
H  7.63700 3.39300 21.45200
H  7.86600 5.00900 21.12400
H  11.62300 2.98600 23.32800
H  11.24500 4.10800 22.14700
H  10.32000 1.53200 21.17700
H  11.95700 1.45100 21.71300
H  11.57700 2.60700 20.42800
H  11.14600 -0.57000 25.90800
H  11.37800 -1.34800 27.54200
H  12.64400 -0.27000 26.80000
H  10.91800 2.29200 31.79000
H  9.09600 0.66300 35.29500
H  8.68900 -0.69600 34.34300
H  7.67300 0.79400 34.18100
Mg 47.89000 15.57900 28.44300
C  45.77600 15.29700 31.28700
C  50.27600 17.14500 30.47100
C  49.86400 16.25100 25.65800
C  45.27700 14.40900 26.44300
N  47.97100 16.25100 30.57600
C  46.93400 15.98600 31.56200
C  47.47300 16.47700 32.88600
C  48.65300 17.43800 32.48400
C  49.04100 16.88400 31.09400
C  48.33400 18.97200 32.48900
C  47.90300 15.21100 33.73400
C  48.11400 15.44700 35.26000
H  48.02300 16.85700 35.89000
N  49.86300 16.34200 28.12700
C  50.63000 16.91800 29.11600
C  51.99400 17.25800 28.55900
C  51.86400 17.13800 27.12400
C  50.50600 16.50900 26.90700
C  53.17400 17.87600 29.30800
C  52.86600 17.39900 26.00100
O  52.63000 17.31300 24.77600
C  54.27500 17.85200 26.35700
N  47.58200 15.38700 26.40400
C  48.51200 15.82500 25.47000
C  47.90700 15.59500 24.06200
C  46.63300 14.82800 24.36800
C  46.44000 14.89100 25.85200
C  47.76800 16.82800 23.16300
C  46.57700 13.33600 23.87800
C  47.04100 12.19900 24.81700
N  46.02500 14.91800 28.78600
C  45.11700 14.42800 27.83800
C  44.00700 13.82700 28.61200
C  44.15400 14.22900 29.94800
C  45.44300 14.88600 30.02400
C  42.80300 13.19900 27.98000
C  43.51600 14.30300 31.31000
O  42.40000 14.01600 31.65600
C  44.63700 14.87300 32.27200
C  44.01500 15.89700 33.13500
O  43.79300 17.00900 32.76800
O  43.63100 15.38900 34.30800
C  42.72500 16.22800 35.04300
H  51.04900 17.54400 31.13200
H  50.43900 16.52900 24.77200
H  44.61500 13.85300 25.77600
H  46.70900 16.99600 33.46400
H  49.51400 17.36900 33.14800
H  48.79500 19.44300 33.35800
H  47.26700 19.18100 32.57500
H  48.77600 19.42100 31.60000
H  48.83100 14.83500 33.30500
H  47.14600 14.43200 33.63500
H  49.10700 15.05400 35.47700
H  47.36400 14.88100 35.81200
H  52.98400 17.85700 30.38100
H  53.33200 18.89700 28.96200
H  54.05500 17.25100 29.16200
H  54.14400 18.83400 26.81200
H  54.96800 17.95600 25.52200
H  54.68600 17.05000 26.97100
H  48.62800 15.00200 23.49900
H  45.75600 15.27800 23.90300
H  46.71800 17.09800 23.04700
H  48.17800 16.62500 22.17300
H  48.36000 17.63500 23.59400
H  47.16300 13.22900 22.96500
H  45.55100 13.06900 23.62500
H  46.18800 11.64900 25.21400
H  47.60400 12.62400 25.64800
H  47.58100 11.44200 24.24900
H  41.86500 13.43800 28.48100
H  42.93100 12.12300 27.85700
H  42.63200 13.54000 26.95900
H  45.09100 14.17000 32.97000
H  41.85500 16.30800 34.39100
H  43.04300 17.21300 35.38300
H  42.32800 15.68300 35.89900

