158

Mg 9.18300 47.00400 27.20600
C  7.48300 46.49100 30.25300
C  12.07100 47.50300 28.95700
C  10.64400 48.18800 24.37500
C  6.19600 47.17300 25.55400
N  9.76500 46.76400 29.54500
C  8.85000 46.63400 30.55800
C  9.56100 46.97300 31.88600
C  10.97000 47.52600 31.41700
C  10.97700 47.24200 29.85700
C  11.33400 48.96100 31.77900
C  9.68600 45.80700 32.91300
C  9.37500 46.16000 34.34600
H  9.70800 45.01200 35.32900
N  11.08800 47.69800 26.77700
C  12.16700 47.68200 27.57000
C  13.40700 47.89600 26.74300
C  12.95400 48.12100 25.42000
C  11.53900 47.94900 25.45600
C  14.85900 47.87600 27.27700
C  13.78500 48.36000 24.18800
O  13.24000 48.58700 23.12000
C  15.33900 48.28200 24.26200
N  8.45300 47.60600 25.22400
C  9.30800 48.01400 24.24700
C  8.56300 48.20200 22.89000
C  7.12700 47.66400 23.26500
C  7.22600 47.43300 24.72800
C  8.52400 49.75100 22.39700
C  6.76100 46.39600 22.51800
C  5.35700 46.45100 21.83400
N  7.23200 46.73100 27.70900
C  6.10600 46.79600 26.94500
C  4.90200 46.71000 27.79000
C  5.45300 46.48300 29.05300
C  6.85800 46.56200 29.00300
C  3.41100 46.61300 27.29100
C  5.05800 46.19900 30.43200
O  3.96100 46.02400 30.95300
C  6.37000 46.25800 31.27300
C  6.55800 45.00200 31.97200
O  6.66600 43.90100 31.47700
O  6.49000 45.20900 33.33400
C  6.46300 43.91400 34.08700
H  12.92100 47.65600 29.62600
H  10.99200 48.51900 23.39400
H  5.26500 47.33400 25.00600
H  8.94300 47.71700 32.38900
H  11.72100 46.89600 31.89500
H  11.57300 49.67200 30.98800
H  12.19400 48.87200 32.44300
H  10.59600 49.41500 32.44000
H  10.69500 45.40100 32.98400
H  9.01200 45.02500 32.56300
H  8.34400 46.47000 34.51600
H  9.88900 47.09500 34.57100
H  15.44700 47.08300 26.81600
H  14.78400 47.65700 28.34200
H  15.21300 48.89600 27.12500
H  15.86700 48.89800 24.99100
H  15.56700 48.76000 23.30900
H  15.67700 47.24600 24.24600
H  8.99900 47.50800 22.17100
H  6.38800 48.46500 23.26900
H  9.45900 50.24500 22.66000
H  7.67000 50.26800 22.83500
H  8.52500 49.73700 21.30700
H  6.76600 45.47000 23.09200
H  7.49800 46.32100 21.71900
H  5.40000 46.32000 20.75200
H  4.81000 47.37900 22.00700
H  4.92800 45.56600 22.30300
H  2.79500 45.90600 27.84700
H  3.26200 46.29800 26.25800
H  2.95600 47.57600 27.51900
H  6.28700 47.13700 31.91200
H  7.30900 43.26500 33.86200
H  5.58200 43.29600 33.91300
H  6.43100 44.12000 35.15700
Mg -5.26600 24.89900 25.98500
C  -3.72700 26.53600 28.53700
C  -6.33900 22.44100 28.22600
C  -6.86100 23.37600 23.48500
C  -3.64300 27.13700 23.78600
N  -5.21500 24.76700 28.09900
C  -4.62900 25.56800 28.96200
C  -4.88000 25.23700 30.40400
C  -5.52000 23.79700 30.26500
C  -5.69100 23.62200 28.76700
C  -4.72200 22.68200 30.94500
C  -5.78000 26.27000 31.06900
C  -5.50700 26.78400 32.49400
H  -5.00200 25.71400 33.42300
N  -6.49100 23.17700 25.89100
C  -6.65900 22.21200 26.89800
C  -7.30700 21.09800 26.39100
C  -7.54300 21.40100 24.95300
C  -7.03300 22.76700 24.72100
C  -7.65100 19.94300 27.27700
C  -8.11900 20.38500 23.91300
O  -8.24400 20.76400 22.74300
C  -8.53300 19.02700 24.39700
N  -5.27000 25.26300 23.92700
C  -6.06900 24.48500 23.08800
C  -5.97900 24.91300 21.59200
C  -4.87400 26.02900 21.72200
C  -4.62700 26.23900 23.23300
C  -5.68300 23.81200 20.53500
C  -5.20400 27.28400 20.94800
C  -4.05900 27.86000 20.05100
N  -3.71000 26.36400 26.04200
C  -3.15700 27.15900 25.07200
C  -2.21300 28.05200 25.77300
C  -2.36600 27.84000 27.12900
C  -3.36900 26.84400 27.22400
C  -1.34200 29.06700 25.13600
C  -1.99100 28.26800 28.43900
O  -1.15000 29.11400 28.87800
C  -2.84700 27.41400 29.42100
C  -1.85400 26.72700 30.31700
O  -0.91800 26.08700 29.87800
O  -2.06700 27.12100 31.59300
C  -1.03400 26.71700 32.53200
H  -6.67000 21.83800 29.07400
H  -7.29700 22.83800 22.64100
H  -3.25700 27.90400 23.11100
H  -3.91800 25.19000 30.91500
H  -6.49500 23.71600 30.74600
H  -4.26800 23.11900 31.83500
H  -3.96100 22.23100 30.30800
H  -5.36600 21.83900 31.19600
H  -6.72000 25.75000 31.25300
H  -5.97400 27.14100 30.44300
H  -6.25300 27.39500 33.00200
H  -4.61600 27.37700 32.28900
H  -7.10900 19.08500 26.87900
H  -8.71000 19.69500 27.22100
H  -7.52800 19.87300 28.35800
H  -9.14500 18.55200 23.63000
H  -9.28100 19.15000 25.18000
H  -7.82300 18.27400 24.73800
H  -6.93300 25.38700 21.36300
H  -3.94900 25.53100 21.43100
H  -5.39900 22.87400 21.01300
H  -4.86200 24.11500 19.88500
H  -6.58500 23.77700 19.92300
H  -5.81300 28.00500 21.49200
H  -5.83800 26.88900 20.15400
H  -4.47700 28.41600 19.21100
H  -3.39100 27.17100 19.53400
H  -3.31500 28.38300 20.65300
H  -0.31400 28.92900 25.47000
H  -1.61000 30.04600 25.53400
H  -1.48800 29.08100 24.05600
H  -3.30700 28.16000 30.06900
H  -1.42400 27.28600 33.37500
H  -0.01400 27.08000 32.40500
H  -0.99800 25.64400 32.72100

