158

Mg 43.78000 42.64800 26.22000
C  42.63200 44.82400 28.90500
C  45.03600 40.59900 28.51700
C  44.61700 40.57700 23.75800
C  42.79700 45.10200 23.90300
N  43.79900 42.75200 28.51700
C  43.25600 43.67400 29.35800
C  43.37600 43.18400 30.87100
C  44.30000 41.90200 30.66900
C  44.42000 41.67000 29.16500
C  45.67300 42.04600 31.42100
C  41.99000 42.92000 31.52300
C  41.63800 43.66200 32.84300
H  42.68900 43.55000 34.02300
N  44.76700 40.92400 26.13000
C  45.24800 40.25100 27.17300
C  46.09900 39.08700 26.74300
C  45.85000 38.98200 25.35800
C  45.04700 40.18000 25.00100
C  46.97900 38.32100 27.69600
C  46.41600 37.96800 24.31500
O  46.27400 38.10100 23.09400
C  47.09800 36.86300 24.89200
N  43.78400 42.86800 24.21500
C  44.13600 41.85100 23.34500
C  44.00800 42.27600 21.87900
C  43.07400 43.51000 22.02700
C  43.19500 43.83500 23.48600
C  45.36700 42.57600 21.15700
C  41.53100 43.20100 21.62100
C  41.03400 41.67800 21.88600
N  42.90700 44.54800 26.32900
C  42.65600 45.45900 25.31800
C  42.10300 46.64600 25.85500
C  42.13800 46.41500 27.21600
C  42.65900 45.16500 27.49000
C  41.49100 47.79900 25.17100
C  41.76000 46.97200 28.44600
O  41.26600 48.08700 28.63100
C  42.01800 45.94500 29.60100
C  43.01000 46.62400 30.54100
O  44.22800 46.63800 30.58400
O  42.31700 47.33100 31.51900
C  43.11800 47.94500 32.53600
H  45.42000 39.91000 29.27200
H  44.74700 39.83800 22.96400
H  42.33300 45.77600 23.18100
H  43.85900 44.04100 31.34000
H  43.84800 40.96600 30.99600
H  46.50700 42.16500 30.73000
H  45.70000 41.15800 32.05200
H  45.65200 42.89700 32.10200
H  41.81600 41.85300 31.66600
H  41.29700 43.22500 30.73900
H  40.71100 43.15800 33.11700
H  41.52600 44.74500 32.78500
H  46.60500 37.33100 27.95600
H  47.07200 38.88800 28.62300
H  47.97000 38.15300 27.27600
H  46.93700 36.06200 24.17100
H  46.58600 36.52000 25.79100
H  48.11500 37.23800 25.01200
H  43.47800 41.45000 21.40400
H  43.37700 44.31200 21.35200
H  45.22000 42.08600 20.19400
H  46.23200 42.17100 21.68100
H  45.47900 43.65500 21.05000
H  41.53300 43.33700 20.54000
H  40.82000 43.84900 22.13600
H  40.84800 41.14600 20.95300
H  40.15500 41.60000 22.52600
H  41.71700 41.07100 22.48000
H  41.99300 48.05100 24.23700
H  41.41700 48.63900 25.86200
H  40.50000 47.48300 24.84500
H  41.07200 45.60900 30.02700
H  43.73300 47.15500 32.96700
H  42.49400 48.31800 33.34800
H  43.69000 48.71600 32.02000
Mg -11.90100 37.60800 42.21800
C  -9.76500 35.20000 40.92000
C  -9.96900 40.08600 40.82000
C  -14.45300 39.84400 42.64200
C  -14.12900 34.91100 43.10400
N  -10.07200 37.59800 40.94800
C  -9.43100 36.47100 40.55800
C  -8.15400 36.91100 39.77200
C  -8.19600 38.50800 39.75200
C  -9.45200 38.78000 40.58500
C  -6.92100 39.21600 40.36300
C  -7.98100 36.24400 38.34500
C  -6.67500 35.42400 38.11300
H  -5.81000 35.74400 36.90100
N  -12.10600 39.70700 41.91500
C  -11.19000 40.55400 41.36600
C  -11.64200 41.86200 41.33800
C  -12.96600 41.84200 41.92700
C  -13.24700 40.39100 42.20700
C  -10.84100 43.04400 40.83100
C  -13.79100 43.04500 42.16900
O  -13.32100 44.17100 42.01100
C  -15.13900 42.93000 42.69400
N  -13.91100 37.46400 42.72000
C  -14.75700 38.52300 42.92500
C  -16.10400 38.04600 43.49900
C  -15.95700 36.56000 43.71300
C  -14.59700 36.23200 43.10500
C  -16.76000 38.82100 44.71100
C  -17.12200 35.61200 43.10300
C  -17.47000 34.45000 44.05600
N  -11.91600 35.45700 42.18700
C  -12.83900 34.58600 42.67400
C  -12.30500 33.25100 42.53500
C  -11.09900 33.42400 41.79400
C  -10.93400 34.81600 41.62400
C  -13.00000 32.04100 42.92600
C  -9.93200 32.74700 41.15000
O  -9.63200 31.59100 41.03600
C  -8.99200 33.95000 40.60100
C  -7.70100 33.86500 41.24500
O  -6.59900 33.67100 40.63800
O  -7.88800 33.85800 42.61800
C  -6.66000 34.07800 43.35500
H  -9.31400 40.87300 40.44100
H  -15.36100 40.44300 42.73400
H  -14.74700 34.13000 43.55000
H  -7.22100 36.65300 40.27300
H  -8.22900 38.93800 38.75100
H  -6.69800 40.05400 39.70200
H  -6.10800 38.49000 40.37600
H  -7.12300 39.57800 41.37100
H  -8.01800 36.91000 37.48300
H  -8.84000 35.59000 38.19700
H  -6.92000 34.37900 37.92300
H  -5.96300 35.41100 38.93800
H  -10.13200 43.37700 41.58900
H  -11.42500 43.91300 40.53000
H  -10.24200 42.87100 39.93600
H  -15.50600 43.95600 42.71600
H  -15.15600 42.49800 43.69500
H  -15.75000 42.28600 42.06100
H  -16.80600 38.12800 42.66900
H  -15.80800 36.27400 44.75500
H  -16.16000 39.65300 45.08100
H  -17.23900 38.25400 45.51000
H  -17.55500 39.36200 44.19800
H  -16.78600 35.23000 42.13900
H  -17.96100 36.29700 42.98700
H  -16.67600 34.17600 44.75100
H  -17.67200 33.50600 43.55000
H  -18.40500 34.60400 44.59400
H  -13.25100 31.47500 42.02900
H  -13.82000 32.29900 43.59600
H  -12.29400 31.49900 43.55500
H  -8.86200 33.72800 39.54200
H  -6.83700 34.98300 43.93600
H  -5.74200 34.13200 42.77000
H  -6.55600 33.23000 44.03200

