158

Mg 45.83600 3.94600 48.61400
C  43.99100 6.90000 47.86400
C  43.15600 2.13600 47.52700
C  47.78400 1.13700 48.71300
C  48.67500 5.88900 49.06600
N  43.73800 4.53500 47.81300
C  43.21800 5.74200 47.69900
C  41.74700 5.64800 47.29300
C  41.52400 4.11300 47.23800
C  42.84900 3.50400 47.68100
C  40.33200 3.52300 48.02400
C  41.33800 6.46100 46.00900
C  42.14600 6.49400 44.74600
H  41.29700 6.32400 43.46800
N  45.50600 1.92300 48.20500
C  44.39500 1.41300 47.66400
C  44.59200 -0.09300 47.40700
C  45.97100 -0.38400 47.67300
C  46.50600 0.91700 48.21000
C  43.52300 -0.93100 46.77300
C  46.64200 -1.72900 47.38300
O  46.05600 -2.71800 46.97700
C  48.09400 -1.96400 47.48100
N  47.99600 3.59700 48.73800
C  48.44600 2.37300 48.96100
C  49.96300 2.47600 49.26500
C  50.24100 4.02300 49.36500
C  48.88400 4.52900 48.98400
C  50.43500 1.69000 50.52500
C  51.34200 4.62800 48.47800
C  51.04500 4.85800 47.03200
N  46.31400 5.94600 48.57700
C  47.47600 6.58800 48.73500
C  47.25600 8.03100 48.57600
C  45.92000 8.15700 48.29800
C  45.37200 6.86400 48.26400
C  48.32600 9.10300 48.70600
C  44.84900 9.16700 48.00700
O  44.88100 10.38100 47.85600
C  43.56600 8.37100 47.60200
C  42.50200 8.87500 48.45100
O  42.10400 8.45900 49.49200
O  41.76200 9.84200 47.83600
C  40.35300 9.96000 48.37000
H  42.30900 1.56600 47.14000
H  48.33000 0.22500 48.96100
H  49.52200 6.53200 49.31600
H  41.21000 6.09800 48.12800
H  41.35000 3.87600 46.18800
H  39.54100 4.27300 48.03100
H  40.75400 3.33900 49.01200
H  39.91700 2.72200 47.41300
H  41.30000 7.46500 46.43200
H  40.31800 6.14700 45.79100
H  43.02400 5.84900 44.72600
H  42.67600 7.44100 44.84100
H  43.85900 -1.27000 45.79300
H  42.54500 -0.45000 46.80300
H  43.44200 -1.84100 47.36600
H  48.65600 -1.12000 47.08200
H  48.43000 -2.82700 46.90600
H  48.35300 -2.15400 48.52300
H  50.54200 1.96400 48.49600
H  50.34600 4.38000 50.38900
H  50.79000 0.68600 50.28900
H  49.61000 1.49900 51.21200
H  51.21600 2.25800 51.03100
H  52.19200 3.94700 48.43200
H  51.77100 5.53900 48.89500
H  50.72900 5.90000 46.98700
H  50.29700 4.15300 46.66900
H  51.93600 4.68100 46.42900
H  48.92200 9.17900 47.79600
H  48.86500 9.07100 49.65300
H  47.74800 10.02600 48.75700
H  43.35600 8.73000 46.59400
H  39.83300 10.23300 47.45200
H  40.23400 10.70900 49.15300
H  40.05800 8.98000 48.74500
Mg 26.46900 49.95600 26.01900
C  24.72800 51.54600 28.53900
C  28.61400 48.69800 28.44800
C  28.32900 48.61000 23.54200
C  24.19500 51.17400 23.64000
N  26.68500 50.14100 28.25700
C  25.81000 50.83900 29.07700
C  26.19100 50.69200 30.52800
C  27.60600 50.04700 30.44300
C  27.63800 49.55100 28.97900
C  28.77700 51.00500 30.66100
C  25.19700 49.85300 31.35300
C  24.78000 50.40200 32.80100
H  25.88300 50.52000 33.83700
N  28.24700 48.87600 25.99900
C  28.92500 48.50400 27.08000
C  30.06700 47.68500 26.65500
C  30.02000 47.64100 25.25300
C  28.85400 48.42300 24.81100
C  31.07900 47.04200 27.61000
C  31.00100 46.92900 24.31000
O  30.95900 47.12600 23.09200
C  32.13900 46.01500 24.79100
N  26.31500 49.96700 23.85600
C  27.18100 49.34300 23.09300
C  26.79200 49.31100 21.60600
C  25.28300 49.91200 21.61500
C  25.23100 50.40500 23.08400
C  27.79800 49.90100 20.59500
C  24.18500 48.81000 21.30900
C  24.33300 47.43000 21.99300
N  24.82900 51.13700 25.98500
C  24.03300 51.54600 24.98400
C  22.97500 52.41000 25.52300
C  23.26000 52.46600 26.90600
C  24.33600 51.61400 27.15900
C  21.94100 53.15500 24.77500
C  22.74100 52.95800 28.17700
O  21.74900 53.69400 28.40900
C  23.65900 52.27600 29.29500
C  24.21100 53.46800 30.08200
O  25.13800 54.27200 29.79800
O  23.47700 53.50300 31.21200
C  23.80300 54.41200 32.30100
H  29.27700 48.31400 29.22600
H  28.84100 48.06700 22.74400
H  23.34800 51.33700 22.97000
H  26.26200 51.62200 31.09200
H  27.78900 49.11500 30.97600
H  28.65000 52.05000 30.94200
H  29.31600 51.08000 29.71700
H  29.48800 50.59200 31.37700
H  25.61000 48.85100 31.46500
H  24.25400 49.74300 30.81800
H  24.05500 49.65500 33.12400
H  24.17700 51.31000 32.81200
H  30.88200 45.97200 27.67100
H  30.94700 47.28300 28.66400
H  32.09300 47.26700 27.28000
H  32.46300 45.35400 23.98700
H  31.69500 45.39000 25.56600
H  32.96900 46.41700 25.37200
H  26.77400 48.30100 21.19600
H  25.25600 50.73300 20.89900
H  27.30700 50.58700 19.90300
H  28.22100 49.09600 19.99300
H  28.55300 50.51100 21.09100
H  24.14700 48.61200 20.23800
H  23.20100 49.23200 21.51400
H  23.86200 47.52100 22.97200
H  25.38800 47.16000 22.02100
H  23.78000 46.67000 21.44200
H  21.38700 53.83200 25.42500
H  21.34000 52.42600 24.23100
H  22.48300 53.66700 23.98000
H  23.14300 51.63100 30.00600
H  24.49500 54.05900 33.06600
H  22.85500 54.69600 32.75700
H  24.15800 55.36000 31.89700

