158

Mg 55.67000 24.94500 43.94800
C  52.85900 26.83100 42.89100
C  54.50500 22.27700 42.22500
C  58.69400 23.43900 44.32600
C  56.89500 27.91400 45.40100
N  54.02200 24.75400 42.62700
C  52.98900 25.58200 42.34800
C  52.13500 24.94200 41.28200
C  52.34100 23.44700 41.60200
C  53.70800 23.45800 42.18600
C  51.22100 22.80900 42.48100
C  52.40700 25.38600 39.85200
C  51.06100 25.46000 39.00500
H  51.23500 25.85100 37.46600
N  56.44300 23.03900 43.44500
C  55.74400 22.02600 42.77000
C  56.58100 20.77400 42.71800
C  57.76100 21.06400 43.44900
C  57.71000 22.55400 43.78700
C  56.20900 19.56500 41.97100
C  58.88000 20.08000 43.73300
O  58.78100 18.89400 43.40800
C  60.23100 20.58100 44.31000
N  57.61500 25.66300 44.61200
C  58.66800 24.80500 44.76400
C  59.86000 25.59800 45.27500
C  59.29600 27.04500 45.65600
C  57.84700 26.92400 45.12300
C  60.62400 24.90000 46.41600
C  60.18000 28.30100 45.12500
C  60.72700 29.32400 46.21400
N  55.02000 26.95800 44.25000
C  55.57600 28.04100 44.87500
C  54.60400 29.14900 44.94500
C  53.50100 28.66700 44.23800
C  53.82600 27.39000 43.77500
C  54.81600 30.43300 45.67300
C  52.22200 29.02500 43.76900
O  51.59100 29.99900 44.04300
C  51.63000 27.80700 42.97500
C  50.97400 28.26000 41.66000
O  51.57600 28.76800 40.72500
O  49.64100 27.99600 41.73100
C  48.80700 28.27200 40.54100
H  54.05800 21.41700 41.72100
H  59.69600 23.05900 44.53800
H  57.14600 28.83400 45.93200
H  51.10800 25.15800 41.57800
H  52.37000 22.82400 40.70800
H  51.32400 23.11600 43.52200
H  51.28000 21.72300 42.42200
H  50.23500 23.12700 42.14400
H  52.97600 24.60700 39.34500
H  52.95400 26.32100 39.97400
H  50.22100 26.05800 39.35900
H  50.71500 24.45400 38.76900
H  55.47200 19.80200 41.20400
H  55.62400 18.90100 42.60700
H  57.01200 19.06800 41.42600
H  60.10400 20.98300 45.31600
H  60.63400 21.28700 43.58400
H  60.82100 19.66500 44.29800
H  60.48700 25.85700 44.42200
H  59.24500 27.17700 46.73700
H  60.00300 24.20300 46.97800
H  61.00600 25.53300 47.21700
H  61.33400 24.24400 45.91100
H  59.47000 28.88900 44.54300
H  61.08600 27.99600 44.60000
H  61.80600 29.17300 46.22600
H  60.16200 29.28200 47.14600
H  60.64000 30.29900 45.73300
H  54.31200 30.40000 46.63900
H  54.47500 31.23200 45.01400
H  55.86300 30.52200 45.96100
H  50.79600 27.39600 43.54400
H  49.06900 27.74700 39.62200
H  48.85600 29.35500 40.43100
H  47.78200 28.00700 40.80100
Mg 48.96800 44.80100 43.01200
C  45.75700 45.69000 41.96300
C  48.58900 41.82700 41.53700
C  52.33900 44.55600 43.19800
C  49.39600 48.19700 44.02700
N  47.31100 43.91500 41.98200
C  46.12800 44.38500 41.59500
C  45.24300 43.35500 40.80000
C  46.12500 42.09400 40.93500
C  47.41000 42.60900 41.55800
C  45.42500 40.91900 41.66500
C  44.91300 43.75200 39.34700
C  43.51900 43.33800 38.81700
H  43.43100 42.09500 37.88900
N  50.23700 43.30500 42.65900
C  49.87300 42.07300 42.06200
C  51.04900 41.30000 41.81800
C  52.18100 42.13600 42.13600
C  51.61900 43.36900 42.76800
C  50.97200 39.84600 41.28400
C  53.63400 41.79500 41.77200
O  54.00400 40.68700 41.35700
C  54.73300 42.83400 42.03000
N  50.71700 46.30700 43.46800
C  51.99800 45.86600 43.51900
C  52.90500 46.91600 44.03600
C  51.91400 48.05700 44.39600
C  50.58000 47.51200 43.96900
C  54.01000 46.54200 45.11000
C  52.21400 49.49700 43.99300
C  52.78000 50.44200 45.08300
N  47.78100 46.60100 43.21100
C  48.06600 47.80000 43.72000
C  46.85100 48.58000 43.79200
C  45.89800 47.77900 43.11500
C  46.58200 46.58400 42.75000
C  46.78600 50.00200 44.14600
C  44.49400 47.74700 42.55800
O  43.55300 48.54400 42.59500
C  44.53100 46.45300 41.65900
C  43.29500 45.65300 41.93100
O  42.48200 45.28300 41.13500
O  43.14000 45.46300 43.26500
C  41.85500 44.89000 43.76900
H  48.36900 40.81700 41.18300
H  53.41800 44.42700 43.30200
H  49.48700 49.19200 44.46700
H  44.31500 43.12500 41.32400
H  46.38700 41.68300 39.96000
H  44.37900 40.96400 41.96800
H  45.90000 40.74200 42.63000
H  45.59100 40.03300 41.05200
H  45.59300 43.25800 38.65300
H  44.96000 44.83900 39.28000
H  42.97800 44.10500 38.26400
H  42.93600 43.03800 39.68800
H  51.12000 39.78300 40.20600
H  50.02800 39.34700 41.50500
H  51.64200 39.12400 41.74900
H  54.47400 43.78100 41.55500
H  55.60800 42.48400 41.48200
H  54.82400 42.82600 43.11600
H  53.49400 47.16800 43.15400
H  51.84200 48.06400 45.48400
H  53.81200 45.56300 45.54500
H  53.92100 47.10400 46.04000
H  55.06000 46.50300 44.82100
H  51.33900 49.95400 43.52900
H  52.86400 49.39200 43.12400
H  52.10300 51.28400 45.23200
H  53.75900 50.75200 44.71700
H  53.02100 50.03300 46.06400
H  45.73300 50.28300 44.13700
H  47.15200 50.61300 43.32100
H  47.25500 50.20100 45.11000
H  44.42000 46.79000 40.62800
H  41.74600 45.24100 44.79500
H  41.76200 43.81400 43.62700
H  41.05100 45.30900 43.16300

