158

Mg 44.38700 3.33900 48.26500
C  41.82800 5.81500 47.79000
C  41.99800 0.95000 48.01900
C  46.94300 1.16000 48.44700
C  46.66300 6.11800 48.21700
N  42.15900 3.42800 47.86600
C  41.29400 4.50900 47.77800
C  39.91300 4.04900 47.34800
C  39.88900 2.52600 47.61300
C  41.43100 2.23700 47.85500
C  38.94000 2.13700 48.80400
C  39.70100 4.25700 45.81400
C  38.45900 5.05900 45.31400
H  38.75700 6.07900 44.14900
N  44.42100 1.30900 48.27100
C  43.31000 0.47500 48.12300
C  43.78700 -0.88800 48.09100
C  45.23800 -0.84600 48.06600
C  45.61100 0.57000 48.21400
C  42.88000 -2.10800 48.00800
C  46.12100 -2.06500 48.00100
O  45.59800 -3.11300 47.80900
C  47.63200 -1.98300 48.09800
N  46.59800 3.60400 48.21800
C  47.36300 2.51100 48.49300
C  48.68100 3.04800 49.18100
C  48.77300 4.53200 48.61900
C  47.23200 4.83800 48.38100
C  48.53200 3.09800 50.72500
C  49.68000 4.92500 47.36900
C  50.87800 5.86300 47.76300
N  44.34000 5.54600 48.07700
C  45.32900 6.47600 48.09500
C  44.79600 7.83500 48.06000
C  43.40700 7.60600 47.98900
C  43.16300 6.22100 47.99500
C  45.55300 9.12600 48.00800
C  42.06800 8.21600 47.98100
O  41.67800 9.42400 48.14200
C  41.08000 7.12600 47.64700
C  39.91300 7.23600 48.51300
O  39.77900 6.75400 49.63000
O  38.93100 7.94000 47.78900
C  37.62300 8.04700 48.43600
H  41.22000 0.19200 47.91000
H  47.81500 0.51500 48.57000
H  47.38500 6.90700 48.43800
H  39.12000 4.53300 47.91700
H  39.59400 1.89700 46.77300
H  38.53900 3.03800 49.26800
H  39.58500 1.76000 49.59700
H  38.25700 1.33000 48.54000
H  39.56400 3.29700 45.31700
H  40.61800 4.73500 45.46900
H  38.09800 5.75100 46.07500
H  37.66900 4.33600 45.11300
H  43.02800 -2.69500 47.10200
H  41.84400 -1.78000 47.92000
H  42.97000 -2.70400 48.91600
H  48.03900 -1.40000 47.27100
H  47.91200 -3.03600 48.10900
H  47.73000 -1.55900 49.09800
H  49.56400 2.45300 48.95000
H  49.23700 5.07700 49.44100
H  49.20700 2.39200 51.21100
H  47.50900 2.81200 50.96900
H  48.60100 4.07900 51.19400
H  49.20600 5.43300 46.53000
H  50.16800 4.04500 46.95000
H  50.60100 6.90700 47.61900
H  51.72800 5.74900 47.08900
H  51.06900 5.70600 48.82400
H  46.09300 9.36300 48.92600
H  44.86500 9.92700 47.73800
H  46.29000 9.07200 47.20700
H  40.70900 7.34000 46.64400
H  37.21400 7.23600 49.03800
H  36.87600 8.06800 47.64200
H  37.44700 8.98000 48.97200
Mg -2.18100 35.01600 26.14300
C  -3.44300 33.07000 28.60300
C  -0.78500 37.04400 28.47700
C  -0.68300 36.84000 23.51700
C  -3.67800 32.93700 23.76400
N  -2.05300 34.94400 28.32200
C  -2.73900 34.07200 29.11500
C  -2.31400 34.25000 30.61100
C  -1.57300 35.64200 30.55700
C  -1.42100 35.87500 29.05200
C  -2.35300 36.88300 31.25600
C  -1.55400 33.08100 31.28200
C  -1.92100 32.96100 32.85200
H  -0.72800 33.15100 33.87600
N  -0.97800 36.74300 26.04800
C  -0.56900 37.47000 27.13100
C  0.17500 38.63000 26.67600
C  0.32800 38.54100 25.28900
C  -0.41400 37.30900 24.88500
C  0.85700 39.60100 27.59500
C  1.08600 39.45700 24.30500
O  1.18400 39.17800 23.13500
C  1.51500 40.81000 24.71800
N  -2.28200 35.01200 23.92600
C  -1.48800 35.74000 23.12500
C  -1.59200 35.23600 21.62600
C  -2.32400 33.88900 21.89300
C  -2.78500 33.92600 23.26300
C  -2.44600 36.24900 20.82300
C  -1.42500 32.63000 21.61000
C  -0.01800 32.82500 22.30800
N  -3.51000 33.56200 26.10000
C  -4.03200 32.74500 25.09400
C  -4.78800 31.70500 25.72100
C  -4.54800 31.73000 27.06700
C  -3.76600 32.91200 27.25300
C  -5.41600 30.54300 24.92000
C  -4.85400 31.07700 28.21900
O  -5.41100 29.99800 28.36800
C  -4.13500 31.89600 29.31000
C  -5.04600 32.42400 30.35200
O  -5.72900 33.43000 30.20700
O  -4.95900 31.65700 31.45600
C  -5.52800 32.22100 32.66100
H  -0.39300 37.80900 29.15100
H  -0.09500 37.26400 22.70100
H  -4.03000 32.22400 23.01700
H  -3.24100 34.34300 31.17700
H  -0.54900 35.62100 30.93200
H  -2.81700 37.45200 30.45100
H  -1.62500 37.54500 31.72400
H  -3.10200 36.51200 31.95600
H  -0.50100 33.34500 31.18400
H  -1.72500 32.10900 30.81800
H  -2.38300 32.00100 33.08100
H  -2.67500 33.65600 33.22200
H  1.05700 39.17500 28.57900
H  0.23300 40.48900 27.70300
H  1.83400 39.92900 27.24000
H  1.60000 41.42300 23.82100
H  2.49000 40.53300 25.11800
H  0.82600 41.20100 25.46700
H  -0.54700 35.21500 21.31600
H  -3.17600 33.76700 21.22400
H  -2.52300 37.15400 21.42500
H  -3.44000 35.82300 20.68400
H  -1.93400 36.55900 19.91300
H  -1.30700 32.63900 20.52700
H  -1.92600 31.69000 21.84100
H  0.09200 33.64400 23.01900
H  0.65400 32.89100 21.45200
H  0.10100 31.84200 22.76300
H  -4.58100 30.10100 24.37500
H  -6.19900 30.93500 24.27100
H  -5.72700 29.76800 25.62000
H  -3.36100 31.18900 29.61100
H  -5.48600 33.30900 32.69200
H  -4.85000 31.82300 33.41600
H  -6.56500 31.90500 32.76800

