158

Mg 1.58100 -1.47400 45.78200
C  4.93400 -0.97500 45.17100
C  0.71300 0.94200 43.49300
C  -1.81400 -2.42700 45.71900
C  2.40200 -4.39200 47.48500
N  2.62900 -0.17800 44.60900
C  4.04700 -0.10900 44.48700
C  4.46500 1.06900 43.58000
C  3.05900 1.79800 43.30600
C  2.06300 0.77100 43.84700
C  2.87700 3.23300 43.86600
C  5.20800 0.62300 42.27100
C  6.44000 1.44600 42.04100
H  6.54800 2.08200 40.63700
N  -0.33300 -0.82000 44.69700
C  -0.37600 0.17700 43.83400
C  -1.74600 0.37800 43.36500
C  -2.50800 -0.56500 44.07700
C  -1.60000 -1.32100 44.90100
C  -2.14000 1.28000 42.36300
C  -4.06200 -0.76200 44.00500
O  -4.69200 -0.10600 43.16400
C  -4.88500 -1.74800 44.87200
N  0.44900 -3.16900 46.44300
C  -0.88600 -3.26300 46.44300
C  -1.38800 -4.48300 47.13000
C  -0.04400 -5.11900 47.63300
C  1.05800 -4.20600 47.15800
C  -2.58900 -4.35800 48.19000
C  0.18100 -6.65800 47.28500
C  -0.10400 -7.65100 48.39800
N  3.26700 -2.41100 46.40300
C  3.43300 -3.55400 47.09400
C  4.85800 -3.86800 47.22900
C  5.46300 -2.89100 46.46600
C  4.45300 -1.98400 46.04800
C  5.55400 -4.96300 48.10000
C  6.71800 -2.36000 45.91600
O  7.83900 -2.77500 46.14700
C  6.44700 -1.05900 45.19500
C  7.09100 0.11600 45.90500
O  7.40300 0.13000 47.06900
O  7.43100 1.07100 45.05600
C  8.18700 2.23700 45.53400
H  0.56100 1.75100 42.77500
H  -2.84400 -2.73500 45.91300
H  2.77000 -5.20800 48.11000
H  5.07500 1.77200 44.14700
H  2.91900 1.89300 42.22900
H  3.82000 3.61800 44.25500
H  2.23500 3.28100 44.74600
H  2.50300 3.90100 43.09000
H  4.70100 0.61500 41.30700
H  5.52800 -0.41400 42.37600
H  7.24700 0.71800 42.13000
H  6.61200 2.22900 42.77900
H  -2.46100 2.16500 42.91200
H  -2.92600 0.77800 41.79900
H  -1.27900 1.57200 41.76100
H  -4.86600 -1.54900 45.94400
H  -4.51500 -2.77200 44.82300
H  -5.89000 -1.61700 44.47100
H  -1.71900 -5.16000 46.34200
H  -0.04300 -4.99800 48.71600
H  -2.26200 -4.73000 49.16100
H  -3.42500 -4.92200 47.77600
H  -2.89100 -3.31600 48.29800
H  1.21100 -6.76500 46.94200
H  -0.57000 -6.96400 46.55700
H  -1.14600 -7.95200 48.29300
H  0.14300 -7.13900 49.32700
H  0.53500 -8.53000 48.30900
H  5.62100 -4.50900 49.08800
H  6.55100 -5.13500 47.69300
H  5.00800 -5.89700 48.23100
H  6.82600 -1.08900 44.17300
H  8.74300 2.65000 44.69300
H  8.83900 2.06900 46.39100
H  7.50300 3.00800 45.88800
Mg -12.12500 16.27100 42.43900
C  -9.29300 14.32500 42.30700
C  -10.50300 18.88900 40.92700
C  -15.04000 17.82500 42.19300
C  -13.91400 13.40000 43.63700
N  -10.17800 16.47400 41.58200
C  -9.12000 15.61900 41.70500
C  -7.94400 16.04400 40.97700
C  -8.26300 17.55700 40.69400
C  -9.79400 17.64400 40.99700
C  -7.41600 18.68200 41.33100
C  -7.79300 15.20400 39.65600
C  -6.44100 14.67100 39.23200
H  -5.93200 15.04000 37.82400
N  -12.71900 18.10800 41.71800
C  -11.93200 19.03900 41.16200
C  -12.70300 20.24800 40.82300
C  -14.03600 19.95600 41.28900
C  -13.99900 18.54400 41.75600
C  -12.09600 21.46500 40.17700
C  -15.23600 20.89900 41.17800
O  -15.04700 21.99100 40.68700
C  -16.55000 20.47900 41.57700
N  -14.25300 15.59300 42.74900
C  -15.24500 16.51300 42.65800
C  -16.53200 15.92400 43.19000
C  -16.21200 14.44800 43.64200
C  -14.77000 14.43800 43.28200
C  -17.18700 16.78700 44.33100
C  -17.05600 13.30300 43.02200
C  -17.37500 12.10600 43.91300
N  -11.70400 14.24800 42.90800
C  -12.50800 13.28200 43.43200
C  -11.73500 12.09100 43.72300
C  -10.43200 12.47500 43.32900
C  -10.53100 13.76800 42.79700
C  -12.29000 10.84700 44.29400
C  -9.06100 11.92800 43.15700
O  -8.49800 10.87200 43.34800
C  -8.33600 13.15800 42.48200
C  -7.14400 13.50700 43.28000
O  -7.17300 13.90100 44.43500
O  -6.04600 13.40900 42.45400
C  -4.74700 13.91600 42.98400
H  -9.99800 19.69400 40.38900
H  -16.02500 18.27400 42.05400
H  -14.44700 12.53900 44.04600
H  -7.01000 16.01200 41.53700
H  -8.26000 17.78600 39.62800
H  -8.07900 19.18700 42.03400
H  -6.96800 19.31900 40.56900
H  -6.53500 18.28000 41.83100
H  -8.11300 15.79700 38.79900
H  -8.48600 14.36600 39.58100
H  -6.40500 13.59000 39.37100
H  -5.63600 15.06500 39.85300
H  -12.80700 21.91800 39.48500
H  -11.11600 21.28800 39.73300
H  -11.89500 22.30600 40.84100
H  -16.44200 20.28300 42.64400
H  -16.93900 19.71900 40.89900
H  -17.28400 21.26400 41.39700
H  -17.27300 15.87800 42.39200
H  -16.20500 14.33000 44.72600
H  -18.16400 17.09500 43.96100
H  -16.51600 17.63900 44.44700
H  -17.40200 16.14400 45.18400
H  -16.66200 13.02000 42.04600
H  -17.96000 13.89200 42.86600
H  -18.43200 12.22200 44.15000
H  -16.82000 12.12200 44.85100
H  -17.16200 11.23700 43.29100
H  -12.25900 11.10700 45.35200
H  -11.73400 9.96100 43.98600
H  -13.32100 10.77200 43.94800
H  -7.98100 12.73000 41.54500
H  -4.77300 14.93300 43.37700
H  -4.05500 13.88700 42.14200
H  -4.36300 13.26900 43.77200

