158

Mg 48.59200 34.67500 27.05600
C  46.59200 33.68000 29.82800
C  49.03100 37.55400 28.56100
C  49.62900 35.99700 24.11800
C  47.11800 32.09200 25.31500
N  48.02700 35.38700 29.00400
C  47.28700 34.84800 30.01800
C  47.30000 35.74200 31.33100
C  47.74600 37.12600 30.68600
C  48.28700 36.66000 29.30900
C  46.65100 38.21500 30.56000
C  48.26600 35.32800 32.40500
C  47.68600 35.37600 33.89300
H  48.47100 35.97700 34.94600
N  49.52000 36.45000 26.53900
C  49.61900 37.57600 27.25900
C  50.42800 38.58000 26.61400
C  50.65000 38.02600 25.29600
C  49.93600 36.80000 25.30100
C  50.88600 39.90900 27.23900
C  51.53600 38.53800 24.18200
O  51.71800 37.94400 23.14400
C  52.27100 39.85800 24.36000
N  48.31900 34.25100 25.01200
C  48.89200 34.84100 23.94700
C  48.76300 34.09400 22.60400
C  47.85400 32.85800 23.02400
C  47.76900 33.07100 24.54400
C  48.35500 34.95000 21.42200
C  48.44400 31.48500 22.43800
C  49.86400 31.14800 22.97800
N  47.22800 33.12500 27.43600
C  46.73100 32.10600 26.62200
C  45.80600 31.23600 27.37900
C  45.72000 31.83000 28.69100
C  46.62000 32.95700 28.66500
C  45.06800 30.09200 26.88200
C  45.08200 31.77000 29.99900
O  44.28900 30.98200 30.45500
C  45.59700 33.08200 30.77300
C  45.99600 32.75000 32.17500
O  46.96700 31.99900 32.39300
O  45.06600 33.21300 33.04800
C  45.08500 32.48500 34.28500
H  49.33400 38.44000 29.12200
H  49.90500 36.31500 23.11100
H  46.64800 31.31700 24.70700
H  46.30200 35.89000 31.74300
H  48.49600 37.59800 31.32000
H  45.75100 37.70600 30.90400
H  46.53800 38.74300 29.61300
H  46.97400 39.00300 31.24000
H  49.23500 35.82100 32.32900
H  48.50000 34.28400 32.20000
H  47.63800 34.34100 34.23300
H  46.70900 35.85500 33.83700
H  50.24500 40.20800 28.06800
H  50.81100 40.74000 26.53700
H  51.88700 39.87400 27.66800
H  51.51100 40.63900 24.36000
H  53.02700 39.99000 23.58600
H  52.78600 39.97400 25.31300
H  49.80100 33.84300 22.38400
H  46.86200 33.04100 22.61000
H  49.19600 35.13000 20.75200
H  47.89600 35.91400 21.63700
H  47.64200 34.39100 20.81600
H  48.69200 31.57200 21.38000
H  47.73400 30.72500 22.76400
H  49.70300 30.18000 23.45200
H  50.28700 31.90200 23.64200
H  50.52700 31.04600 22.11900
H  45.72600 29.22900 26.78300
H  44.59200 30.23800 25.91200
H  44.22100 29.92900 27.54900
H  44.71300 33.70800 30.89100
H  45.15000 31.43100 34.01300
H  44.21400 32.79700 34.86100
H  45.94200 32.85800 34.84600
Mg -10.89200 16.95900 42.08800
C  -7.44100 17.35800 42.46100
C  -11.22200 20.31900 41.50200
C  -13.98200 16.42200 41.39600
C  -10.18700 13.40200 41.78700
N  -9.45600 18.61600 41.83100
C  -8.14600 18.54200 42.26200
C  -7.52400 19.93000 42.13500
C  -8.76800 20.82900 42.48500
C  -9.92600 19.86100 41.92700
C  -9.06800 21.06100 43.97800
C  -6.90500 20.16800 40.66700
C  -5.44300 20.53600 40.57200
H  -4.75100 19.54600 39.76600
N  -12.38600 18.23100 41.38200
C  -12.37700 19.61300 41.30200
C  -13.65700 20.07800 41.01500
C  -14.57500 18.98500 41.03400
C  -13.68600 17.84800 41.29400
C  -13.91700 21.53300 40.70100
C  -16.10700 19.12300 40.88100
O  -16.74100 20.13700 40.71500
C  -16.93000 17.84900 41.10800
N  -11.81200 15.21800 41.45800
C  -13.14400 15.34400 41.49900
C  -13.82600 13.95000 41.74400
C  -12.65500 13.03200 41.57300
C  -11.43900 13.88200 41.61500
C  -14.61400 13.80200 43.07900
C  -12.76900 11.98200 40.41100
C  -12.74000 10.56700 40.87900
N  -9.21900 15.57100 42.18600
C  -9.08400 14.17300 42.03300
C  -7.72400 13.83100 42.30500
C  -7.06900 15.03700 42.51200
C  -8.00400 16.06400 42.41200
C  -7.14000 12.49300 42.33100
C  -5.76900 15.61400 42.65900
O  -4.63100 15.18500 42.65300
C  -5.94700 17.15600 42.67900
C  -5.49500 17.66100 44.03900
O  -5.84900 17.30400 45.15700
O  -4.44800 18.56700 43.79000
C  -3.88600 19.20000 44.99600
H  -11.32900 21.40300 41.57400
H  -15.02800 16.11000 41.43600
H  -10.02100 12.32400 41.74300
H  -6.72600 20.10700 42.85600
H  -8.89500 21.73000 41.88400
H  -8.14500 21.10800 44.55500
H  -9.73800 20.34000 44.44700
H  -9.61900 21.99300 44.10700
H  -7.33500 21.14100 40.43100
H  -7.25500 19.37100 40.01000
H  -4.92600 20.44600 41.52800
H  -5.27300 21.57700 40.29500
H  -13.55700 22.15300 41.52100
H  -14.98000 21.77400 40.67000
H  -13.37400 21.81000 39.79700
H  -18.01200 17.93200 41.21600
H  -16.46600 17.39800 41.98400
H  -16.72700 17.20700 40.25100
H  -14.54800 13.89800 40.92900
H  -12.58800 12.49000 42.51600
H  -14.33200 14.61400 43.74900
H  -14.44800 12.80300 43.48300
H  -15.68600 13.87800 42.89700
H  -11.84300 12.09800 39.84800
H  -13.69100 12.12300 39.84800
H  -12.50300 10.30500 41.91000
H  -11.93200 9.99300 40.42400
H  -13.62500 10.01000 40.57300
H  -6.65800 12.28900 41.37500
H  -7.88200 11.69800 42.39700
H  -6.56700 12.41400 43.25500
H  -5.42000 17.64800 41.86200
H  -3.23800 18.46200 45.46800
H  -4.70400 19.46900 45.66400
H  -3.27700 20.07700 44.77600

