158

Mg 48.17600 34.31400 26.58100
C  46.31300 32.90100 29.09700
C  48.77400 37.13800 28.56200
C  49.32900 35.94700 23.92900
C  47.31000 31.63400 24.50800
N  47.62600 34.87400 28.52500
C  47.00700 34.07600 29.44900
C  47.22700 34.63600 30.91100
C  47.56900 36.14600 30.65000
C  47.98300 36.05400 29.14200
C  46.43800 37.20100 30.84800
C  48.32400 33.81400 31.57700
C  48.21500 33.82200 33.11300
H  47.04200 34.38400 33.95800
N  48.94600 36.26800 26.34000
C  49.15600 37.22000 27.20200
C  49.95200 38.26900 26.65900
C  50.12800 37.98100 25.29700
C  49.44200 36.67700 25.13000
C  50.31700 39.41200 27.48300
C  50.81200 38.78000 24.22600
O  50.93300 38.41700 23.06100
C  51.50200 40.05200 24.60100
N  48.15700 33.98900 24.44900
C  48.81200 34.71900 23.53300
C  48.97500 34.04500 22.17900
C  48.67400 32.52900 22.53400
C  48.01400 32.69500 23.91200
C  48.17300 34.59000 20.93700
C  49.89500 31.57900 22.50600
C  50.14400 30.78000 21.20400
N  47.08700 32.63100 26.73600
C  46.73400 31.67500 25.74500
C  45.89900 30.69300 26.38900
C  45.66200 31.18200 27.68000
C  46.39600 32.36700 27.76300
C  45.22100 29.55500 25.80000
C  44.95500 30.87400 28.87900
O  44.15000 29.95000 29.18400
C  45.26600 32.07000 29.87000
C  45.84000 31.36000 31.05100
O  46.87300 30.68700 31.04400
O  44.96600 31.41600 32.12400
C  45.31300 30.73400 33.37800
H  49.01200 37.82100 29.37900
H  49.77900 36.47600 23.08700
H  47.18000 30.77300 23.84900
H  46.26400 34.60900 31.42200
H  48.36100 36.41100 31.35000
H  45.65600 36.98200 31.57600
H  45.86000 37.26200 29.92600
H  46.92500 38.15200 31.06300
H  49.33200 34.22200 31.50600
H  48.45900 32.78100 31.25500
H  49.04900 34.30700 33.62000
H  48.12800 32.79800 33.47600
H  49.85000 40.22200 26.92300
H  51.37100 39.60800 27.29100
H  50.06800 39.42700 28.54400
H  51.96300 40.60800 23.78500
H  52.27500 39.92000 25.35800
H  50.71300 40.73500 24.91500
H  50.01200 34.15800 21.86300
H  47.87400 32.16300 21.89000
H  47.12300 34.75800 21.17700
H  48.20200 33.86900 20.12100
H  48.72600 35.48200 20.64400
H  49.73200 30.91000 23.35100
H  50.72800 32.25800 22.68700
H  50.30300 31.41900 20.33600
H  49.30100 30.11100 21.03100
H  51.08300 30.28800 21.45700
H  45.90500 28.73800 26.02900
H  45.09100 29.63100 24.72100
H  44.23800 29.43200 26.25700
H  44.33100 32.61400 30.01000
H  46.30500 30.99400 33.74700
H  45.23400 29.65000 33.29500
H  44.50400 30.93500 34.08000
Mg 36.14200 48.72000 25.87800
C  36.36200 47.05200 28.89600
C  35.24600 51.52000 27.65700
C  36.09900 50.35900 23.02200
C  36.86000 45.68100 24.17700
N  35.64300 49.13300 28.05400
C  35.93100 48.36400 29.14200
C  35.68000 49.04800 30.48600
C  34.94300 50.36300 29.97400
C  35.24400 50.33600 28.46300
C  33.45400 50.60200 30.37100
C  37.02300 49.26100 31.33200
C  36.84900 48.94200 32.76600
H  35.49600 49.11000 33.41500
N  35.74000 50.68000 25.40000
C  35.46600 51.69200 26.29800
C  35.45500 52.94200 25.58900
C  35.77300 52.64400 24.20100
C  35.80900 51.17600 24.12400
C  35.08400 54.27000 26.22000
C  35.98700 53.61300 23.00100
O  36.43300 53.22100 21.90600
C  35.79600 55.06500 23.05100
N  36.16300 48.01800 23.81800
C  36.28600 48.99700 22.82300
C  36.41500 48.23500 21.51400
C  37.01600 46.83400 21.97300
C  36.65700 46.78000 23.39500
C  35.16800 48.20600 20.64500
C  38.56800 46.61700 21.71500
C  38.94900 45.49800 20.89800
N  36.51700 46.74500 26.33000
C  36.89600 45.69000 25.55700
C  37.18600 44.57900 26.37600
C  36.91200 45.00800 27.71900
C  36.56600 46.38900 27.60100
C  37.65200 43.25700 25.85000
C  36.94300 44.69400 29.13500
O  37.17100 43.62100 29.68300
C  36.55100 46.03500 29.92600
C  35.34400 45.77800 30.75800
O  34.15100 45.71700 30.27900
O  35.58700 45.68100 32.05100
C  34.47300 45.14900 32.87200
H  34.89200 52.34600 28.27700
H  36.11800 50.87700 22.06100
H  37.00400 44.70000 23.72100
H  34.90800 48.49600 31.02200
H  35.35900 51.24900 30.45300
H  33.41400 51.52600 30.94900
H  33.15700 49.84800 31.09900
H  32.91100 50.65800 29.42700
H  37.34800 50.30200 31.32300
H  37.69400 48.49400 30.94600
H  37.46400 49.56200 33.41900
H  37.17200 47.90700 32.88200
H  34.89300 54.24500 27.29200
H  34.20700 54.70700 25.74200
H  35.90400 54.97500 26.08100
H  36.34400 55.49100 22.21000
H  36.37600 55.39600 23.91200
H  34.77900 55.45200 22.98400
H  37.15100 48.86200 21.01000
H  36.55800 46.02300 21.40600
H  35.17800 47.40800 19.90200
H  35.16400 49.09500 20.01400
H  34.34500 48.15200 21.35700
H  39.01900 46.40300 22.68400
H  38.98900 47.55900 21.36200
H  39.36700 46.01100 20.03200
H  38.07500 44.91500 20.60500
H  39.67800 44.88500 21.42800
H  38.67100 43.51300 25.55900
H  37.08800 43.01300 24.95000
H  37.53100 42.50700 26.63200
H  37.38000 46.28900 30.58700
H  34.17200 44.24300 32.34700
H  33.79300 46.00100 32.85800
H  34.77700 44.84100 33.87300

