158

Mg 1.18200 8.27200 25.71100
C  1.90000 10.29400 28.46800
C  1.57200 5.53500 27.66700
C  0.96400 6.41300 22.88500
C  1.42800 11.20500 23.74600
N  2.01000 7.96500 27.77300
C  1.93100 8.92400 28.76200
C  1.95200 8.28600 30.17400
C  2.07700 6.76600 29.83100
C  1.91500 6.75600 28.35100
C  3.38800 6.02400 30.27900
C  0.67600 8.57000 31.02400
C  1.04100 9.16200 32.39700
H  2.25400 8.82900 33.21200
N  1.10800 6.29400 25.29500
C  1.29900 5.31400 26.24600
C  1.14500 4.03300 25.66800
C  0.79700 4.26000 24.26100
C  0.91700 5.75300 24.07800
C  1.28400 2.78200 26.50000
C  0.46500 3.30500 23.15800
O  0.42300 3.54800 21.93500
C  0.25000 1.87200 23.58900
N  1.12400 8.75200 23.59500
C  0.97800 7.73700 22.62500
C  0.92000 8.35500 21.25800
C  0.83700 9.91400 21.53100
C  1.17600 9.98500 23.05600
C  2.16900 7.89500 20.42300
C  -0.50700 10.55600 21.24300
C  -0.48100 12.00300 20.66700
N  1.53300 10.34400 26.02400
C  1.62100 11.40100 25.13900
C  1.91200 12.61700 25.78300
C  1.96800 12.23200 27.14300
C  1.77200 10.82300 27.23500
C  2.01200 13.92300 25.11900
C  2.07100 12.73600 28.46300
O  2.15100 13.93900 28.73700
C  1.95200 11.53300 29.39100
C  3.13600 11.72700 30.27000
O  4.16900 11.11300 30.10900
O  2.96100 12.64300 31.27400
C  4.22100 12.75900 32.07700
H  1.51000 4.69500 28.36100
H  0.97400 5.86200 21.94200
H  1.54400 12.06200 23.08000
H  2.84800 8.71400 30.62300
H  1.24500 6.21400 30.26800
H  3.88700 6.61400 31.04800
H  4.10600 6.06200 29.46000
H  3.10600 5.00700 30.55100
H  0.16800 7.64200 31.28500
H  -0.00500 9.13100 30.38500
H  0.19900 8.97200 33.06200
H  1.02900 10.21300 32.10900
H  2.24200 2.70200 27.01400
H  1.04100 1.81200 26.06600
H  0.55500 2.98000 27.28600
H  1.23200 1.42000 23.73200
H  -0.22100 1.32400 22.77300
H  -0.44800 1.90000 24.42600
H  0.01500 8.03200 20.74300
H  1.55400 10.36800 20.84700
H  2.89100 7.35000 21.03000
H  2.51900 8.75000 19.84300
H  1.76000 7.13000 19.76300
H  -0.99500 10.72400 22.20300
H  -1.19400 9.90600 20.70100
H  -1.07300 11.98500 19.75200
H  0.52600 12.25300 20.33200
H  -0.82900 12.78400 21.34300
H  2.34300 13.80400 24.08700
H  2.68000 14.57600 25.68000
H  1.02700 14.38600 25.06700
H  1.02200 11.72200 29.92700
H  4.01700 13.51600 32.83300
H  5.14400 13.02500 31.56200
H  4.38000 11.82400 32.61500
Mg 24.44000 -6.84300 46.73100
C  26.74000 -4.63400 45.15900
C  22.07400 -5.56200 44.60700
C  22.60200 -9.64900 47.33300
C  27.18800 -8.43000 48.27000
N  24.45200 -5.28500 45.06700
C  25.51500 -4.56600 44.55000
C  25.01700 -3.46600 43.59200
C  23.44100 -3.52700 43.67300
C  23.27600 -4.81400 44.56500
C  22.64700 -2.36500 44.28500
C  25.65300 -3.68500 42.12700
C  26.15900 -2.42200 41.50600
H  26.16100 -2.27700 39.95400
N  22.60000 -7.44200 46.18500
C  21.76000 -6.66100 45.38700
C  20.40700 -7.28400 45.36700
C  20.52300 -8.51900 46.13400
C  21.89700 -8.53700 46.64700
C  19.25500 -6.66100 44.68400
C  19.29900 -9.51700 46.25000
O  18.19800 -9.29600 45.72800
C  19.41500 -10.88600 46.93900
N  24.86100 -8.73800 47.70000
C  23.88000 -9.65000 47.90300
C  24.34200 -10.83700 48.73500
C  25.85400 -10.48700 48.97600
C  26.02900 -9.10500 48.24600
C  23.58300 -11.09200 50.02100
C  26.82800 -11.61400 48.67300
C  27.63400 -11.61000 47.38300
N  26.53300 -6.50400 46.86800
C  27.50400 -7.24600 47.55000
C  28.77600 -6.53400 47.34900
C  28.51700 -5.48300 46.48300
C  27.13300 -5.56100 46.13400
C  30.13200 -7.07000 47.82900
C  29.13600 -4.37600 45.74800
O  30.28700 -4.01900 45.76500
C  27.98100 -3.69800 44.91300
C  27.73600 -2.29400 45.26600
O  27.80700 -1.38900 44.41100
O  27.43300 -2.08100 46.57000
C  27.14700 -0.77300 47.09100
H  21.25800 -5.22900 43.96200
H  22.15400 -10.63400 47.47700
H  28.00600 -8.95500 48.76800
H  25.38400 -2.55800 44.07100
H  23.02900 -3.79000 42.69900
H  22.27800 -1.77000 43.45000
H  23.25400 -1.78300 44.97800
H  21.71600 -2.68000 44.75700
H  24.82600 -4.10700 41.55500
H  26.45900 -4.41800 42.12300
H  27.18900 -2.24200 41.81300
H  25.59800 -1.59300 41.93800
H  19.46700 -6.59000 43.61700
H  19.17400 -5.70500 45.20200
H  18.33200 -7.24100 44.67000
H  20.02400 -11.54500 46.32000
H  18.51900 -11.47400 47.13500
H  19.87600 -10.74400 47.91600
H  24.34000 -11.75700 48.15000
H  26.00000 -10.33400 50.04600
H  23.27200 -12.13100 50.13300
H  22.68200 -10.48400 49.93500
H  24.10400 -10.81100 50.93700
H  26.22900 -12.52500 48.67900
H  27.51400 -11.76200 49.50700
H  28.70000 -11.45900 47.55500
H  27.13400 -10.85100 46.78000
H  27.48200 -12.53000 46.81800
H  30.30500 -7.97700 47.25000
H  30.06500 -7.45000 48.84900
H  30.93500 -6.33900 47.73400
H  28.30200 -3.74600 43.87300
H  26.31100 -0.80700 47.79000
H  26.98200 0.04000 46.38400
H  27.97800 -0.46700 47.72600

