158

Mg 29.59300 57.37800 41.02400
C  26.62000 55.90100 39.93100
C  31.30500 55.14000 39.43700
C  32.22700 59.37100 41.43400
C  27.49200 59.99300 42.46000
N  28.97900 55.71300 39.83800
C  27.75300 55.22400 39.49500
C  27.85500 53.92800 38.65500
C  29.33300 53.58600 38.99700
C  29.97900 54.89500 39.35800
C  29.53000 52.62200 40.23500
C  27.45300 54.18900 37.12700
C  26.62500 52.99000 36.47100
H  26.71900 52.93900 34.94000
N  31.54600 57.23400 40.62900
C  32.07300 56.24900 39.93100
C  33.48600 56.36200 39.74100
C  33.83600 57.59500 40.36500
C  32.51000 58.12800 40.85500
C  34.33400 55.41600 39.00700
C  35.17600 58.06500 40.51400
O  36.09900 57.58200 39.86400
C  35.53400 59.37200 41.24700
N  29.76400 59.44600 41.69800
C  31.06600 59.97100 41.88500
C  30.98300 61.41600 42.38800
C  29.52300 61.48800 42.97300
C  28.88300 60.24500 42.31700
C  32.13000 61.78900 43.39900
C  28.74200 62.71200 42.45100
C  28.10500 63.61900 43.52900
N  27.50800 57.91300 41.15100
C  26.80300 58.96300 41.76800
C  25.36500 58.73100 41.68900
C  25.23200 57.50800 41.02600
C  26.60100 57.10700 40.65900
C  24.25400 59.59200 42.23700
C  24.27300 56.51700 40.52600
O  23.05400 56.49400 40.56900
C  25.15100 55.55000 39.75200
C  24.84700 54.18700 40.36400
O  25.32500 53.82300 41.43100
O  24.04900 53.45900 39.55500
C  23.48000 52.19000 39.89700
H  31.91800 54.25300 39.26200
H  33.10100 60.02600 41.44400
H  26.90300 60.77500 42.94400
H  27.21600 53.20000 39.15400
H  29.70500 53.18100 38.05600
H  28.68800 52.96800 40.83500
H  30.44400 52.74000 40.81600
H  29.37500 51.57400 39.98000
H  28.25700 54.44700 36.43800
H  26.74600 55.01800 37.08900
H  25.61900 53.06700 36.88300
H  27.07500 52.07100 36.84600
H  35.07800 55.86300 38.34800
H  33.70600 54.79500 38.36800
H  34.75100 54.65300 39.66400
H  36.59400 59.50800 41.46500
H  34.95700 59.25700 42.16400
H  35.16300 60.14200 40.57100
H  31.18100 62.09900 41.56200
H  29.33600 61.35900 44.03900
H  32.73600 62.54700 42.90200
H  32.84600 60.97900 43.53700
H  31.70300 62.03900 44.37000
H  28.08500 62.42100 41.63200
H  29.45600 63.36900 41.95500
H  28.90900 64.32800 43.72600
H  28.11900 62.94500 44.38600
H  27.12300 63.99000 43.23400
H  24.61700 60.18600 43.07600
H  23.45300 58.94200 42.58900
H  23.88200 60.21500 41.42300
H  24.80500 55.55800 38.71900
H  24.29600 51.51300 39.64600
H  22.65000 52.02500 39.21000
H  23.20600 52.00500 40.93600
Mg -1.51400 34.65300 26.79800
C  -3.28100 32.91600 29.23300
C  -0.48800 36.85100 29.09400
C  -0.26600 36.62700 24.19400
C  -2.56700 32.42400 24.40700
N  -1.74900 34.79100 28.97900
C  -2.53500 33.94000 29.81600
C  -2.37900 34.32500 31.22000
C  -1.48300 35.58500 31.17700
C  -1.26900 35.80000 29.62400
C  -2.10700 36.82000 31.81300
C  -1.76900 33.16300 32.05700
C  -2.51700 32.83000 33.40500
H  -1.74400 32.75200 34.77500
N  -0.46300 36.43100 26.66500
C  -0.07500 37.20500 27.75000
C  0.81000 38.23000 27.31100
C  0.73500 38.29600 25.84800
C  -0.02000 37.02200 25.49900
C  1.55300 39.17100 28.26200
C  1.33000 39.34000 24.84700
O  1.33700 39.15800 23.65800
C  1.94000 40.60900 25.45300
N  -1.67700 34.71900 24.55700
C  -1.04600 35.60900 23.73900
C  -1.16100 35.11800 22.28000
C  -1.70800 33.68500 22.37500
C  -1.98000 33.54800 23.86600
C  -1.93200 36.16100 21.37300
C  -0.77100 32.63400 21.73000
C  0.44700 32.20400 22.59100
N  -2.73700 33.02100 26.71800
C  -3.05300 32.21300 25.66400
C  -4.06300 31.20900 26.14600
C  -4.09000 31.40000 27.56200
C  -3.29500 32.50700 27.89000
C  -4.81600 30.27900 25.37700
C  -4.64300 30.94300 28.82900
O  -5.43900 29.99100 29.05600
C  -4.07200 31.85000 29.95500
C  -5.11400 32.42100 30.80200
O  -5.63300 33.50400 30.65300
O  -5.41400 31.51400 31.85000
C  -6.29100 32.16500 32.86200
H  0.04000 37.54800 29.74800
H  0.05900 37.31200 23.40800
H  -2.87500 31.72900 23.62300
H  -3.36700 34.56400 31.61500
H  -0.49300 35.44300 31.61200
H  -2.23100 37.56800 31.03000
H  -1.56400 37.11100 32.71100
H  -3.16300 36.73300 32.07000
H  -0.79100 33.28900 32.52300
H  -1.52400 32.31500 31.41700
H  -2.89300 31.81800 33.25800
H  -3.35200 33.50400 33.59900
H  2.60600 39.16700 27.98100
H  1.61000 38.95700 29.33000
H  1.10600 40.16400 28.28600
H  1.18100 40.89600 26.18100
H  1.97100 41.36800 24.67200
H  2.92900 40.26500 25.75700
H  -0.12900 35.12800 21.92700
H  -2.70200 33.67500 21.92900
H  -2.66100 35.67300 20.72600
H  -1.14600 36.58100 20.74500
H  -2.38700 36.97600 21.93600
H  -0.51100 33.01700 20.74400
H  -1.47600 31.83900 21.48500
H  0.44000 32.67000 23.57700
H  1.37700 32.34600 22.04100
H  0.42600 31.12700 22.75800
H  -4.50800 30.43200 24.34300
H  -5.88300 30.49900 25.40900
H  -4.78600 29.23700 25.69800
H  -3.40000 31.25900 30.57800
H  -5.70900 32.59200 33.67800
H  -6.73600 31.35200 33.43400
H  -7.01500 32.91700 32.54700

