158

Mg 35.79700 1.34100 29.50800
C  33.44700 2.62900 31.81700
C  38.24100 1.74600 32.01600
C  38.04400 0.57000 27.19000
C  33.33700 1.78900 27.07800
N  35.81000 2.32800 31.63500
C  34.68300 2.51700 32.39400
C  35.04100 2.52000 33.86300
C  36.66800 2.46100 33.89900
C  36.98200 2.14900 32.43200
C  37.50900 3.74400 34.27800
C  34.31900 1.35700 34.61200
C  33.92900 1.53700 36.13500
H  34.66300 2.70400 36.82200
N  37.83000 1.10900 29.60000
C  38.62300 1.20100 30.67400
C  39.93400 0.73200 30.26500
C  39.95000 0.49800 28.86600
C  38.56000 0.73800 28.50200
C  41.09500 0.73000 31.26700
C  41.07600 0.09900 27.92200
O  40.90500 0.12900 26.68800
C  42.48500 -0.29600 28.44300
N  35.71200 1.32200 27.46300
C  36.73400 0.92600 26.73600
C  36.42900 0.74400 25.22600
C  34.88800 1.17700 25.20700
C  34.57400 1.45400 26.68700
C  37.26400 1.70800 24.41500
C  33.99200 0.12000 24.56000
C  33.55500 -1.13300 25.32000
N  33.78500 1.95100 29.41300
C  32.91400 2.01400 28.38000
C  31.63100 2.54200 28.81800
C  31.80400 2.69900 30.19400
C  33.11300 2.39700 30.46000
C  30.56500 3.00800 27.94800
C  31.09100 3.13000 31.38400
O  29.94300 3.53100 31.58800
C  32.15200 3.06500 32.47400
C  32.30400 4.39200 33.15600
O  32.93400 5.30600 32.69500
O  31.69400 4.45300 34.36300
C  32.06800 5.58400 35.14600
H  38.92300 1.74800 32.86900
H  38.74200 0.22600 26.42300
H  32.56800 1.82300 26.30300
H  34.58900 3.45700 34.18800
H  36.99400 1.58200 34.45500
H  38.22000 3.52200 35.07300
H  36.70000 4.38000 34.63600
H  37.99100 4.22000 33.42400
H  34.80700 0.39600 34.77300
H  33.36900 1.18300 34.10800
H  34.05200 0.67000 36.78500
H  32.84800 1.52400 36.27300
H  41.91900 1.34200 30.89900
H  41.37100 -0.32300 31.20400
H  40.92000 0.97500 32.31400
H  42.34200 -1.07200 29.19500
H  43.01500 0.59000 28.79400
H  43.07000 -0.61700 27.58200
H  36.63000 -0.28400 24.92600
H  34.79300 2.14400 24.71200
H  38.20800 1.18300 24.27200
H  37.47200 2.64600 24.92900
H  36.72300 1.94300 23.49800
H  34.46200 -0.29000 23.66600
H  33.09300 0.64800 24.24200
H  32.53200 -0.94200 25.64400
H  34.23600 -1.30900 26.15200
H  33.59500 -2.01400 24.67900
H  31.11400 3.59200 27.20900
H  29.83000 3.67100 28.40300
H  30.15700 2.10600 27.49300
H  31.77700 2.41200 33.26200
H  31.31300 6.36300 35.03900
H  33.05700 6.01000 34.98000
H  32.05000 5.27000 36.19000
Mg 9.15600 46.85400 25.64900
C  6.82300 47.04500 28.25100
C  11.61400 47.88900 27.69500
C  11.34200 47.25500 22.91600
C  6.52000 46.60300 23.42800
N  9.11000 47.57400 27.70300
C  8.14100 47.34800 28.62900
C  8.60500 47.68100 30.06600
C  10.09400 48.22100 29.78100
C  10.36800 47.87100 28.25300
C  10.37800 49.73300 30.05500
C  8.50100 46.42500 31.02300
C  9.55100 46.29200 32.25700
H  8.96000 45.88900 33.59100
N  11.23700 47.25700 25.38800
C  12.12800 47.57500 26.38200
C  13.49000 47.76700 25.85300
C  13.42500 47.47500 24.45400
C  11.97700 47.33400 24.20600
C  14.64000 48.12900 26.77700
C  14.50000 47.34700 23.43900
O  14.25100 46.94200 22.28800
C  15.92100 47.56000 23.81800
N  8.91500 46.97800 23.48200
C  9.95200 47.11400 22.58100
C  9.47900 47.04000 21.16200
C  7.94700 46.77600 21.35500
C  7.77300 46.76300 22.83200
C  9.99800 48.09000 20.21400
C  7.39700 45.49400 20.65900
C  6.20600 45.78500 19.72700
N  7.03700 46.77600 25.75900
C  6.15700 46.61200 24.77300
C  4.84100 46.61600 25.38100
C  5.06900 46.71800 26.74600
C  6.42300 46.88300 26.92300
C  3.50300 46.46600 24.72700
C  4.39500 46.74100 28.00200
O  3.20900 46.57500 28.23400
C  5.52600 47.01700 29.13400
C  5.50000 45.75800 30.05000
O  5.94000 44.64400 29.68500
O  4.91000 46.05700 31.24600
C  4.98900 45.05100 32.36500
H  12.33900 48.23100 28.43700
H  11.96200 47.44000 22.03700
H  5.76200 46.28300 22.70900
H  7.95200 48.40800 30.54900
H  10.79200 47.61500 30.35800
H  11.21500 49.68900 30.75100
H  9.47400 50.06800 30.56500
H  10.67100 50.49600 29.33400
H  8.55700 45.47500 30.49200
H  7.46900 46.46800 31.37300
H  10.09200 47.22000 32.44300
H  10.29600 45.55800 31.95000
H  15.28300 48.90400 26.35900
H  15.30700 47.27400 26.88200
H  14.27700 48.31000 27.78900
H  16.55500 47.27000 22.98000
H  16.11300 47.11400 24.79400
H  15.99100 48.63100 24.00900
H  9.93100 46.11600 20.80400
H  7.50600 47.73100 21.06600
H  11.02000 48.38500 20.45400
H  9.54000 49.04900 20.45600
H  9.92500 47.86600 19.15000
H  7.01300 44.85000 21.45000
H  8.17900 44.90100 20.18500
H  5.32200 45.60200 20.33900
H  6.26600 45.18200 18.82100
H  6.24000 46.86800 19.61000
H  3.11200 45.51500 25.09000
H  3.60900 46.67600 23.66300
H  2.71000 47.11400 25.09800
H  5.44800 47.92700 29.72800
H  5.97900 44.63000 32.54400
H  4.18400 44.31800 32.30900
H  4.93900 45.55800 33.32800

