158

Mg 25.73600 0.11700 28.43600
C  27.45800 -0.32300 31.56600
C  22.74400 0.23500 30.25700
C  24.14500 0.21700 25.55500
C  28.58500 -0.92500 26.81900
N  25.15400 -0.08900 30.67400
C  26.08800 -0.12000 31.75900
C  25.31300 0.15800 33.05100
C  23.78900 0.29000 32.64600
C  23.85000 0.16900 31.10900
C  22.65900 -0.66500 33.35400
C  25.80800 1.41000 33.91100
C  26.37600 1.05000 35.29000
H  25.70300 1.77400 36.49500
N  23.75600 0.25100 28.00000
C  22.68300 0.33700 28.82700
C  21.52900 0.46800 28.05100
C  21.88400 0.52200 26.71300
C  23.28700 0.31500 26.71500
C  20.13600 0.58400 28.67900
C  20.99300 0.70700 25.56900
O  21.27100 0.38300 24.43600
C  19.54000 1.01400 25.78000
N  26.32500 -0.39500 26.45200
C  25.47900 -0.06100 25.44200
C  26.16400 -0.09500 24.03600
C  27.66000 -0.28400 24.50100
C  27.55400 -0.53600 25.99500
C  25.63300 -1.24300 23.16500
C  28.73100 0.79000 24.13800
C  29.44800 0.83300 22.72500
N  27.55000 -0.52100 29.02700
C  28.67700 -0.82800 28.24200
C  29.83100 -1.02100 29.01800
C  29.36800 -0.87500 30.34600
C  28.01700 -0.58400 30.30800
C  31.27200 -1.11900 28.57800
C  29.79900 -0.87600 31.71400
O  30.93600 -1.08000 32.08400
C  28.61400 -0.43000 32.58000
C  28.46700 -1.37000 33.67300
O  27.93800 -2.45700 33.68800
O  28.83900 -0.76100 34.79400
C  28.73900 -1.54600 36.01000
H  21.81200 0.32400 30.81800
H  23.65700 0.47000 24.61200
H  29.44800 -1.19400 26.20600
H  25.31900 -0.76000 33.63900
H  23.40100 1.25900 32.96100
H  23.14200 -1.42000 33.97400
H  22.30400 -1.30000 32.54300
H  21.82000 -0.16700 33.84000
H  24.92600 2.03600 34.05300
H  26.52200 2.00100 33.33800
H  27.45700 1.15100 35.38900
H  26.23000 0.00100 35.54700
H  19.61300 1.54100 28.69400
H  20.14400 0.19800 29.69800
H  19.57000 -0.12500 28.07500
H  19.06700 0.12900 26.20500
H  19.03200 1.26400 24.84800
H  19.58200 1.82500 26.50800
H  25.94700 0.84000 23.51900
H  28.07600 -1.18400 24.04800
H  24.89300 -1.72500 23.80400
H  26.36400 -2.04000 23.02400
H  25.13700 -0.99600 22.22600
H  29.44800 0.98100 24.93600
H  28.14400 1.70400 24.05400
H  30.47100 1.16300 22.91000
H  28.91500 1.50200 22.05000
H  29.38300 -0.13900 22.23600
H  31.26700 -0.78300 27.54100
H  31.66100 -2.13700 28.58500
H  31.90000 -0.47200 29.19200
H  28.74600 0.57600 32.97700
H  29.24500 -2.50600 35.91000
H  27.74800 -1.86200 36.33600
H  29.19900 -0.98500 36.82300
Mg 53.57600 23.61100 45.11400
C  51.26800 26.04600 43.91000
C  51.72400 21.19900 43.69500
C  56.37900 21.63700 45.38600
C  55.66900 26.44200 46.07200
N  51.82700 23.63200 43.76300
C  51.01700 24.71800 43.42500
C  49.82200 24.25700 42.53200
C  49.66100 22.77300 43.03100
C  51.16400 22.49000 43.55300
C  48.58500 22.55800 44.11300
C  50.16800 24.35500 41.02200
C  49.17200 24.81900 39.96100
H  49.73000 25.24200 38.56600
N  53.96900 21.64700 44.80600
C  52.99100 20.84300 44.24900
C  53.47300 19.52800 44.29800
C  54.78700 19.55700 44.74400
C  55.15000 20.98800 45.00800
C  52.63700 18.28700 43.85000
C  55.72200 18.43400 44.78400
O  55.30700 17.29400 44.59000
C  57.12100 18.54700 45.30400
N  55.75400 24.01100 45.60500
C  56.69300 23.00200 45.71400
C  58.04400 23.48400 46.08500
C  57.70400 24.89900 46.46600
C  56.26600 25.13600 46.06500
C  58.76400 22.76800 47.26100
C  58.68700 25.99800 46.04600
C  58.69700 26.48100 44.59700
N  53.44200 25.78100 45.17900
C  54.38200 26.76700 45.60400
C  53.78200 28.08700 45.42900
C  52.57500 27.82500 44.71300
C  52.44000 26.41100 44.63300
C  54.42600 29.41900 45.71600
C  51.43100 28.38200 44.04600
O  51.08100 29.57400 43.86300
C  50.46600 27.24700 43.74500
C  49.78300 27.54200 42.39200
O  50.36900 27.67500 41.30700
O  48.46200 27.83600 42.51400
C  47.89500 28.49300 41.34700
H  51.10200 20.41400 43.26000
H  57.31200 21.07900 45.27500
H  56.15300 27.35300 46.43200
H  48.85900 24.76100 42.45000
H  49.35100 22.15900 42.18500
H  49.02100 22.22700 45.05600
H  47.88700 21.86000 43.65200
H  48.06600 23.48400 44.36400
H  50.49400 23.34500 40.77200
H  51.02200 25.03200 40.98400
H  48.51500 25.57500 40.39200
H  48.57000 23.92700 39.78300
H  52.40100 18.25300 42.78700
H  51.61600 18.29900 44.23100
H  52.99800 17.32100 44.20200
H  57.03300 19.01700 46.28300
H  57.59300 19.09600 44.48900
H  57.44600 17.51700 45.44800
H  58.73400 23.65300 45.25800
H  57.60600 25.02000 47.54500
H  58.72200 23.43200 48.12400
H  59.81300 22.56500 47.04800
H  58.16500 21.87900 47.45800
H  59.68600 25.60300 46.23300
H  58.48300 26.78600 46.77100
H  59.54000 26.19000 43.96900
H  58.64100 27.56700 44.67200
H  57.73500 26.12700 44.22600
H  55.45800 29.31300 45.37900
H  54.34700 29.69200 46.76800
H  53.87800 30.08800 45.05200
H  49.72200 27.32200 44.53800
H  47.97900 29.55000 41.60100
H  46.84300 28.35100 41.10100
H  48.40400 28.38600 40.38900

