158

Mg 9.75300 4.32300 27.69400
C  10.96000 2.55700 30.43700
C  7.77900 6.10700 30.05000
C  8.13600 5.84800 25.20300
C  10.92000 1.87600 25.67700
N  9.59400 4.57100 29.98000
C  10.24900 3.68100 30.83600
C  9.91700 3.94900 32.23400
C  8.67800 4.86800 32.12500
C  8.66500 5.26000 30.62600
C  7.32300 4.13300 32.36500
C  11.18300 4.48700 33.02800
C  11.39100 3.85300 34.36700
H  11.76500 4.67700 35.54600
N  8.20800 5.79300 27.63800
C  7.54600 6.44100 28.66500
C  6.68700 7.43800 28.13800
C  6.83400 7.40000 26.70700
C  7.68700 6.28500 26.42800
C  5.75600 8.29700 28.99100
C  6.14100 8.32600 25.66000
O  6.32000 8.16300 24.43400
C  5.26900 9.43500 26.23800
N  9.54800 3.82100 25.74700
C  8.86000 4.66900 24.91300
C  9.18800 4.29500 23.42700
C  9.93000 2.94100 23.55900
C  10.18200 2.86400 25.04800
C  8.11900 4.35500 22.38600
C  11.31900 2.80100 22.85300
C  11.61200 1.42300 22.19600
N  11.07000 2.72300 27.95300
C  11.37500 1.79400 27.01100
C  12.09400 0.73900 27.60900
C  11.97300 0.99100 28.99700
C  11.30100 2.18700 29.11400
C  12.82600 -0.38500 26.92100
C  12.33200 0.42400 30.30800
O  12.97900 -0.57700 30.61500
C  11.67600 1.50300 31.29400
C  10.59600 0.77000 31.95000
O  9.45100 0.62500 31.53100
O  11.09700 0.37200 33.17900
C  10.03900 -0.31600 34.00700
H  7.32200 6.68600 30.85500
H  7.82800 6.39600 24.31000
H  11.17400 1.04900 25.01100
H  9.61300 3.03200 32.73800
H  8.79900 5.77600 32.71700
H  7.22500 3.56600 33.29100
H  7.16600 3.43600 31.54200
H  6.51400 4.86100 32.31300
H  11.04200 5.56600 33.09000
H  12.11100 4.42200 32.46100
H  12.18200 3.13300 34.15900
H  10.50700 3.24600 34.56400
H  6.04500 9.30300 29.29500
H  5.67400 7.77000 29.94100
H  4.70200 8.36700 28.72400
H  4.34000 8.99000 26.59400
H  4.91300 10.08400 25.43800
H  5.85900 10.04100 26.92600
H  9.84500 5.09700 23.08800
H  9.35800 2.03100 23.38000
H  7.31100 4.88700 22.88800
H  7.62400 3.42200 22.11700
H  8.39300 4.96100 21.52200
H  12.13100 2.87500 23.57700
H  11.36200 3.60400 22.11700
H  10.71600 0.80300 22.22300
H  12.38700 0.81900 22.66800
H  11.96800 1.57300 21.17700
H  13.87700 -0.46300 27.19900
H  12.72400 -0.41500 25.83600
H  12.20400 -1.22400 27.23100
H  12.28600 1.99800 32.04900
H  10.59000 -0.80900 34.80800
H  9.43100 -1.04400 33.46900
H  9.34300 0.35800 34.50700
Mg 16.39600 52.57300 26.24700
C  18.19900 50.89100 28.81100
C  14.31500 53.77200 28.61500
C  14.48400 53.91600 23.74000
C  18.52500 51.12400 23.89700
N  16.21600 52.19700 28.45900
C  17.09700 51.55800 29.30700
C  16.79200 51.87900 30.78800
C  15.42600 52.50400 30.70500
C  15.30900 52.95100 29.19600
C  14.24200 51.49200 31.11100
C  17.76500 52.92000 31.48100
C  18.01300 52.83100 33.03000
H  16.99000 52.03500 33.85500
N  14.54600 53.63500 26.19800
C  13.88500 54.07700 27.23500
C  12.84000 55.04100 26.85600
C  12.84100 55.05000 25.42600
C  13.93700 54.12300 25.02900
C  12.01100 55.72100 27.88000
C  11.97700 55.87100 24.53500
O  12.03900 55.77400 23.34500
C  10.93500 56.80200 25.16600
N  16.34100 52.35700 24.14700
C  15.52800 53.14600 23.33400
C  16.04500 53.05300 21.89700
C  17.48100 52.46600 22.07300
C  17.46000 51.91200 23.42100
C  15.10300 52.17900 21.01800
C  18.72400 53.34000 21.75900
C  19.69100 52.81900 20.69900
N  17.95400 51.09400 26.30500
C  18.74400 50.70600 25.22500
C  19.81000 49.82000 25.78900
C  19.67900 49.90500 27.16600
C  18.53000 50.64700 27.45000
C  20.88200 49.12700 25.05300
C  20.13400 49.45300 28.44000
O  21.10900 48.69900 28.71100
C  19.25300 50.19800 29.54300
C  18.68300 49.11100 30.45800
O  18.07000 48.07700 30.13500
O  19.09400 49.50500 31.70900
C  19.06200 48.38700 32.68000
H  13.71700 54.24200 29.39800
H  13.97600 54.43000 22.92100
H  19.28600 50.89300 23.14900
H  16.82300 51.00300 31.43600
H  15.25700 53.39600 31.30900
H  14.69400 50.64100 31.62000
H  13.74900 51.07100 30.23400
H  13.56900 52.07500 31.73900
H  17.32700 53.90500 31.32000
H  18.71200 53.02900 30.95300
H  18.22500 53.78400 33.51500
H  18.96000 52.30100 33.14100
H  12.07500 56.79300 27.69700
H  12.21400 55.33200 28.87700
H  10.94600 55.57700 27.69700
H  10.38400 56.11300 25.80500
H  10.28500 57.19100 24.38100
H  11.51400 57.56500 25.68700
H  15.99100 54.08000 21.53600
H  17.52500 51.54500 21.49100
H  14.18700 51.81800 21.48500
H  15.59900 51.37000 20.48100
H  14.70900 52.97000 20.38000
H  19.28700 53.55100 22.66800
H  18.29500 54.25100 21.34100
H  19.52500 53.38300 19.78100
H  19.37100 51.78000 20.62700
H  20.75200 52.83900 20.94800
H  21.10700 49.77500 24.20600
H  20.47300 48.20400 24.64100
H  21.84000 48.98100 25.55200
H  19.97700 50.78800 30.10500
H  19.00800 47.43700 32.14700
H  18.02600 48.32800 33.01300
H  19.67700 48.42400 33.57900

