158

Mg 24.58800 -5.02500 45.80500
C  26.84500 -2.60800 44.45700
C  22.25700 -3.78100 43.64700
C  22.83000 -7.73300 46.32600
C  27.42900 -6.38600 47.49800
N  24.59600 -3.32400 44.15400
C  25.58600 -2.47700 43.87900
C  25.06100 -1.35900 42.96600
C  23.52300 -1.49900 43.23700
C  23.43500 -2.99100 43.63200
C  22.91800 -0.53300 44.25900
C  25.63800 -1.62500 41.55700
C  25.72300 -0.36500 40.57500
H  25.08000 -0.45800 39.27900
N  22.75400 -5.61000 45.26400
C  21.95300 -4.94200 44.38200
C  20.73200 -5.71000 44.20300
C  20.73000 -6.74000 45.11400
C  22.09900 -6.74900 45.70700
C  19.60500 -5.22800 43.29900
C  19.57200 -7.63900 45.40400
O  18.48500 -7.60200 44.87300
C  19.71200 -8.59200 46.66400
N  25.01400 -6.76800 46.90300
C  24.15400 -7.78700 46.84500
C  24.74000 -9.09800 47.42600
C  26.19800 -8.65500 47.75900
C  26.20400 -7.14500 47.44700
C  23.88500 -9.84100 48.43500
C  27.35200 -9.41000 47.06100
C  28.56700 -9.58500 47.93800
N  26.76900 -4.47000 46.11400
C  27.71600 -5.18000 46.84400
C  28.89500 -4.41800 46.84900
C  28.67600 -3.35900 45.93800
C  27.32800 -3.49400 45.45900
C  30.19300 -4.72800 47.52600
C  29.21000 -2.19800 45.30000
O  30.24200 -1.60700 45.54200
C  28.14200 -1.75200 44.20000
C  27.87300 -0.28200 44.51700
O  27.14400 0.05100 45.45600
O  28.42500 0.51300 43.56400
C  28.36300 1.99600 43.84600
H  21.44400 -3.30700 43.09300
H  22.33700 -8.67800 46.56000
H  28.30600 -6.91400 47.88000
H  25.49800 -0.40300 43.25700
H  22.93300 -1.46800 42.32100
H  22.86500 -0.96400 45.25900
H  21.88300 -0.31000 44.00000
H  23.60600 0.31300 44.27400
H  25.00200 -2.32200 41.01000
H  26.61900 -2.10000 41.55500
H  26.78600 -0.12300 40.55000
H  25.29400 0.49600 41.08800
H  19.38900 -5.78600 42.38800
H  19.56300 -4.14600 43.17500
H  18.65600 -5.38300 43.81200
H  20.22300 -8.15100 47.52000
H  20.16000 -9.51900 46.30500
H  18.75200 -9.02600 46.94000
H  24.84300 -9.80300 46.60000
H  26.25500 -8.79400 48.83800
H  23.13800 -9.10600 48.73400
H  24.42500 -10.09100 49.34800
H  23.43700 -10.73400 47.99700
H  27.73400 -8.89400 46.18000
H  26.98300 -10.38700 46.75100
H  28.54400 -9.21400 48.96300
H  29.44800 -9.09400 47.52700
H  28.86500 -10.62900 48.03900
H  30.66700 -5.53200 46.96300
H  29.84000 -5.18900 48.44900
H  30.79400 -3.84500 47.74000
H  28.59000 -1.84600 43.21100
H  28.41400 2.15500 44.92300
H  27.48600 2.50900 43.45000
H  29.14500 2.41700 43.21300
Mg 40.82500 9.09900 29.22700
C  42.53100 10.45700 31.89000
C  38.71500 7.48700 31.50000
C  38.97000 8.08700 26.62400
C  43.30300 10.27900 27.15000
N  40.77800 8.73200 31.49000
C  41.56000 9.53600 32.32400
C  41.10000 9.27800 33.80700
C  40.04700 8.08800 33.66800
C  39.85100 8.01100 32.15100
C  40.23400 6.79700 34.45900
C  40.59700 10.60600 34.44800
C  39.84100 10.54900 35.77600
H  40.45800 11.17100 36.92500
N  39.01000 8.12800 29.09000
C  38.26600 7.59400 30.12300
C  37.03200 7.04800 29.58700
C  37.19000 7.12300 28.13900
C  38.43700 7.81200 27.88800
C  35.99600 6.39300 30.42700
C  36.20400 6.75300 27.01900
O  36.36100 7.02800 25.84000
C  34.82900 6.22100 27.39900
N  41.13300 9.12400 27.18100
C  40.24800 8.64400 26.29800
C  40.83300 8.69900 24.82400
C  42.07100 9.66400 25.07600
C  42.23900 9.59500 26.58200
C  41.27200 7.34400 24.21700
C  41.97500 11.09100 24.51400
C  43.23500 11.84800 23.94400
N  42.55400 10.08000 29.40000
C  43.44700 10.53800 28.46300
C  44.49000 11.24700 29.09100
C  44.16000 11.30400 30.44000
C  42.97500 10.55800 30.55000
C  45.76800 11.71600 28.39100
C  44.60400 11.69100 31.73300
O  45.64100 12.29300 32.00700
C  43.50800 11.26000 32.67700
C  44.11300 10.49100 33.80600
O  44.61100 9.35000 33.65600
O  44.07400 11.06600 34.97600
C  44.45700 10.35900 36.18800
H  37.92100 6.99900 32.07000
H  38.38700 8.02800 25.70200
H  43.99700 10.73300 26.44000
H  41.89800 8.85500 34.41700
H  39.13200 8.50900 34.08400
H  39.29000 6.59700 34.96500
H  41.05100 6.82000 35.18000
H  40.35400 5.89600 33.85800
H  39.89100 10.99800 33.71500
H  41.45400 11.27700 34.50400
H  39.43800 9.55300 35.96200
H  38.86300 10.98000 35.56000
H  36.50200 5.75200 31.14900
H  35.31500 5.72100 29.90500
H  35.33200 7.07800 30.95500
H  35.05100 5.18400 27.65000
H  34.08900 6.05400 26.61600
H  34.45100 6.78400 28.25200
H  40.08100 9.29000 24.30100
H  43.00500 9.19600 24.76600
H  41.21100 6.52600 24.93400
H  42.25700 7.41100 23.75500
H  40.65600 7.04800 23.36800
H  41.44200 11.66500 25.27100
H  41.28700 11.10600 23.66800
H  44.15600 11.26700 23.98100
H  43.44600 12.76300 24.49700
H  43.08800 12.17400 22.91500
H  46.36400 12.32000 29.07400
H  45.57600 12.40700 27.57000
H  46.35600 10.89400 27.98100
H  43.11700 12.24400 32.93500
H  43.67600 9.67700 36.52500
H  44.62900 11.07500 36.99100
H  45.41100 9.83600 36.12600

