158

Mg -10.82500 39.06900 40.97400
C  -9.62400 35.94800 40.03200
C  -7.99000 40.44600 39.56600
C  -12.25700 42.07400 41.26600
C  -13.87700 37.60600 41.66600
N  -9.03800 38.25900 39.82700
C  -8.67800 36.97300 39.77600
C  -7.34000 36.71600 39.07000
C  -6.72700 38.15100 39.21300
C  -7.97400 39.04400 39.51100
C  -5.80600 38.38200 40.42700
C  -7.39100 36.14600 37.66400
C  -6.20800 35.25300 37.25700
H  -5.57800 35.51300 35.92200
N  -10.15700 41.02000 40.50000
C  -8.98400 41.35800 39.96100
C  -8.89500 42.79700 39.91300
C  -10.11500 43.40900 40.42400
C  -10.91200 42.13600 40.76200
C  -7.66000 43.47700 39.37100
C  -10.37700 44.86800 40.56000
O  -9.59400 45.71000 40.24100
C  -11.72500 45.30700 40.99500
N  -12.81300 39.78500 41.32400
C  -13.11900 41.06900 41.56300
C  -14.52400 41.26200 42.15400
C  -15.13600 39.84100 42.10500
C  -13.88800 39.02300 41.62300
C  -14.57400 41.90000 43.52700
C  -16.36900 39.75400 41.20000
C  -17.32200 38.57900 41.47400
N  -11.67400 37.12500 40.87000
C  -12.89100 36.62400 41.26500
C  -12.85800 35.20300 41.23600
C  -11.53600 34.87400 40.77800
C  -10.89900 36.07800 40.54300
C  -13.92600 34.29000 41.58300
C  -10.65400 33.80300 40.52500
O  -10.72400 32.58500 40.65200
C  -9.42100 34.44100 40.02200
C  -8.23900 33.97700 40.73100
O  -7.41100 33.18800 40.32000
O  -8.14000 34.56500 41.98600
C  -6.89300 34.28000 42.84500
H  -7.12300 40.90700 39.08700
H  -12.67700 43.02800 41.59100
H  -14.85100 37.25800 42.01600
H  -6.76300 36.06700 39.72800
H  -6.13700 38.49500 38.36400
H  -5.18500 39.27800 40.39600
H  -5.18300 37.48800 40.46400
H  -6.34800 38.51600 41.36300
H  -7.45000 37.00200 36.99200
H  -8.27200 35.57600 37.37000
H  -6.57000 34.22600 37.22100
H  -5.49600 35.29900 38.08100
H  -7.69700 44.56500 39.31700
H  -7.41000 43.13900 38.36500
H  -6.82700 43.18400 40.01100
H  -12.51600 44.96100 40.33100
H  -11.73000 46.39200 40.89100
H  -11.98700 45.04600 42.02000
H  -15.16000 41.78300 41.43900
H  -15.43200 39.56700 43.11700
H  -15.55200 42.38200 43.51800
H  -13.87000 42.68300 43.81200
H  -14.56800 41.21200 44.37200
H  -16.01600 39.61100 40.17900
H  -16.93500 40.68400 41.25200
H  -18.26600 38.99900 41.82100
H  -16.90700 37.90100 42.22000
H  -17.56500 38.07800 40.53700
H  -14.64200 34.40500 40.77000
H  -14.53500 34.75200 42.36000
H  -13.58000 33.26300 41.70200
H  -9.30500 34.09600 38.99500
H  -5.99300 34.74900 42.44700
H  -6.62000 33.22600 42.89800
H  -6.97300 34.61500 43.87900
Mg -11.90300 16.36800 42.37600
C  -8.85400 14.81800 41.59700
C  -10.66200 19.17200 40.61700
C  -15.04700 17.71500 42.17500
C  -13.17800 13.34200 43.24600
N  -10.02600 16.85800 41.21200
C  -8.94500 16.07700 41.08900
C  -7.84500 16.73100 40.22900
C  -8.36900 18.18700 40.09800
C  -9.79700 18.09700 40.71100
C  -7.57500 19.35800 40.81400
C  -7.61300 16.02200 38.86600
C  -6.30800 15.28400 38.68600
H  -5.38400 15.76900 37.55600
N  -12.70400 18.29000 41.82800
C  -12.02100 19.26700 41.02000
C  -12.90700 20.38700 40.89900
C  -14.16800 20.05600 41.55600
C  -14.03600 18.64100 41.84800
C  -12.37600 21.66700 40.36000
C  -15.31900 21.02500 41.58900
O  -15.25900 22.06500 40.97500
C  -16.50300 20.75800 42.31500
N  -13.88900 15.61300 42.49400
C  -14.99700 16.34800 42.43200
C  -16.26200 15.45900 42.63700
C  -15.63900 14.20700 43.32700
C  -14.17300 14.33700 42.94400
C  -17.42800 16.06000 43.48100
C  -16.30300 12.94300 42.89300
C  -16.62700 11.94300 44.08000
N  -11.17600 14.53000 42.63100
C  -11.78300 13.39500 42.95700
C  -10.81800 12.27200 43.05200
C  -9.68300 12.84300 42.53600
C  -9.92100 14.16800 42.29000
C  -11.17700 10.90600 43.50800
C  -8.37300 12.55900 42.16900
O  -7.76500 11.52700 42.20600
C  -7.68800 13.81800 41.60500
C  -6.54800 14.32400 42.51700
O  -6.62300 14.88200 43.63100
O  -5.34600 13.95900 42.01600
C  -4.16300 14.23700 42.80500
H  -10.30400 20.04100 40.06000
H  -16.00300 18.24100 42.13800
H  -13.66900 12.45200 43.64600
H  -6.92700 16.91100 40.78900
H  -8.52000 18.45900 39.05300
H  -7.78300 20.26300 40.24400
H  -6.51800 19.18300 40.61000
H  -7.71700 19.41500 41.89300
H  -7.69200 16.74000 38.04900
H  -8.45500 15.34900 38.70300
H  -6.49900 14.25100 38.39400
H  -5.81900 15.36300 39.65600
H  -13.14700 22.39000 40.09300
H  -11.92700 21.60300 39.36900
H  -11.64400 22.20600 40.96200
H  -17.10300 21.66600 42.38600
H  -16.27800 20.29500 43.27600
H  -16.98300 20.05500 41.63500
H  -16.57200 15.19800 41.62500
H  -15.66300 14.33400 44.40900
H  -16.98900 16.95400 43.92300
H  -17.80300 15.42400 44.28300
H  -18.22300 16.47400 42.86000
H  -15.85100 12.51700 41.99700
H  -17.26800 13.21500 42.46600
H  -16.45400 12.35800 45.07300
H  -15.83300 11.19700 44.08600
H  -17.62100 11.49500 44.10200
H  -10.31500 10.34700 43.87200
H  -11.80000 10.29700 42.85300
H  -11.74300 11.16400 44.40300
H  -7.29200 13.61800 40.60900
H  -4.14100 15.24100 43.22900
H  -3.33900 14.12100 42.10200
H  -4.08200 13.54900 43.64700

