158

Mg 49.01500 35.07300 27.17300
C  46.82400 34.42000 29.84000
C  49.92000 38.00200 28.78100
C  50.86400 35.78300 24.59000
C  47.76900 32.18300 25.63300
N  48.52100 36.10100 29.14400
C  47.66200 35.58900 30.09600
C  47.55200 36.47700 31.32900
C  48.31300 37.79000 30.85200
C  49.00300 37.27900 29.50500
C  47.47600 39.08800 30.66300
C  48.23900 35.88500 32.63100
C  47.44500 35.77300 33.86600
H  47.60600 36.81900 34.99900
N  50.20400 36.69100 26.74800
C  50.50800 37.73000 27.55500
C  51.32300 38.70300 26.80000
C  51.67900 38.03600 25.62000
C  50.98400 36.77900 25.62000
C  51.77500 39.99000 27.33900
C  52.61100 38.54500 24.50900
O  52.85700 37.80300 23.54500
C  53.25700 39.93300 24.54800
N  49.28800 34.14200 25.25900
C  50.10900 34.63000 24.34600
C  50.18700 33.81400 23.10600
C  49.26600 32.56600 23.40900
C  48.79000 32.88800 24.85600
C  49.76800 34.59000 21.89600
C  49.93000 31.15400 23.42500
C  51.09900 30.77700 22.47300
N  47.43100 33.66700 27.50400
C  47.13900 32.51800 26.88400
C  46.07900 31.78000 27.63200
C  45.87100 32.59100 28.72900
C  46.74300 33.66400 28.64500
C  45.55800 30.38800 27.42500
C  45.16800 32.60200 29.98400
O  44.43100 31.74200 30.43000
C  45.70200 33.83500 30.71100
C  46.18800 33.27700 31.97300
O  47.29300 32.80000 32.13800
O  45.18100 33.30500 32.89500
C  45.46500 32.61700 34.18400
H  50.13600 38.93800 29.30000
H  51.43800 36.11500 23.72200
H  47.54000 31.24300 25.12700
H  46.53300 36.76500 31.58800
H  49.09400 38.07500 31.55700
H  46.46500 38.85900 31.00000
H  47.38400 39.45600 29.64100
H  47.91200 39.87300 31.28200
H  49.02500 36.57300 32.94200
H  48.79800 34.95500 32.52900
H  47.58100 34.83200 34.40000
H  46.39000 35.84400 33.60200
H  51.46700 40.76700 26.63900
H  52.85000 40.16500 27.34600
H  51.48600 40.20600 28.36800
H  52.42700 40.63800 24.51100
H  53.84000 39.97700 23.62900
H  53.90600 39.90500 25.42300
H  51.21200 33.44900 23.03000
H  48.39100 32.56100 22.76000
H  49.20000 35.47500 22.18200
H  49.07200 34.14100 21.18800
H  50.59300 35.01700 21.32500
H  49.05400 30.59300 23.09800
H  50.27100 30.94100 24.43800
H  51.18500 31.48000 21.64400
H  51.05500 29.75100 22.10900
H  51.93900 30.82200 23.16600
H  46.07200 30.02900 26.53400
H  44.55300 30.35300 27.00500
H  45.68500 29.70300 28.26300
H  44.88600 34.55100 30.81000
H  46.44800 32.16600 34.32400
H  44.60300 32.05400 34.54300
H  45.57600 33.47800 34.84300
Mg -5.47300 25.33400 25.79300
C  -4.38000 26.47000 28.98300
C  -7.54400 23.03100 27.43200
C  -5.88100 23.82800 22.81100
C  -2.91000 27.34900 24.36400
N  -5.73200 24.78000 27.94300
C  -5.30600 25.42800 29.05100
C  -5.81500 24.83700 30.36200
C  -6.71400 23.64700 29.82200
C  -6.70800 23.85700 28.27000
C  -6.03100 22.25600 30.34400
C  -6.60300 25.89900 31.18500
C  -6.16900 26.17100 32.63100
H  -5.54000 25.03200 33.31200
N  -6.63700 23.72400 25.18900
C  -7.49100 22.92600 25.97000
C  -8.26800 22.10800 25.06000
C  -7.78300 22.29600 23.76600
C  -6.73800 23.36900 23.86600
C  -9.41600 21.28300 25.57400
C  -8.26100 21.60700 22.46700
O  -7.89800 22.01000 21.33400
C  -9.17000 20.46800 22.48000
N  -4.54400 25.57700 23.81200
C  -4.88400 24.83900 22.72300
C  -4.13400 25.23300 21.45400
C  -3.37000 26.50300 21.93500
C  -3.54400 26.48200 23.47200
C  -3.41700 24.21200 20.64100
C  -3.87700 27.84800 21.30700
C  -5.19800 28.39600 21.86700
N  -4.01300 26.71200 26.47100
C  -3.11300 27.51400 25.74200
C  -2.46800 28.39300 26.65500
C  -2.97500 28.10800 27.96100
C  -3.81600 26.98500 27.77600
C  -1.54100 29.56800 26.29600
C  -2.90800 28.54500 29.37900
O  -2.36200 29.48500 29.96300
C  -3.79900 27.46300 30.11300
C  -2.69700 26.66300 30.87400
O  -1.93500 25.74200 30.48600
O  -2.58800 27.29700 32.08500
C  -1.40400 27.02000 32.81100
H  -8.18000 22.41500 28.07100
H  -6.14100 23.22100 21.94100
H  -2.12500 27.91300 23.85700
H  -4.95300 24.49300 30.93500
H  -7.76100 23.63800 30.12500
H  -5.66200 21.75400 29.44900
H  -6.63700 21.51700 30.86900
H  -5.23000 22.51000 31.03900
H  -7.62500 25.52300 31.23700
H  -6.67200 26.86500 30.68500
H  -7.02400 26.48800 33.22800
H  -5.45800 26.99500 32.57900
H  -9.21200 20.21200 25.59900
H  -10.28800 21.54600 24.97400
H  -9.66700 21.58600 26.59000
H  -8.72000 19.52400 22.78600
H  -9.65400 20.31300 21.51500
H  -10.06000 20.72400 23.05500
H  -4.83300 25.68000 20.74700
H  -2.32300 26.36700 21.66500
H  -2.34400 24.36800 20.53500
H  -3.96900 24.19100 19.70200
H  -3.50400 23.26700 21.17600
H  -3.98300 27.72400 20.22900
H  -3.05700 28.56500 21.34200
H  -5.87000 28.69600 21.06200
H  -5.08300 29.28600 22.48500
H  -5.67900 27.63300 22.47900
H  -1.31900 30.28200 27.08900
H  -2.22300 30.06600 25.60800
H  -0.66900 29.10900 25.83000
H  -4.59400 27.91400 30.70700
H  -0.56900 27.06700 32.11100
H  -1.46200 26.00200 33.19500
H  -1.33400 27.68300 33.67300

