158

Mg 42.29600 41.39900 26.05100
C  41.50100 43.69700 28.57000
C  44.02900 39.58700 28.33600
C  42.66600 38.96300 23.82300
C  41.32600 43.62200 23.74100
N  42.78100 41.69400 28.26800
C  42.15600 42.58900 29.10600
C  42.42100 42.30400 30.52800
C  43.30900 40.91800 30.39800
C  43.34400 40.68500 28.90800
C  44.56500 40.97200 31.25000
C  41.14100 41.96100 31.36100
C  40.59200 42.96800 32.43700
H  40.05300 42.38800 33.75200
N  43.41300 39.61300 26.02400
C  44.07800 39.05100 27.07500
C  44.62700 37.78600 26.61500
C  44.04900 37.49300 25.34700
C  43.32600 38.71500 25.01300
C  45.54600 36.94400 27.48900
C  44.09200 36.22800 24.51800
O  43.51000 36.15500 23.37700
C  44.86800 35.08900 24.99000
N  42.17800 41.36900 24.06800
C  42.23400 40.22400 23.35200
C  41.82900 40.42500 21.93100
C  41.49600 41.96800 21.85500
C  41.67300 42.37700 23.28700
C  43.05200 40.04300 20.98400
C  40.01700 42.18300 21.33000
C  39.80400 43.25900 20.30700
N  41.42400 43.23400 26.10900
C  41.07000 44.02800 25.07100
C  40.57300 45.27000 25.55100
C  40.66100 45.18000 26.92200
C  41.21600 43.91800 27.20700
C  40.11100 46.38900 24.60700
C  40.43100 45.83600 28.15000
O  39.95800 46.96200 28.45400
C  40.90300 44.87600 29.36500
C  41.80200 45.63100 30.18700
O  42.93100 45.85000 30.00900
O  41.19300 45.96400 31.30600
C  41.95200 46.69900 32.40300
H  44.51700 38.94000 29.06800
H  42.52200 38.15700 23.10100
H  41.17700 44.33600 22.92900
H  43.01100 43.12200 30.94100
H  42.72100 40.08600 30.78400
H  45.57600 40.93200 30.84200
H  44.48300 40.29000 32.09600
H  44.54300 41.94000 31.75000
H  41.15800 40.97500 31.82600
H  40.27000 41.96900 30.70600
H  39.76100 43.57800 32.08100
H  41.36200 43.72900 32.56500
H  46.35300 36.68600 26.80200
H  44.94600 36.14700 27.92800
H  45.97800 37.53300 28.29800
H  44.67000 34.81300 26.02600
H  45.91400 35.29400 24.76400
H  44.52900 34.17800 24.49600
H  40.97800 39.77800 21.71700
H  42.14000 42.66600 21.32100
H  42.96300 39.06100 20.51900
H  44.01100 40.18400 21.48400
H  42.96200 40.77400 20.18100
H  39.31100 42.30400 22.15100
H  39.65800 41.24300 20.91100
H  39.17700 44.07000 20.67800
H  39.53900 42.88100 19.31900
H  40.67500 43.91200 20.23300
H  39.24300 45.93200 24.13200
H  40.85700 46.68100 23.86800
H  39.66600 47.13600 25.26500
H  40.02900 44.66200 29.98100
H  42.04800 46.10600 33.31300
H  41.41500 47.63500 32.55800
H  42.94000 46.98700 32.04400
Mg 6.22800 53.85600 39.74800
C  5.84400 50.38500 39.55300
C  9.43000 53.52800 38.48300
C  6.27500 57.09300 39.17500
C  2.78100 54.05700 40.60300
N  7.48200 52.18000 39.07800
C  7.12500 50.83100 39.16000
C  8.30500 49.97900 38.53200
C  9.52100 51.00700 38.66300
C  8.77400 52.29700 38.79100
C  10.40400 50.74400 39.95500
C  8.31300 49.49600 37.05000
C  7.30900 50.24700 36.12500
H  7.87000 51.32300 35.25400
N  7.70600 55.19100 39.02400
C  8.94600 54.84500 38.54400
C  9.59000 56.02700 38.02100
C  8.69700 57.11400 38.33900
C  7.54100 56.49500 38.89500
C  10.86800 56.08500 37.27400
C  9.02700 58.54300 38.15500
O  10.14400 58.85700 37.70900
C  8.13100 59.70200 38.51600
N  4.60600 55.42900 39.72700
C  4.98400 56.68800 39.67800
C  3.78300 57.59000 40.15800
C  2.70700 56.62100 40.69600
C  3.42700 55.27200 40.36300
C  4.19900 58.75600 41.21700
C  1.24800 56.76500 40.21100
C  0.19100 56.61300 41.34200
N  4.63900 52.54500 40.15100
C  3.26100 52.74700 40.51200
C  2.68800 51.44800 40.84300
C  3.53600 50.52600 40.39000
C  4.76400 51.22500 40.03500
C  1.39800 51.14400 41.46900
C  3.78300 49.14500 40.26700
O  3.15000 48.17000 40.48900
C  5.26500 49.04700 39.72500
C  5.34100 48.27300 38.42700
O  4.77100 48.60200 37.40200
O  6.24900 47.24500 38.57100
C  6.31300 46.40900 37.34100
H  10.43600 53.39600 38.07900
H  6.19200 58.16900 39.00900
H  1.76600 54.14500 40.99500
H  8.41800 49.08200 39.14100
H  10.28000 50.98300 37.88100
H  11.40400 50.41300 39.67300
H  9.82500 50.12300 40.63800
H  10.61600 51.68800 40.45800
H  8.11600 48.42400 37.00800
H  9.24200 49.44800 36.48100
H  6.50100 50.68000 36.71500
H  6.94700 49.48900 35.43100
H  10.65600 56.57100 36.32100
H  11.29000 55.11200 37.02500
H  11.68300 56.60800 37.77400
H  8.76000 60.57000 38.31900
H  7.89900 59.61900 39.57800
H  7.22800 59.73500 37.90700
H  3.33100 58.04700 39.27700
H  2.69700 56.71400 41.78200
H  5.26300 58.93800 41.07100
H  4.14000 58.36300 42.23200
H  3.62400 59.67500 41.10800
H  0.98800 56.00100 39.47900
H  1.15600 57.64900 39.58100
H  0.65300 56.43300 42.31200
H  -0.45400 55.74400 41.21400
H  -0.44800 57.49300 41.42000
H  0.98800 50.14000 41.36100
H  0.63200 51.85200 41.15300
H  1.58200 51.30600 42.53100
H  5.80800 48.59200 40.55400
H  6.89200 45.50500 37.52800
H  6.71200 46.96500 36.49200
H  5.34900 45.98400 37.06200

