158

Mg -2.25000 17.61700 26.67800
C  -2.90400 15.86800 29.61500
C  -3.02500 20.47900 28.60500
C  -2.19600 19.52500 23.88700
C  -2.46400 14.83200 24.79100
N  -3.03100 18.10000 28.90000
C  -3.00900 17.23400 29.92700
C  -3.34800 17.88800 31.26700
C  -3.90500 19.29600 30.83600
C  -3.29600 19.37200 29.32800
C  -5.37100 19.63800 30.97800
C  -2.11600 17.93000 32.23800
C  -2.39100 17.47900 33.65300
H  -1.20500 17.41200 34.53200
N  -2.30700 19.72200 26.32100
C  -2.57900 20.67800 27.24600
C  -2.46900 22.01000 26.59900
C  -2.16500 21.82500 25.21900
C  -2.14700 20.30300 25.03900
C  -2.80600 23.34100 27.19000
C  -1.90000 22.81100 24.08000
O  -1.69500 22.44000 22.95300
C  -2.05900 24.30400 24.39600
N  -2.56400 17.32800 24.57400
C  -2.37500 18.18800 23.58200
C  -2.01200 17.56700 22.25300
C  -2.20700 16.06300 22.58300
C  -2.38100 16.02500 24.12300
C  -2.93000 18.15000 21.12200
C  -1.08700 15.17400 21.95200
C  0.37400 15.43000 22.40800
N  -2.53200 15.72300 27.03000
C  -2.60000 14.66000 26.20100
C  -2.67500 13.43000 27.00400
C  -2.77600 13.85400 28.32400
C  -2.73700 15.25800 28.33000
C  -2.53200 12.08000 26.38100
C  -2.88300 13.45800 29.71400
O  -3.02300 12.28900 30.12800
C  -2.86200 14.66900 30.56300
C  -1.65100 14.63800 31.46100
O  -0.55800 15.15200 31.23700
O  -1.97500 13.82900 32.56200
C  -0.94900 13.53500 33.55000
H  -3.19500 21.36400 29.22200
H  -2.16700 20.12300 22.97400
H  -2.31100 13.93400 24.18900
H  -4.17200 17.33300 31.71600
H  -3.53000 20.14700 31.40400
H  -5.44800 20.43800 31.71500
H  -5.99900 18.85300 31.40100
H  -5.73900 20.04800 30.03800
H  -1.90700 18.99800 32.30700
H  -1.23400 17.51200 31.75400
H  -2.82600 16.48000 33.66300
H  -3.13100 18.12300 34.12900
H  -3.05200 23.26300 28.24900
H  -3.55600 23.88900 26.61900
H  -1.85000 23.85500 27.09000
H  -1.93600 24.76500 23.41600
H  -1.38100 24.68100 25.16200
H  -3.05100 24.47700 24.81400
H  -0.95700 17.76000 22.05800
H  -3.13300 15.69100 22.14300
H  -3.61800 18.90900 21.49300
H  -3.62800 17.40200 20.74800
H  -2.21700 18.44400 20.35100
H  -1.21300 15.37800 20.88900
H  -1.19000 14.09800 22.09300
H  0.35700 15.87700 23.40200
H  0.94800 15.97400 21.65800
H  0.80000 14.43700 22.54800
H  -1.85900 11.41000 26.91700
H  -1.96700 12.23800 25.46200
H  -3.46000 11.51700 26.28300
H  -3.77300 14.85200 31.13200
H  -1.07900 13.97100 34.54000
H  0.01300 13.90400 33.19500
H  -0.93300 12.44500 33.54900
Mg 16.82000 51.63500 27.06000
C  18.75800 50.44300 29.86300
C  14.36800 52.42900 29.34700
C  14.90100 52.23300 24.53900
C  19.35900 50.32500 24.95600
N  16.64500 51.44500 29.34500
C  17.57500 50.97400 30.26200
C  16.95700 51.21100 31.65100
C  15.46600 51.48700 31.39100
C  15.48700 51.83500 29.90100
C  14.46900 50.29500 31.67000
C  17.87300 52.36300 32.37300
C  18.02000 52.11900 33.94600
H  17.15200 52.93900 34.96200
N  14.88700 52.39000 27.00800
C  14.05000 52.72000 27.99700
C  12.76600 53.19300 27.40600
C  12.81600 52.99500 26.00100
C  14.21300 52.54400 25.77500
C  11.64700 53.61900 28.24900
C  11.70300 53.16900 24.91100
O  11.89100 52.87100 23.75700
C  10.43600 53.77000 25.22400
N  17.06300 51.28100 24.98500
C  16.15000 51.72200 24.15800
C  16.66700 51.68900 22.73100
C  18.03900 51.04600 22.84000
C  18.18600 50.88500 24.35700
C  15.76600 51.07700 21.61700
C  19.25200 51.78100 22.04600
C  20.15900 52.86400 22.73900
N  18.66700 50.58500 27.33900
C  19.58000 50.12600 26.34300
C  20.62500 49.42600 26.95300
C  20.38600 49.63300 28.34300
C  19.18800 50.27600 28.52100
C  21.72500 48.65900 26.29000
C  20.86900 49.35100 29.67600
O  21.78100 48.65700 30.03200
C  19.86300 49.96000 30.75000
C  19.37000 48.92500 31.79800
O  18.60400 48.02700 31.54200
O  19.77600 49.27400 33.07600
C  19.19900 48.38500 34.18800
H  13.58000 52.77700 30.01800
H  14.16500 52.37100 23.74400
H  20.07800 50.10300 24.16500
H  17.04800 50.22000 32.09500
H  15.11300 52.30800 32.01600
H  13.56900 50.29500 31.05500
H  14.04600 50.17000 32.66700
H  15.00700 49.38800 31.39500
H  17.28700 53.27500 32.25800
H  18.86200 52.46200 31.92600
H  19.05100 52.20000 34.29000
H  17.85200 51.07800 34.22100
H  11.43200 54.63300 27.91100
H  11.83600 53.49700 29.31500
H  10.72100 53.06400 28.09800
H  10.54200 54.83200 25.44600
H  9.80800 53.08200 25.79000
H  9.85200 53.79200 24.30400
H  16.92000 52.72000 22.48000
H  18.00200 50.04600 22.40700
H  14.90400 50.48600 21.92800
H  16.37400 50.44600 20.96800
H  15.43700 51.93800 21.03600
H  18.79900 52.37400 21.25100
H  19.84600 50.99000 21.58700
H  19.92400 53.72800 22.11700
H  21.23700 52.71100 22.69200
H  19.89400 53.17300 23.75000
H  22.46600 49.38300 25.94900
H  21.46700 48.17500 25.34800
H  22.14300 47.90000 26.95200
H  20.35900 50.78100 31.26800
H  19.73200 47.43500 34.22200
H  18.12400 48.22900 34.09400
H  19.30900 48.75500 35.20800

