158

Mg 41.50800 8.10300 29.79200
C  43.34700 9.34800 32.53400
C  39.28200 6.70200 31.94200
C  39.86600 7.08200 27.11800
C  44.10100 9.34500 27.80800
N  41.42300 7.88000 32.01400
C  42.23300 8.53200 32.96100
C  41.72100 8.19500 34.39400
C  40.54600 7.21400 34.11300
C  40.37600 7.25700 32.60500
C  40.74400 5.72500 34.56400
C  41.34400 9.38600 35.23500
C  41.96500 9.35500 36.66900
H  42.09300 10.55400 37.48600
N  39.82100 6.95900 29.56200
C  38.96900 6.61200 30.59500
C  37.76600 5.98000 30.07600
C  37.92300 6.14000 28.58200
C  39.24600 6.73700 28.31000
C  36.69300 5.46600 30.91600
C  36.90400 5.82400 27.52200
O  37.04000 6.01200 26.34600
C  35.60100 5.23600 27.87200
N  41.93900 8.22100 27.69800
C  41.11800 7.61600 26.80200
C  41.81800 7.62900 25.41800
C  43.15400 8.50500 25.64000
C  43.02100 8.78900 27.09700
C  42.11000 6.26900 24.77500
C  43.17000 9.85300 24.85000
C  42.06900 10.89500 24.92400
N  43.33600 9.24000 30.05600
C  44.27600 9.58800 29.15800
C  45.35600 10.24900 29.89500
C  45.02100 10.29200 31.24500
C  43.79800 9.63400 31.24200
C  46.54900 10.84300 29.29100
C  45.48100 10.72600 32.55600
O  46.42800 11.33500 33.03100
C  44.37200 10.12200 33.43800
C  45.04700 9.36600 34.61600
O  45.43300 8.21200 34.58400
O  45.43900 10.34500 35.49800
C  46.28800 9.93200 36.61500
H  38.54200 6.35700 32.66700
H  39.26200 6.69400 26.29600
H  44.95500 9.47400 27.14000
H  42.51300 7.68600 34.94400
H  39.62700 7.44300 34.65100
H  40.06600 5.52800 35.39500
H  41.79900 5.56300 34.78300
H  40.61100 5.08800 33.68900
H  40.27400 9.55100 35.35900
H  41.58700 10.32500 34.73700
H  42.96300 8.91600 36.66800
H  41.21600 8.79600 37.23000
H  35.93300 6.24300 30.99200
H  37.02500 5.18600 31.91600
H  36.20700 4.60700 30.45400
H  35.17200 5.87000 28.64900
H  35.71200 4.23800 28.29600
H  34.95500 5.11600 27.00300
H  41.12900 8.09700 24.71500
H  44.06700 7.95600 25.40900
H  41.45700 5.53600 25.25000
H  43.13200 5.97600 24.53500
H  41.66500 6.31600 23.78100
H  43.42900 9.48400 23.85800
H  44.05200 10.41800 25.15200
H  41.33900 10.50400 25.63200
H  41.47500 10.97600 24.01400
H  42.40300 11.86200 25.30100
H  47.46400 10.36600 29.64300
H  46.50900 11.84000 29.73200
H  46.49000 10.89500 28.20400
H  43.86200 11.00100 33.83100
H  47.34100 10.08800 36.38000
H  46.10900 8.91800 36.97300
H  46.00000 10.59600 37.43000
Mg 47.32000 24.81700 27.66300
C  48.50400 26.86700 30.33800
C  46.64400 22.39700 29.99700
C  46.42700 22.81000 25.11100
C  48.37900 27.29600 25.35200
N  47.54700 24.68300 29.86100
C  47.90100 25.64900 30.75900
C  47.87900 25.19500 32.25200
C  47.44700 23.69600 32.03800
C  47.11000 23.59700 30.55000
C  48.46800 22.66300 32.48100
C  46.88500 26.11600 33.13400
C  47.15100 25.99100 34.63200
H  46.42000 26.86200 35.68600
N  46.61200 22.86000 27.58800
C  46.41200 22.02600 28.69800
C  45.90000 20.75100 28.18200
C  45.94200 20.82800 26.74700
C  46.32900 22.18000 26.39100
C  45.69300 19.56700 29.05300
C  45.78400 19.68600 25.80800
O  45.99200 19.68100 24.59700
C  45.17400 18.40300 26.35600
N  47.60000 24.92900 25.53000
C  46.95900 24.07900 24.65900
C  46.78800 24.61100 23.23700
C  47.38500 26.06900 23.34500
C  47.71800 26.15900 24.85200
C  47.46500 23.79000 22.05800
C  46.56300 27.27100 22.81400
C  47.14300 27.92900 21.55400
N  48.28900 26.63800 27.77100
C  48.76600 27.49300 26.73800
C  49.45700 28.61900 27.33900
C  49.26500 28.46400 28.70000
C  48.64100 27.19000 28.95900
C  50.08900 29.76200 26.65600
C  49.58800 29.08500 29.95800
O  50.17200 30.16100 30.19000
C  49.10400 28.05400 31.06400
C  50.09500 27.71700 32.06700
O  51.06200 26.99300 31.84800
O  49.85200 28.35600 33.24300
C  50.75600 28.22000 34.41200
H  46.32100 21.72500 30.79500
H  46.02700 22.17600 24.31700
H  48.56500 28.11500 24.65400
H  48.88000 25.34300 32.65800
H  46.58400 23.53900 32.68400
H  47.94900 21.90700 33.07000
H  49.21900 23.05500 33.16700
H  49.05500 22.20600 31.68500
H  45.83500 25.88400 32.95300
H  47.01700 27.17800 32.92800
H  48.22500 25.93000 34.81200
H  46.82300 24.99200 34.91800
H  44.65800 19.23000 28.99600
H  45.82900 19.76300 30.11600
H  46.43700 18.82900 28.75200
H  45.81300 18.01200 27.14800
H  45.21000 17.71800 25.50900
H  44.16300 18.56400 26.72900
H  45.78800 24.76100 22.83000
H  48.36100 26.02500 22.86000
H  48.30300 24.31700 21.60100
H  46.81500 23.67700 21.19100
H  47.79800 22.83700 22.47000
H  46.48000 28.10100 23.51600
H  45.56400 26.96700 22.50100
H  47.51700 28.95300 21.57700
H  46.26400 28.12300 20.93900
H  47.78500 27.32000 20.91800
H  49.56500 30.70500 26.80900
H  50.22500 29.59200 25.58800
H  51.13000 29.93400 26.93000
H  48.27800 28.62500 31.49000
H  51.25700 29.11300 34.78800
H  51.47200 27.40800 34.28700
H  50.09600 28.13500 35.27500

