158

Mg 54.64200 23.99800 45.57400
C  52.23000 26.40800 44.64400
C  52.34200 21.50000 44.54900
C  57.05900 21.66400 45.67700
C  56.72900 26.47000 46.47400
N  52.60600 23.93300 44.51200
C  51.77700 25.08500 44.37800
C  50.45900 24.62500 43.74500
C  50.42600 23.12900 44.16400
C  51.87800 22.77900 44.42400
C  49.52800 22.75400 45.39600
C  50.47100 24.93100 42.22000
C  50.63800 23.76900 41.16300
H  51.85400 22.79900 41.17300
N  54.72100 21.82600 45.16200
C  53.67300 21.07500 44.76000
C  54.14300 19.68400 44.57500
C  55.54800 19.72500 44.87300
C  55.85800 21.08500 45.30400
C  53.25600 18.52400 44.15900
C  56.60400 18.53600 44.72100
O  56.31200 17.39700 44.29000
C  58.06000 18.64900 45.08100
N  56.61000 24.10500 45.77400
C  57.38400 23.02000 45.91300
C  58.87700 23.43400 46.21300
C  58.74400 24.93100 46.66400
C  57.26400 25.21400 46.24800
C  59.59300 22.60100 47.21900
C  59.76200 25.87400 45.88300
C  59.78600 25.99000 44.34000
N  54.48200 26.07600 45.75900
C  55.46900 26.99800 46.12900
C  54.83100 28.28800 46.23400
C  53.59500 28.14500 45.55900
C  53.44000 26.76700 45.32900
C  55.40500 29.54600 46.86800
C  52.37600 28.78300 45.11400
O  52.12200 29.97300 45.12500
C  51.55100 27.75500 44.42800
C  51.45800 28.04300 43.02200
O  52.43200 28.23900 42.27700
O  50.18400 28.08200 42.58800
C  49.95300 28.30100 41.11200
H  51.60200 20.73100 44.31800
H  57.98400 21.11200 45.85700
H  57.38200 27.20700 46.94700
H  49.72100 25.18900 44.31600
H  49.96700 22.35600 43.54700
H  49.07400 23.58900 45.93000
H  50.19700 22.18000 46.03700
H  48.75600 22.05200 45.08000
H  51.36600 25.55300 42.21600
H  49.57900 25.51300 41.99000
H  50.59500 24.26000 40.19100
H  49.73600 23.16400 41.25800
H  52.94100 18.69800 43.13000
H  52.44100 18.30300 44.84700
H  53.87400 17.62900 44.09000
H  58.55900 17.70500 44.86300
H  58.12200 18.89300 46.14100
H  58.52500 19.47800 44.54600
H  59.31100 23.45500 45.21300
H  58.77400 25.06900 47.74500
H  60.05600 21.74900 46.72100
H  59.07700 22.50000 48.17400
H  60.49300 23.11600 47.55400
H  60.73800 25.50700 46.19800
H  59.68800 26.87700 46.30300
H  60.74800 25.74700 43.88800
H  59.50200 27.02700 44.16100
H  59.12100 25.22900 43.93300
H  54.99300 29.69000 47.86700
H  55.15200 30.36300 46.19200
H  56.48800 29.48000 46.97400
H  50.58400 27.66000 44.92100
H  50.37700 29.28900 40.93300
H  48.89200 28.26600 40.86600
H  50.47200 27.54200 40.52700
Mg 49.82000 35.96300 28.55400
C  47.50600 34.67000 30.48000
C  50.10900 38.67100 30.57500
C  52.15500 37.33600 26.39500
C  49.15600 33.71000 25.98800
N  49.00000 36.51400 30.43000
C  48.12400 35.75400 31.15100
C  47.84800 36.40900 32.60500
C  48.35500 37.88200 32.28300
C  49.27900 37.65500 31.09500
C  47.24500 38.92100 31.96900
C  48.44000 35.67800 33.76300
C  49.97400 35.33900 33.72900
H  50.74700 35.48300 35.00900
N  51.05100 37.73800 28.53700
C  51.03000 38.70400 29.53400
C  52.11100 39.63500 29.27900
C  52.67300 39.31600 27.97600
C  52.02000 38.07700 27.54500
C  52.33900 40.72700 30.22800
C  53.93600 39.94400 27.28100
O  54.56300 39.51900 26.32800
C  54.45700 41.20000 28.02000
N  50.32200 35.77300 26.24900
C  51.43700 36.35600 25.77400
C  51.82600 35.80900 24.39100
C  50.75700 34.66900 24.21500
C  50.10300 34.65300 25.57400
C  51.73300 36.86800 23.20300
C  51.39200 33.34900 23.82900
C  52.31900 33.33100 22.57700
N  48.66000 34.45400 28.27100
C  48.43600 33.59700 27.19400
C  47.54200 32.57100 27.57100
C  47.06100 33.03100 28.80400
C  47.78600 34.13900 29.19100
C  47.08200 31.38600 26.86300
C  46.10200 32.75600 29.88900
O  45.26500 31.81500 29.97900
C  46.24900 33.93800 30.92300
C  46.28100 33.31200 32.24600
O  46.94900 32.33000 32.46100
O  45.35600 33.78000 33.06200
C  45.35300 33.27500 34.42900
H  50.12300 39.41500 31.37400
H  53.02000 37.58400 25.77700
H  48.85500 32.93800 25.27600
H  46.78300 36.23200 32.75800
H  48.94200 38.22300 33.13600
H  47.29400 39.64000 32.78800
H  46.26400 38.44800 31.94100
H  47.37200 39.59800 31.12500
H  47.96700 34.70000 33.66900
H  48.13400 36.05900 34.73700
H  50.43700 35.99700 32.99300
H  50.13000 34.32600 33.35800
H  53.32600 40.68000 30.69000
H  51.68500 40.61200 31.09300
H  52.18600 41.68900 29.74100
H  53.83000 42.08900 28.09300
H  55.30200 41.52700 27.41300
H  54.84800 40.87600 28.98400
H  52.84400 35.42500 24.45100
H  49.99700 34.98900 23.50200
H  51.08200 36.61400 22.36600
H  52.72000 36.90700 22.74200
H  51.54800 37.83100 23.67900
H  50.65700 32.55800 23.68000
H  51.89500 32.87600 24.67200
H  53.36600 33.31500 22.87800
H  52.20200 34.34100 22.18500
H  52.02700 32.54100 21.88500
H  46.49200 31.77500 26.03300
H  46.52300 30.72900 27.52900
H  47.88600 30.74500 26.50200
H  45.42800 34.65000 30.84400
H  45.31300 34.18100 35.03300
H  46.16300 32.62000 34.74800
H  44.46700 32.69500 34.68600

