158

Mg 0.76600 -1.93000 44.45400
C  4.34900 -1.39700 43.99400
C  0.40300 0.91900 42.47200
C  -2.34600 -2.77700 44.27000
C  1.56400 -4.94600 45.95900
N  2.29500 -0.40000 43.46200
C  3.66000 -0.48000 43.32900
C  4.20300 0.64600 42.45600
C  2.88900 1.41800 42.04800
C  1.74900 0.62600 42.68100
C  2.88300 2.96900 42.38400
C  5.13800 -0.01000 41.31500
C  6.56000 0.66100 41.11300
H  6.91100 0.73000 39.56500
N  -0.76200 -1.04800 43.45000
C  -0.71600 0.10300 42.77100
C  -2.09100 0.48400 42.46000
C  -2.93400 -0.61200 42.83000
C  -2.08600 -1.57800 43.53000
C  -2.44300 1.82200 41.68100
C  -4.45300 -0.62600 42.68000
O  -4.98500 0.33500 42.13900
C  -5.29800 -1.72800 43.13400
N  -0.23800 -3.75600 44.91600
C  -1.55800 -3.67500 44.93800
C  -2.12700 -5.03400 45.46200
C  -0.81700 -5.84600 45.85800
C  0.22900 -4.79000 45.64900
C  -3.15600 -4.79000 46.59800
C  -0.54700 -7.19100 44.99300
C  -0.31200 -8.44000 45.86700
N  2.52100 -2.87000 45.05600
C  2.70900 -4.06700 45.75900
C  4.09700 -4.46300 45.86400
C  4.75100 -3.42100 45.14900
C  3.77100 -2.45000 44.67800
C  4.71300 -5.53300 46.53900
C  6.06400 -2.89100 44.79100
O  7.08700 -3.46500 45.04300
C  5.83400 -1.53200 44.11700
C  6.49100 -0.42000 44.96100
O  6.53700 -0.35400 46.14600
O  7.20100 0.43800 44.09700
C  7.95500 1.40300 44.78500
H  0.38100 1.75600 41.77200
H  -3.40000 -3.05700 44.30600
H  1.72700 -5.90900 46.44800
H  4.78900 1.18100 43.20300
H  2.80400 1.50700 40.96500
H  2.13000 3.07100 43.16600
H  2.77000 3.43600 41.40600
H  3.84300 3.21200 42.84000
H  4.53000 0.07300 40.41400
H  5.31000 -1.08600 41.29700
H  7.26700 0.10300 41.72600
H  6.53300 1.65600 41.55700
H  -1.57900 2.31100 41.23000
H  -3.03500 2.56500 42.21400
H  -2.99300 1.53400 40.78500
H  -5.28300 -1.83300 44.21800
H  -5.10100 -2.73900 42.77800
H  -6.31600 -1.50500 42.81600
H  -2.62300 -5.53400 44.63000
H  -0.69600 -6.10600 46.91000
H  -3.50400 -3.75700 46.58800
H  -2.72500 -4.93900 47.58800
H  -3.96700 -5.50300 46.44400
H  0.36400 -7.01400 44.42200
H  -1.37700 -7.45300 44.33600
H  0.41700 -9.03800 45.32000
H  -1.26700 -8.93500 46.04000
H  0.15500 -8.18200 46.81700
H  5.51100 -5.99200 45.95500
H  4.00900 -6.21700 47.01400
H  5.27900 -5.09600 47.36200
H  6.30700 -1.58700 43.13700
H  8.86600 0.87300 45.06300
H  7.56000 1.94900 45.64200
H  8.18800 2.14600 44.02200
Mg 29.85400 58.32900 40.88800
C  26.96900 56.54000 39.95500
C  31.68400 56.03800 38.91800
C  32.42500 60.40800 40.98400
C  27.73900 61.01800 42.04400
N  29.39300 56.43800 39.82400
C  28.14100 55.96300 39.44800
C  28.25100 54.77000 38.45100
C  29.75800 54.32000 38.76600
C  30.36200 55.66600 39.21200
C  29.96000 53.15100 39.70600
C  27.95800 55.18000 36.97100
C  27.06400 54.35700 36.10300
H  26.94200 54.56100 34.64600
N  31.85600 58.12700 40.28600
C  32.37700 57.18300 39.46700
C  33.77600 57.52500 39.14900
C  34.05400 58.80700 39.76500
C  32.71000 59.17600 40.38200
C  34.68200 56.48200 38.29900
C  35.30600 59.55000 39.65500
O  36.25700 59.09400 38.96200
C  35.60700 60.83100 40.41700
N  30.00500 60.33900 41.56000
C  31.26600 60.77600 41.66100
C  31.29200 62.22400 42.29800
C  29.73900 62.50100 42.49500
C  29.12900 61.25700 42.00000
C  32.09300 62.25000 43.60100
C  29.30600 63.82900 41.71100
C  28.39900 64.87200 42.46800
N  27.76300 58.71200 41.02400
C  27.08300 59.83600 41.56200
C  25.69000 59.53900 41.57200
C  25.58800 58.28200 40.95700
C  26.85500 57.82000 40.61000
C  24.59600 60.44000 42.07400
C  24.64100 57.25200 40.50000
O  23.44200 57.23500 40.52500
C  25.52100 56.07700 39.83500
C  25.30000 54.82300 40.65200
O  25.96200 54.57100 41.65900
O  24.45800 53.90300 40.07700
C  24.47000 52.51700 40.60700
H  32.11600 55.31000 38.22800
H  33.20600 61.17100 40.98700
H  27.13100 61.73700 42.59700
H  27.48800 54.04700 38.73800
H  30.22500 53.92600 37.86300
H  28.99300 52.86400 40.12100
H  30.57200 53.43700 40.56100
H  30.43000 52.26100 39.28700
H  28.92300 55.24900 36.47000
H  27.75100 56.24600 36.86900
H  26.07900 54.41000 36.56700
H  27.39700 53.33800 36.30400
H  34.84400 56.78300 37.26400
H  34.27300 55.47200 38.33100
H  35.64000 56.29200 38.78200
H  35.11500 61.68100 39.94400
H  36.69300 60.89800 40.35600
H  35.30200 60.77000 41.46200
H  31.73400 62.95300 41.61800
H  29.34100 62.48600 43.50900
H  32.63700 61.32400 43.78600
H  31.39700 62.38500 44.42800
H  32.77800 63.09600 43.66700
H  28.75000 63.57800 40.80800
H  30.16600 64.40900 41.37700
H  28.24100 64.63000 43.51900
H  27.51000 65.11400 41.88600
H  29.06400 65.73600 42.46000
H  24.90500 60.97500 42.97200
H  23.71600 59.82500 42.26200
H  24.53400 61.23100 41.32700
H  25.13600 55.92800 38.82600
H  25.46900 52.21000 40.91600
H  24.19400 51.82400 39.81200
H  23.71700 52.43000 41.38900

