158

Mg 25.80300 1.53900 29.38100
C  27.98700 1.17500 32.12400
C  23.17100 2.05700 31.45500
C  23.95500 1.80400 26.67500
C  28.60300 0.46900 27.39500
N  25.63500 1.59200 31.58800
C  26.63700 1.45200 32.50800
C  26.11700 1.81700 33.90000
C  24.51400 1.94300 33.63300
C  24.40400 1.86100 32.11300
C  23.55200 0.90600 34.36200
C  26.90100 2.99000 34.55600
C  27.52000 2.88800 35.98300
H  26.88500 3.72200 37.03500
N  23.85600 1.79500 29.13300
C  22.92400 1.96200 30.07100
C  21.57500 2.09300 29.45300
C  21.78400 2.11100 28.02500
C  23.21100 1.88500 27.86500
C  20.32000 2.32000 30.33400
C  20.69700 2.30700 26.99000
O  20.91100 2.02900 25.84000
C  19.28400 2.81100 27.33700
N  26.16800 1.04600 27.32300
C  25.28500 1.46700 26.40300
C  25.89100 1.59400 24.98100
C  27.29000 0.88200 25.26600
C  27.38900 0.78200 26.74900
C  25.12200 0.95300 23.80900
C  28.51200 1.67900 24.59900
C  29.77000 0.86500 24.09900
N  27.87200 0.94500 29.63900
C  28.83700 0.50000 28.79200
C  30.03600 0.20100 29.47300
C  29.75900 0.54900 30.84700
C  28.43300 0.91000 30.83800
C  31.31000 -0.26200 28.82500
C  30.28500 0.67000 32.17600
O  31.46600 0.45400 32.49300
C  29.19200 1.14100 33.11100
C  29.02100 -0.03800 34.09200
O  28.19700 -0.92600 33.85300
O  29.85700 0.02800 35.22300
C  29.45600 -0.88000 36.23400
H  22.37500 2.33300 32.14900
H  23.46400 2.07400 25.73700
H  29.38000 0.19400 26.67900
H  26.35500 0.93900 34.50100
H  23.99900 2.87100 33.88200
H  22.78500 1.53700 34.81300
H  24.13600 0.33400 35.08300
H  23.09200 0.25300 33.62100
H  26.11400 3.73100 34.70100
H  27.50800 3.53400 33.83300
H  28.57700 3.12300 35.86400
H  27.42100 1.83000 36.22700
H  19.44800 1.89000 29.84000
H  20.08800 3.38500 30.36900
H  20.42300 1.85700 31.31500
H  18.67900 1.94000 27.59000
H  18.85800 3.41200 26.53300
H  19.29300 3.36000 28.27800
H  26.09400 2.62900 24.70700
H  27.30900 -0.16200 24.95500
H  25.81700 0.30500 23.27400
H  24.76900 1.72800 23.12800
H  24.29900 0.31500 24.13000
H  28.70500 2.43400 25.36200
H  28.13100 2.19800 23.72000
H  29.50800 -0.19200 24.05300
H  30.74900 1.06100 24.53500
H  29.85700 1.04600 23.02800
H  32.18300 -0.39500 29.46300
H  31.67000 0.22700 27.91900
H  31.02900 -1.25700 28.48100
H  29.25900 2.11300 33.59900
H  30.31400 -1.04600 36.88600
H  29.23400 -1.89500 35.90600
H  28.67000 -0.47500 36.87100
Mg 28.80700 56.30800 40.55400
C  26.40400 53.95000 39.67800
C  31.14000 54.03900 39.64400
C  31.19500 58.78500 40.18900
C  26.23100 58.71100 40.93100
N  28.69900 54.27500 39.70700
C  27.65100 53.45400 39.46600
C  28.09000 52.11100 38.88100
C  29.56100 52.08100 39.24100
C  29.78900 53.57200 39.50600
C  29.97500 51.22100 40.51900
C  27.68500 51.81600 37.40000
C  28.23600 52.82000 36.30000
H  27.36100 53.41300 35.21800
N  30.98000 56.45200 40.10800
C  31.74800 55.31900 39.78900
C  33.07300 55.74900 39.67300
C  33.12900 57.12500 39.77600
C  31.76900 57.53600 40.03300
C  34.18300 54.68300 39.45800
C  34.33600 57.95400 39.73200
O  35.41300 57.41400 39.55300
C  34.36800 59.38400 40.02900
N  28.70500 58.42600 40.57900
C  29.86400 59.15900 40.58400
C  29.50100 60.59100 40.69700
C  27.96900 60.60200 40.98600
C  27.58700 59.17700 40.85400
C  30.35400 61.44200 41.64700
C  27.12500 61.57200 40.10700
C  26.37000 62.70000 40.82400
N  26.77000 56.37900 40.44600
C  25.80900 57.36900 40.65000
C  24.52400 56.86700 40.54000
C  24.68000 55.51900 40.17200
C  26.07100 55.29400 40.07100
C  23.20100 57.51000 40.84200
C  23.95800 54.28400 39.93000
O  22.70000 54.10600 39.90600
C  25.04600 53.22700 39.49500
C  24.84100 51.90700 40.17500
O  24.62800 50.86700 39.60300
O  25.16900 51.91700 41.47400
C  24.99200 50.65800 42.20600
H  31.88200 53.23900 39.61400
H  31.79600 59.65600 39.92100
H  25.52500 59.53700 41.03700
H  27.71300 51.41600 39.63200
H  30.21000 51.80500 38.41000
H  29.71400 50.16500 40.46200
H  29.68300 51.76700 41.41600
H  31.04200 51.32400 40.71800
H  26.59500 51.79300 37.41200
H  27.97300 50.85800 36.96700
H  28.82500 52.25300 35.58000
H  28.90000 53.55200 36.76000
H  33.71000 53.76800 39.10200
H  34.69000 54.51200 40.40800
H  34.94600 54.92000 38.71600
H  33.78900 59.48600 40.94600
H  33.90700 59.93200 39.20600
H  35.38700 59.76200 40.11600
H  29.57700 60.93500 39.66600
H  27.68600 60.97100 41.97100
H  31.12800 60.82800 42.10700
H  29.76200 61.99800 42.37500
H  30.81400 62.22700 41.04700
H  26.39300 61.07000 39.47400
H  27.79100 61.99000 39.35200
H  25.38600 62.33100 41.11300
H  26.29900 63.46100 40.04600
H  26.90900 63.04900 41.70500
H  22.45600 56.73600 41.02500
H  22.93700 58.02600 39.91900
H  23.28500 58.11700 41.74300
H  24.87700 53.03600 38.43500
H  24.86700 50.85300 43.27100
H  25.81500 49.94800 42.11900
H  24.02600 50.20400 41.98900

