158

Mg 52.93000 23.95500 45.64100
C  50.79000 26.47900 44.39500
C  51.05800 21.62400 44.14100
C  55.44800 21.99000 45.93500
C  54.84500 26.62800 46.92500
N  51.30800 24.10700 44.16700
C  50.60300 25.23700 43.80600
C  49.67600 24.82400 42.67900
C  49.32500 23.33000 43.08700
C  50.68500 22.98000 43.79500
C  48.13400 23.23100 44.08500
C  50.37300 24.84800 41.27300
C  49.51800 25.34800 40.11700
H  50.18900 26.06400 38.99000
N  53.24100 22.01200 45.12400
C  52.27900 21.20300 44.58100
C  52.80000 19.86700 44.64300
C  54.08400 19.91400 45.23500
C  54.28200 21.33300 45.47700
C  52.08900 18.63100 44.19500
C  54.90500 18.66200 45.58300
O  54.49400 17.50400 45.30100
C  56.29700 18.73900 46.22800
N  54.88700 24.28800 46.31300
C  55.73300 23.28000 46.39400
C  57.18400 23.75100 46.84900
C  56.82500 25.11000 47.40900
C  55.47500 25.43300 46.79300
C  57.76100 22.70000 47.89200
C  57.86000 26.34400 47.27300
C  58.12300 27.20200 48.58900
N  52.83200 26.07400 45.84800
C  53.58700 26.97100 46.52000
C  53.00800 28.28000 46.54800
C  51.93400 28.13700 45.61800
C  51.81300 26.78300 45.30100
C  53.59800 29.60600 47.10100
C  50.93200 28.90200 44.93400
O  50.80700 30.12700 44.85500
C  50.06700 27.80800 44.15700
C  49.88700 28.25600 42.74200
O  50.80700 28.64700 42.04200
O  48.59300 28.25300 42.45200
C  48.12600 28.66500 41.17100
H  50.42800 20.83700 43.72100
H  56.34500 21.38800 46.09200
H  55.49400 27.40200 47.34300
H  48.71600 25.32500 42.79600
H  49.11500 22.55000 42.35500
H  47.39700 23.89900 43.63900
H  48.47500 23.67700 45.01900
H  47.83800 22.18800 44.20100
H  50.76700 23.84300 41.12000
H  51.32500 25.35000 41.44600
H  48.67200 25.91600 40.50600
H  48.99000 24.48700 39.70800
H  52.81200 17.93300 43.77300
H  51.42600 19.02000 43.42300
H  51.50700 18.16700 44.99100
H  56.78200 17.77000 46.34200
H  56.14500 19.16200 47.22100
H  57.00500 19.18000 45.52700
H  57.86000 23.81000 45.99700
H  56.52900 25.00700 48.45200
H  56.92800 22.05800 48.17700
H  58.16800 23.29500 48.71000
H  58.56300 22.06200 47.52100
H  57.45600 26.99300 46.49500
H  58.80900 25.94100 46.92100
H  59.19400 27.29800 48.76700
H  57.68200 26.80700 49.50400
H  57.79500 28.20900 48.33100
H  53.02500 29.90800 47.97700
H  53.61400 30.38800 46.34200
H  54.61300 29.42200 47.45300
H  49.06500 27.82300 44.58600
H  47.92500 29.73200 41.27200
H  47.14800 28.22600 40.97200
H  48.82200 28.46800 40.35500
Mg 9.44500 47.97500 26.60400
C  7.57000 47.71900 29.51700
C  12.11600 49.28500 28.45700
C  11.20100 48.14800 23.80500
C  6.52900 47.44000 24.69700
N  9.73200 48.48500 28.76800
C  8.91300 48.16300 29.77300
C  9.47600 48.64200 31.21500
C  10.85400 49.32200 30.76500
C  10.89200 49.06600 29.20100
C  10.93800 50.84200 30.90900
C  9.64700 47.47700 32.31100
C  9.12300 47.67100 33.77900
H  9.37100 46.47100 34.80100
N  11.37000 48.57800 26.15700
C  12.33800 49.03300 27.06400
C  13.55900 49.13000 26.34000
C  13.36400 48.75100 24.98700
C  11.94500 48.48800 24.94400
C  14.83400 49.63100 27.09000
C  14.39900 48.57700 23.87300
O  14.04900 48.16100 22.74900
C  15.82600 48.71100 24.19200
N  8.90200 48.00000 24.54000
C  9.84300 47.93200 23.61600
C  9.29500 47.48400 22.24500
C  7.72400 47.41700 22.43400
C  7.68500 47.63600 23.96000
C  9.65000 48.35500 21.04300
C  7.01400 46.14900 21.82800
C  6.81600 44.90300 22.75500
N  7.44100 47.59800 26.97100
C  6.35600 47.49200 26.10500
C  5.16800 47.15500 26.90300
C  5.65200 47.24800 28.26200
C  6.97400 47.57600 28.21900
C  3.81400 46.91900 26.38500
C  5.26100 47.07100 29.62200
O  4.17700 46.86600 30.15400
C  6.48300 47.29000 30.51700
C  6.73900 45.99400 31.21900
O  7.25200 44.99500 30.78300
O  6.36000 46.15700 32.51400
C  6.22900 44.87500 33.17700
H  13.04600 49.58600 28.94400
H  11.81800 47.89600 22.93900
H  5.70000 47.12700 24.05900
H  8.92000 49.46700 31.66000
H  11.73600 48.89600 31.24300
H  11.95000 51.20500 30.72600
H  10.56500 51.08500 31.90400
H  10.12300 51.29900 30.34800
H  10.72500 47.31600 32.33400
H  9.21200 46.59900 31.83300
H  8.03400 47.63800 33.83300
H  9.42100 48.64100 34.17600
H  15.37100 48.73700 27.40800
H  14.63500 50.32300 27.90800
H  15.66000 50.07800 26.53600
H  16.30400 48.50000 23.23500
H  16.21400 47.94100 24.85800
H  16.01200 49.71400 24.57600
H  9.70200 46.48600 22.07800
H  7.20700 48.22500 21.91600
H  9.97600 49.33300 21.39700
H  8.73300 48.45700 20.46300
H  10.51200 47.92600 20.53300
H  7.56800 45.89300 20.92500
H  6.03500 46.54800 21.56200
H  7.45100 44.89000 23.64100
H  6.98600 43.90400 22.35200
H  5.75200 44.88900 22.98800
H  3.25800 47.85400 26.45600
H  3.29000 46.23000 27.04800
H  3.95200 46.65900 25.33500
H  6.24200 48.08200 31.22500
H  6.82800 44.01600 32.87400
H  5.19700 44.52700 33.12800
H  6.54700 45.12400 34.18900

