158

Mg 23.90200 -4.52400 45.60800
C  26.18200 -2.43400 44.06800
C  21.35500 -3.33800 43.53200
C  22.10300 -7.31200 46.13500
C  26.68100 -6.14100 47.10400
N  23.85700 -3.10800 43.89900
C  24.93600 -2.36200 43.52700
C  24.46100 -1.33900 42.42300
C  22.92400 -1.30300 42.67500
C  22.64900 -2.68800 43.40600
C  22.46700 -0.07300 43.55700
C  24.90700 -1.96500 41.04500
C  25.71300 -1.07400 40.05500
H  25.45200 -1.16800 38.55200
N  21.90200 -5.10600 45.09100
C  21.01300 -4.47600 44.20200
C  19.80000 -5.22700 44.14600
C  19.95300 -6.39300 44.93300
C  21.34100 -6.32800 45.46000
C  18.52900 -4.71800 43.29600
C  18.84900 -7.35600 45.31700
O  17.69100 -7.20400 44.82700
C  19.02100 -8.55700 46.30700
N  24.34700 -6.40500 46.45500
C  23.40500 -7.38200 46.67300
C  24.04000 -8.70100 47.10100
C  25.44200 -8.23300 47.62800
C  25.53500 -6.85000 47.08900
C  23.27700 -9.29500 48.30400
C  26.57100 -9.12900 47.02000
C  27.68100 -9.62300 48.00400
N  26.00000 -4.19100 45.84100
C  26.97900 -4.93200 46.49500
C  28.24400 -4.20100 46.35400
C  27.96900 -3.19000 45.43000
C  26.62500 -3.26900 45.11600
C  29.57300 -4.36900 47.08500
C  28.48600 -2.01500 44.84300
O  29.57800 -1.50700 44.97100
C  27.36000 -1.42900 43.89100
C  27.14700 -0.01700 44.24000
O  26.47900 0.34300 45.22400
O  27.71100 0.85400 43.36200
C  27.45600 2.34200 43.54500
H  20.64400 -2.71300 42.98800
H  21.44000 -8.15200 46.35300
H  27.57500 -6.49800 47.62100
H  24.93200 -0.35700 42.39300
H  22.36300 -1.31600 41.74000
H  23.33600 0.41800 43.99600
H  21.89400 -0.34200 44.44400
H  21.89100 0.67000 43.00500
H  23.97600 -2.14500 40.50900
H  25.38700 -2.92000 41.26000
H  26.76900 -1.28100 40.22600
H  25.60700 -0.03000 40.34700
H  18.86000 -4.15700 42.42200
H  17.78200 -4.17000 43.86900
H  18.06900 -5.60700 42.86300
H  19.57200 -9.34100 45.78900
H  18.02100 -8.85700 46.62100
H  19.43800 -8.12800 47.21800
H  24.19300 -9.42600 46.30100
H  25.54400 -8.14600 48.71000
H  22.39500 -8.73800 48.62000
H  23.94500 -9.50500 49.13900
H  22.85700 -10.25600 48.00700
H  26.97700 -8.56400 46.18000
H  26.22500 -10.00200 46.46600
H  27.31700 -9.39900 49.00700
H  28.50400 -8.91500 47.90300
H  28.03200 -10.64600 47.86700
H  29.49400 -5.37400 47.49900
H  29.64500 -3.58200 47.83500
H  30.30600 -4.33700 46.27800
H  27.72300 -1.43300 42.86400
H  26.78500 2.44200 44.39900
H  27.06600 2.73800 42.60800
H  28.43400 2.71800 43.84500
Mg 29.67800 57.24600 40.19000
C  27.11800 54.78700 39.25600
C  32.09300 54.83100 39.25400
C  31.84000 59.68400 40.11900
C  26.98200 59.47600 40.63000
N  29.58200 55.02000 39.35200
C  28.42800 54.34800 39.06000
C  28.84800 53.07600 38.33800
C  30.38800 52.98500 38.71400
C  30.75900 54.34200 39.11300
C  30.72800 51.92100 39.73500
C  28.51000 53.15400 36.79300
C  27.29700 52.33500 36.25100
H  26.44300 53.09400 35.19400
N  31.74400 57.29800 39.89300
C  32.47500 56.17700 39.54600
C  33.84400 56.62900 39.42100
C  33.87900 58.03700 39.70400
C  32.44900 58.39800 39.95300
C  34.95300 55.63800 39.06400
C  35.13100 58.98100 39.66500
O  36.20900 58.50100 39.46200
C  35.00300 60.44500 39.98400
N  29.41400 59.26400 40.19300
C  30.52500 60.10700 40.31500
C  30.08400 61.58400 40.39200
C  28.53600 61.48100 40.74500
C  28.28400 59.99700 40.52400
C  30.93500 62.44100 41.36500
C  27.59000 62.46600 39.94400
C  26.71300 63.35200 40.75800
N  27.48200 57.14800 40.05600
C  26.61500 58.17300 40.31000
C  25.24100 57.66400 40.27400
C  25.40500 56.33800 39.74700
C  26.80500 56.07800 39.71300
C  23.95300 58.39300 40.75100
C  24.71700 55.12900 39.31300
O  23.50600 55.00900 39.03900
C  25.82800 54.08400 38.94500
C  25.50700 52.98700 39.78700
O  26.25700 52.61500 40.64400
O  24.33100 52.37400 39.51300
C  24.04100 51.17500 40.31600
H  32.81100 54.07600 38.92600
H  32.58400 60.48400 40.13300
H  26.20200 60.19100 40.89900
H  28.32400 52.19100 38.69900
H  30.89700 52.80800 37.76700
H  31.52100 52.41600 40.29600
H  31.17800 51.09700 39.18300
H  29.85400 51.57300 40.28500
H  29.35400 52.66200 36.31000
H  28.46900 54.16000 36.37400
H  26.73400 51.90200 37.07900
H  27.75800 51.44100 35.83300
H  35.89300 56.07200 38.72500
H  34.59200 55.01700 38.24400
H  35.22100 55.09700 39.97200
H  34.55400 60.40400 40.97600
H  34.49300 60.97000 39.17700
H  35.99900 60.88700 40.03200
H  30.17000 61.95400 39.37000
H  28.47600 61.77800 41.79200
H  31.45200 63.11700 40.68300
H  31.69200 61.87200 41.90500
H  30.41600 63.05500 42.10100
H  26.84800 61.76200 39.56800
H  27.98800 63.07700 39.13500
H  26.42800 64.18900 40.12000
H  27.18600 63.78300 41.64100
H  25.82200 62.93300 41.22600
H  23.97500 58.24200 41.83000
H  23.02200 58.03900 40.30800
H  23.91400 59.45100 40.49400
H  25.73700 53.73800 37.91600
H  23.34600 51.39400 41.12600
H  24.89700 50.78500 40.86800
H  23.64100 50.38500 39.68100

