158

Mg 49.31200 35.85400 26.80500
C  47.23700 34.85300 29.49200
C  49.59300 38.96400 28.24800
C  51.15200 36.65100 24.19600
C  48.21400 32.89700 25.05300
N  48.68900 36.64600 28.77300
C  47.78100 36.15600 29.69200
C  47.38500 37.14200 30.76800
C  47.89300 38.43000 30.19300
C  48.79400 38.00900 28.97000
C  46.89900 39.63400 30.16600
C  47.74000 36.87300 32.28400
C  46.52700 36.84800 33.18800
H  46.45200 38.00200 34.26700
N  50.36700 37.47200 26.31900
C  50.39500 38.69600 27.06000
C  51.24500 39.62200 26.36500
C  51.70900 38.97300 25.13000
C  51.11900 37.61300 25.20700
C  51.35900 41.05600 26.90400
C  52.58100 39.60200 24.05400
O  52.98600 39.00700 23.09700
C  53.05500 41.00500 24.25900
N  49.64100 34.87500 24.92000
C  50.49300 35.45000 24.00600
C  50.64100 34.70500 22.70500
C  49.71500 33.46600 22.90000
C  49.16100 33.75700 24.36800
C  50.18800 35.48700 21.40300
C  50.43000 31.99400 22.81800
C  50.06800 31.07400 21.68400
N  48.10300 34.08800 27.21100
C  47.70500 33.03100 26.38600
C  46.79000 32.18200 27.12600
C  46.58300 32.85500 28.32700
C  47.44500 34.02000 28.37300
C  46.24700 30.82000 26.75100
C  45.88000 32.83600 29.60200
O  45.16000 31.97300 30.06600
C  46.32100 34.08500 30.41800
C  47.08100 33.61700 31.60400
O  48.31700 33.56800 31.74100
O  46.26300 33.29300 32.64900
C  46.74600 33.00100 33.92900
H  49.60200 39.96900 28.67600
H  51.86500 36.97700 23.43500
H  47.89100 31.99600 24.52700
H  46.31100 37.13500 30.58300
H  48.67300 38.80900 30.85400
H  46.03000 39.25700 30.70500
H  46.91000 39.97900 29.13200
H  47.34000 40.38700 30.81900
H  48.33700 37.72400 32.61200
H  48.34800 35.98500 32.45700
H  46.39800 35.94000 33.77800
H  45.58400 37.02100 32.66900
H  51.02400 41.16200 27.93500
H  50.76800 41.58900 26.15900
H  52.37200 41.45300 26.83700
H  52.16000 41.61900 24.36400
H  53.82300 41.27300 23.53300
H  53.56000 40.97700 25.22400
H  51.68500 34.39400 22.67900
H  48.75100 33.46300 22.39100
H  49.24500 35.11400 21.00300
H  51.05000 35.27900 20.76900
H  50.25500 36.54400 21.65800
H  50.05900 31.52200 23.72800
H  51.49700 32.11600 23.00100
H  49.91400 31.59900 20.74100
H  49.10300 30.58700 21.82200
H  50.88300 30.36800 21.52100
H  46.08400 30.33200 27.71100
H  47.08000 30.26000 26.32700
H  45.38800 30.79100 26.08000
H  45.38700 34.58200 30.67700
H  47.70600 33.48700 34.09700
H  46.94000 31.93300 34.02800
H  46.01000 33.24100 34.69700
Mg 9.83700 47.81600 25.98300
C  7.97600 47.77800 28.90000
C  12.40700 49.17900 27.67300
C  11.59300 47.47800 23.18100
C  6.86500 46.75000 24.27900
N  10.06000 48.55700 27.94200
C  9.23200 48.33900 29.04100
C  9.94500 48.85400 30.38300
C  11.07100 49.75200 29.75700
C  11.23700 49.08700 28.37300
C  10.82800 51.28000 29.54500
C  10.47100 47.76000 31.32600
C  10.13400 47.96000 32.85300
H  10.47300 46.79100 33.79800
N  11.74900 48.20900 25.51600
C  12.65300 48.75500 26.35700
C  13.87000 49.00600 25.60700
C  13.74000 48.36200 24.33200
C  12.27900 48.02500 24.24700
C  15.10900 49.73800 26.16900
C  14.75500 48.18200 23.24100
O  14.45700 47.63300 22.18100
C  16.16600 48.70100 23.40800
N  9.22900 47.29600 23.98100
C  10.23700 47.18200 23.02100
C  9.68500 46.65700 21.68700
C  8.24200 46.24300 22.08400
C  8.07000 46.71600 23.54200
C  9.84400 47.73900 20.52800
C  7.90100 44.75500 21.90400
C  8.74900 43.76400 22.72300
N  7.68500 47.60000 26.37900
C  6.64200 47.14400 25.59300
C  5.45800 47.08500 26.44600
C  5.95800 47.17600 27.76100
C  7.30800 47.48200 27.66600
C  4.10000 46.77600 25.99100
C  5.55300 47.13500 29.14700
O  4.47300 46.88100 29.66700
C  6.88000 47.37700 29.89100
C  7.14500 46.25500 30.80500
O  7.92800 45.37800 30.57300
O  6.46200 46.37900 31.96100
C  6.42400 45.19000 32.84000
H  13.20400 49.64300 28.25800
H  12.17800 47.17000 22.31200
H  6.10400 46.16100 23.76300
H  9.25200 49.44700 30.98000
H  11.98000 49.54900 30.32300
H  9.84000 51.63100 29.84300
H  10.91300 51.44600 28.47100
H  11.60000 51.81000 30.10200
H  11.55500 47.65600 31.35600
H  9.96700 46.88300 30.92100
H  9.05000 48.06500 32.86000
H  10.59100 48.92000 33.09500
H  15.93700 49.02900 26.12800
H  14.90600 50.02400 27.20100
H  15.34700 50.60500 25.55300
H  15.97500 49.77100 23.49100
H  16.74900 48.46000 22.51900
H  16.67900 48.34400 24.30100
H  10.33400 45.91500 21.22200
H  7.54500 46.80800 21.46500
H  10.16200 48.64600 21.04200
H  8.83900 47.91300 20.14400
H  10.59100 47.41100 19.80500
H  8.02700 44.71900 20.82200
H  6.84800 44.52600 22.06200
H  9.39600 44.41400 23.31200
H  9.31000 43.15700 22.01100
H  8.15600 43.03900 23.28100
H  4.12500 46.29300 25.01500
H  3.59000 47.73800 26.04400
H  3.81400 46.14200 26.83000
H  6.63000 48.22200 30.53200
H  6.59300 45.56900 33.84700
H  7.34900 44.61500 32.79000
H  5.49600 44.63300 32.70700

