158

Mg 43.82900 4.34800 47.17700
C  41.65100 7.07600 46.64300
C  41.22400 2.28100 46.85100
C  46.01900 1.93200 46.89300
C  46.51100 6.74300 47.29800
N  41.69600 4.64400 46.53200
C  41.06800 5.84600 46.51600
C  39.61800 5.64700 46.14400
C  39.39200 4.16400 46.65000
C  40.85900 3.63000 46.72100
C  38.75300 4.12100 48.06100
C  39.32000 5.90100 44.69400
C  38.13300 6.84300 44.36600
H  37.68000 6.80200 42.88200
N  43.66200 2.27000 46.92000
C  42.48100 1.61800 46.82400
C  42.78700 0.22900 46.79200
C  44.16200 0.09100 46.62700
C  44.72200 1.43500 46.74100
C  41.73000 -0.87600 46.80900
C  44.94600 -1.18000 46.62500
O  44.35600 -2.27400 46.57000
C  46.43500 -1.23100 46.52400
N  46.01300 4.32600 47.02000
C  46.63400 3.14000 47.10400
C  48.16600 3.30700 47.22100
C  48.27400 4.89100 47.48900
C  46.86700 5.40500 47.29000
C  48.94000 2.32900 48.27500
C  49.37200 5.53900 46.55700
C  50.46200 6.34000 47.41900
N  44.09600 6.51800 46.91600
C  45.20900 7.33600 47.11200
C  44.87100 8.74600 46.91400
C  43.44800 8.72200 46.84900
C  43.03400 7.33000 46.82900
C  45.81900 9.95400 46.77700
C  42.21200 9.47900 46.61600
O  42.00900 10.72000 46.46200
C  41.08500 8.46600 46.55100
C  40.12000 8.76600 47.62000
O  40.31600 8.57400 48.79300
O  38.90800 9.21400 47.12900
C  38.04800 9.79100 48.13500
H  40.36600 1.63600 46.64900
H  46.79600 1.25700 46.52800
H  47.32300 7.46200 47.42300
H  38.98100 6.36800 46.65600
H  38.82900 3.56300 45.93500
H  38.27300 5.09000 48.20000
H  39.46800 4.03600 48.87900
H  38.02300 3.31500 48.13700
H  39.29000 4.93800 44.18200
H  40.19900 6.37600 44.25700
H  38.32000 7.89300 44.59100
H  37.27900 6.58700 44.99300
H  41.85800 -1.51700 45.93600
H  40.72500 -0.45200 46.82200
H  41.92100 -1.42300 47.73200
H  47.07600 -0.77300 47.27700
H  46.69800 -0.88500 45.52400
H  46.73900 -2.25500 46.74000
H  48.46800 3.11900 46.19100
H  48.42600 4.96400 48.56500
H  48.32200 2.05500 49.13000
H  49.80100 2.77700 48.77300
H  49.32600 1.55800 47.60900
H  48.88600 6.35700 46.02600
H  49.77500 4.84000 45.82400
H  51.46700 6.11200 47.06400
H  50.60400 6.08100 48.46900
H  50.32200 7.41500 47.30600
H  45.95600 10.45400 47.73600
H  45.49000 10.75900 46.12000
H  46.81100 9.57300 46.53600
H  40.61500 8.70900 45.59800
H  37.11500 10.15800 47.70500
H  38.50400 10.68100 48.56900
H  37.82300 9.07200 48.92300
Mg 48.06400 15.91300 28.72000
C  45.82000 15.33600 31.33700
C  50.13800 17.44100 30.87500
C  49.90100 16.81700 26.09200
C  45.73000 14.54000 26.51000
N  47.93100 16.41300 30.83800
C  47.02100 16.01900 31.78000
C  47.31000 16.36600 33.18200
C  48.53800 17.32300 32.93300
C  48.97100 17.04400 31.52600
C  48.26900 18.81100 33.33600
C  47.49900 15.11500 34.13300
C  46.67400 15.02500 35.40300
H  46.57800 16.18600 36.39100
N  49.80800 16.90900 28.55700
C  50.62600 17.42000 29.56500
C  51.85700 17.89300 29.02100
C  51.77600 17.71000 27.59600
C  50.41700 17.18400 27.36600
C  52.99100 18.38800 29.89000
C  52.87600 17.94500 26.55900
O  52.89500 17.59000 25.38300
C  54.09900 18.74900 26.91900
N  47.77200 15.93800 26.50700
C  48.67300 16.30600 25.62400
C  48.31600 15.92900 24.14300
C  47.03500 15.06000 24.43000
C  46.86500 15.08500 25.91600
C  48.17800 17.10400 23.07900
C  47.17100 13.67400 23.71500
C  46.45000 13.56700 22.27900
N  46.18500 15.08500 28.86100
C  45.38500 14.56000 27.91000
C  44.22000 13.94900 28.41700
C  44.25200 14.32800 29.80100
C  45.53100 14.94500 30.00900
C  43.09000 13.35400 27.66200
C  43.57400 14.24400 31.03400
O  42.49300 13.67200 31.36200
C  44.50000 14.99300 32.13300
C  43.75600 15.97900 32.82200
O  43.50000 17.11200 32.49500
O  43.38600 15.47700 34.03300
C  42.76400 16.49800 34.87400
H  50.75500 17.95100 31.61700
H  50.53000 17.13300 25.25800
H  45.06500 13.93200 25.89300
H  46.42300 16.88600 33.54400
H  49.33600 16.94800 33.57500
H  48.97100 19.24900 34.04600
H  47.20800 18.92500 33.56000
H  48.39100 19.34800 32.39500
H  48.55100 14.90800 34.33000
H  47.18600 14.24300 33.55700
H  47.11500 14.17700 35.92700
H  45.65700 14.71500 35.16300
H  52.91900 19.40700 30.27000
H  54.02500 18.35200 29.54500
H  52.99100 17.74000 30.76700
H  54.93700 18.17800 27.31900
H  53.81000 19.58000 27.56200
H  54.44400 19.24300 26.01100
H  49.20300 15.39100 23.80900
H  46.15900 15.62700 24.11600
H  47.10700 17.27200 22.96600
H  48.77600 16.87400 22.19800
H  48.58400 18.04600 23.44900
H  46.79600 12.82100 24.28000
H  48.22200 13.46800 23.51500
H  46.87300 14.08400 21.41800
H  45.41700 13.91500 22.28900
H  46.53400 12.48600 22.16500
H  42.62600 14.12200 27.04300
H  42.34000 12.86200 28.28200
H  43.56400 12.52700 27.13400
H  44.74700 14.20700 32.84700
H  43.49200 17.23900 35.20200
H  42.20900 16.08100 35.71400
H  41.98700 17.02900 34.32400

