158

Mg 6.86600 53.95500 41.12300
C  6.23200 50.32600 40.73500
C  10.09000 53.30200 40.47700
C  7.17000 57.23500 41.07500
C  3.37900 54.20400 41.41000
N  7.97400 51.96000 40.54000
C  7.56000 50.64800 40.46900
C  8.74800 49.70400 40.38700
C  9.97500 50.64300 40.62500
C  9.31400 52.08800 40.51500
C  10.84600 50.47400 41.89500
C  8.80300 48.81000 38.99200
C  8.86600 49.48100 37.68600
H  7.63500 49.54900 36.83700
N  8.44200 55.19700 40.81000
C  9.74400 54.74100 40.58100
C  10.59500 55.92700 40.44800
C  9.77400 57.12400 40.63100
C  8.44800 56.58700 40.92800
C  12.09200 55.94100 40.26900
C  10.23500 58.55100 40.46100
O  11.41800 58.72200 40.08100
C  9.25000 59.60800 40.75500
N  5.46000 55.48200 41.19800
C  5.89300 56.72500 41.33000
C  4.65600 57.73000 41.52100
C  3.46800 56.77500 41.28800
C  4.10400 55.40800 41.29600
C  4.56400 58.47300 42.90600
C  2.62200 57.12300 40.07300
C  1.35500 57.90400 40.32800
N  5.12100 52.59500 41.10200
C  3.83300 52.88100 41.35300
C  3.01100 51.76800 41.45100
C  3.92800 50.67800 41.28000
C  5.19900 51.25000 40.95600
C  1.50600 51.69200 41.68800
C  4.05300 49.23600 41.34400
O  3.14400 48.43700 41.58300
C  5.43900 48.92400 40.72900
C  5.21200 48.33900 39.28700
O  4.79800 48.99600 38.32400
O  5.59300 46.99700 39.23800
C  5.41800 46.33800 38.00800
H  11.15900 53.20000 40.28100
H  7.22500 58.31400 40.91800
H  2.32000 54.36500 41.62200
H  8.74200 49.01700 41.23400
H  10.66400 50.53700 39.78700
H  10.72000 49.40500 42.06500
H  10.45900 51.10100 42.69800
H  11.87400 50.59700 41.55400
H  7.90500 48.21100 39.14100
H  9.77100 48.32000 39.09100
H  9.57700 48.97800 37.03100
H  9.36900 50.44200 37.58300
H  12.32800 56.45900 39.33900
H  12.46000 54.92500 40.12900
H  12.65800 56.35000 41.10600
H  8.45000 59.60500 40.01400
H  9.76300 60.53800 40.51000
H  8.95000 59.58800 41.80200
H  4.85500 58.39800 40.68300
H  2.82700 56.69700 42.16700
H  3.77100 58.11500 43.56400
H  4.44200 59.54500 42.74600
H  5.55200 58.50500 43.36400
H  2.31700 56.14900 39.69000
H  3.23300 57.71100 39.38800
H  0.90100 57.72900 41.30300
H  0.62100 57.51200 39.62500
H  1.49800 58.96200 40.10800
H  0.98400 51.31400 40.80900
H  1.07600 52.66200 41.93400
H  1.14600 51.08900 42.52200
H  6.11800 48.27800 41.28500
H  5.58800 47.05900 37.20900
H  4.39500 46.00300 37.83900
H  6.12900 45.52400 37.86600
Mg -11.34800 16.20800 42.92400
C  -7.89300 16.54200 42.48100
C  -11.59000 19.53200 42.44400
C  -14.70800 15.69800 42.88800
C  -10.93000 12.75600 42.74400
N  -9.84300 17.78300 42.33400
C  -8.53800 17.72800 42.28200
C  -7.91900 19.13600 42.08100
C  -9.07300 20.11100 42.39900
C  -10.27100 19.09900 42.34200
C  -9.03100 20.78800 43.77000
C  -7.37200 19.15000 40.57300
C  -5.90200 19.59200 40.38000
H  -5.05600 18.82800 39.34700
N  -12.95500 17.43600 42.60600
C  -12.84800 18.80900 42.44800
C  -14.22300 19.27800 42.31800
C  -15.15900 18.18400 42.43700
C  -14.28600 16.98900 42.64000
C  -14.47700 20.77300 42.25700
C  -16.67900 18.27300 42.40700
O  -17.29500 19.34700 42.20000
C  -17.63200 17.12000 42.70600
N  -12.66500 14.41800 42.84300
C  -14.01100 14.52300 43.00600
C  -14.63900 13.14200 43.19700
C  -13.45900 12.13000 42.91600
C  -12.27200 13.15500 42.78400
C  -15.33800 12.99500 44.61000
C  -13.58300 11.28100 41.67700
C  -13.43600 9.73900 41.84200
N  -9.80900 14.89100 42.71200
C  -9.75300 13.51300 42.73100
C  -8.34100 13.08000 42.65200
C  -7.65700 14.20700 42.43500
C  -8.48900 15.29500 42.56700
C  -7.86000 11.64900 42.80700
C  -6.24900 14.72300 42.25400
O  -5.21700 14.13000 42.14300
C  -6.38300 16.28700 42.34200
C  -5.59200 16.82700 43.51100
O  -5.57900 16.35600 44.62800
O  -4.64000 17.77700 43.05600
C  -3.51500 18.35600 43.88600
H  -11.65200 20.62200 42.48100
H  -15.77600 15.53400 43.04700
H  -10.83100 11.67100 42.67000
H  -7.11900 19.37000 42.78400
H  -9.02800 20.88400 41.63200
H  -8.19100 20.36800 44.32300
H  -9.95800 20.65500 44.32700
H  -8.93000 21.87100 43.69000
H  -8.00900 19.85300 40.03700
H  -7.38200 18.17500 40.08600
H  -5.46200 19.33000 41.34200
H  -5.87900 20.68100 40.35200
H  -14.87800 21.21700 43.16800
H  -15.14600 20.98400 41.42200
H  -13.56100 21.29100 41.97200
H  -18.64300 17.34000 42.36600
H  -17.51500 16.67100 43.69300
H  -17.20600 16.42500 41.98200
H  -15.34100 13.01800 42.37300
H  -13.25700 11.56000 43.82300
H  -16.37400 12.65700 44.58500
H  -15.31800 13.95300 45.13100
H  -14.79500 12.23400 45.17000
H  -12.85200 11.54000 40.91200
H  -14.52900 11.32300 41.13800
H  -14.38600 9.26400 41.59700
H  -13.11400 9.60900 42.87500
H  -12.67100 9.29600 41.20300
H  -8.14700 11.17000 43.74200
H  -6.79500 11.66600 42.57500
H  -8.33200 11.07300 42.01100
H  -6.00700 16.73000 41.42000
H  -2.59700 17.95600 43.45500
H  -3.50500 18.11500 44.94900
H  -3.65100 19.42100 43.70000

