158

Mg 25.82000 52.05200 26.06600
C  23.91600 52.60000 28.94200
C  28.62000 51.84600 28.25700
C  27.86300 52.01800 23.41700
C  23.16400 52.83700 24.13900
N  26.17400 52.24200 28.37200
C  25.25900 52.38600 29.31500
C  25.80500 52.20500 30.68200
C  27.28900 51.88300 30.46500
C  27.37900 52.00500 28.95900
C  28.17100 52.84000 31.28300
C  25.13300 50.98600 31.48900
C  25.58100 50.85700 32.97300
H  24.81200 51.74400 33.95500
N  27.90900 51.97400 25.84000
C  28.83700 51.81000 26.82800
C  30.14100 51.73900 26.21000
C  29.98300 51.67800 24.83400
C  28.52900 51.88200 24.62400
C  31.36700 51.76700 27.10500
C  30.94900 51.54400 23.67500
O  30.64600 51.65600 22.47100
C  32.39000 51.26700 23.92600
N  25.58700 52.54000 24.14300
C  26.52500 52.37200 23.15900
C  25.99200 52.69400 21.78800
C  24.45800 52.62000 22.06400
C  24.41100 52.68500 23.55100
C  26.59000 53.93100 21.01100
C  23.65300 51.44600 21.36900
C  23.65400 51.34400 19.80600
N  23.87900 52.48400 26.34900
C  22.87700 52.78700 25.49000
C  21.66900 53.10400 26.13900
C  22.05000 53.05500 27.55400
C  23.42800 52.73200 27.61100
C  20.32800 53.52600 25.49300
C  21.59300 53.23300 28.90700
O  20.46000 53.62000 29.19300
C  22.73400 52.88500 29.87800
C  23.04200 54.07200 30.65500
O  23.69100 55.04500 30.26600
O  22.44700 54.08200 31.85200
C  22.58200 55.39300 32.61200
H  29.47200 51.69700 28.92400
H  28.45800 52.01600 22.50200
H  22.31600 52.92200 23.45700
H  25.72200 53.17000 31.18000
H  27.64700 50.88000 30.69900
H  27.76800 53.15600 32.24400
H  28.38100 53.78700 30.78500
H  29.11100 52.29200 31.35400
H  25.20100 50.04000 30.95200
H  24.04600 51.05600 31.49400
H  26.62100 51.18400 32.94200
H  25.55200 49.80100 33.24200
H  32.23800 52.30000 26.72300
H  31.63500 50.72600 27.28400
H  31.16700 52.32500 28.02000
H  32.66200 52.32100 23.98900
H  32.86200 50.78500 23.07000
H  32.61200 50.79900 24.88500
H  26.22600 51.82700 21.17000
H  24.16400 53.58100 21.64200
H  27.34600 54.29200 21.70900
H  25.90800 54.75500 20.80200
H  27.10200 53.83600 20.05400
H  22.65100 51.38600 21.79500
H  24.07500 50.53200 21.78800
H  24.24400 50.47600 19.51100
H  23.96000 52.31900 19.42700
H  22.66600 51.18700 19.37500
H  19.65900 53.34900 26.33500
H  20.29000 52.81800 24.66500
H  20.31600 54.53600 25.08300
H  22.55700 52.07300 30.58400
H  22.36400 56.27400 32.00900
H  23.36800 55.55200 33.35000
H  21.68900 55.37800 33.23700
Mg 9.44400 46.48100 26.53700
C  7.44900 46.15900 29.27000
C  12.11900 47.03400 28.58300
C  11.27300 46.90900 23.80300
C  6.47700 46.75000 24.52000
N  9.67300 46.57800 28.61800
C  8.76500 46.44600 29.56500
C  9.35200 46.80900 30.89400
C  10.70700 47.41400 30.59700
C  10.85800 46.90400 29.16300
C  10.87900 48.98600 30.69900
C  9.40500 45.65600 31.92400
C  8.86200 46.06300 33.38600
H  9.39800 45.28500 34.51000
N  11.43400 46.82300 26.22100
C  12.44900 47.02800 27.22800
C  13.68400 47.14200 26.46500
C  13.47400 47.13200 25.07000
C  12.02500 46.98600 24.99300
C  14.93600 47.49000 27.04700
C  14.30700 47.13800 23.86200
O  13.93600 46.89700 22.69100
C  15.76300 47.38500 24.03200
N  8.96300 46.87800 24.49100
C  9.94300 46.98100 23.55300
C  9.27700 47.06100 22.13100
C  7.72100 46.94100 22.44000
C  7.69000 46.85200 23.90700
C  9.68800 48.35900 21.23500
C  7.09900 45.72900 21.61900
C  6.11400 46.10400 20.58100
N  7.34800 46.30900 26.73400
C  6.28500 46.49200 25.84900
C  5.07700 46.18300 26.54700
C  5.44600 46.14300 27.90000
C  6.88000 46.11000 27.94600
C  3.81000 46.01700 25.87000
C  5.00300 45.94600 29.30600
O  3.87800 45.75300 29.73000
C  6.26700 46.09400 30.17700
C  6.16300 44.87600 31.08900
O  6.58000 43.76000 30.81700
O  5.36600 45.25000 32.16300
C  5.51500 44.50200 33.41800
H  12.99600 47.32700 29.16300
H  11.78200 46.76600 22.84700
H  5.61500 46.64200 23.85800
H  8.63500 47.49000 31.35300
H  11.42900 47.01200 31.30800
H  10.86100 49.39900 29.69100
H  11.71600 49.20000 31.36400
H  10.06700 49.54800 31.16100
H  10.44400 45.33600 32.00900
H  8.81500 44.82300 31.54100
H  7.78300 45.93000 33.30200
H  9.01500 47.12200 33.58900
H  15.78000 46.81000 26.92400
H  14.82900 47.69600 28.11200
H  15.33700 48.39100 26.58100
H  16.11900 46.54600 24.63100
H  15.83100 48.40300 24.41700
H  16.38700 47.40700 23.13800
H  9.63900 46.13400 21.68800
H  7.22500 47.86900 22.15800
H  8.77100 48.86300 20.93100
H  10.24000 47.87900 20.42700
H  10.28500 48.95000 21.93000
H  6.74600 44.84800 22.15600
H  7.85900 45.35400 20.93300
H  5.24000 45.45400 20.62800
H  6.53300 46.00500 19.58000
H  5.74800 47.13000 20.54800
H  3.82000 46.40000 24.85000
H  3.07600 46.50300 26.51200
H  3.41400 45.00200 25.84000
H  6.10100 46.98400 30.78300
H  5.70000 45.23200 34.20600
H  6.37800 43.83600 33.41600
H  4.61900 43.91100 33.60700

