158

Mg 27.74000 56.65800 40.61400
C  25.88000 53.77100 39.58300
C  30.50900 55.14200 38.98600
C  29.50200 59.53100 40.81200
C  24.83200 58.26500 41.33700
N  28.15800 54.68000 39.35700
C  27.22600 53.69200 39.16000
C  27.83700 52.53300 38.33400
C  29.37500 52.96000 38.30200
C  29.32300 54.33800 38.99700
C  30.40300 51.89400 38.90100
C  27.06600 52.24300 36.98700
C  27.06800 53.39800 36.05300
H  27.33700 53.12200 34.53600
N  29.77400 57.21000 40.25200
C  30.65800 56.43300 39.52800
C  31.90700 57.19800 39.55400
C  31.67900 58.42400 40.13000
C  30.27800 58.48400 40.36900
C  33.20300 56.76800 38.83600
C  32.71700 59.55900 40.26700
O  33.89300 59.37500 39.99300
C  32.39600 60.83600 40.97500
N  27.31400 58.58000 41.03700
C  28.16500 59.61100 41.05600
C  27.47800 60.88100 41.48300
C  25.95000 60.53600 41.41200
C  26.01200 59.05600 41.25800
C  28.06000 61.52300 42.81100
C  25.25800 61.16400 40.19300
C  25.63100 60.50500 38.89700
N  25.77000 56.24100 40.52400
C  24.69000 56.94200 40.85500
C  23.49100 56.08300 40.72800
C  23.99100 54.87100 40.34500
C  25.34400 54.97700 40.16500
C  21.99200 56.37900 40.95100
C  23.50700 53.51300 40.09800
O  22.35500 52.96700 40.17900
C  24.66500 52.80200 39.44200
C  24.83800 51.53000 40.26200
O  24.11800 50.49900 40.12000
O  25.73300 51.69400 41.26100
C  26.01500 50.56200 42.13700
H  31.39700 54.76800 38.47300
H  29.97900 60.50700 40.92000
H  23.96300 58.89200 41.54600
H  27.81700 51.63200 38.94600
H  29.67800 53.01900 37.25700
H  30.92100 51.35500 38.10800
H  29.80100 51.14700 39.41800
H  31.03300 52.28200 39.70100
H  26.09500 51.77400 37.14600
H  27.78300 51.57600 36.51000
H  27.83600 54.12800 36.30900
H  26.06400 53.82000 36.07500
H  33.27300 55.68000 38.81700
H  34.16600 57.02400 39.27800
H  33.23600 57.12100 37.80500
H  31.89800 60.41500 41.84900
H  31.83300 61.55300 40.37800
H  33.29400 61.30600 41.37600
H  27.72100 61.60500 40.70500
H  25.52000 60.91200 42.34100
H  28.36900 62.52500 42.51400
H  28.88400 61.03800 43.33300
H  27.35000 61.55700 43.63800
H  25.48300 62.22900 40.25000
H  24.18900 60.97300 40.28400
H  24.77000 60.09200 38.37200
H  26.38800 59.72200 38.88600
H  26.02100 61.30600 38.26900
H  21.56500 56.84400 40.06200
H  21.88900 57.12100 41.74300
H  21.37900 55.54400 41.28900
H  24.47500 52.47100 38.42100
H  25.13900 50.09100 42.58500
H  26.83700 50.93300 42.74900
H  26.56100 49.84300 41.52700
Mg -5.84500 25.40300 26.31500
C  -4.61700 26.91200 29.10700
C  -7.75100 23.26000 28.37400
C  -6.54600 23.47100 23.71700
C  -3.82300 27.29400 24.33600
N  -6.11200 24.98500 28.51300
C  -5.56100 25.89400 29.45000
C  -6.07100 25.60300 30.85400
C  -6.81100 24.21000 30.64800
C  -6.94000 24.11300 29.12100
C  -6.19100 23.00200 31.30200
C  -6.98100 26.72400 31.35700
C  -7.06800 26.97300 32.85400
H  -6.47100 25.92000 33.79800
N  -7.18400 23.74300 26.00100
C  -7.89200 23.07700 27.00000
C  -8.83200 22.11800 26.35800
C  -8.49500 22.18100 24.92400
C  -7.32400 23.17700 24.76500
C  -9.84100 21.30000 27.07300
C  -9.00400 21.34500 23.82800
O  -8.78200 21.46400 22.65200
C  -9.97300 20.21600 24.20200
N  -5.31600 25.38100 24.30600
C  -5.62600 24.45600 23.42800
C  -5.15100 24.79100 22.03500
C  -4.53600 26.19500 22.20900
C  -4.52600 26.34100 23.68700
C  -4.28600 23.66200 21.42400
C  -5.35900 27.36000 21.43300
C  -6.34500 28.22900 22.24800
N  -4.52700 26.84200 26.59800
C  -3.81700 27.55900 25.69300
C  -2.98700 28.56200 26.40000
C  -3.28400 28.38100 27.76100
C  -4.21100 27.32100 27.78400
C  -2.20900 29.74200 25.77000
C  -3.10700 28.86400 29.14500
O  -2.40000 29.78200 29.60000
C  -3.94900 27.90500 29.98800
C  -3.03400 27.26300 31.00900
O  -2.39500 26.30500 30.67500
O  -3.12600 27.95500 32.21000
C  -2.22500 27.39200 33.18200
H  -8.29500 22.54100 28.98900
H  -7.04300 23.14300 22.80100
H  -3.10000 27.87100 23.75500
H  -5.20300 25.48600 31.50300
H  -7.81500 24.18300 31.07100
H  -5.46800 23.26900 32.07300
H  -5.74200 22.38300 30.52600
H  -6.95300 22.44000 31.84100
H  -7.98400 26.48800 31.00000
H  -6.70300 27.63900 30.83500
H  -8.13600 26.94800 33.06600
H  -6.58800 27.92100 33.09900
H  -10.84300 21.60500 26.77100
H  -9.94900 21.44100 28.14800
H  -9.74800 20.24800 26.80200
H  -9.40800 19.41500 24.68000
H  -10.34500 19.85200 23.24400
H  -10.77500 20.62400 24.81700
H  -6.00700 24.88000 21.36600
H  -3.51900 26.23900 21.81800
H  -3.34500 23.98200 20.97700
H  -4.80700 23.11400 20.64000
H  -4.01200 22.96800 22.21900
H  -5.91700 26.90400 20.61400
H  -4.61200 27.94300 20.89400
H  -6.20800 28.08500 23.32000
H  -7.38000 27.99400 22.00100
H  -6.30100 29.31600 22.18100
H  -2.48700 29.99900 24.74800
H  -1.14800 29.49200 25.79700
H  -2.41300 30.56300 26.45700
H  -4.61700 28.53400 30.57700
H  -1.29900 27.03000 32.73400
H  -2.80000 26.63100 33.70900
H  -2.16000 28.26000 33.83800

