158

Mg 29.85400 58.32900 40.88800
C  26.96900 56.54000 39.95500
C  31.68400 56.03800 38.91800
C  32.42500 60.40800 40.98400
C  27.73900 61.01800 42.04400
N  29.39300 56.43800 39.82400
C  28.14100 55.96300 39.44800
C  28.25100 54.77000 38.45100
C  29.75800 54.32000 38.76600
C  30.36200 55.66600 39.21200
C  29.96000 53.15100 39.70600
C  27.95800 55.18000 36.97100
C  27.06400 54.35700 36.10300
H  26.94200 54.56100 34.64600
N  31.85600 58.12700 40.28600
C  32.37700 57.18300 39.46700
C  33.77600 57.52500 39.14900
C  34.05400 58.80700 39.76500
C  32.71000 59.17600 40.38200
C  34.68200 56.48200 38.29900
C  35.30600 59.55000 39.65500
O  36.25700 59.09400 38.96200
C  35.60700 60.83100 40.41700
N  30.00500 60.33900 41.56000
C  31.26600 60.77600 41.66100
C  31.29200 62.22400 42.29800
C  29.73900 62.50100 42.49500
C  29.12900 61.25700 42.00000
C  32.09300 62.25000 43.60100
C  29.30600 63.82900 41.71100
C  28.39900 64.87200 42.46800
N  27.76300 58.71200 41.02400
C  27.08300 59.83600 41.56200
C  25.69000 59.53900 41.57200
C  25.58800 58.28200 40.95700
C  26.85500 57.82000 40.61000
C  24.59600 60.44000 42.07400
C  24.64100 57.25200 40.50000
O  23.44200 57.23500 40.52500
C  25.52100 56.07700 39.83500
C  25.30000 54.82300 40.65200
O  25.96200 54.57100 41.65900
O  24.45800 53.90300 40.07700
C  24.47000 52.51700 40.60700
H  32.11600 55.31000 38.22800
H  33.20600 61.17100 40.98700
H  27.13100 61.73700 42.59700
H  27.48800 54.04700 38.73800
H  30.22500 53.92600 37.86300
H  28.99300 52.86400 40.12100
H  30.57200 53.43700 40.56100
H  30.43000 52.26100 39.28700
H  28.92300 55.24900 36.47000
H  27.75100 56.24600 36.86900
H  26.07900 54.41000 36.56700
H  27.39700 53.33800 36.30400
H  34.84400 56.78300 37.26400
H  34.27300 55.47200 38.33100
H  35.64000 56.29200 38.78200
H  35.11500 61.68100 39.94400
H  36.69300 60.89800 40.35600
H  35.30200 60.77000 41.46200
H  31.73400 62.95300 41.61800
H  29.34100 62.48600 43.50900
H  32.63700 61.32400 43.78600
H  31.39700 62.38500 44.42800
H  32.77800 63.09600 43.66700
H  28.75000 63.57800 40.80800
H  30.16600 64.40900 41.37700
H  28.24100 64.63000 43.51900
H  27.51000 65.11400 41.88600
H  29.06400 65.73600 42.46000
H  24.90500 60.97500 42.97200
H  23.71600 59.82500 42.26200
H  24.53400 61.23100 41.32700
H  25.13600 55.92800 38.82600
H  25.46900 52.21000 40.91600
H  24.19400 51.82400 39.81200
H  23.71700 52.43000 41.38900
Mg 1.45200 42.11900 26.30100
C  2.78300 42.34400 29.60500
C  -1.54500 41.14600 27.73800
C  0.23800 41.42800 23.18500
C  4.50200 43.01400 24.97500
N  0.71300 41.92900 28.45800
C  1.47800 42.00100 29.62300
C  0.52000 42.04600 30.87000
C  -0.82200 41.69400 30.26700
C  -0.59900 41.59000 28.69900
C  -1.58400 40.55200 30.91000
C  0.55100 43.41800 31.58100
C  1.22800 43.45900 33.00700
H  0.19400 43.40800 34.11100
N  -0.38700 41.27100 25.53400
C  -1.46000 40.97400 26.33800
C  -2.48400 40.36500 25.53700
C  -1.98600 40.40400 24.20700
C  -0.70500 41.08300 24.23100
C  -3.81800 39.87600 26.11300
C  -2.68000 40.04300 22.90400
O  -2.09800 40.00100 21.80200
C  -4.16200 39.62000 23.00700
N  2.22100 42.30600 24.37700
C  1.55200 41.99000 23.23300
C  2.50700 42.19800 21.96700
C  3.60300 43.04100 22.66300
C  3.42900 42.80200 24.09800
C  3.00400 40.85600 21.35000
C  3.50900 44.46200 22.37800
C  3.60500 44.72800 20.82100
N  3.35200 42.54700 27.11200
C  4.48800 42.90900 26.41200
C  5.52000 43.08400 27.38200
C  4.88500 42.92200 28.64300
C  3.58300 42.50600 28.40800
C  6.95300 43.43000 26.96800
C  5.14800 42.85000 30.07500
O  6.10900 42.88600 30.74500
C  3.70800 42.52400 30.75200
C  3.83500 41.17400 31.49700
O  3.89700 40.07800 30.94500
O  4.01100 41.34700 32.87000
C  4.12400 40.10200 33.59500
H  -2.56600 41.00700 28.10100
H  -0.10900 41.11800 22.19700
H  5.41400 43.44200 24.55200
H  0.95800 41.26500 31.49100
H  -1.37200 42.62800 30.37900
H  -2.06000 40.85900 31.84100
H  -1.12300 39.60800 31.20000
H  -2.32800 40.23700 30.17800
H  -0.45300 43.83900 31.64700
H  1.17000 44.12600 31.02900
H  1.81300 44.37500 33.09100
H  1.88900 42.60100 33.12900
H  -4.09000 40.21900 27.11100
H  -3.95200 38.79500 26.14600
H  -4.59400 40.19000 25.41600
H  -4.50300 39.27800 22.03000
H  -4.61200 40.54200 23.37500
H  -4.12100 38.81700 23.74400
H  1.95600 42.69900 21.17100
H  4.57100 42.74500 22.26000
H  2.52300 40.05400 21.90900
H  4.08700 40.80400 21.46300
H  2.72700 40.90700 20.29700
H  4.30900 45.03100 22.85100
H  2.62200 44.96000 22.76800
H  2.71600 45.21800 20.42500
H  3.76800 43.80000 20.27300
H  4.49000 45.35100 20.68800
H  7.20800 44.49000 26.96900
H  7.03600 42.99200 25.97300
H  7.68700 42.95700 27.62000
H  3.44500 43.28000 31.49300
H  5.06300 39.72200 33.19200
H  3.27700 39.45300 33.37200
H  4.19000 40.23400 34.67500

