158

Mg 25.10700 -5.25700 45.90700
C  26.95500 -2.76900 44.40200
C  22.29700 -4.22000 44.07700
C  23.59700 -8.11900 46.87000
C  28.07900 -6.47900 47.54100
N  24.66300 -3.68000 44.43600
C  25.65800 -2.80300 43.94400
C  25.06600 -1.96700 42.84700
C  23.48200 -2.08500 43.17900
C  23.43700 -3.41300 43.96600
C  22.93400 -0.99900 44.12000
C  25.52400 -2.55600 41.45300
C  26.37400 -1.62500 40.52000
H  25.95600 -1.54000 39.02000
N  23.24900 -6.01700 45.54500
C  22.21500 -5.44300 44.82300
C  21.13000 -6.32700 44.80700
C  21.34700 -7.45500 45.56500
C  22.79500 -7.24000 46.04400
C  19.81800 -5.92700 44.18200
C  20.50800 -8.65800 45.75800
O  19.34200 -8.63800 45.35300
C  20.82500 -9.73700 46.66300
N  25.75600 -7.16700 46.94600
C  24.87100 -8.10200 47.26700
C  25.48800 -9.04000 48.30300
C  26.87800 -8.44300 48.62400
C  26.97500 -7.27500 47.62500
C  24.65800 -9.58400 49.58400
C  28.10800 -9.42000 48.63600
C  28.76900 -9.50500 49.97800
N  27.07500 -4.78600 46.03100
C  28.14900 -5.34700 46.72200
C  29.35400 -4.49300 46.48700
C  28.87300 -3.61800 45.48900
C  27.52800 -3.72800 45.35100
C  30.67800 -4.61100 46.99300
C  29.38000 -2.63100 44.57500
O  30.44100 -2.22000 44.43600
C  28.12000 -1.99600 43.83500
C  28.06900 -0.58400 44.16200
O  27.85600 -0.13300 45.27500
O  28.35400 0.20600 43.08700
C  28.85000 1.50600 43.41100
H  21.42100 -3.78800 43.58900
H  23.12300 -9.00000 47.30900
H  28.92600 -6.74500 48.17700
H  25.42600 -0.95800 43.05200
H  22.78700 -2.29400 42.36600
H  22.40600 -0.28100 43.49200
H  23.73500 -0.42200 44.58200
H  22.32500 -1.37800 44.94000
H  24.65000 -2.92000 40.91100
H  26.02100 -3.51900 41.56900
H  27.41800 -1.93300 40.55500
H  26.28600 -0.58700 40.83900
H  19.16300 -6.78900 44.05100
H  19.95400 -5.60300 43.15000
H  19.27600 -5.17600 44.75700
H  19.89700 -10.28300 46.83600
H  21.09600 -9.28600 47.61700
H  21.65000 -10.36000 46.31800
H  25.61900 -9.96700 47.74300
H  26.79800 -8.01100 49.62200
H  25.21300 -9.62200 50.52100
H  24.24200 -10.58200 49.44500
H  23.84700 -8.85600 49.58700
H  28.82300 -9.11300 47.87200
H  27.90100 -10.45800 48.37500
H  28.02200 -9.57800 50.76900
H  29.27000 -8.56300 50.20000
H  29.51700 -10.29700 50.00000
H  31.36400 -3.85400 46.61300
H  30.92500 -5.63000 46.69600
H  30.62600 -4.55400 48.08100
H  28.30200 -2.12600 42.76800
H  28.99800 2.12000 42.52200
H  29.87000 1.37600 43.77400
H  28.27100 2.17200 44.05000
Mg 35.09000 1.66600 29.51900
C  32.98300 2.58800 32.14000
C  37.59800 1.54700 31.52300
C  37.00900 1.53400 26.74800
C  32.32800 2.15500 27.31300
N  35.24700 2.13000 31.55200
C  34.34400 2.40400 32.48300
C  34.88900 2.50800 33.91400
C  36.35800 2.22500 33.71100
C  36.45300 1.97200 32.17900
C  37.31100 3.30600 34.37600
C  34.20300 1.59300 34.92600
C  33.57600 2.31500 36.16000
H  34.39800 3.43200 36.86600
N  36.96300 1.30500 29.20500
C  37.91500 1.25400 30.17400
C  39.14000 0.74400 29.62500
C  38.94000 0.81400 28.22200
C  37.59100 1.23700 27.99800
C  40.26600 0.35500 30.49100
C  39.94500 0.55900 27.12400
O  39.68400 0.75600 25.95400
C  41.37400 0.11000 27.53100
N  34.70200 1.91300 27.33000
C  35.70700 1.83100 26.41400
C  35.19000 1.95900 24.93200
C  33.63300 1.67200 25.19300
C  33.53900 1.91900 26.71700
C  35.50700 3.36300 24.27800
C  33.25800 0.18500 24.86300
C  31.94200 -0.00400 24.05300
N  33.06200 2.28200 29.63400
C  32.13000 2.43500 28.70400
C  30.84600 2.85000 29.28600
C  31.20400 2.98700 30.63100
C  32.51400 2.59900 30.77800
C  29.53500 3.05900 28.60700
C  30.70000 3.23900 31.94900
O  29.61100 3.62800 32.31700
C  31.82900 3.11000 32.96000
C  31.99900 4.42100 33.64500
O  32.56500 5.38800 33.15900
O  31.22900 4.46600 34.77500
C  31.16900 5.75300 35.41300
H  38.47500 1.50300 32.17200
H  37.71200 1.56200 25.91300
H  31.42200 2.19600 26.70600
H  34.77100 3.56700 34.14300
H  36.58300 1.32700 34.28600
H  37.96400 2.94400 35.17000
H  36.86500 4.27200 34.61500
H  37.97700 3.68100 33.59800
H  34.96200 0.92100 35.32800
H  33.44400 0.97400 34.44800
H  33.49100 1.57000 36.95100
H  32.60900 2.70300 35.84100
H  40.55600 -0.69200 30.40400
H  40.13900 0.66000 31.53000
H  41.06000 0.98400 30.08900
H  41.04300 -0.86800 27.87800
H  41.90900 0.83400 28.14600
H  41.98500 -0.11100 26.65500
H  35.62100 1.29800 24.18000
H  33.00700 2.43700 24.73400
H  35.80400 3.99700 25.11300
H  34.61600 3.83200 23.86200
H  36.34200 3.35300 23.57700
H  33.15300 -0.43000 25.75700
H  34.07500 -0.25200 24.28900
H  31.21400 -0.54400 24.65900
H  32.07300 -0.47600 23.07900
H  31.58700 1.02300 23.97300
H  29.45800 2.82600 27.54500
H  29.12100 4.06200 28.70900
H  28.83700 2.33500 29.02800
H  31.55900 2.39200 33.73400
H  32.16800 6.14700 35.60100
H  30.57500 5.63300 36.31900
H  30.65700 6.49300 34.79800

