158

Mg 23.67500 -5.67400 45.88500
C  25.73900 -3.35900 44.11600
C  21.13200 -4.90300 43.59500
C  21.82500 -8.10300 47.18700
C  26.36600 -6.60600 47.86500
N  23.50500 -4.27200 44.06300
C  24.42000 -3.42200 43.59700
C  23.87100 -2.65000 42.35800
C  22.30500 -2.88200 42.53000
C  22.29900 -4.14400 43.40400
C  21.60500 -1.74400 43.32800
C  24.49200 -3.01400 40.97400
C  24.98500 -1.81300 40.17900
H  24.80000 -1.88700 38.59100
N  21.69600 -6.43000 45.44100
C  20.81900 -5.93900 44.48100
C  19.55100 -6.58900 44.70000
C  19.76200 -7.66900 45.55500
C  21.14100 -7.41900 46.13000
C  18.34800 -6.07800 43.93700
C  18.75200 -8.71700 45.96600
O  17.70200 -8.63900 45.36100
C  18.93000 -9.70000 47.05300
N  24.10200 -7.25400 47.23900
C  23.06800 -8.05700 47.72000
C  23.58600 -9.05300 48.75000
C  24.91700 -8.38700 49.24000
C  25.18500 -7.38800 48.05600
C  22.60600 -9.44000 49.89800
C  26.07400 -9.41200 49.54600
C  26.44600 -9.68800 50.97300
N  25.68000 -5.10400 46.02600
C  26.63000 -5.49200 46.93400
C  27.89000 -4.88200 46.62700
C  27.49500 -3.92400 45.64100
C  26.22100 -4.13300 45.26000
C  29.32800 -5.11200 47.26500
C  28.01600 -2.84600 44.83000
O  29.16400 -2.32000 44.82400
C  26.84500 -2.44500 43.78400
C  26.48000 -0.99400 44.01300
O  26.55900 -0.39700 45.08600
O  26.16300 -0.38700 42.90100
C  26.00400 1.04900 42.80400
H  20.34600 -4.57600 42.91100
H  21.17000 -8.87600 47.59400
H  27.21400 -6.58700 48.55300
H  24.08300 -1.62800 42.67300
H  21.74600 -3.00100 41.60200
H  22.31400 -0.93600 43.51100
H  21.30100 -2.14700 44.29400
H  20.81100 -1.23800 42.78100
H  23.70900 -3.53000 40.41800
H  25.30500 -3.73100 41.08900
H  25.94100 -1.38300 40.47900
H  24.29700 -1.02100 40.47100
H  17.96600 -5.35100 44.65400
H  17.59000 -6.84400 43.77700
H  18.57700 -5.72700 42.93100
H  18.14800 -10.45800 47.09100
H  19.04700 -9.19700 48.01300
H  19.81800 -10.30700 46.87700
H  23.77600 -9.92400 48.12300
H  24.75800 -7.88000 50.19100
H  21.62900 -8.95900 49.85700
H  23.04300 -9.26800 50.88200
H  22.49900 -10.49500 49.64700
H  27.04900 -9.13700 49.14500
H  25.80100 -10.29500 48.96800
H  27.29300 -9.12400 51.36300
H  26.65500 -10.74000 51.16600
H  25.49400 -9.48500 51.46400
H  29.59500 -6.14300 47.03200
H  29.20700 -4.94300 48.33500
H  30.11400 -4.47000 46.86700
H  27.27200 -2.53400 42.78500
H  26.01800 1.59100 43.75000
H  24.96000 1.21100 42.53700
H  26.50900 1.49700 41.94900
Mg 9.96900 47.78400 26.05000
C  8.20900 47.67400 28.88500
C  12.48400 49.30700 27.76400
C  11.85000 47.74500 23.21100
C  7.30800 46.49300 24.27500
N  10.17000 48.46600 28.04200
C  9.42500 48.21800 29.09200
C  9.92800 48.77200 30.38700
C  11.06500 49.65200 29.87600
C  11.29200 49.08000 28.45000
C  10.82000 51.21100 29.86200
C  10.36700 47.74500 31.49500
C  9.79100 47.72400 32.90900
H  9.77200 46.36800 33.65100
N  11.89500 48.37500 25.55700
C  12.83500 48.85600 26.42500
C  14.07600 48.94500 25.77000
C  13.98000 48.35700 24.45300
C  12.53000 48.13400 24.34700
C  15.38900 49.46800 26.43900
C  15.03300 48.06300 23.28000
O  14.71700 47.74600 22.15100
C  16.45900 48.29400 23.51900
N  9.50400 47.59600 23.96100
C  10.47300 47.46800 23.04700
C  9.94100 47.28400 21.59700
C  8.59600 46.51200 21.93400
C  8.42500 46.82700 23.47700
C  9.77800 48.61500 20.87600
C  8.75400 45.06500 21.50200
C  9.94200 44.34500 22.21100
N  8.07700 47.33700 26.44200
C  7.09400 46.82300 25.64000
C  5.87400 46.66000 26.29700
C  6.24400 46.93300 27.65500
C  7.60300 47.30300 27.65400
C  4.51400 46.24800 25.84400
C  5.79500 47.05300 29.03100
O  4.67100 46.94500 29.53400
C  7.11400 47.35000 29.89200
C  7.39800 46.06100 30.59600
O  8.12600 45.19000 30.16500
O  6.75600 46.01200 31.83700
C  6.89500 44.77300 32.57000
H  13.21500 49.81200 28.39800
H  12.42000 47.69900 22.28100
H  6.50800 45.99800 23.72000
H  9.13700 49.39200 30.81000
H  12.00200 49.44700 30.39300
H  9.89000 51.39600 30.40000
H  10.76900 51.61000 28.84900
H  11.64400 51.72200 30.36000
H  11.45300 47.76200 31.58300
H  10.17000 46.82300 30.94700
H  8.83600 48.25000 32.92700
H  10.48800 48.32200 33.49600
H  15.10600 49.67500 27.47100
H  15.85200 50.31200 25.92800
H  16.11100 48.65200 26.47900
H  17.07100 48.36900 22.62000
H  16.85400 47.54200 24.20200
H  16.47900 49.26800 24.00800
H  10.60300 46.68800 20.97000
H  7.68800 46.93300 21.50100
H  10.29700 49.36700 21.47000
H  8.76000 48.96600 20.70600
H  10.22900 48.52100 19.88800
H  8.98900 45.00300 20.43900
H  7.81900 44.56500 21.75500
H  10.42100 43.62300 21.55000
H  9.50100 43.79200 23.04000
H  10.75000 44.97900 22.57700
H  3.73900 46.76000 26.41400
H  4.37100 45.18100 26.02000
H  4.38000 46.50400 24.79300
H  6.89200 48.14400 30.60600
H  7.01600 45.04100 33.61900
H  7.67000 44.08400 32.23200
H  5.92700 44.32000 32.35500

