158

Mg 46.72100 25.25300 28.46900
C  47.75500 27.53500 31.00600
C  45.62500 23.14200 30.84800
C  45.97100 23.21600 25.96000
C  48.30000 27.51200 26.11200
N  46.79500 25.26900 30.71600
C  47.19900 26.32000 31.51600
C  46.96600 25.95600 32.99800
C  46.18800 24.54700 32.90700
C  46.19000 24.26600 31.35100
C  46.67600 23.28800 33.84800
C  46.38400 27.05000 33.93900
C  45.62000 26.63000 35.10200
H  46.37300 26.34700 36.44200
N  45.78800 23.56700 28.39600
C  45.43700 22.77000 29.48600
C  44.79200 21.61400 29.01400
C  44.89300 21.50300 27.59800
C  45.59700 22.81600 27.22400
C  44.24600 20.60200 29.83400
C  44.52100 20.41500 26.61500
O  44.83900 20.42000 25.46300
C  43.76600 19.25000 27.04600
N  46.97800 25.48500 26.38400
C  46.64200 24.40700 25.60800
C  47.03200 24.59800 24.13000
C  47.40000 26.09600 24.13000
C  47.62000 26.39600 25.65000
C  48.20500 23.70800 23.64900
C  46.42400 27.12800 23.48800
C  47.04600 28.35100 22.84400
N  47.84600 27.09200 28.51700
C  48.44100 27.85900 27.48900
C  48.90200 29.17400 27.98900
C  48.66400 29.07500 29.38500
C  47.99400 27.80700 29.63100
C  49.63100 30.14900 27.17500
C  48.82200 29.77100 30.62100
O  49.22300 30.91900 30.84900
C  48.40500 28.75600 31.73800
C  49.65500 28.38200 32.49300
O  50.70500 27.93500 32.05000
O  49.47500 28.56200 33.84000
C  50.45700 28.06800 34.81700
H  45.19200 22.34400 31.45600
H  45.67200 22.56300 25.13800
H  48.69600 28.30400 25.47200
H  48.00500 25.76500 33.26900
H  45.15900 24.69300 33.23500
H  47.30800 23.67500 34.64700
H  47.26500 22.65900 33.18100
H  45.85900 22.74400 34.32100
H  45.81300 27.78500 33.37100
H  47.28300 27.41100 34.43900
H  44.95400 25.80000 34.86600
H  45.04200 27.53500 35.28700
H  44.80500 19.66600 29.82800
H  43.23100 20.31000 29.56200
H  44.19100 20.98500 30.85300
H  42.88600 19.69100 27.51400
H  44.44600 18.59100 27.58600
H  43.38800 18.77800 26.14000
H  46.12700 24.31500 23.59200
H  48.43900 26.32400 23.88900
H  48.62900 23.05500 24.41200
H  48.94100 24.40300 23.24500
H  47.79800 23.16000 22.80000
H  45.65700 27.38500 24.21900
H  45.72900 26.67800 22.77900
H  46.66600 28.50100 21.83300
H  48.11900 28.19000 22.95000
H  46.84200 29.20100 23.49600
H  49.40300 31.15200 27.53400
H  49.32000 30.20700 26.13200
H  50.67900 30.01300 27.44300
H  47.65900 29.28300 32.33400
H  50.67700 28.92600 35.45200
H  51.43100 27.78700 34.41700
H  49.98400 27.23600 35.33800
Mg -11.29200 36.84800 42.54100
C  -8.95400 34.32900 41.79800
C  -9.14400 38.99900 40.87000
C  -13.73700 39.01400 42.37900
C  -13.50000 34.32000 43.46200
N  -9.41700 36.55400 41.17700
C  -8.66900 35.45500 41.08100
C  -7.31400 35.77900 40.31200
C  -7.23800 37.32900 40.51400
C  -8.64900 37.67400 41.01200
C  -6.08900 37.79100 41.41700
C  -7.23100 35.08200 38.93400
C  -6.08000 34.12800 38.57300
H  -5.01800 34.65100 37.58800
N  -11.43600 38.78700 41.72000
C  -10.45300 39.52400 41.09300
C  -10.98200 40.81600 40.72700
C  -12.36500 40.77700 41.01700
C  -12.55200 39.50400 41.81300
C  -10.19300 41.80500 39.95900
C  -13.37800 41.80100 40.62900
O  -13.02700 42.80100 40.00900
C  -14.83400 41.68000 40.95200
N  -13.36600 36.71900 42.73500
C  -14.12500 37.75000 42.82200
C  -15.53400 37.35200 43.24100
C  -15.48100 35.77400 43.36800
C  -13.98700 35.55900 43.16100
C  -15.86800 38.11500 44.57200
C  -16.42500 34.84300 42.40500
C  -17.60700 34.10100 43.00400
N  -11.27500 34.75400 42.76800
C  -12.21800 33.87100 43.17700
C  -11.55800 32.52100 43.13900
C  -10.23000 32.74600 42.80000
C  -10.13900 34.07700 42.43100
C  -12.23100 31.16900 43.46200
C  -8.96400 32.07100 42.59900
O  -8.70000 30.92600 42.67000
C  -8.06200 33.11200 41.97000
C  -6.82800 33.26700 42.75400
O  -6.69600 33.97000 43.81800
O  -5.79900 32.53900 42.25800
C  -4.69500 32.18300 43.20300
H  -8.38700 39.69600 40.50400
H  -14.63200 39.63200 42.47300
H  -14.11400 33.50600 43.85200
H  -6.59600 35.16400 40.85500
H  -7.13700 37.89000 39.58500
H  -5.29500 37.04700 41.46600
H  -6.45500 37.89400 42.43800
H  -5.61200 38.74200 41.17900
H  -6.98500 35.90400 38.26200
H  -8.20900 34.69500 38.64800
H  -6.46400 33.16200 38.24400
H  -5.60200 33.89200 39.52300
H  -10.65100 41.62500 38.98700
H  -9.13600 41.54200 39.96500
H  -10.38100 42.79900 40.36500
H  -15.35000 42.54900 40.54300
H  -14.99400 41.80000 42.02300
H  -15.18400 40.74200 40.52200
H  -16.01500 37.58900 42.29200
H  -15.50900 35.48800 44.42000
H  -16.13000 39.15400 44.37300
H  -14.97300 38.14800 45.19300
H  -16.65700 37.67900 45.18600
H  -15.78400 34.11000 41.91400
H  -16.75300 35.51400 41.61100
H  -17.42700 33.02600 43.00400
H  -18.48000 34.23900 42.36600
H  -17.82400 34.32300 44.04900
H  -11.53400 30.66400 44.13100
H  -12.45800 30.67200 42.51900
H  -13.13000 31.41200 44.02700
H  -7.87000 32.70600 40.97700
H  -3.85000 32.85100 43.03800
H  -4.38400 31.14800 43.06100
H  -5.03200 32.35600 44.22500

