158

Mg 17.20100 -2.25900 27.47900
C  16.54900 -0.00500 30.19100
C  19.13500 -4.09600 29.54400
C  18.51800 -3.77100 24.71700
C  15.70700 0.19900 25.36400
N  17.83600 -2.00700 29.58000
C  17.37200 -1.12000 30.58800
C  17.97400 -1.38000 31.98700
C  18.94900 -2.60200 31.64000
C  18.66200 -2.91200 30.16500
C  20.53700 -2.47600 31.88600
C  16.93100 -1.65400 33.07500
C  17.38200 -1.29500 34.47500
H  18.90200 -1.44700 34.81900
N  18.51200 -3.84200 27.16900
C  19.17500 -4.53800 28.16400
C  19.98900 -5.53900 27.57500
C  19.72600 -5.53000 26.16300
C  18.86400 -4.37700 25.96200
C  20.82100 -6.48100 28.43400
C  20.08400 -6.48700 25.06500
O  19.94700 -6.26500 23.85600
C  20.84500 -7.68100 25.37900
N  16.99200 -1.92100 25.44200
C  17.68700 -2.63600 24.46700
C  17.48100 -2.02300 23.01000
C  16.38900 -0.94800 23.32800
C  16.25700 -0.92500 24.79400
C  18.79000 -1.53600 22.28500
C  15.05300 -1.19700 22.67100
C  14.42800 0.02300 21.99800
N  16.28000 -0.34400 27.64200
C  15.64600 0.51700 26.71900
C  15.04100 1.65200 27.38900
C  15.30600 1.48700 28.73200
C  16.11500 0.28200 28.86100
C  14.03100 2.60700 26.70100
C  15.06600 2.02200 30.01200
O  14.31800 2.95900 30.35600
C  15.86500 1.04500 31.02500
C  16.75600 1.83800 31.93900
O  17.90400 2.17500 31.67600
O  16.09300 2.07600 33.14700
C  16.79700 2.96900 34.08900
H  19.72400 -4.70900 30.22900
H  19.13800 -4.11700 23.88700
H  15.16900 0.88000 24.70100
H  18.55100 -0.49400 32.25300
H  18.64200 -3.39500 32.32200
H  21.05600 -3.39700 32.15000
H  20.72300 -1.69600 32.62500
H  20.90100 -2.18500 30.90000
H  16.76000 -2.73000 33.03900
H  15.95700 -1.21400 32.86400
H  16.90600 -2.06900 35.07800
H  16.97000 -0.36500 34.86700
H  21.27900 -5.89300 29.23000
H  21.63100 -7.00900 27.93100
H  20.25800 -7.18300 29.05000
H  20.24300 -8.24600 26.09100
H  21.76700 -7.28400 25.80300
H  21.16900 -8.39300 24.62000
H  17.04500 -2.80300 22.38500
H  16.69400 0.04600 23.00100
H  18.57800 -0.56600 21.83500
H  18.98900 -2.25000 21.48500
H  19.67300 -1.43100 22.91500
H  14.31800 -1.50600 23.41400
H  15.00300 -1.99400 21.93000
H  13.72300 -0.32400 21.24200
H  15.18900 0.62800 21.50400
H  13.91800 0.65500 22.72500
H  14.36300 2.97000 25.72900
H  14.10000 3.47300 27.36000
H  13.03700 2.17300 26.58800
H  15.10400 0.60200 31.66800
H  17.70000 2.58700 34.56400
H  16.07700 3.17200 34.88200
H  16.96700 3.88600 33.52400
Mg -1.90500 34.21000 25.90500
C  -2.92500 32.42800 28.78300
C  -0.29600 36.43200 27.79400
C  -1.58200 36.13000 23.21400
C  -3.36700 31.72100 24.05400
N  -1.87100 34.43700 28.11100
C  -2.24300 33.60500 29.09800
C  -1.69700 34.04600 30.45000
C  -1.01400 35.42600 30.04400
C  -1.01400 35.46500 28.51200
C  -1.56300 36.74800 30.75000
C  -0.67400 32.90200 30.89900
C  -1.10600 32.31800 32.31600
H  -0.00300 32.24700 33.37100
N  -1.08300 36.09300 25.58700
C  -0.38000 36.78000 26.48100
C  0.38100 37.79700 25.75600
C  -0.06700 37.85100 24.48000
C  -1.00800 36.68000 24.37500
C  1.35500 38.64900 26.50600
C  0.33000 38.79900 23.35100
O  -0.06600 38.72100 22.21000
C  0.97700 40.16200 23.67800
N  -2.27400 33.86700 23.87100
C  -2.19900 34.86000 23.00500
C  -2.60400 34.32200 21.57900
C  -2.85100 32.77600 21.85700
C  -2.83000 32.78500 23.37100
C  -3.64000 35.00000 20.79300
C  -1.76100 31.80100 21.30500
C  -0.30500 31.99100 21.80100
N  -3.04200 32.50600 26.30000
C  -3.50800 31.54100 25.44900
C  -4.27800 30.55000 26.16600
C  -4.12200 30.80100 27.51500
C  -3.27100 31.99000 27.49800
C  -4.99300 29.40100 25.53200
C  -4.42300 30.40900 28.88000
O  -5.09800 29.50600 29.37200
C  -3.52200 31.34500 29.72200
C  -4.43600 31.99200 30.73600
O  -5.10200 32.98900 30.55900
O  -4.39300 31.27000 31.93200
C  -4.88100 31.84200 33.20200
H  0.31700 37.00800 28.49000
H  -1.38300 36.76000 22.34500
H  -3.77300 31.01000 23.33200
H  -2.42600 34.26500 31.23000
H  0.05500 35.42000 30.25400
H  -2.08500 36.39700 31.64000
H  -2.28800 37.18200 30.06200
H  -0.81200 37.50000 30.99600
H  0.28100 33.41200 31.02100
H  -0.51200 32.07200 30.21200
H  -1.47800 31.30800 32.14300
H  -1.83600 32.98900 32.76800
H  0.90600 39.64000 26.57500
H  2.34200 38.73400 26.05200
H  1.41100 38.35400 27.55400
H  2.04700 40.00900 23.82000
H  0.54300 40.69400 24.52500
H  0.72000 40.80900 22.84000
H  -1.65100 34.37900 21.05400
H  -3.82700 32.42400 21.52300
H  -4.08300 35.87800 21.26200
H  -4.38200 34.26600 20.48000
H  -3.19000 35.32700 19.85600
H  -1.88600 31.77500 20.22200
H  -2.03100 30.76200 21.49400
H  -0.09900 32.98100 22.20800
H  0.30000 31.87700 20.90100
H  0.02000 31.30300 22.58100
H  -4.47800 29.17500 24.59900
H  -6.02500 29.70400 25.35600
H  -4.97000 28.53000 26.18700
H  -2.86900 30.72500 30.33600
H  -4.08600 32.02100 33.92500
H  -5.65400 31.24400 33.68600
H  -5.34000 32.82400 33.08800

