158

Mg 42.12600 41.31800 26.82800
C  41.39900 43.26200 29.79300
C  43.61300 39.08400 28.85500
C  42.85000 39.47200 24.14700
C  40.86100 43.82200 24.89300
N  42.32400 41.09900 29.09400
C  41.93000 41.92600 30.03800
C  42.11300 41.34900 31.41600
C  43.19700 40.17400 31.12000
C  43.07900 40.07700 29.59100
C  44.66600 40.45900 31.60100
C  40.83400 41.02700 32.26700
C  40.47100 41.91900 33.55800
H  40.05800 41.20400 34.83400
N  42.89700 39.46900 26.58200
C  43.57700 38.74800 27.53100
C  44.03900 37.50400 26.89600
C  43.59200 37.49700 25.55900
C  43.14700 38.86400 25.34700
C  44.72800 36.42400 27.75000
C  43.67100 36.35900 24.51000
O  43.28400 36.50800 23.39700
C  44.35300 35.10400 24.81600
N  41.97400 41.75100 24.77700
C  42.26400 40.72900 23.89300
C  41.52300 41.01400 22.53100
C  41.11900 42.51200 22.66400
C  41.31600 42.74500 24.15500
C  42.53600 40.79900 21.38900
C  39.66400 42.79700 22.10400
C  39.36200 44.26100 21.76500
N  41.25500 43.09100 27.17800
C  40.89900 44.06800 26.25800
C  40.29600 45.19800 26.98500
C  40.39300 44.93000 28.35300
C  41.06600 43.63800 28.46500
C  39.78300 46.47500 26.33800
C  40.22100 45.42300 29.69800
O  39.60500 46.42000 29.99800
C  40.86400 44.36200 30.67700
C  42.03200 45.02100 31.36600
O  43.03800 45.36100 30.74500
O  41.72000 45.28300 32.67900
C  42.70100 46.12600 33.37900
H  44.14300 38.33700 29.45000
H  43.03400 38.76400 23.33600
H  40.35400 44.69200 24.46900
H  42.64100 42.13500 31.95600
H  43.01400 39.21900 31.61200
H  45.34800 40.64100 30.77100
H  44.88500 39.49400 32.05900
H  44.76400 41.20200 32.39200
H  40.79700 40.03400 32.71300
H  39.95800 41.07400 31.62000
H  39.58600 42.47100 33.24200
H  41.23400 42.69000 33.66600
H  44.97700 35.51600 27.20000
H  44.36800 36.28000 28.76900
H  45.71300 36.85800 27.92400
H  44.43700 34.67000 23.82000
H  43.93700 34.35400 25.48800
H  45.31900 35.38600 25.23400
H  40.65500 40.35500 22.50400
H  41.83000 43.18000 22.17700
H  43.56900 40.67600 21.71500
H  42.40400 41.55700 20.61700
H  42.25400 39.85800 20.91500
H  38.97300 42.46700 22.88000
H  39.58000 42.12600 21.24900
H  39.43500 44.37400 20.68300
H  40.05600 44.97300 22.21100
H  38.33500 44.58900 21.92500
H  38.87500 46.27000 25.77100
H  40.52200 46.95100 25.69300
H  39.61900 47.18400 27.15000
H  40.13000 43.95900 31.37500
H  43.53400 46.39800 32.73100
H  43.12900 45.66700 34.27000
H  42.20400 46.94400 33.90000
Mg 16.08000 50.86000 25.98500
C  17.97900 49.71600 28.71800
C  13.76700 52.14300 28.17400
C  14.63600 52.24500 23.34300
C  18.82000 49.88100 23.81700
N  16.00700 51.02000 28.23300
C  16.88500 50.53600 29.13400
C  16.42900 50.76700 30.54700
C  15.01300 51.32700 30.37400
C  14.92800 51.58500 28.83800
C  13.79600 50.48400 30.97500
C  17.50000 51.72000 31.20300
C  17.98700 51.24500 32.62300
H  17.41900 52.11700 33.75100
N  14.33900 51.86500 25.79800
C  13.56600 52.35200 26.78700
C  12.46300 53.12700 26.24600
C  12.67800 53.20000 24.85300
C  13.92900 52.44000 24.56800
C  11.36000 53.63500 27.06500
C  11.79700 53.85000 23.81800
O  12.15500 53.89400 22.64700
C  10.45800 54.36700 24.19100
N  16.64800 50.88700 23.81400
C  15.80700 51.53800 22.97900
C  16.42300 51.50400 21.62300
C  17.80900 50.84200 21.68700
C  17.79400 50.54500 23.18200
C  15.52500 50.70100 20.59300
C  19.05300 51.77600 21.30300
C  20.05100 51.05800 20.23700
N  17.97300 49.88500 26.17600
C  18.95200 49.51700 25.18300
C  19.98000 48.76800 25.82600
C  19.57700 48.75100 27.27300
C  18.41300 49.53700 27.38200
C  21.22800 48.09400 25.31500
C  20.04700 48.37800 28.62000
O  21.03700 47.72200 28.89800
C  19.04400 49.12100 29.59900
C  18.52700 48.21700 30.62200
O  17.63900 47.36700 30.52300
O  19.25600 48.34500 31.77800
C  18.90400 47.48000 32.88900
H  13.08200 52.53300 28.92900
H  14.27000 52.73300 22.43800
H  19.66000 49.61400 23.17300
H  16.43400 49.76900 30.98500
H  14.93700 52.33100 30.79100
H  13.26400 51.15800 31.64600
H  14.04300 49.54700 31.47500
H  13.12700 50.09900 30.20500
H  17.05400 52.70300 31.35200
H  18.23100 51.96600 30.43200
H  19.07100 51.36000 32.60200
H  17.79200 50.18300 32.77100
H  10.44600 53.04200 27.08000
H  11.16600 54.70400 26.97200
H  11.64500 53.64100 28.11700
H  9.95600 54.55400 23.24200
H  10.64100 55.16300 24.91300
H  9.96800 53.54200 24.70900
H  16.49700 52.53100 21.26300
H  17.88300 49.96200 21.04700
H  16.14000 50.62900 19.69500
H  14.64400 51.26500 20.29000
H  15.17300 49.70000 20.84100
H  19.57500 52.08700 22.20800
H  18.64600 52.70100 20.89500
H  19.97300 49.97200 20.18900
H  21.00600 51.38100 20.65100
H  19.96100 51.43700 19.22000
H  22.00600 48.83300 25.51000
H  21.18400 47.83000 24.25800
H  21.58200 47.28400 25.95200
H  19.75200 49.81900 30.04600
H  19.17500 46.47600 32.56300
H  17.89400 47.40800 33.29300
H  19.45900 47.76900 33.78200

