158

Mg 25.08600 1.85900 29.26500
C  27.32700 1.38100 32.01600
C  22.54000 1.75300 31.46000
C  23.02100 1.74100 26.61400
C  27.92200 1.34100 27.18600
N  25.02300 1.67500 31.54500
C  26.04100 1.51700 32.46200
C  25.54000 1.69800 33.88500
C  23.98900 1.68300 33.56600
C  23.79100 1.65300 32.07500
C  23.23100 0.64100 34.36300
C  26.02500 2.95900 34.62300
C  25.15900 3.44100 35.78700
H  25.90500 4.22100 36.92700
N  23.03100 1.88400 29.10100
C  22.16200 1.84500 30.07700
C  20.88100 2.08500 29.55400
C  20.92100 1.95500 28.11400
C  22.31500 1.80000 27.89500
C  19.65400 2.05300 30.49900
C  19.84300 1.81700 27.01700
O  20.10100 1.69400 25.80400
C  18.39600 1.74400 27.47400
N  25.43500 1.40300 27.25900
C  24.41600 1.60000 26.33900
C  24.91300 1.55200 24.88300
C  26.51600 1.72000 25.14600
C  26.65900 1.41200 26.59200
C  24.45400 0.40000 24.01500
C  27.08000 3.14600 24.76700
C  26.82600 4.33100 25.65500
N  27.21400 1.48000 29.47000
C  28.16200 1.34900 28.54100
C  29.43100 1.07600 29.18900
C  29.15500 1.11400 30.55300
C  27.77200 1.37300 30.63700
C  30.82800 0.83300 28.64100
C  29.68200 1.02400 31.91100
O  30.81300 0.90900 32.32700
C  28.54600 1.21900 32.89000
C  28.47700 0.23700 34.03100
O  27.67500 -0.73200 34.05400
O  29.37800 0.51000 35.05500
C  29.59200 -0.61300 35.90100
H  21.76400 1.75500 32.22800
H  22.37100 1.90500 25.75200
H  28.73900 1.46200 26.47100
H  25.63600 0.86600 34.58400
H  23.64400 2.66000 33.90400
H  23.64600 -0.33700 34.11900
H  22.15100 0.65200 34.21400
H  23.34400 0.78400 35.43800
H  26.12500 3.73400 33.86400
H  27.05900 2.85200 34.94900
H  24.77800 2.51600 36.21900
H  24.33900 4.10200 35.50600
H  19.20600 3.02000 30.73100
H  19.96500 1.65900 31.46700
H  18.88300 1.36500 30.15300
H  17.93300 0.76200 27.57000
H  17.91300 2.29000 26.66300
H  18.18600 2.32700 28.37100
H  24.59600 2.48100 24.40900
H  27.15200 0.99800 24.63400
H  25.15600 0.18200 23.21000
H  23.45900 0.62100 23.63000
H  24.39500 -0.44900 24.69500
H  26.46900 3.46200 23.92100
H  28.11200 3.02800 24.43700
H  26.82300 3.91900 26.66400
H  25.89500 4.89000 25.56400
H  27.60300 5.08900 25.55400
H  31.02000 -0.16700 29.03200
H  31.57900 1.58300 28.89000
H  30.83300 0.73000 27.55600
H  28.70300 2.16900 33.40100
H  28.79900 -0.65200 36.64800
H  30.51600 -0.54300 36.47400
H  29.64300 -1.50800 35.28000
Mg 29.52600 57.67900 40.35800
C  26.73900 55.94600 39.25700
C  31.47700 55.12900 39.25300
C  32.12400 59.81100 40.61300
C  27.31000 60.37700 41.15800
N  29.16000 55.73500 39.30600
C  27.92700 55.24000 39.04200
C  28.12700 53.90700 38.30500
C  29.52500 53.47300 38.85100
C  30.11700 54.83900 39.14000
C  29.36100 52.72500 40.21700
C  28.16300 54.17700 36.75000
C  26.94300 53.74400 35.89300
H  26.40900 54.83600 34.91900
N  31.53900 57.55600 39.86600
C  32.17300 56.34100 39.56000
C  33.53600 56.67600 39.50800
C  33.73900 58.04900 39.89600
C  32.43500 58.57500 40.08700
C  34.55900 55.72200 39.01000
C  35.10700 58.66600 39.86800
O  36.11600 57.96200 39.64200
C  35.35900 60.14800 39.92100
N  29.69700 59.84000 40.81100
C  30.88900 60.44000 40.93500
C  30.73800 61.93100 41.12500
C  29.29000 61.94900 41.68000
C  28.70200 60.65500 41.18000
C  31.71700 62.50700 42.25900
C  28.51200 63.21800 41.33200
C  27.56600 63.73100 42.44700
N  27.46100 58.09800 40.31900
C  26.72500 59.23600 40.65000
C  25.29100 58.95900 40.56500
C  25.20700 57.66100 39.95100
C  26.54900 57.18100 39.85000
C  24.12000 59.81700 40.99600
C  24.26200 56.66800 39.39200
O  23.12600 56.67700 39.24500
C  25.25700 55.52500 38.82400
C  24.91700 54.20000 39.34000
O  25.42300 53.74300 40.37800
O  24.24300 53.46300 38.38500
C  23.94500 52.01800 38.75300
H  32.16900 54.30600 39.06400
H  33.03500 60.30300 40.96100
H  26.60200 61.18100 41.36700
H  27.30400 53.20500 38.43900
H  30.07800 52.96100 38.06300
H  28.37500 52.27300 40.31500
H  29.64700 53.32500 41.08100
H  30.11300 51.93700 40.26100
H  29.05900 53.69300 36.36300
H  28.22000 55.24900 36.56100
H  26.16400 53.23000 36.45600
H  27.27700 52.84500 35.37400
H  34.81100 56.17200 38.05000
H  34.18500 54.73300 38.74500
H  35.43500 55.55300 39.63700
H  34.52600 60.76300 39.58200
H  36.30000 60.37700 39.42000
H  35.52600 60.42000 40.96300
H  30.92200 62.51700 40.22500
H  29.25700 61.72100 42.74600
H  32.20800 61.67700 42.76700
H  31.16400 63.08800 42.99600
H  32.46600 63.19200 41.86100
H  27.81900 63.08800 40.50100
H  29.31300 63.93100 41.13500
H  27.45000 63.02600 43.26900
H  26.55600 63.90400 42.07700
H  28.03900 64.56800 42.96100
H  23.97800 60.70700 40.38200
H  24.09000 59.99500 42.07100
H  23.24900 59.17900 40.84700
H  25.10100 55.50900 37.74600
H  22.86700 51.87600 38.82300
H  24.35200 51.58900 39.66900
H  24.18800 51.30600 37.96400

