158

Mg 55.41400 24.45800 45.41000
C  52.91700 26.58000 44.22700
C  53.98100 21.84300 43.73300
C  58.26700 22.75200 45.66200
C  56.99600 27.28100 46.81800
N  53.77600 24.37400 43.84900
C  52.77600 25.30100 43.67700
C  51.47800 24.60600 43.10400
C  51.82300 23.07500 43.22300
C  53.26900 23.04800 43.64400
C  50.79600 22.31900 44.14100
C  51.23100 24.97300 41.64300
C  49.71100 24.88300 41.21500
H  49.36400 24.24700 39.82800
N  56.00100 22.49800 44.96400
C  55.26100 21.56600 44.28100
C  55.89800 20.33500 44.24500
C  57.19000 20.51500 44.90700
C  57.20500 21.98800 45.16100
C  55.20900 19.12000 43.75000
C  58.17500 19.46600 45.14400
O  58.08600 18.28700 44.73400
C  59.41900 19.73500 45.94500
N  57.33700 24.97000 46.09100
C  58.37900 24.08000 46.05300
C  59.67800 24.73700 46.66100
C  59.16600 26.12500 47.13100
C  57.78400 26.19100 46.53000
C  60.56000 23.98400 47.69400
C  60.15300 27.25500 46.69300
C  60.27800 27.69800 45.26700
N  55.00700 26.54900 45.64100
C  55.68400 27.55400 46.33200
C  54.86000 28.75000 46.30700
C  53.79300 28.42100 45.45800
C  53.95200 27.09800 45.07800
C  55.17500 30.08400 46.88600
C  52.59100 28.93000 44.87700
O  52.03600 29.97900 45.15900
C  51.99600 27.81700 44.01000
C  51.62500 28.29000 42.60900
O  52.36000 28.77400 41.69400
O  50.22700 28.30500 42.40000
C  49.82600 28.81700 41.07700
H  53.39700 20.96100 43.46600
H  59.20000 22.20700 45.81900
H  57.44900 28.18900 47.22100
H  50.68900 24.96900 43.76300
H  51.78900 22.57600 42.25500
H  51.32600 21.66700 44.83600
H  50.02300 21.76100 43.61400
H  50.24100 23.05600 44.72300
H  51.75800 24.28300 40.98400
H  51.56600 25.99700 41.47700
H  49.34900 25.88600 41.44100
H  49.23700 24.25800 41.97300
H  55.85500 18.30200 43.43100
H  54.70900 19.41200 42.82600
H  54.50100 18.61200 44.40500
H  60.15900 20.27100 45.35200
H  59.85300 18.74700 46.10100
H  59.14000 20.14600 46.91500
H  60.36400 24.91800 45.83400
H  59.05200 26.15100 48.21400
H  60.85200 24.70200 48.46100
H  61.45700 23.57200 47.23000
H  60.09100 23.11400 48.15200
H  61.15000 26.92800 46.98900
H  59.78800 28.04400 47.35000
H  59.64700 27.14500 44.57100
H  61.26200 27.57600 44.81400
H  60.04800 28.76300 45.28800
H  54.86500 30.11800 47.93100
H  54.67800 30.85500 46.29700
H  56.25300 30.24600 46.86700
H  51.03300 27.51900 44.42600
H  49.58600 29.87600 41.17000
H  49.04200 28.20500 40.63100
H  50.57700 28.64900 40.30500
Mg -12.00100 38.23700 42.43400
C  -9.99200 35.54000 41.25600
C  -9.76100 40.33200 40.83400
C  -14.23500 40.67100 43.01500
C  -14.24200 35.86900 43.65000
N  -10.01500 37.93700 41.21700
C  -9.50100 36.78000 40.85200
C  -8.22000 36.96400 40.09200
C  -7.96700 38.48500 40.10300
C  -9.27500 39.00400 40.77800
C  -6.72800 38.92400 40.82100
C  -8.22200 36.27700 38.67200
C  -6.99200 35.41100 38.37800
H  -5.95300 35.91300 37.33500
N  -11.96900 40.27300 42.00700
C  -10.96500 40.93000 41.35000
C  -11.29500 42.32900 41.30700
C  -12.63500 42.44200 41.79700
C  -13.02900 41.12100 42.25900
C  -10.42100 43.33600 40.68800
C  -13.34800 43.72700 41.85000
O  -12.91600 44.74000 41.35800
C  -14.67600 43.88200 42.43100
N  -13.95500 38.25800 43.28800
C  -14.68400 39.40600 43.40800
C  -16.08000 39.09900 44.04400
C  -15.95700 37.61400 44.47300
C  -14.60300 37.19800 43.76500
C  -16.54700 40.12300 45.10800
C  -17.05400 36.61100 44.17700
C  -17.57300 35.72300 45.28600
N  -12.12200 36.08700 42.48100
C  -13.11100 35.29800 43.06000
C  -12.68700 33.88200 42.95200
C  -11.45100 33.87900 42.20400
C  -11.18200 35.27700 41.99900
C  -13.45700 32.66300 43.47000
C  -10.39400 33.08600 41.53600
O  -10.21300 31.90600 41.50100
C  -9.37600 34.16700 40.95500
C  -8.02500 33.88700 41.52100
O  -7.16400 33.24900 40.94700
O  -7.79000 34.61500 42.69200
C  -6.45000 34.54300 43.28200
H  -9.01700 41.04600 40.47300
H  -15.03900 41.37300 43.24700
H  -14.95900 35.09900 43.94000
H  -7.45400 36.45100 40.67200
H  -7.87700 38.90900 39.10200
H  -6.95100 39.78800 41.44700
H  -6.01500 39.29400 40.08400
H  -6.39600 38.14000 41.50200
H  -8.20800 37.06700 37.92100
H  -9.09800 35.68500 38.40800
H  -7.37900 34.41200 38.17300
H  -6.40400 35.27300 39.28500
H  -10.67100 43.44300 39.63300
H  -9.34800 43.20000 40.82500
H  -10.56000 44.33200 41.10800
H  -14.76300 43.47700 43.43900
H  -15.33800 43.32500 41.76900
H  -15.02000 44.91000 42.54700
H  -16.79000 39.20900 43.22400
H  -15.72600 37.53100 45.53500
H  -16.96000 39.63600 45.99100
H  -17.33300 40.75300 44.69100
H  -15.72100 40.75600 45.43400
H  -16.83300 35.98200 43.31400
H  -17.86800 37.19200 43.74500
H  -17.48700 34.64600 45.13800
H  -18.58500 36.04700 45.53000
H  -17.03100 35.93300 46.20800
H  -14.32400 32.44100 42.84700
H  -14.03600 32.89900 44.36200
H  -12.80000 31.81800 43.67300
H  -9.33300 34.00600 39.87800
H  -5.57900 34.34100 42.65800
H  -6.45800 33.75000 44.02900
H  -6.29300 35.48400 43.81000

