158

Mg 6.60400 54.36700 41.18300
C  5.73100 51.03300 40.73700
C  9.80200 53.50300 40.04400
C  7.47100 57.57400 41.08100
C  3.22200 55.11300 41.74500
N  7.54700 52.53300 40.18200
C  6.97800 51.28600 40.15100
C  7.83000 50.37200 39.31800
C  9.27100 51.02300 39.56100
C  8.90500 52.44600 39.96300
C  10.16100 50.25800 40.55800
C  7.50900 50.51700 37.78200
C  7.47700 49.36000 36.80900
H  6.29300 49.33300 35.82500
N  8.35500 55.35200 40.69000
C  9.60900 54.82000 40.33400
C  10.58500 55.83400 40.32800
C  9.93900 57.06300 40.61300
C  8.51900 56.67400 40.87700
C  12.08900 55.51200 40.00600
C  10.55700 58.44300 40.57200
O  11.70400 58.49900 40.27800
C  9.87200 59.66700 40.82100
N  5.43000 56.16500 41.28400
C  6.10500 57.35300 41.30600
C  5.06300 58.44100 41.60900
C  3.72000 57.64600 41.87300
C  4.11600 56.22600 41.63200
C  5.45400 59.39000 42.75700
C  2.61000 58.05300 40.90300
C  1.60700 59.11800 41.43700
N  4.75800 53.29800 41.24300
C  3.49500 53.76300 41.61900
C  2.64800 52.66100 41.67800
C  3.50500 51.57700 41.46600
C  4.78900 51.99200 41.16200
C  1.19300 52.82000 41.89000
C  3.52900 50.14100 41.35300
O  2.57500 49.35100 41.48000
C  5.01100 49.71000 40.98500
C  4.85800 48.80300 39.78700
O  4.04600 48.98900 38.87900
O  5.61800 47.70400 39.89900
C  5.64000 46.81600 38.75400
H  10.79100 53.20900 39.68600
H  7.62300 58.64800 41.20500
H  2.18900 55.27500 42.06200
H  7.88700 49.33500 39.64900
H  9.82600 51.17400 38.63600
H  11.17300 50.05100 40.21000
H  9.62900 49.35500 40.85700
H  10.24000 50.92600 41.41500
H  8.12100 51.33200 37.39600
H  6.44500 50.72300 37.90400
H  7.28600 48.48000 37.42300
H  8.44100 49.09900 36.37100
H  12.70700 56.23400 40.53900
H  12.19900 55.78200 38.95500
H  12.30300 54.45900 40.18900
H  10.69900 60.37200 40.90500
H  9.49100 59.70900 41.84100
H  9.05700 59.71800 40.10000
H  5.07200 58.88300 40.61300
H  3.39100 57.79000 42.90200
H  5.60000 60.34500 42.25300
H  6.41100 59.09600 43.18700
H  4.83900 59.34800 43.65600
H  1.92500 57.22000 40.74700
H  3.02700 58.40900 39.96100
H  0.57700 58.81900 41.24400
H  1.82700 59.99200 40.82300
H  1.78600 59.29400 42.49800
H  0.97900 51.85300 42.34600
H  0.66800 52.97500 40.94700
H  1.09400 53.57900 42.66600
H  5.53400 49.13200 41.74700
H  6.54400 46.20900 38.71500
H  5.58600 47.33900 37.80000
H  4.82400 46.09900 38.84000
Mg 1.42600 42.53700 26.04500
C  2.62100 42.58500 29.17400
C  -1.36600 40.84500 27.26800
C  0.30600 42.16900 22.86800
C  4.32900 43.92900 24.72900
N  0.59800 41.98000 28.06400
C  1.29000 42.13400 29.17800
C  0.40600 41.86700 30.46300
C  -0.87300 41.28100 29.79000
C  -0.55200 41.33300 28.27000
C  -1.32100 39.85100 30.21900
C  0.21200 43.11600 31.39500
C  0.84700 43.17700 32.80400
H  0.72500 41.93800 33.74100
N  -0.30400 41.61400 25.22300
C  -1.26000 40.92700 25.87700
C  -2.26400 40.47500 25.01400
C  -1.85700 40.87100 23.71300
C  -0.57900 41.68000 23.88300
C  -3.57500 39.63500 25.40000
C  -2.49800 40.70600 22.34500
O  -2.09600 41.13700 21.25500
C  -3.81300 39.89000 22.18800
N  2.21500 42.95800 24.08000
C  1.50400 42.75400 22.98300
C  2.35400 42.95900 21.74200
C  3.39800 43.93200 22.31100
C  3.34400 43.66800 23.80400
C  2.84700 41.52400 21.11800
C  3.46700 45.41400 21.86100
C  2.21400 46.28700 21.88800
N  3.15600 43.00800 26.77300
C  4.22200 43.64200 26.10800
C  5.32000 43.86600 27.10200
C  4.73700 43.43500 28.34800
C  3.44600 42.91000 28.09900
C  6.64000 44.47500 26.97700
C  4.96300 43.30200 29.75100
O  6.00300 43.41400 30.39900
C  3.56900 42.75000 30.35100
C  3.84800 41.45700 31.13000
O  3.78500 40.28300 30.83600
O  4.33400 41.90100 32.36100
C  5.07700 40.86500 33.09500
H  -2.32000 40.46600 27.64100
H  0.09300 41.90600 21.83000
H  5.29000 44.26100 24.33100
H  0.94400 41.09900 31.02000
H  -1.73700 41.91800 29.97700
H  -0.60500 39.56100 30.98900
H  -1.32100 39.08800 29.44100
H  -2.29000 40.01600 30.68800
H  -0.87200 43.19800 31.48000
H  0.54400 43.99600 30.84400
H  0.40100 43.96000 33.41700
H  1.89700 43.45700 32.71200
H  -3.82400 38.95900 24.58300
H  -4.40900 40.31900 25.55400
H  -3.28000 39.17000 26.34000
H  -3.74300 38.81100 22.32500
H  -4.22100 40.13100 21.20700
H  -4.51900 40.40200 22.84200
H  1.83900 43.48100 20.93500
H  4.38500 43.60100 21.99000
H  2.10100 40.74900 21.29500
H  3.80200 41.29900 21.59300
H  2.86400 41.66000 20.03700
H  3.92000 45.38200 20.87000
H  4.16600 45.98800 22.46900
H  2.12800 46.97200 22.73100
H  1.28800 45.72200 21.77900
H  2.33800 46.88100 20.98200
H  6.47100 45.24700 26.22600
H  7.33000 43.70300 26.63600
H  6.98700 44.86500 27.93300
H  3.23400 43.41300 31.14900
H  5.74800 40.35600 32.40300
H  4.50800 40.02800 33.50000
H  5.60000 41.42700 33.86900

