158

Mg 2.05900 -1.16300 43.67400
C  5.52100 -0.33600 43.04500
C  1.19700 1.74700 42.13400
C  -1.04200 -2.37000 43.41600
C  3.24300 -4.20500 44.83300
N  3.23000 0.51400 42.77000
C  4.57600 0.64000 42.55800
C  5.02600 1.96300 41.91300
C  3.63700 2.71500 41.93800
C  2.57900 1.55800 42.25600
C  3.52100 3.93100 42.92100
C  5.66500 1.87400 40.46100
C  6.91100 2.68700 40.11900
H  6.93100 3.61000 38.94400
N  0.27900 -0.35100 43.02000
C  0.11300 0.86300 42.40500
C  -1.23200 1.01400 42.05100
C  -1.94000 -0.10200 42.49800
C  -0.92900 -1.06500 43.01600
C  -1.81800 2.17300 41.43600
C  -3.46200 -0.30000 42.44700
O  -4.20400 0.49700 41.91200
C  -4.18200 -1.45100 43.06700
N  1.26200 -3.08000 43.96800
C  -0.04600 -3.29700 43.93800
C  -0.42400 -4.74600 44.43200
C  0.98600 -5.26000 44.96300
C  1.91500 -4.17400 44.48100
C  -1.67200 -4.83500 45.32800
C  1.34300 -6.64400 44.23400
C  2.00900 -7.70400 45.21600
N  4.00300 -2.12100 43.97900
C  4.28700 -3.28300 44.57900
C  5.69400 -3.34100 44.82500
C  6.23100 -2.25500 44.21600
C  5.16600 -1.55300 43.71500
C  6.45300 -4.36500 45.64600
C  7.48700 -1.53900 43.96100
O  8.65200 -1.72200 44.30500
C  7.03800 -0.42700 43.02100
C  7.75200 0.85300 43.34800
O  8.45400 1.42700 42.53500
O  7.48100 1.35100 44.57100
C  7.93000 2.72900 44.82900
H  0.94900 2.75200 41.78700
H  -2.10900 -2.60400 43.40400
H  3.49800 -5.15200 45.31300
H  5.61000 2.42400 42.71000
H  3.22300 3.06100 40.99100
H  4.51200 4.19000 43.29400
H  2.81900 3.71200 43.72600
H  3.18100 4.79700 42.35500
H  4.94500 2.14700 39.69000
H  5.92400 0.82200 40.34600
H  7.69700 1.96700 39.89400
H  7.11300 3.32600 40.97900
H  -2.53000 1.88800 40.66200
H  -1.14600 2.84600 40.90400
H  -2.22100 2.73700 42.27600
H  -5.21900 -1.16700 43.24500
H  -3.79400 -1.71000 44.05200
H  -4.04700 -2.28100 42.37400
H  -0.56700 -5.21900 43.46000
H  1.08700 -5.24400 46.04800
H  -1.38100 -5.43400 46.19100
H  -2.56100 -5.26000 44.86400
H  -1.92200 -3.85000 45.72100
H  2.04100 -6.45100 43.41900
H  0.48700 -7.08000 43.72000
H  1.45800 -8.64400 45.17900
H  2.15400 -7.34300 46.23400
H  2.98400 -7.95900 44.80200
H  5.95100 -5.32200 45.50700
H  6.31100 -3.98900 46.65900
H  7.52500 -4.45700 45.47100
H  7.41600 -0.71900 42.04000
H  7.36400 3.37600 44.16000
H  8.98100 2.87800 44.58000
H  7.65600 3.08400 45.82300
Mg 25.92800 49.69600 26.46900
C  24.21000 51.08900 29.09200
C  28.37700 48.74100 28.88000
C  27.93100 48.60700 23.99400
C  24.08900 51.56600 24.13600
N  26.35700 50.02800 28.77600
C  25.27600 50.41200 29.61200
C  25.67100 50.18300 31.09900
C  27.15500 49.60200 30.97000
C  27.37100 49.48100 29.48000
C  28.27200 50.38100 31.75600
C  24.63300 49.20800 31.82500
C  23.99700 49.69400 33.22400
H  24.96900 50.04500 34.35600
N  27.79300 48.59700 26.51100
C  28.60900 48.26900 27.56200
C  29.64900 47.46600 27.07800
C  29.56300 47.47500 25.60600
C  28.34200 48.22300 25.27600
C  30.72100 46.78600 27.94400
C  30.49300 46.82500 24.63400
O  30.45100 46.98200 23.40700
C  31.69100 45.96900 25.04500
N  26.00000 50.02900 24.33600
C  26.93000 49.42900 23.56900
C  26.70400 49.66000 22.03500
C  25.18300 50.35400 22.09100
C  25.12200 50.77100 23.57400
C  27.79200 50.58400 21.39200
C  23.95100 49.46900 21.60200
C  23.43900 49.81800 20.19200
N  24.48000 51.02800 26.54600
C  23.74400 51.60500 25.51600
C  22.65600 52.30000 26.00500
C  22.74500 52.10700 27.40300
C  23.94500 51.38400 27.71000
C  21.60000 53.18400 25.29400
C  22.18100 52.39700 28.66800
O  21.19800 53.12100 28.91000
C  23.01100 51.70700 29.82800
C  23.35400 52.77000 30.84100
O  24.11800 53.67500 30.60500
O  22.61200 52.54100 31.98700
C  23.15600 53.40400 33.08900
H  29.19500 48.33700 29.48100
H  28.43000 48.00500 23.23100
H  23.35000 52.06300 23.50500
H  25.73600 51.15600 31.58700
H  27.21700 48.62500 31.44900
H  28.56600 49.92200 32.70000
H  27.91400 51.35500 32.08900
H  29.15400 50.68300 31.19100
H  25.01100 48.18800 31.89800
H  23.77900 49.22000 31.14800
H  23.37400 48.91500 33.66300
H  23.44700 50.63300 33.15800
H  30.80700 45.71800 27.74300
H  30.60200 46.97300 29.01100
H  31.59800 47.31200 27.56700
H  32.27200 46.61600 25.70300
H  32.23500 45.60700 24.17300
H  31.38100 45.04200 25.52700
H  26.72800 48.63700 21.65900
H  25.30500 51.27800 21.52700
H  27.37100 51.36500 20.75900
H  28.38200 50.00900 20.67800
H  28.37300 51.04200 22.19200
H  23.14000 49.67600 22.29900
H  24.19500 48.40700 21.56000
H  23.43600 48.90400 19.59900
H  24.17500 50.48600 19.74500
H  22.42400 50.18900 20.33200
H  21.10900 52.71100 24.44300
H  22.04300 54.13200 24.99000
H  20.77700 53.39400 25.97700
H  22.44800 50.87000 30.24100
H  24.21400 53.22800 33.28500
H  22.63500 53.41400 34.04600
H  23.02600 54.44800 32.80400

