158

Mg 47.54700 34.83400 27.92100
C  45.47300 33.51300 30.40600
C  48.34300 37.41900 30.08500
C  49.21400 36.27600 25.46800
C  46.50100 32.24700 25.86900
N  47.00000 35.34000 30.00600
C  46.24200 34.66800 30.85400
C  46.57100 35.04400 32.26300
C  47.00700 36.59700 32.04700
C  47.48500 36.43000 30.62500
C  45.84800 37.71900 32.04900
C  47.76900 34.19400 32.84900
C  47.97000 34.33200 34.34100
H  47.13400 35.35700 35.11000
N  48.62100 36.60900 27.78200
C  48.86100 37.53900 28.75700
C  49.71500 38.57300 28.31400
C  50.05800 38.22200 26.92100
C  49.34200 36.98400 26.68100
C  50.12300 39.75800 29.10800
C  50.91100 38.97100 25.93500
O  51.05000 38.55300 24.76300
C  51.62300 40.28800 26.29500
N  47.75700 34.39800 25.89900
C  48.53500 35.11000 25.07600
C  48.48100 34.52000 23.63400
C  47.82300 33.13900 23.84600
C  47.37400 33.21700 25.30400
C  47.77900 35.42200 22.57300
C  48.58400 31.82000 23.52500
C  50.11400 31.80600 23.63500
N  46.24900 33.26000 28.04700
C  45.93600 32.25200 27.09800
C  44.97300 31.28100 27.69300
C  44.73000 31.73700 28.96800
C  45.48500 32.96100 29.08400
C  44.37600 30.00200 26.98000
C  43.97600 31.56400 30.18600
O  43.17300 30.73000 30.54700
C  44.38000 32.70100 31.08100
C  44.71400 32.21500 32.40600
O  45.65800 31.41700 32.59700
O  43.84300 32.73700 33.31500
C  44.03600 32.32100 34.75000
H  48.57600 38.15800 30.85400
H  49.76300 36.64700 24.60100
H  46.20600 31.42500 25.21300
H  45.74000 34.88100 32.95000
H  47.76800 36.94800 32.74400
H  44.92700 37.20700 32.32900
H  45.63800 38.25400 31.12300
H  46.06100 38.43700 32.84000
H  48.68000 34.53800 32.35900
H  47.67300 33.14200 32.57800
H  49.00700 34.56100 34.58700
H  47.71500 33.35800 34.75700
H  50.70100 39.34600 29.93500
H  49.29700 40.25600 29.61400
H  50.79000 40.43900 28.58000
H  52.35300 39.99500 27.04900
H  50.96200 41.09700 26.60500
H  52.13100 40.56700 25.37200
H  49.46400 34.30200 23.21700
H  46.88500 33.02800 23.30300
H  47.65200 36.41600 23.00300
H  46.76500 35.08900 22.35300
H  48.39300 35.63100 21.69700
H  48.55600 31.75300 22.43700
H  48.15000 30.91900 23.95900
H  50.49000 31.86900 22.61400
H  50.43100 30.82400 23.98700
H  50.47800 32.49000 24.40100
H  44.83400 30.05800 25.99200
H  43.29100 29.97900 27.07400
H  44.76900 29.14100 27.52100
H  43.41800 33.21000 31.02400
H  43.16900 31.82800 35.18800
H  44.24800 33.22500 35.32100
H  44.87400 31.62500 34.76800
Mg 10.03600 47.86700 25.78100
C  8.00800 48.27800 28.70200
C  12.58300 49.41800 27.55500
C  11.97700 47.77200 23.02100
C  7.28400 47.07500 23.92500
N  10.17000 48.87200 27.90600
C  9.31800 48.67300 28.93000
C  9.99400 49.15200 30.23800
C  11.37500 49.77900 29.79400
C  11.40400 49.29400 28.32700
C  11.55800 51.31600 29.81700
C  10.17900 48.03400 31.34700
C  9.62000 48.24800 32.76400
H  9.41700 46.93500 33.57500
N  12.02800 48.53900 25.36700
C  12.91900 49.11200 26.19800
C  14.21800 49.17400 25.55600
C  14.02600 48.85600 24.15800
C  12.67300 48.33700 24.15600
C  15.48900 49.55800 26.30800
C  14.95900 48.86000 22.90100
O  14.61200 48.60800 21.76900
C  16.41600 49.20200 23.14300
N  9.71300 47.48900 23.74400
C  10.65500 47.35600 22.85300
C  10.13500 46.86900 21.49200
C  8.56200 47.12200 21.68900
C  8.53800 47.13700 23.20300
C  10.62000 47.59700 20.20400
C  7.56400 46.04600 21.11600
C  6.33700 46.55000 20.46000
N  8.04900 47.58700 26.18000
C  6.98900 47.32300 25.29500
C  5.74200 47.46400 26.00100
C  6.10400 47.76200 27.34000
C  7.53300 47.87400 27.36500
C  4.34900 47.20500 25.51400
C  5.52900 47.95700 28.65300
O  4.40300 47.86700 29.02400
C  6.76100 48.13200 29.62600
C  6.86400 47.00800 30.59400
O  7.45200 45.95500 30.49600
O  5.89600 47.18000 31.55500
C  5.61100 46.09900 32.44600
H  13.46300 49.79600 28.08100
H  12.58900 47.66600 22.12200
H  6.38500 46.87300 23.33900
H  9.44300 49.95800 30.72200
H  12.26500 49.33400 30.23900
H  11.49400 51.57200 30.87400
H  10.80200 51.74100 29.15700
H  12.62100 51.46700 29.62600
H  11.22000 47.87900 31.63100
H  9.94400 47.08500 30.86600
H  8.66200 48.76200 32.68800
H  10.26600 49.00400 33.21000
H  15.32400 50.03600 27.27400
H  16.19400 50.20500 25.78700
H  15.89500 48.57300 26.54000
H  16.36700 50.11100 23.74200
H  16.96100 49.46000 22.23500
H  16.86000 48.35600 23.66800
H  10.25100 45.78700 21.42100
H  8.14900 48.09600 21.42500
H  11.07500 48.56300 20.42300
H  9.84800 47.86900 19.48400
H  11.36000 47.05000 19.62100
H  7.31300 45.39900 21.95600
H  8.19200 45.51000 20.40500
H  5.55700 45.96900 20.95200
H  6.44200 46.22600 19.42500
H  6.04900 47.59500 20.57800
H  4.22900 46.13300 25.35700
H  4.29400 47.79800 24.60200
H  3.60800 47.60000 26.20900
H  6.58100 49.08200 30.13000
H  5.45600 46.45500 33.46400
H  6.46200 45.45200 32.65900
H  4.68700 45.56100 32.23100

