158

Mg 36.18200 49.92700 25.15700
C  36.29200 48.22100 28.17200
C  34.66000 52.58400 26.77300
C  35.89300 51.39900 22.09900
C  37.33000 46.93400 23.56300
N  35.49700 50.25100 27.14000
C  35.66100 49.40700 28.24700
C  35.25900 50.14400 29.52800
C  34.36100 51.31700 29.04500
C  34.80900 51.43400 27.55800
C  32.84400 51.14500 29.35200
C  36.59900 50.63000 30.32600
C  36.74400 50.23700 31.72100
H  35.49300 49.95000 32.51300
N  35.40000 51.74900 24.52200
C  34.88300 52.74000 25.36200
C  34.81100 53.99400 24.62800
C  35.25700 53.68200 23.30900
C  35.53500 52.22500 23.26500
C  34.60600 55.37000 25.27100
C  35.50200 54.66000 22.14300
O  36.13700 54.32300 21.09300
C  34.95700 56.06400 22.26900
N  36.40200 49.20500 23.04500
C  36.21900 50.03600 22.04500
C  36.60400 49.39500 20.73300
C  37.07400 47.97200 21.21500
C  36.91200 47.99600 22.65900
C  35.55400 49.35800 19.58700
C  38.46500 47.49200 20.74500
C  39.38600 48.40100 20.01600
N  36.76600 47.92000 25.72900
C  37.29400 46.91400 24.95700
C  37.58000 45.78500 25.88900
C  37.25700 46.30300 27.14500
C  36.75200 47.59800 26.96400
C  38.18500 44.50200 25.46800
C  37.11600 45.96600 28.57200
O  37.55700 44.94700 29.06300
C  36.39700 47.19800 29.28700
C  35.21100 46.71800 30.02900
O  34.05300 47.05700 29.69000
O  35.50500 45.87500 31.08700
C  34.37600 45.59700 32.01200
H  34.32200 53.50300 27.25500
H  35.62000 51.94700 21.19500
H  37.81900 45.99600 23.29400
H  34.69000 49.45500 30.15200
H  34.71300 52.23400 29.51700
H  32.32300 50.95200 28.41400
H  32.45900 52.12800 29.62300
H  32.72500 50.39300 30.13100
H  36.77100 51.69300 30.49600
H  37.44500 50.26600 29.74300
H  37.32000 50.96500 32.29300
H  37.35400 49.33400 31.72500
H  35.43000 55.98800 24.91500
H  34.75400 55.26900 26.34600
H  33.57100 55.67100 25.10900
H  33.97800 55.96700 22.73800
H  34.85600 56.57100 21.30900
H  35.58500 56.64900 22.94000
H  37.48000 50.02300 20.56900
H  36.28700 47.29900 20.87600
H  36.19500 49.59300 18.73700
H  34.82300 50.15800 19.70100
H  35.10100 48.38300 19.40700
H  38.26400 46.63300 20.10600
H  38.97900 47.04000 21.59400
H  38.81400 48.70100 19.13700
H  40.26400 47.85700 19.66700
H  39.64800 49.21100 20.69600
H  39.12000 44.65100 24.92700
H  37.43400 44.04000 24.82700
H  38.16600 43.95800 26.41300
H  37.09800 47.60700 30.01500
H  34.53000 44.71100 32.62800
H  33.39500 45.57300 31.53900
H  34.33400 46.41900 32.72600
Mg 9.61300 47.80600 26.18800
C  7.38800 47.59100 29.10500
C  11.79800 49.36200 28.18800
C  11.33900 48.33500 23.43200
C  6.85900 46.54000 24.28300
N  9.58600 48.39800 28.41800
C  8.73400 48.10500 29.38500
C  9.29400 48.43700 30.81700
C  10.46400 49.37600 30.34700
C  10.63100 49.08500 28.87600
C  10.21000 50.86500 30.65600
C  9.79400 47.08300 31.59600
C  10.50400 47.54500 32.92600
H  9.76000 47.43200 34.31100
N  11.42600 48.69500 25.86000
C  12.18600 49.21300 26.82500
C  13.45600 49.65700 26.16900
C  13.36200 49.22600 24.84700
C  12.00200 48.70400 24.63900
C  14.55900 50.08800 27.06800
C  14.47500 49.11700 23.81100
O  14.19900 48.68600 22.67300
C  15.93000 49.64300 24.03800
N  9.10000 47.55000 24.15100
C  10.04600 47.82600 23.18100
C  9.64800 47.32700 21.80800
C  8.35200 46.51900 22.16800
C  8.04500 46.82800 23.63500
C  9.44400 48.48500 20.76800
C  8.36400 44.97800 21.81300
C  8.33500 43.90500 22.92200
N  7.47900 47.32600 26.54600
C  6.52900 46.82600 25.66900
C  5.27100 46.65200 26.37400
C  5.57200 46.86100 27.70100
C  6.89800 47.30500 27.81300
C  3.93500 46.15500 25.87000
C  5.01500 46.84500 29.03700
O  3.87900 46.61800 29.46000
C  6.23300 47.28100 30.00000
C  6.50900 46.05400 30.77000
O  6.97300 44.98000 30.31900
O  6.11900 46.27400 32.09200
C  6.43100 45.18100 33.02400
H  12.64900 49.67800 28.79400
H  11.87700 48.34900 22.48200
H  6.08300 46.05100 23.69100
H  8.49800 48.98100 31.32600
H  11.34100 48.90300 30.78800
H  10.96300 51.58000 30.32500
H  9.93100 50.92200 31.70800
H  9.29300 51.15700 30.14300
H  10.28600 46.45500 30.85300
H  8.88600 46.54700 31.87300
H  10.79100 48.59500 32.86700
H  11.41700 46.95500 32.99500
H  15.07200 49.16300 27.32800
H  14.29700 50.76800 27.87900
H  15.27700 50.67300 26.49200
H  15.89400 50.67700 24.38100
H  16.51600 49.62100 23.11900
H  16.51800 49.00100 24.69400
H  10.48900 46.72300 21.46600
H  7.45200 46.84300 21.64500
H  10.37800 48.68900 20.24400
H  9.01400 49.32200 21.31700
H  8.67600 48.27800 20.02200
H  9.34800 44.81100 21.37700
H  7.55400 44.80800 21.10400
H  8.13400 44.34300 23.90000
H  9.26700 43.35500 22.79900
H  7.54700 43.16800 22.77000
H  3.40800 45.55200 26.61000
H  4.10800 45.48300 25.02900
H  3.31400 47.01500 25.62100
H  6.05300 48.13300 30.65600
H  6.42400 45.57000 34.04200
H  7.35200 44.62700 32.84600
H  5.70700 44.37600 32.90000

