158

Mg -1.92600 17.15900 25.52500
C  -2.23700 14.79200 28.05200
C  -3.23700 19.52100 27.55600
C  -1.89100 19.26700 22.90900
C  -1.33300 14.49300 23.30600
N  -2.56300 17.18400 27.58600
C  -2.63700 16.10200 28.47800
C  -3.07100 16.61200 29.92700
C  -3.70000 17.99400 29.56700
C  -3.09500 18.31000 28.16700
C  -5.28300 17.99200 29.34100
C  -1.86600 16.78800 30.90100
C  -2.24900 16.74000 32.34900
H  -1.19800 16.06600 33.27600
N  -2.32200 19.19000 25.35800
C  -2.83600 20.01900 26.28100
C  -2.85200 21.43300 25.76900
C  -2.30400 21.36000 24.41400
C  -2.18700 19.87300 24.16900
C  -3.08800 22.69000 26.63900
C  -1.88700 22.39400 23.41400
O  -1.52300 22.10800 22.32100
C  -1.95600 23.78000 23.76300
N  -1.85300 16.91200 23.36500
C  -1.78100 17.92600 22.52700
C  -1.39500 17.58000 21.08100
C  -1.21200 16.03500 21.22000
C  -1.38400 15.77500 22.70400
C  -2.43700 18.04700 19.96000
C  0.12300 15.50800 20.58800
C  1.39600 15.94000 21.26300
N  -1.88300 15.06000 25.54900
C  -1.56500 14.13000 24.58000
C  -1.65400 12.77500 25.13400
C  -1.86200 12.97200 26.52300
C  -1.94700 14.42000 26.74100
C  -1.58800 11.48600 24.48500
C  -2.01800 12.31800 27.90000
O  -1.90200 11.16000 28.27500
C  -2.21100 13.47300 28.89700
C  -1.17100 13.39900 29.93400
O  -0.06200 13.84900 29.76600
O  -1.58100 12.71500 31.06400
C  -0.55000 12.41300 31.99200
H  -3.69100 20.33800 28.12200
H  -1.76200 19.95700 22.07200
H  -1.05700 13.59700 22.74600
H  -3.80200 15.91500 30.33600
H  -3.59100 18.71600 30.37600
H  -5.64200 16.98800 29.56800
H  -5.44600 18.08900 28.26800
H  -5.77100 18.76400 29.93700
H  -1.43400 17.77500 30.73700
H  -1.06200 16.06800 30.74300
H  -3.17300 16.19300 32.53000
H  -2.28000 17.73100 32.80200
H  -3.57700 22.23500 27.50000
H  -3.74400 23.49800 26.31500
H  -2.14500 23.17800 26.88600
H  -1.86200 24.41200 22.88000
H  -1.18900 24.07000 24.48100
H  -2.92700 24.06700 24.16600
H  -0.45300 18.03000 20.76900
H  -2.06400 15.45600 20.86100
H  -2.44400 17.49400 19.02000
H  -2.30000 19.06100 19.58600
H  -3.46000 18.09800 20.33300
H  0.07300 15.96600 19.60000
H  0.17400 14.42100 20.53100
H  2.19400 16.22200 20.57600
H  1.80800 15.05600 21.75100
H  1.22400 16.70900 22.01600
H  -1.80200 10.79600 25.30100
H  -0.54500 11.35800 24.19600
H  -2.33200 11.49700 23.68800
H  -3.21000 13.30900 29.30000
H  -0.47600 11.32800 32.07200
H  -0.97500 12.63300 32.97200
H  0.45500 12.83200 31.94300
Mg 0.11100 43.21500 27.01500
C  2.51400 42.86300 29.42600
C  -2.34200 42.20900 29.41800
C  -2.35000 43.45900 24.66700
C  2.50900 43.53500 24.52400
N  0.09200 42.61800 29.15000
C  1.18400 42.67000 29.96700
C  0.81900 42.56300 31.45100
C  -0.59100 41.89000 31.37000
C  -0.98900 42.30900 29.87100
C  -0.59100 40.39300 31.57100
C  0.92800 43.86200 32.14200
C  0.90100 43.80300 33.65900
H  0.26800 42.63300 34.41500
N  -2.03500 42.91300 27.04600
C  -2.77500 42.57900 28.13500
C  -4.19100 42.63600 27.80900
C  -4.24200 43.07000 26.43100
C  -2.88700 43.24600 25.97000
C  -5.30900 42.27000 28.78000
C  -5.49500 43.31000 25.40100
O  -5.40100 43.72800 24.25300
C  -6.84300 42.86200 25.89100
N  0.05700 43.25900 24.86700
C  -1.05700 43.47800 24.17600
C  -0.73000 43.72500 22.64500
C  0.77600 43.76800 22.56600
C  1.16200 43.58500 24.07600
C  -1.35500 42.67000 21.71500
C  1.41500 44.91800 21.82900
C  1.92600 46.09000 22.73900
N  2.09600 43.19700 26.92000
C  2.94900 43.32500 25.84200
C  4.35200 43.32200 26.32100
C  4.20000 43.05500 27.68300
C  2.77100 43.01300 28.04700
C  5.71900 43.43700 25.55500
C  5.00600 42.86200 28.89100
O  6.19000 42.57900 29.18600
C  3.95800 42.84400 30.09600
C  4.25200 41.71900 31.03300
O  4.33000 40.52300 30.75000
O  4.39200 42.19400 32.24800
C  4.47500 41.19100 33.30500
H  -3.07300 41.87600 30.15800
H  -3.07200 43.68000 23.87800
H  3.33500 43.66000 23.82100
H  1.47900 41.86200 31.96200
H  -1.27900 42.31400 32.10200
H  0.36500 39.93300 31.82100
H  -0.80600 39.97000 30.59000
H  -1.36400 40.20800 32.31700
H  0.21700 44.58300 31.73900
H  1.90100 44.29600 31.90900
H  0.50600 44.76800 33.97800
H  1.90500 43.88000 34.07700
H  -6.13900 42.91300 28.48800
H  -5.13600 42.60600 29.80300
H  -5.58200 41.21500 28.74600
H  -6.78900 41.83000 26.23800
H  -7.63100 43.08400 25.17200
H  -7.09800 43.47300 26.75700
H  -1.14700 44.70000 22.39400
H  1.16000 42.84100 22.13900
H  -0.56800 42.31500 21.05000
H  -2.25300 43.11800 21.29000
H  -1.59300 41.80000 22.32600
H  0.90000 45.26800 20.93500
H  2.36900 44.48400 21.53000
H  1.22600 46.25500 23.55900
H  2.04300 46.98600 22.12900
H  2.93800 46.00200 23.13300
H  6.51300 43.15100 26.24500
H  5.83900 44.43200 25.12600
H  5.79500 42.73200 24.72800
H  4.12500 43.82600 30.53800
H  5.49500 41.23900 33.68600
H  4.04400 40.19800 33.17800
H  3.85500 41.62400 34.09100

