158

Mg 25.75800 0.34100 29.24500
C  27.36100 0.27500 32.43800
C  22.81000 0.56300 30.90600
C  24.27400 -0.32500 26.40200
C  28.87500 -0.71100 27.96700
N  25.14400 0.47900 31.55100
C  26.02500 0.52100 32.61600
C  25.29300 0.79600 33.87800
C  23.78300 0.76000 33.34000
C  23.85600 0.62000 31.88300
C  22.88200 -0.30800 34.06400
C  25.68800 2.16300 34.52700
C  26.02000 2.04300 36.02600
H  25.60100 3.10500 37.10900
N  23.87800 0.22000 28.69300
C  22.77700 0.34400 29.54400
C  21.57500 0.13500 28.79800
C  21.92600 -0.00300 27.46200
C  23.39600 0.04400 27.46400
C  20.17900 0.14700 29.44700
C  21.06800 -0.29000 26.23800
O  21.55700 -0.42500 25.11700
C  19.60700 -0.47400 26.35400
N  26.48900 -0.46700 27.42000
C  25.69200 -0.48000 26.34200
C  26.54900 -0.58400 25.04600
C  28.01400 -0.37500 25.57300
C  27.82200 -0.52800 27.08300
C  26.37700 -2.02300 24.45800
C  28.75200 0.94400 25.16600
C  28.05300 2.24400 25.13600
N  27.79300 -0.13000 30.02000
C  28.88100 -0.45700 29.35800
C  30.03300 -0.44100 30.28800
C  29.44600 -0.25700 31.50400
C  28.05300 -0.06100 31.26000
C  31.34500 -0.90400 29.92200
C  29.70600 -0.09000 32.90500
O  30.77300 -0.00100 33.48300
C  28.38400 0.28000 33.59200
C  28.17400 -0.81400 34.58800
O  27.55900 -1.83800 34.40700
O  28.82700 -0.45100 35.77500
C  28.86600 -1.51900 36.82800
H  21.86600 0.70600 31.43600
H  23.84000 -0.72000 25.48200
H  29.88200 -0.70100 27.54500
H  25.43200 -0.00800 34.60000
H  23.23200 1.68000 33.53500
H  22.03800 -0.59200 33.43600
H  22.46900 0.16000 34.95700
H  23.49800 -1.14000 34.40600
H  24.92200 2.92500 34.37700
H  26.53500 2.52500 33.94500
H  27.10600 2.12600 36.05300
H  25.75300 1.10000 36.50400
H  19.74900 1.14500 29.36500
H  20.23500 -0.09700 30.50800
H  19.58700 -0.68700 29.07300
H  19.42600 -1.47500 26.74600
H  19.32000 -0.22100 25.33400
H  19.33000 0.30300 27.06600
H  26.38300 0.15100 24.25900
H  28.61100 -1.19000 25.16300
H  26.47500 -1.97500 23.37300
H  25.46700 -2.51600 24.79700
H  27.20800 -2.67600 24.72400
H  29.25700 0.87800 24.20200
H  29.55200 1.01600 25.90300
H  28.12800 2.71100 24.15400
H  28.16300 3.01500 25.89800
H  26.98700 2.05300 25.26100
H  31.92400 -0.23500 29.28600
H  31.51900 -1.95100 29.67500
H  31.83900 -0.86400 30.89200
H  28.33900 1.32000 33.91600
H  29.40200 -2.40100 36.47700
H  27.93300 -1.68200 37.36700
H  29.47400 -1.20100 37.67500
Mg -11.57700 16.18000 42.44200
C  -8.17700 17.16600 42.30700
C  -12.40500 19.50600 42.22700
C  -14.85100 15.24400 42.07900
C  -10.59900 12.84900 42.29200
N  -10.38300 18.12500 42.37300
C  -9.05700 18.27400 42.28600
C  -8.65600 19.71100 41.98400
C  -10.06600 20.46500 42.34800
C  -11.05600 19.33000 42.30100
C  -9.94400 21.21900 43.73300
C  -8.19100 19.84300 40.42000
C  -7.04500 20.79300 40.10600
H  -6.02400 20.18900 39.09100
N  -13.39400 17.18600 42.33800
C  -13.48700 18.62700 42.22500
C  -14.87700 18.93200 42.12900
C  -15.61500 17.71000 42.15900
C  -14.64800 16.63000 42.21300
C  -15.32900 20.25700 41.99500
C  -17.17700 17.63900 42.22600
O  -17.83200 18.66200 42.29800
C  -17.97000 16.28600 42.36100
N  -12.56900 14.34300 42.31900
C  -13.91200 14.21100 42.18400
C  -14.29400 12.75800 42.28000
C  -12.99000 11.97400 42.00600
C  -11.96300 13.09600 42.27300
C  -14.78900 12.52200 43.62600
C  -12.86000 11.47900 40.52100
C  -13.60200 10.20400 40.35100
N  -9.75900 15.20300 42.15600
C  -9.49100 13.79900 42.22200
C  -8.07100 13.52600 42.24800
C  -7.52900 14.84400 42.24500
C  -8.61200 15.81200 42.24600
C  -7.40500 12.18700 42.45000
C  -6.28900 15.62500 42.36300
O  -5.11800 15.28800 42.41400
C  -6.68000 17.12600 42.42300
C  -6.22800 17.59400 43.81900
O  -6.01100 16.88300 44.82200
O  -5.91700 18.96000 43.87300
C  -5.36300 19.56000 45.11400
H  -12.62400 20.56700 42.09300
H  -15.88600 14.92000 41.95400
H  -10.17900 11.84600 42.18800
H  -7.82800 19.96600 42.64400
H  -10.26400 21.23400 41.60200
H  -10.63300 20.79800 44.46500
H  -10.23500 22.25800 43.57700
H  -8.93100 21.08000 44.11100
H  -9.03400 20.13100 39.79100
H  -7.85600 18.86100 40.08800
H  -6.49200 21.01500 41.01800
H  -7.48900 21.76100 39.87200
H  -14.56900 21.03800 42.02000
H  -15.95500 20.52500 42.84600
H  -15.83800 20.35400 41.03600
H  -18.95200 16.51100 42.77700
H  -17.42000 15.71900 43.11200
H  -18.08400 15.80400 41.39000
H  -15.05500 12.36700 41.60500
H  -12.87500 11.18800 42.75300
H  -15.22000 13.41100 44.08500
H  -14.12600 12.12800 44.39700
H  -15.56200 11.75600 43.57200
H  -11.83800 11.26200 40.20800
H  -13.26000 12.31400 39.94500
H  -14.47800 10.43100 39.74300
H  -13.84100 9.80300 41.33600
H  -12.99700 9.40100 39.92900
H  -7.31700 11.94200 43.50800
H  -6.46200 12.07500 41.91500
H  -7.99500 11.33500 42.11100
H  -6.13200 17.52200 41.56800
H  -5.56700 20.63000 45.11100
H  -4.27600 19.63800 45.13400
H  -5.72300 19.16200 46.06400

