158

Mg 35.98100 49.33100 25.87600
C  35.85900 48.00400 29.01200
C  34.90800 52.43300 27.14400
C  35.83000 50.53300 22.75000
C  36.45700 46.08300 24.55300
N  35.43000 50.10400 27.85800
C  35.63900 49.40900 28.99300
C  35.59200 50.29000 30.28800
C  35.18500 51.71900 29.65600
C  35.12000 51.42600 28.15400
C  34.04800 52.56600 30.29600
C  36.90800 50.38100 31.07500
C  36.62300 50.25900 32.60200
H  35.23900 50.57800 33.23100
N  35.40500 51.21400 25.06200
C  34.97800 52.30800 25.72300
C  34.73000 53.38700 24.80300
C  34.98600 52.81700 23.53100
C  35.46300 51.48200 23.72700
C  34.29000 54.79800 25.22300
C  34.79400 53.47100 22.22600
O  35.05800 52.94600 21.13700
C  34.30100 54.91500 22.10000
N  36.01100 48.39900 23.92800
C  35.93800 49.15400 22.77600
C  36.21000 48.32900 21.55100
C  36.28700 46.86400 22.17800
C  36.29600 47.13600 23.65400
C  35.23100 48.43600 20.37200
C  37.56500 46.02600 21.73700
C  39.00300 46.59800 21.97500
N  36.13600 47.44400 26.59800
C  36.40100 46.22800 25.98500
C  36.63700 45.19200 26.92800
C  36.39800 45.83400 28.18800
C  36.09700 47.18900 27.92300
C  37.00800 43.74700 26.60600
C  36.52600 45.72600 29.67800
O  36.67000 44.78600 30.45400
C  36.12300 47.12700 30.20500
C  34.90500 46.92800 31.05200
O  33.81800 46.58200 30.65300
O  35.27000 46.90900 32.36200
C  34.21300 46.62400 33.33200
H  34.56100 53.43400 27.40900
H  35.96000 50.89200 21.72700
H  36.64200 45.06900 24.19100
H  34.79900 49.88300 30.91600
H  35.92700 52.50400 29.80300
H  33.79600 52.19300 31.28900
H  33.17400 52.57900 29.64500
H  34.30300 53.61500 30.44900
H  37.46600 51.29100 30.85600
H  37.53300 49.55600 30.73300
H  37.35700 50.94100 33.03200
H  36.99800 49.28100 32.90400
H  34.72900 55.58400 24.60800
H  34.59800 55.07700 26.23000
H  33.21000 54.84900 25.08200
H  33.47600 55.10000 22.78800
H  34.04200 55.00500 21.04500
H  35.04400 55.62900 22.45400
H  37.15100 48.70700 21.15100
H  35.45400 46.19100 21.97400
H  34.39500 49.09700 20.60100
H  34.80700 47.51200 19.97600
H  35.68500 49.05800 19.60000
H  37.40300 45.83300 20.67600
H  37.51200 45.07800 22.27200
H  38.95800 47.39300 22.72000
H  39.49500 46.87100 21.04100
H  39.67100 45.75800 22.16400
H  37.39200 43.62600 25.59300
H  36.29100 42.94200 26.77000
H  37.81900 43.42900 27.26000
H  36.86100 47.63700 30.82400
H  33.47800 47.42800 33.29000
H  34.59500 46.61300 34.35200
H  33.64100 45.70600 33.20200
Mg -10.54900 16.24400 43.66800
C  -7.14700 16.66100 43.59800
C  -10.89300 19.68000 42.88700
C  -13.84100 15.79900 42.85000
C  -10.04700 12.75700 43.67600
N  -9.19400 17.94100 43.15900
C  -7.84700 17.84700 43.40400
C  -7.27200 19.31500 43.26400
C  -8.48900 20.12000 43.68000
C  -9.58700 19.17800 43.17800
C  -8.64500 20.38700 45.24300
C  -6.85800 19.58000 41.79800
C  -5.41300 19.99100 41.60400
H  -5.25000 20.93100 40.42000
N  -12.21400 17.62600 43.00100
C  -12.12900 18.95500 42.70800
C  -13.39100 19.44300 42.31600
C  -14.30600 18.31500 42.27000
C  -13.41600 17.10800 42.70600
C  -13.67500 20.92900 42.00500
C  -15.71500 18.30000 41.84300
O  -16.33600 19.33500 41.57400
C  -16.51800 16.91600 41.57600
N  -11.71500 14.49500 43.25200
C  -13.09200 14.61100 43.09400
C  -13.71900 13.15500 43.25600
C  -12.49700 12.19800 43.15200
C  -11.33100 13.21400 43.39100
C  -14.61700 12.93100 44.48000
C  -12.18800 11.76700 41.68400
C  -12.80700 10.41400 41.29600
N  -8.92200 14.95200 43.81800
C  -8.86100 13.59300 43.77600
C  -7.48000 13.11700 43.91100
C  -6.74100 14.31500 43.96800
C  -7.71100 15.40300 43.82400
C  -7.15300 11.70500 44.01000
C  -5.42800 14.91200 43.95800
O  -4.29800 14.43000 44.00300
C  -5.65000 16.45800 43.85800
C  -5.31500 16.95800 45.21500
O  -5.89000 16.78400 46.31200
O  -4.04600 17.50300 45.15200
C  -3.55600 18.18000 46.42700
H  -11.04400 20.75200 42.74000
H  -14.89500 15.57200 42.67800
H  -9.95700 11.66900 43.69100
H  -6.37500 19.53200 43.84300
H  -8.55600 21.11000 43.23000
H  -9.27600 19.68200 45.78300
H  -9.09100 21.38000 45.30400
H  -7.67100 20.59300 45.68800
H  -7.44900 20.38500 41.36000
H  -7.02400 18.66800 41.22400
H  -4.83100 19.07900 41.46900
H  -5.04100 20.50600 42.48900
H  -12.79700 21.51500 41.73100
H  -14.20500 21.38500 42.84100
H  -14.31000 21.13800 41.14500
H  -15.90400 16.13400 41.12800
H  -17.39100 16.98400 40.92700
H  -16.82200 16.52400 42.54700
H  -14.41400 13.01300 42.42900
H  -12.47000 11.37400 43.86600
H  -15.64600 13.06100 44.14500
H  -14.37800 13.71500 45.19900
H  -14.49200 11.93800 44.91300
H  -11.14300 11.51600 41.50300
H  -12.42200 12.63000 41.06100
H  -12.07800 9.64500 41.03700
H  -13.45400 10.65100 40.45200
H  -13.36300 10.02600 42.15000
H  -7.83900 11.31100 44.75900
H  -6.11400 11.53100 44.28900
H  -7.43900 11.26400 43.05500
H  -5.05100 16.85500 43.03800
H  -3.03200 17.50900 47.10600
H  -4.39600 18.72200 46.86100
H  -2.88800 18.96100 46.06200

