158

Mg -0.21900 6.95100 26.66400
C  1.13200 9.66100 28.67900
C  0.06800 4.98100 29.50000
C  -2.01100 4.66200 25.13800
C  0.31500 8.87100 23.89800
N  0.41100 7.34100 28.82500
C  0.87000 8.48500 29.39600
C  0.97400 8.28500 30.90200
C  1.15300 6.82300 31.03700
C  0.60600 6.31200 29.66100
C  2.57700 6.32300 31.45500
C  -0.30900 8.84700 31.62000
C  -0.21100 9.25100 33.12400
H  0.94600 8.81300 33.93700
N  -0.80700 5.11900 27.19900
C  -0.62000 4.48000 28.33200
C  -1.27800 3.23400 28.35800
C  -1.97700 3.10000 27.17000
C  -1.60300 4.28000 26.44600
C  -1.25800 2.32500 29.54300
C  -2.92900 2.08800 26.70400
O  -3.42700 2.11400 25.57700
C  -3.17000 0.84200 27.46400
N  -0.57200 6.62900 24.76300
C  -1.44800 5.67900 24.28500
C  -1.77800 5.74500 22.74300
C  -1.19600 7.18200 22.46700
C  -0.29700 7.57100 23.75300
C  -1.09700 4.60000 21.90000
C  -2.35100 8.13500 22.16900
C  -2.25700 8.96400 20.81500
N  0.44100 8.90400 26.31100
C  0.60700 9.52400 25.11000
C  1.14100 10.85700 25.29600
C  1.30800 10.99800 26.73900
C  0.95500 9.75500 27.28300
C  1.60700 11.81100 24.18800
C  1.68600 11.90900 27.80400
O  2.07700 13.13000 27.74100
C  1.41500 11.09800 29.13600
C  2.67100 11.13800 29.90100
O  3.73000 10.62200 29.54500
O  2.59000 11.88300 31.04800
C  3.80800 11.88200 31.91500
H  0.24500 4.39400 30.40400
H  -2.53500 3.88500 24.57800
H  0.44300 9.53800 23.04300
H  1.84500 8.82100 31.27900
H  0.48700 6.51500 31.84300
H  2.74600 5.99300 32.48000
H  3.28000 7.13900 31.28900
H  2.95700 5.53900 30.80000
H  -1.20300 8.25600 31.42200
H  -0.38500 9.78900 31.07800
H  -1.03600 8.77300 33.65300
H  -0.32800 10.32600 33.25700
H  -2.25500 2.15700 29.95000
H  -0.52300 2.55700 30.31400
H  -0.98800 1.34600 29.14900
H  -3.72900 0.16000 26.82300
H  -3.81100 1.00400 28.33100
H  -2.23500 0.34400 27.71900
H  -2.84800 5.53700 22.73200
H  -0.54100 7.16500 21.59600
H  -0.34000 4.11700 22.51900
H  -0.66300 5.01200 20.99000
H  -1.89200 3.88200 21.69800
H  -2.47400 8.95200 22.88000
H  -3.28800 7.58000 22.12200
H  -2.53200 9.99700 21.02600
H  -3.09500 8.59600 20.22300
H  -1.27300 9.05900 20.35500
H  0.84800 11.58300 23.43900
H  2.59600 11.63300 23.76600
H  1.57500 12.89100 24.33600
H  0.56300 11.44500 29.72100
H  3.87500 12.90600 32.28100
H  4.76200 11.92000 31.39000
H  3.82800 11.12200 32.69700
Mg 30.84900 57.88300 40.16100
C  28.14300 55.91700 38.91100
C  32.88700 55.14000 39.25800
C  33.59400 59.95900 40.23500
C  28.69000 60.63000 40.35100
N  30.55700 55.78500 39.07800
C  29.33200 55.17600 38.78700
C  29.59700 53.76500 38.22300
C  31.04200 53.44800 38.75100
C  31.57300 54.84400 39.13400
C  30.98600 52.51200 39.95600
C  29.38100 53.92500 36.72500
C  28.17500 53.08400 36.20600
H  27.31100 53.77800 35.13700
N  32.97000 57.56300 40.07200
C  33.54400 56.35900 39.57100
C  34.96400 56.51000 39.74600
C  35.22200 57.85000 40.03900
C  33.85800 58.50700 40.15000
C  35.88100 55.34400 39.70100
C  36.59500 58.50800 40.20600
O  37.59500 57.84500 40.17700
C  36.79400 59.99400 40.49200
N  31.13000 60.02200 40.38100
C  32.32500 60.59800 40.39300
C  32.14300 62.15700 40.64200
C  30.52800 62.24000 40.90000
C  30.08000 60.90400 40.51800
C  33.04700 62.58400 41.92200
C  30.03400 63.45200 40.00500
C  29.24200 64.46800 40.81400
N  28.82000 58.26800 39.79800
C  28.09300 59.41600 39.96900
C  26.70200 59.13400 39.78200
C  26.62200 57.80500 39.40100
C  27.99100 57.33000 39.33500
C  25.57700 60.11300 39.94100
C  25.76900 56.72300 39.09500
O  24.53600 56.69200 38.91600
C  26.69300 55.40200 38.75900
C  26.32000 54.26800 39.64100
O  26.94200 53.91700 40.62200
O  25.27800 53.58800 39.11600
C  24.71700 52.38100 39.74600
H  33.50300 54.25100 39.10700
H  34.39100 60.70600 40.20900
H  28.08000 61.50600 40.57900
H  28.87600 53.20300 38.81700
H  31.67000 53.09300 37.93500
H  31.60900 51.65300 39.70700
H  30.02900 52.00200 40.07300
H  31.40900 52.91800 40.87500
H  30.19100 53.52200 36.11700
H  29.26300 54.96300 36.41600
H  27.47100 52.89200 37.01600
H  28.49600 52.13400 35.78000
H  36.95500 55.39300 39.88200
H  35.86000 55.00300 38.66600
H  35.47900 54.49000 40.24500
H  37.85300 60.25100 40.46900
H  36.31400 60.17600 41.45400
H  36.29500 60.58800 39.72600
H  32.56700 62.69100 39.79100
H  30.26300 62.32700 41.95400
H  33.35600 61.67300 42.43300
H  32.39500 62.97100 42.70500
H  33.91700 63.22000 41.75500
H  29.59500 62.98800 39.12100
H  30.92100 63.97400 39.64600
H  29.71300 65.43400 40.99800
H  29.01700 64.10000 41.81500
H  28.35000 64.75600 40.25700
H  25.91000 61.05700 39.51000
H  25.31600 60.21600 40.99500
H  24.67200 59.77100 39.43800
H  26.52000 55.00700 37.75800
H  25.04300 52.31600 40.78500
H  25.11900 51.48900 39.26600
H  23.62800 52.39300 39.75500

