158

Mg 9.05400 4.48900 28.02400
C  10.42100 2.74200 30.92200
C  7.44700 6.54800 29.98000
C  7.68200 5.75000 25.19400
C  10.65800 2.11800 26.07100
N  8.90300 4.60800 30.17600
C  9.58100 3.88000 31.18800
C  9.28300 4.49600 32.58900
C  8.17200 5.62200 32.18500
C  8.15100 5.62300 30.69000
C  6.84000 5.50300 32.94300
C  10.62900 5.12700 33.22300
C  11.18700 4.45000 34.52400
H  11.39400 5.25700 35.82500
N  7.66300 5.93100 27.68200
C  7.13400 6.69300 28.63800
C  6.24000 7.60600 27.98100
C  6.29500 7.37400 26.59400
C  7.25000 6.32500 26.46900
C  5.53500 8.68200 28.82800
C  5.44800 8.07300 25.57100
O  5.60500 7.80300 24.36100
C  4.43900 9.09300 25.90900
N  9.08500 4.01900 25.88400
C  8.57100 4.70300 24.89600
C  8.90500 4.14000 23.45500
C  9.95300 3.05900 23.86400
C  9.90400 3.06000 25.39800
C  7.67000 3.64500 22.66700
C  11.42500 3.36500 23.37000
C  12.14700 2.18700 22.66500
N  10.22000 2.73200 28.35100
C  10.86100 1.95000 27.48000
C  11.61100 0.84500 28.12400
C  11.48700 1.16100 29.45600
C  10.62600 2.28000 29.58700
C  12.41300 -0.29600 27.54400
C  11.87000 0.80200 30.83100
O  12.51100 -0.15300 31.25600
C  11.16600 1.85000 31.84400
C  10.28800 1.13500 32.73900
O  9.31100 0.53800 32.30900
O  10.73500 1.15800 33.99900
C  9.87800 0.50400 35.04100
H  6.92800 7.26400 30.62100
H  7.29500 6.33400 24.35700
H  11.17600 1.34500 25.50000
H  8.71200 3.70700 33.07700
H  8.57700 6.54900 32.59000
H  7.09900 5.35300 33.99100
H  6.39400 4.53200 32.72900
H  6.14200 6.33600 32.85000
H  10.49400 6.16900 33.51200
H  11.39000 4.94500 32.46400
H  12.15100 4.00900 34.27000
H  10.57000 3.60800 34.83900
H  5.51100 9.60100 28.24300
H  6.04500 8.84100 29.77800
H  4.48600 8.43300 28.98700
H  3.76400 9.38000 25.10300
H  4.75700 10.05500 26.31100
H  3.70300 8.66900 26.59200
H  9.37900 4.99000 22.96500
H  9.74200 2.07000 23.45800
H  6.81800 3.97500 23.26200
H  7.53500 2.56400 22.61600
H  7.58800 3.87200 21.60400
H  12.05200 3.58500 24.23400
H  11.37200 4.31400 22.83700
H  13.10600 2.00600 23.15200
H  12.37200 2.43200 21.62700
H  11.54700 1.27700 22.63600
H  13.36500 -0.50600 28.03100
H  12.74400 -0.10200 26.52300
H  11.78400 -1.18200 27.63100
H  11.94100 2.35200 32.42300
H  10.25600 -0.44600 35.42000
H  8.86400 0.18700 34.80000
H  9.67700 1.22800 35.83100
Mg 53.68600 24.09800 44.10200
C  51.33200 26.49900 43.62100
C  51.56200 21.70700 42.76600
C  56.28600 21.86200 44.02200
C  55.82800 26.54300 45.52900
N  51.68400 24.12300 43.05800
C  50.84800 25.23100 43.15300
C  49.51000 24.86900 42.44700
C  49.44700 23.30800 42.62200
C  50.98400 23.01200 42.86100
C  48.66000 22.67300 43.75300
C  49.40300 25.47800 41.00300
C  49.99500 24.66600 39.80100
H  50.61600 25.33900 38.55100
N  53.93600 22.02600 43.45600
C  52.90900 21.27300 42.93200
C  53.42400 19.94400 42.56800
C  54.82200 19.98900 42.88000
C  55.12200 21.36800 43.48000
C  52.49600 18.88700 41.99400
C  55.77300 18.84400 42.83900
O  55.28400 17.86600 42.34500
C  57.11200 18.81800 43.30600
N  55.82600 24.21500 44.64900
C  56.58300 23.16300 44.55700
C  57.96100 23.47400 45.15200
C  57.87800 24.93000 45.57400
C  56.43200 25.26500 45.30100
C  58.33500 22.50800 46.21900
C  58.78500 25.99700 44.80000
C  60.04300 26.51800 45.61600
N  53.66100 26.12900 44.46000
C  54.54000 26.97600 45.07400
C  53.95400 28.28200 45.24400
C  52.63500 28.11700 44.69600
C  52.55300 26.81000 44.20800
C  54.47700 29.42900 45.98400
C  51.32400 28.72600 44.51000
O  50.87600 29.83000 44.81800
C  50.46600 27.76100 43.80000
C  50.16900 28.41500 42.56600
O  50.89300 28.98800 41.81800
O  48.82700 28.23800 42.27500
C  48.27100 28.67800 40.99200
H  50.84000 20.89400 42.66600
H  57.19800 21.30700 43.79100
H  56.40500 27.43700 45.77800
H  48.70400 25.32600 43.02000
H  49.11700 22.95700 41.64400
H  48.23300 23.44400 44.39400
H  49.32200 22.04500 44.35000
H  47.84000 22.11900 43.29500
H  50.04500 26.35300 41.10400
H  48.38600 25.76300 40.73200
H  49.27600 23.96600 39.37700
H  50.86300 24.15700 40.22000
H  52.28000 18.98300 40.93000
H  51.52000 18.89000 42.47900
H  52.97100 17.91400 42.12000
H  57.09000 19.05400 44.37000
H  57.78400 19.47700 42.75600
H  57.60400 17.84500 43.31900
H  58.60700 23.38900 44.27900
H  57.99700 25.02900 46.65300
H  57.45000 21.95200 46.52700
H  58.77600 22.99900 47.08600
H  59.02900 21.86300 45.67900
H  58.22100 26.74900 44.24900
H  59.14700 25.37300 43.98300
H  60.08200 25.99300 46.57000
H  60.14400 27.59000 45.78400
H  60.92900 26.17600 45.08100
H  55.53900 29.39100 46.22800
H  53.97900 29.30900 46.94600
H  54.32400 30.39200 45.49600
H  49.52600 27.52800 44.30000
H  48.91900 28.53800 40.12600
H  47.94500 29.71500 41.07000
H  47.47200 27.94800 40.86200

