158

Mg 35.43900 49.41900 24.50800
C  35.82000 47.63400 27.35800
C  34.18300 52.03000 26.23500
C  34.78200 51.04900 21.52100
C  36.58000 46.63800 22.68200
N  35.02100 49.75100 26.55600
C  35.35800 48.95000 27.64000
C  35.02100 49.57100 28.98400
C  34.45400 50.95700 28.54900
C  34.62700 50.89600 27.04800
C  32.97400 51.12100 28.94300
C  36.29500 49.65100 29.91900
C  36.11900 49.17000 31.37900
H  34.74800 48.93300 31.90200
N  34.53100 51.26300 23.98800
C  34.15300 52.22200 24.87200
C  33.66900 53.34900 24.16100
C  33.92000 53.06200 22.74700
C  34.44800 51.71900 22.69900
C  33.28100 54.57200 24.86500
C  33.67200 53.95800 21.54300
O  33.99800 53.71300 20.40400
C  33.07600 55.36400 21.83000
N  35.71800 48.92400 22.41300
C  35.32700 49.73800 21.31600
C  35.84500 49.17900 19.94700
C  36.48600 47.78300 20.41600
C  36.23700 47.76200 21.92400
C  34.66800 49.03400 18.99300
C  37.95900 47.61900 19.88000
C  38.46400 46.15500 19.51100
N  36.19800 47.54200 24.93900
C  36.63600 46.50200 24.11000
C  37.10400 45.44000 24.89400
C  36.71500 45.78400 26.17700
C  36.24800 47.07900 26.13600
C  37.71800 44.08200 24.28500
C  36.64600 45.31200 27.56900
O  36.95600 44.25600 28.07500
C  35.99500 46.51000 28.45600
C  34.83100 46.00400 29.13300
O  33.71700 45.85000 28.65400
O  35.27500 45.46300 30.30600
C  34.28400 44.71600 31.13100
H  33.68500 52.75800 26.87800
H  34.58700 51.49700 20.54400
H  36.92100 45.72600 22.18800
H  34.21100 49.02000 29.46200
H  34.94100 51.88600 28.84700
H  32.72400 50.65800 29.89700
H  32.30000 50.68900 28.20300
H  32.71200 52.17500 29.04000
H  36.75000 50.63800 29.84500
H  37.14200 49.03600 29.61400
H  36.61600 49.84400 32.07700
H  36.71000 48.27900 31.59000
H  33.73300 55.43800 24.38100
H  33.54200 54.49300 25.92100
H  32.23300 54.84400 24.74000
H  32.17300 55.11800 22.38900
H  32.70200 55.80600 20.90600
H  33.76200 56.06400 22.30600
H  36.58400 49.80000 19.44100
H  35.80700 47.09900 19.90800
H  34.83400 48.42500 18.10500
H  34.23800 50.00500 18.74600
H  33.87400 48.53300 19.54600
H  38.71500 48.13500 20.47300
H  37.96600 48.14500 18.92600
H  39.38200 45.97200 20.07100
H  38.72600 46.10800 18.45400
H  37.69900 45.42800 19.78400
H  37.14600 43.83600 23.39000
H  37.62800 43.31100 25.05100
H  38.78100 44.18200 24.06400
H  36.73400 46.75800 29.21700
H  34.86800 44.10300 31.81800
H  33.75300 44.03200 30.46800
H  33.55200 45.32400 31.66200
Mg -11.17500 16.08100 42.17800
C  -7.82000 16.91700 41.67000
C  -12.00000 19.16100 41.10500
C  -14.23500 14.91900 41.82500
C  -10.10300 12.77600 43.05700
N  -9.98200 17.85700 41.48000
C  -8.68200 18.03000 41.45200
C  -8.36000 19.55700 41.04600
C  -9.66100 20.26100 41.44300
C  -10.60900 19.04500 41.33800
C  -9.60900 20.88900 42.83800
C  -7.92700 19.85900 39.61900
C  -6.98600 21.06900 39.38700
H  -5.74400 20.72200 38.55900
N  -12.87500 16.91700 41.29800
C  -13.02400 18.18000 41.01800
C  -14.34400 18.38100 40.54400
C  -15.03800 17.16500 40.74700
C  -14.06500 16.24500 41.29500
C  -14.83900 19.68100 40.01600
C  -16.44000 16.90200 40.27800
O  -17.19700 17.86100 40.00800
C  -16.84600 15.48700 40.07200
N  -12.09300 14.14600 42.47600
C  -13.41400 13.97600 42.37700
C  -13.80400 12.48300 42.88000
C  -12.38700 11.79700 43.16600
C  -11.50900 12.96700 42.89200
C  -14.81000 12.46400 44.13300
C  -12.16500 10.58000 42.22900
C  -11.77500 9.22800 42.82500
N  -9.35000 14.99100 42.38600
C  -9.08500 13.68500 42.80500
C  -7.60900 13.54500 42.74900
C  -7.09400 14.78700 42.42400
C  -8.21600 15.62900 42.14000
C  -6.94900 12.27100 42.98700
C  -5.81000 15.51700 42.26500
O  -4.64800 15.11500 42.39900
C  -6.26400 16.95000 41.70900
C  -5.70300 17.92500 42.68600
O  -6.07300 17.94800 43.83800
O  -4.92000 18.81500 42.06000
C  -4.28000 19.84100 42.83700
H  -12.33300 20.19500 40.98800
H  -15.26900 14.57700 41.90900
H  -9.95700 11.72600 43.31700
H  -7.54700 19.93800 41.66400
H  -9.98700 20.96100 40.67400
H  -9.78100 21.96200 42.76000
H  -8.70000 20.66800 43.39800
H  -10.39600 20.45400 43.45400
H  -8.81300 20.03700 39.01000
H  -7.39500 18.95800 39.31200
H  -6.59700 21.49600 40.31200
H  -7.40700 21.91400 38.84300
H  -14.39300 20.58400 40.43200
H  -15.84600 19.77000 40.42500
H  -14.86000 19.69800 38.92600
H  -17.63600 15.45500 39.32100
H  -17.22800 14.92700 40.92600
H  -16.01000 14.91200 39.67400
H  -14.28900 11.96300 42.05500
H  -12.32600 11.53900 44.22400
H  -15.10100 13.42000 44.57000
H  -14.62600 11.79800 44.97600
H  -15.77100 12.08300 43.78700
H  -11.56400 10.94300 41.39500
H  -13.10500 10.41000 41.70200
H  -11.88000 9.30000 43.90800
H  -10.74300 8.91200 42.67200
H  -12.33700 8.35200 42.50100
H  -7.15700 11.52900 42.21600
H  -7.22500 11.85000 43.95300
H  -5.87900 12.47300 43.04800
H  -5.94100 17.12200 40.68300
H  -3.85400 19.30500 43.68500
H  -4.86900 20.70100 43.15600
H  -3.50100 20.15200 42.14000

