158

Mg 47.05100 16.05600 27.82300
C  45.20800 15.94900 30.81200
C  49.05800 18.43300 29.28000
C  48.45300 16.52200 24.74400
C  44.54700 14.25100 26.30800
N  47.06000 17.05600 29.84500
C  46.31900 16.74100 30.96800
C  46.84000 17.39400 32.19000
C  47.92100 18.45000 31.62000
C  48.09900 17.89600 30.16900
C  47.57900 19.93400 31.74200
C  47.43400 16.32300 33.19300
C  47.03200 16.52100 34.69900
H  48.15000 16.14000 35.68100
N  48.51900 17.29500 27.10900
C  49.28200 18.14800 27.93000
C  50.24700 18.78900 27.07500
C  50.13400 18.28300 25.71300
C  48.97500 17.32700 25.80200
C  51.07800 19.96900 27.60700
C  50.97100 18.57200 24.42800
O  50.66100 18.06600 23.34800
C  52.17000 19.57500 24.53100
N  46.69200 15.36200 25.86700
C  47.42800 15.60400 24.76700
C  46.98400 14.84200 23.54100
C  45.77200 14.11000 24.07900
C  45.62100 14.62000 25.50300
C  46.63300 15.75600 22.23600
C  45.91300 12.51800 23.85100
C  46.51900 11.72700 24.89200
N  45.30400 15.20700 28.39800
C  44.39700 14.47900 27.64700
C  43.26600 13.95100 28.47400
C  43.57400 14.52800 29.72600
C  44.78300 15.30500 29.65200
C  42.00100 13.20700 28.03900
C  43.06600 14.59700 31.03100
O  42.07600 14.12300 31.50500
C  44.17200 15.44600 31.86000
C  43.46500 16.43100 32.59100
O  42.80800 17.37100 32.09400
O  43.49300 16.15200 33.91600
C  42.70700 17.14100 34.75800
H  49.70100 19.16200 29.77600
H  48.93000 16.46900 23.76400
H  43.75200 13.56400 26.00900
H  46.02300 17.97200 32.62200
H  48.67700 18.25000 32.38000
H  46.58800 20.07400 32.17300
H  47.73400 20.40000 30.76900
H  48.26200 20.20400 32.54800
H  48.52200 16.40000 33.19600
H  47.09900 15.36800 32.78800
H  46.19500 15.89300 35.00400
H  46.74700 17.57000 34.78800
H  50.66800 20.43700 28.50200
H  51.07100 20.74200 26.83900
H  52.12200 19.71300 27.78900
H  51.68100 20.53200 24.35100
H  52.89400 19.32100 23.75700
H  52.73100 19.61300 25.46500
H  47.78000 14.15500 23.25400
H  44.90500 14.37700 23.47500
H  46.08200 15.15100 21.51600
H  47.52300 16.10400 21.71100
H  46.01000 16.61500 22.48700
H  46.38800 12.20200 22.92100
H  44.88900 12.16100 23.74100
H  46.74500 12.29900 25.79200
H  47.53400 11.42600 24.63200
H  46.02800 10.76500 25.03800
H  41.45900 13.77400 27.28200
H  41.33400 12.91000 28.84800
H  42.39100 12.32900 27.52300
H  44.68600 14.76600 32.53900
H  43.21400 18.10400 34.69700
H  42.72200 16.87000 35.81400
H  41.71900 17.37700 34.36300
Mg -10.33900 17.74200 42.96700
C  -6.68200 17.89900 43.17100
C  -10.30200 21.02700 42.54000
C  -13.52600 17.48600 42.56000
C  -9.93700 14.21900 42.65800
N  -8.58800 19.26800 42.69200
C  -7.28700 19.18500 43.06200
C  -6.66300 20.55400 43.18200
C  -7.90700 21.52900 43.07900
C  -9.06200 20.56300 42.70100
C  -8.24000 22.54000 44.24800
C  -5.51600 20.80600 42.08000
C  -5.97300 20.73800 40.57900
H  -5.23900 19.85000 39.63000
N  -11.75500 19.07300 42.50000
C  -11.56700 20.40400 42.38100
C  -12.89000 21.04100 42.07800
C  -13.79200 19.99600 42.01500
C  -13.02500 18.76500 42.37500
C  -13.01200 22.57100 41.81800
C  -15.26700 20.15800 41.69100
O  -15.75000 21.26100 41.51200
C  -16.13600 18.97100 41.50500
N  -11.48400 16.05600 42.51300
C  -12.83900 16.21600 42.57000
C  -13.49600 14.88800 42.97400
C  -12.44500 13.87800 42.46300
C  -11.20000 14.75200 42.51000
C  -13.87200 14.77600 44.48300
C  -12.62500 13.23900 40.99900
C  -12.65400 11.65400 40.90000
N  -8.68000 16.30100 43.02700
C  -8.65600 14.93800 42.80700
C  -7.33100 14.32100 42.83600
C  -6.50500 15.50800 43.10000
C  -7.38200 16.63700 43.15900
C  -7.01900 12.92500 42.73500
C  -5.13200 15.98500 43.14000
O  -4.11400 15.32300 43.08800
C  -5.16800 17.51300 43.27700
C  -4.45400 17.91500 44.59800
O  -3.74600 18.92500 44.71300
O  -4.73900 17.01700 45.58100
C  -4.35900 17.27600 46.98200
H  -10.38000 22.11400 42.60800
H  -14.58700 17.25900 42.42900
H  -9.91800 13.12800 42.70500
H  -6.35800 20.67600 44.22100
H  -7.73500 22.10700 42.17100
H  -9.04500 22.11100 44.84400
H  -8.53700 23.49900 43.82300
H  -7.38000 22.63900 44.91100
H  -4.86400 19.95800 42.29100
H  -4.98500 21.74600 42.22300
H  -5.82400 21.70900 40.10500
H  -7.01600 20.42200 40.58100
H  -12.70000 22.86100 40.81500
H  -12.23700 23.02000 42.44000
H  -13.93300 23.10700 42.04300
H  -16.30300 18.46200 42.45500
H  -15.54700 18.27000 40.91400
H  -17.13900 19.18500 41.13500
H  -14.39300 14.79900 42.36200
H  -12.34800 13.06800 43.18600
H  -13.53100 15.73100 44.88200
H  -13.48800 14.00700 45.15300
H  -14.95800 14.74500 44.56600
H  -11.71100 13.45500 40.44600
H  -13.41900 13.68500 40.40100
H  -13.56100 11.32200 40.39300
H  -12.52000 11.25800 41.90700
H  -11.86500 11.25500 40.26200
H  -6.22800 12.79300 41.99700
H  -7.96300 12.54100 42.34800
H  -6.84700 12.38600 43.66700
H  -4.51400 17.82800 42.46300
H  -5.26200 17.84100 47.21200
H  -3.46700 17.90200 46.98400
H  -4.11200 16.30800 47.41800

