158

Mg -3.06600 17.18100 26.12600
C  -3.64200 14.76000 28.66500
C  -3.34400 19.51700 28.69200
C  -3.09500 19.48400 23.80600
C  -3.45800 14.80900 23.77500
N  -3.49500 17.08400 28.53900
C  -3.53100 15.94900 29.36300
C  -3.58200 16.40900 30.83200
C  -3.51100 18.04600 30.69600
C  -3.50200 18.24600 29.22900
C  -4.52700 18.86900 31.57300
C  -2.43500 15.78500 31.74100
C  -1.75800 16.49900 32.86000
H  -1.03300 15.65600 33.87000
N  -3.08400 19.15000 26.19500
C  -3.17600 19.96600 27.33600
C  -2.95300 21.34100 26.86100
C  -2.88900 21.40000 25.42600
C  -3.12100 19.99400 25.06800
C  -2.85400 22.57300 27.70900
C  -2.62200 22.53000 24.44300
O  -2.82600 22.39700 23.25600
C  -2.17400 23.90500 24.95200
N  -3.41300 17.18200 23.97500
C  -3.22300 18.18200 23.25000
C  -2.97000 17.85100 21.76800
C  -3.22600 16.34900 21.70200
C  -3.31100 16.06100 23.22500
C  -3.89800 18.68500 20.81300
C  -2.16600 15.51200 20.96100
C  -2.70200 14.52400 19.84700
N  -3.37500 15.16700 26.18000
C  -3.57100 14.33200 25.08900
C  -3.74000 12.93900 25.47900
C  -3.76800 13.09300 26.90500
C  -3.58400 14.45800 27.27900
C  -3.98300 11.73100 24.72500
C  -4.01300 12.32000 28.20000
O  -4.29900 11.19800 28.44300
C  -3.93100 13.43300 29.33800
C  -2.84400 13.01200 30.24100
O  -1.64600 13.02700 29.99900
O  -3.39900 12.59400 31.45700
C  -2.54600 12.09100 32.52500
H  -3.58400 20.36500 29.33700
H  -3.18400 20.25100 23.03400
H  -3.62600 14.04400 23.01500
H  -4.56800 16.11900 31.19500
H  -2.53800 18.33900 31.09100
H  -4.75300 18.22000 32.41800
H  -5.51800 18.98600 31.13400
H  -4.14400 19.82200 31.94000
H  -1.64900 15.35000 31.12500
H  -2.95700 15.01200 32.30400
H  -2.52000 17.11900 33.33200
H  -1.05300 17.20500 32.42300
H  -2.80300 22.21300 28.73700
H  -3.69700 23.26400 27.68100
H  -1.92400 23.09500 27.48400
H  -2.22800 24.64600 24.15400
H  -1.13200 23.80500 25.25800
H  -2.76900 24.32500 25.76300
H  -1.93200 18.16200 21.65300
H  -4.25000 16.29500 21.33300
H  -3.80200 18.23300 19.82600
H  -3.87500 19.77200 20.89300
H  -4.92200 18.50800 21.14300
H  -1.66400 14.81200 21.62900
H  -1.44900 16.18800 20.49500
H  -2.39100 14.94800 18.89300
H  -3.78800 14.52400 19.93500
H  -2.41700 13.51400 20.14400
H  -5.03300 11.45100 24.80900
H  -3.32100 10.97300 25.14300
H  -3.76700 11.97900 23.68500
H  -4.82600 13.49800 29.95700
H  -2.95300 11.22300 33.04400
H  -2.29700 12.91700 33.19100
H  -1.58300 11.69800 32.20100
Mg 49.26100 46.14400 42.65300
C  45.74300 46.23500 41.66100
C  49.41300 42.95300 41.51200
C  52.55200 46.30300 42.94100
C  48.96700 49.60000 43.13100
N  47.72600 44.76000 41.77400
C  46.40900 44.95900 41.50100
C  45.82900 43.59600 41.04600
C  46.97500 42.56200 41.11500
C  48.11900 43.45600 41.60300
C  46.84600 41.39700 42.14200
C  44.89600 43.52300 39.76000
C  45.57800 43.82900 38.34800
H  45.50500 42.65400 37.35300
N  50.77500 44.70700 42.44200
C  50.64500 43.42300 42.02300
C  51.90400 42.77500 41.93900
C  52.86600 43.69600 42.36700
C  52.05800 44.97600 42.67300
C  51.93200 41.28000 41.55000
C  54.33600 43.50400 42.40100
O  54.78400 42.38400 42.22400
C  55.27400 44.55600 42.66900
N  50.55100 47.78800 43.02700
C  51.90200 47.59800 43.07300
C  52.61800 49.00600 43.16500
C  51.41700 50.01400 43.04000
C  50.24600 49.06800 43.13400
C  53.46200 49.19100 44.41300
C  51.46900 50.79400 41.70500
C  51.47300 52.32600 41.79100
N  47.61700 47.61500 42.67300
C  47.69200 48.97900 42.88900
C  46.37400 49.59700 42.76000
C  45.56300 48.51500 42.35800
C  46.38400 47.38000 42.30000
C  45.93800 51.07100 42.91600
C  44.24400 48.17400 41.93800
O  43.25800 48.81800 41.90900
C  44.30700 46.70200 41.37500
C  43.32900 45.82900 42.18000
O  42.38200 45.15400 41.67400
O  43.66300 45.78800 43.48000
C  42.83800 44.92700 44.41900
H  49.49600 41.93200 41.13300
H  53.60100 46.60300 42.97700
H  48.79900 50.65100 43.37800
H  45.14400 43.46700 41.88400
H  47.26700 42.31000 40.09500
H  45.85900 41.33000 42.60000
H  47.45900 41.56100 43.02800
H  47.06100 40.43800 41.67000
H  44.11600 44.26500 39.93000
H  44.42500 42.54100 39.78400
H  46.58700 44.22200 38.47300
H  45.01000 44.65200 37.91600
H  52.38600 41.30100 40.55900
H  51.01500 40.73100 41.33500
H  52.45400 40.73400 42.33400
H  55.01000 45.34400 41.96300
H  56.25300 44.16000 42.40400
H  55.11000 44.93100 43.68000
H  53.27900 49.02700 42.29800
H  51.29200 50.65900 43.90900
H  54.51400 49.06800 44.15300
H  53.09400 48.51500 45.18400
H  53.42900 50.16700 44.89700
H  50.55900 50.55600 41.15400
H  52.30700 50.43100 41.11000
H  50.58900 52.76400 41.32800
H  52.27400 52.65300 41.12900
H  51.67600 52.60800 42.82400
H  45.23200 51.39300 42.15100
H  46.82400 51.69800 43.01400
H  45.43700 51.17700 43.87900
H  44.00200 46.58400 40.33500
H  43.12300 45.11600 45.45400
H  42.81000 43.84900 44.26100
H  41.78600 45.15300 44.24100

