158

Mg 49.27500 46.26100 42.55200
C  45.85600 46.89800 41.91300
C  48.88100 43.26200 40.95100
C  52.51400 46.00900 42.69700
C  49.49400 49.70300 43.66400
N  47.46900 45.27600 41.34800
C  46.19200 45.66700 41.31800
C  45.40900 44.61700 40.39400
C  46.45700 43.46900 40.15600
C  47.69400 43.96400 40.92600
C  45.99000 42.03000 40.57200
C  44.89900 45.36000 39.01800
C  43.45300 45.25900 38.57300
H  43.24500 45.07600 37.01800
N  50.54700 44.83000 41.91900
C  50.14700 43.65700 41.37200
C  51.32200 42.81000 41.16100
C  52.41400 43.54500 41.70700
C  51.86900 44.85300 42.15700
C  51.23100 41.39700 40.66900
C  53.87500 43.10200 41.80400
O  54.14300 42.01700 41.26600
C  54.97400 43.80100 42.49100
N  50.74400 47.72200 43.13700
C  52.09500 47.26600 43.13600
C  53.04200 48.36600 43.63000
C  52.04500 49.53300 43.99100
C  50.70000 49.02200 43.56800
C  53.90200 47.84400 44.79300
C  52.46600 50.89200 43.53300
C  52.51100 51.16600 42.02500
N  47.96300 47.93300 42.85300
C  48.18700 49.17900 43.42200
C  46.88500 49.82600 43.71800
C  45.98500 49.00900 43.05100
C  46.68100 47.90200 42.49100
C  46.63100 51.13700 44.45500
C  44.60300 48.86000 42.84600
O  43.69600 49.51000 43.22100
C  44.43500 47.53600 41.96900
C  43.52900 46.66400 42.71300
O  43.80800 46.28300 43.86100
O  42.49700 46.13600 41.95400
C  41.83500 45.00800 42.59300
H  48.85900 42.24800 40.54400
H  53.59000 45.84800 42.79300
H  49.62100 50.71900 44.04500
H  44.57700 44.27200 41.00800
H  46.75000 43.46300 39.10700
H  45.91100 41.25400 39.81200
H  45.14900 42.06500 41.26500
H  46.81500 41.54300 41.09100
H  45.37700 44.82100 38.19900
H  45.17500 46.41400 39.00100
H  43.04100 46.23300 38.83600
H  42.96100 44.43700 39.09200
H  51.31300 41.45100 39.58400
H  50.28300 40.89900 40.87300
H  52.09100 40.81200 40.99400
H  54.78600 43.93600 43.55600
H  55.13100 44.65800 41.83500
H  55.87800 43.19700 42.40600
H  53.73600 48.67900 42.85000
H  52.06900 49.57300 45.08000
H  53.45200 46.96700 45.25800
H  54.00600 48.57100 45.59700
H  54.91500 47.61000 44.46600
H  53.43200 51.05100 44.01100
H  51.89400 51.72200 43.94900
H  52.45300 50.22400 41.48100
H  53.51600 51.50600 41.77300
H  51.71600 51.82400 41.67400
H  47.33100 51.45100 45.22900
H  45.68900 51.02100 44.99100
H  46.42500 52.00800 43.83300
H  43.94600 47.69400 41.00700
H  41.87300 44.29400 41.77100
H  40.76500 45.07000 42.79000
H  42.37000 44.50700 43.40000
Mg 27.21400 50.68900 26.02700
C  25.00700 51.62700 28.80800
C  29.22400 49.30200 28.37300
C  29.28100 50.10600 23.52200
C  24.88700 52.17200 23.94800
N  27.09400 50.50100 28.39500
C  26.15500 50.93600 29.27500
C  26.46000 50.58400 30.76400
C  27.94000 49.96300 30.56000
C  28.15000 49.91300 28.99900
C  29.08100 50.67300 31.31200
C  25.33500 49.54100 31.38100
C  24.60700 50.04300 32.57800
H  25.44200 50.43100 33.74100
N  28.98500 49.73200 25.94800
C  29.76200 49.30000 27.06200
C  30.93900 48.77200 26.59000
C  31.02500 49.03000 25.19200
C  29.78200 49.69000 24.79500
C  32.04300 48.19900 27.52400
C  32.23600 48.74100 24.22900
O  32.08600 49.05300 23.07000
C  33.53300 47.95100 24.73900
N  27.00900 50.99400 24.08900
C  28.02000 50.76400 23.23500
C  27.64200 51.00200 21.80000
C  26.07500 51.38600 21.94400
C  25.97100 51.47900 23.40700
C  28.48700 52.15200 21.23100
C  25.12500 50.30500 21.41600
C  24.36100 50.70500 20.14700
N  25.37400 51.75000 26.29900
C  24.54300 52.25300 25.33500
C  23.39400 52.77700 25.87800
C  23.53500 52.55200 27.27500
C  24.78100 51.93300 27.45000
C  22.32400 53.36100 25.08400
C  22.92700 52.75200 28.59700
O  21.94000 53.41800 28.95200
C  23.87100 52.16800 29.62800
C  24.31100 53.24000 30.65300
O  25.35900 53.81300 30.67500
O  23.39500 53.25500 31.68900
C  23.77700 53.97200 32.91200
H  29.91600 48.76000 29.02100
H  29.84000 49.96400 22.59500
H  24.08400 52.54400 23.30800
H  26.52300 51.48800 31.37000
H  27.98500 48.94400 30.94600
H  28.60600 51.56000 31.73000
H  29.79700 50.99000 30.55400
H  29.70600 50.02800 31.93000
H  25.92400 48.68400 31.70800
H  24.64400 49.25900 30.58700
H  24.00000 49.16700 32.80700
H  24.01700 50.91900 32.30700
H  32.28600 47.18200 27.21600
H  31.78300 48.19300 28.58300
H  32.94000 48.76000 27.26100
H  34.21400 48.63300 25.24800
H  33.99900 47.60900 23.81500
H  33.29200 47.02800 25.26700
H  27.77900 50.06100 21.26600
H  25.83800 52.34700 21.48700
H  29.27300 52.24600 21.98000
H  28.06500 53.09200 20.87500
H  28.98700 51.68100 20.38400
H  24.43700 49.93200 22.17400
H  25.60000 49.35100 21.18600
H  24.46400 49.95000 19.36800
H  24.74300 51.67000 19.81300
H  23.32400 50.88700 20.42800
H  22.22600 52.68300 24.23600
H  22.63800 54.31500 24.66000
H  21.46000 53.57800 25.71200
H  23.31100 51.40500 30.16900
H  23.27800 53.35500 33.66000
H  23.34200 54.96300 32.78900
H  24.83200 54.03000 33.18300

