158

Mg 1.52700 -0.81600 43.58800
C  4.92600 0.06000 44.01200
C  0.99200 2.29100 42.29200
C  -1.54700 -1.90000 42.86900
C  2.53300 -4.15100 44.09000
N  2.91300 0.98400 43.02600
C  4.24800 1.19500 43.42000
C  4.69000 2.59100 43.07200
C  3.30100 3.31400 42.91100
C  2.29700 2.14500 42.63700
C  2.96300 4.21300 44.17700
C  5.56400 2.74700 41.78800
C  5.63100 1.72600 40.52500
H  5.45600 2.29300 39.09300
N  -0.05500 0.08100 42.68000
C  -0.15300 1.38300 42.23100
C  -1.57700 1.66100 41.84000
C  -2.28900 0.48000 42.05400
C  -1.29600 -0.50700 42.58800
C  -2.06000 2.97300 41.25300
C  -3.74000 0.30100 41.64600
O  -4.35400 1.20300 41.03800
C  -4.51100 -0.97900 41.90100
N  0.62000 -2.74300 43.48800
C  -0.68600 -2.92800 43.24800
C  -1.17600 -4.39900 43.40500
C  0.18400 -4.99000 43.85500
C  1.23200 -3.92600 43.69800
C  -2.42900 -4.53300 44.36200
C  0.54400 -6.28900 43.15000
C  0.95200 -7.39900 44.04100
N  3.29000 -1.85900 44.08900
C  3.55000 -3.21500 44.29000
C  4.90500 -3.39500 44.70000
C  5.55300 -2.16500 44.56200
C  4.49400 -1.29200 44.14100
C  5.56400 -4.70400 44.99700
C  6.77100 -1.38500 44.77000
O  7.88900 -1.80200 44.99200
C  6.40200 0.13100 44.46400
C  6.62400 0.96500 45.74800
O  5.69800 1.43900 46.35700
O  7.93800 1.10200 45.97600
C  8.20800 2.26700 46.80800
H  0.55500 3.26800 42.07600
H  -2.55800 -2.30500 42.79200
H  2.80600 -5.17200 44.36600
H  5.28100 3.03600 43.87300
H  3.31300 3.90800 41.99800
H  2.40700 3.61200 44.89800
H  2.36600 5.07900 43.89200
H  3.84200 4.56500 44.71600
H  6.54700 2.90900 42.23000
H  5.44400 3.68500 41.24600
H  4.97900 0.86200 40.65600
H  6.67100 1.40200 40.55900
H  -2.32400 3.04300 40.19800
H  -1.30400 3.74800 41.38100
H  -2.91200 3.25500 41.87200
H  -5.50300 -0.73500 41.52000
H  -4.47800 -1.28600 42.94600
H  -3.99800 -1.63000 41.19400
H  -1.40000 -4.68800 42.37800
H  0.10700 -5.18900 44.92300
H  -2.65600 -3.48400 44.55000
H  -2.15000 -5.09400 45.25400
H  -3.23800 -4.98400 43.78700
H  1.37900 -6.03800 42.49700
H  -0.27700 -6.54500 42.48000
H  0.84200 -7.12200 45.08900
H  1.86600 -7.94000 43.79600
H  0.12900 -8.10200 43.91000
H  6.50400 -4.75100 44.44700
H  4.92600 -5.53700 44.70100
H  5.68100 -4.72200 46.08100
H  7.11600 0.52900 43.74300
H  7.53000 2.27200 47.66100
H  8.02400 3.15700 46.20700
H  9.24000 2.32200 47.15500
Mg 0.79000 7.61200 26.26400
C  1.53900 9.56000 29.17300
C  0.25900 4.99900 28.35600
C  0.60200 5.90200 23.58600
C  1.22700 10.59500 24.46400
N  0.87400 7.30700 28.53200
C  1.22000 8.23900 29.46600
C  0.99700 7.62600 30.84300
C  0.80900 6.13400 30.57500
C  0.60000 6.12700 29.06600
C  1.99100 5.23100 31.08000
C  -0.16400 8.19800 31.61900
C  0.02400 8.55500 33.10200
H  1.28700 7.98800 33.77600
N  0.46900 5.69100 25.94500
C  0.22400 4.72000 26.90500
C  0.14700 3.44100 26.21200
C  0.16600 3.70600 24.81200
C  0.42700 5.09600 24.71300
C  -0.10600 2.19100 27.01400
C  -0.07400 2.73400 23.68200
O  -0.25600 2.98700 22.48900
C  -0.20200 1.32300 24.09800
N  0.95200 8.22100 24.24800
C  0.71100 7.28100 23.30700
C  1.00100 7.91200 21.92700
C  0.89700 9.46100 22.23100
C  0.95700 9.45900 23.75800
C  2.52900 7.59500 21.50500
C  -0.53700 10.04900 21.76000
C  -0.50200 11.55500 21.52200
N  1.23500 9.71400 26.68900
C  1.35800 10.77700 25.85800
C  1.78400 11.97800 26.52900
C  1.96900 11.55700 27.86600
C  1.52200 10.17000 27.91600
C  2.02400 13.36100 25.87100
C  2.28500 11.93700 29.23400
O  2.67400 13.05500 29.59400
C  1.91500 10.64200 30.15900
C  3.09800 10.35800 30.97700
O  3.97600 9.57600 30.64400
O  3.16500 11.23000 32.10600
C  4.41500 11.14100 32.93800
H  0.09600 4.15700 29.03200
H  0.67000 5.33700 22.65300
H  1.28500 11.50900 23.86900
H  1.89400 7.84400 31.42300
H  -0.10600 5.77600 31.04700
H  1.59100 4.46800 31.74900
H  2.87900 5.74300 31.45000
H  2.32500 4.78800 30.14200
H  -1.01100 7.51100 31.62500
H  -0.49200 9.11000 31.11900
H  -0.91500 8.21700 33.53900
H  0.18200 9.62000 33.27500
H  0.68300 1.57000 26.58700
H  -1.09600 1.78400 26.81000
H  0.15000 2.33700 28.06400
H  -0.25300 0.69600 23.20800
H  -1.14900 1.29600 24.63800
H  0.62300 0.97900 24.72200
H  0.37900 7.58300 21.09400
H  1.58600 10.16400 21.76300
H  2.66300 6.56600 21.16900
H  3.10900 7.90800 22.37200
H  2.90000 8.14200 20.63800
H  -1.19800 9.82000 22.59500
H  -1.01400 9.50000 20.94800
H  -0.98300 11.91300 22.43200
H  -1.07600 11.76900 20.62000
H  0.48200 12.01900 21.45900
H  2.72000 13.83800 26.56100
H  1.04600 13.82800 25.75100
H  2.36100 13.18700 24.84900
H  1.15000 10.83700 30.91000
H  4.53100 12.11100 33.42200
H  5.26500 11.05700 32.26100
H  4.34000 10.30400 33.63200

