158

Mg -11.06200 38.76200 41.36100
C  -9.19800 36.10000 40.07800
C  -8.93800 40.87400 39.65900
C  -13.28600 41.32000 41.72700
C  -13.46300 36.50700 42.36300
N  -9.23300 38.49900 39.98300
C  -8.66000 37.33700 39.64500
C  -7.40700 37.52600 38.84700
C  -7.20500 39.12100 38.91700
C  -8.50700 39.53300 39.58500
C  -5.92300 39.62700 39.52100
C  -7.42700 36.88400 37.37800
C  -6.19400 35.98600 37.05200
H  -5.42100 36.21600 35.69700
N  -11.16900 40.74200 40.75300
C  -10.12000 41.45000 40.15800
C  -10.44600 42.81100 40.09300
C  -11.75100 42.96400 40.58500
C  -12.10700 41.66200 41.05300
C  -9.54100 43.95100 39.56500
C  -12.50900 44.30100 40.53500
O  -12.03300 45.33700 40.07500
C  -13.95700 44.32500 40.88100
N  -13.22500 38.86600 41.84900
C  -13.71200 40.09200 42.16800
C  -15.03000 39.93100 42.87900
C  -15.03400 38.41300 43.28500
C  -13.83100 37.87100 42.46900
C  -15.11700 41.07800 43.98100
C  -16.38800 37.68000 42.92900
C  -17.49300 37.63200 43.95900
N  -11.30400 36.62700 41.34600
C  -12.35800 35.88800 41.83900
C  -11.96500 34.55600 41.71300
C  -10.74700 34.58400 40.99600
C  -10.41500 35.88000 40.79100
C  -12.68100 33.35400 42.33300
C  -9.69200 33.68900 40.43600
O  -9.58100 32.48900 40.49300
C  -8.61800 34.65200 39.70900
C  -7.28700 34.46800 40.36800
O  -6.37700 33.87400 39.83700
O  -7.15900 35.02500 41.59800
C  -5.90700 34.80400 42.27400
H  -8.13600 41.46700 39.21600
H  -13.97400 42.10100 42.05800
H  -14.28200 35.92900 42.79700
H  -6.63200 37.09300 39.47900
H  -7.13500 39.35600 37.85500
H  -6.26100 39.85300 40.53200
H  -5.55400 40.53300 39.04000
H  -5.11800 38.90200 39.63800
H  -7.37700 37.58100 36.54100
H  -8.28000 36.21200 37.28900
H  -6.47300 34.93400 36.99500
H  -5.47200 36.03000 37.86800
H  -9.82900 44.30700 38.57500
H  -8.50400 43.62100 39.51200
H  -9.61800 44.77300 40.27600
H  -13.98000 44.31000 41.97100
H  -14.54800 43.54500 40.40300
H  -14.38500 45.27000 40.54500
H  -15.70400 40.17400 42.05800
H  -14.88100 38.36300 44.36300
H  -14.08100 41.19700 44.29900
H  -15.69900 40.81500 44.86400
H  -15.47100 42.03500 43.59900
H  -16.27100 36.64800 42.59900
H  -16.78300 38.14400 42.02500
H  -17.62400 36.58500 44.23000
H  -18.35500 38.07500 43.46000
H  -17.25900 38.14900 44.89000
H  -12.47800 32.50700 41.67700
H  -13.75700 33.50700 42.41800
H  -12.37700 33.11100 43.35200
H  -8.58700 34.54500 38.62500
H  -5.00400 34.69300 41.67400
H  -6.08900 33.88300 42.82900
H  -5.78900 35.55400 43.05600
Mg 0.86600 43.18000 26.12600
C  2.75500 43.10600 29.08900
C  -1.67900 41.67000 27.79300
C  -0.49400 42.68000 23.11300
C  3.90800 44.27200 24.45600
N  0.54700 42.50300 28.22000
C  1.38100 42.73900 29.26000
C  0.57300 42.65000 30.61400
C  -0.79900 41.98300 30.26600
C  -0.62500 42.05200 28.69700
C  -1.08900 40.60100 30.89300
C  0.43400 44.03200 31.49400
C  1.17700 44.11100 32.78600
H  1.21400 42.92200 33.79100
N  -0.87100 42.50900 25.57000
C  -1.79300 41.87700 26.37500
C  -2.90900 41.45700 25.57800
C  -2.64900 41.83600 24.24500
C  -1.28000 42.33900 24.24600
C  -4.00800 40.58900 26.14400
C  -3.43100 41.55700 23.03400
O  -2.98900 41.70900 21.88600
C  -4.82900 40.96500 22.97100
N  1.53700 43.56400 24.09200
C  0.75100 43.21600 23.04700
C  1.54000 43.40000 21.79400
C  2.88900 44.14800 22.19200
C  2.78900 44.00600 23.70600
C  1.68600 42.05300 20.89400
C  3.11300 45.59800 21.75900
C  2.00900 46.61500 22.11900
N  2.92800 43.48600 26.66200
C  4.02800 43.94700 25.83800
C  5.19900 44.10600 26.62100
C  4.76300 43.78700 27.91700
C  3.34300 43.44600 27.89400
C  6.50400 44.59900 26.19800
C  5.21600 43.66300 29.26400
O  6.31400 43.73900 29.73900
C  3.91400 43.27000 30.09100
C  4.33300 42.10400 30.94800
O  4.10000 40.87400 30.73500
O  4.94300 42.64700 32.04100
C  5.59100 41.70800 33.00000
H  -2.45600 41.13300 28.34100
H  -0.90900 42.35900 22.15600
H  4.79900 44.57400 23.90200
H  1.00600 41.90200 31.27700
H  -1.57300 42.69300 30.55900
H  -1.86600 40.86000 31.61300
H  -0.25700 40.25700 31.50900
H  -1.42600 39.78700 30.25100
H  -0.58400 44.17500 31.85700
H  0.82100 44.90500 30.96800
H  0.89000 45.02500 33.30500
H  2.23800 44.12900 32.53400
H  -3.64000 39.57700 26.31500
H  -4.89400 40.52500 25.51200
H  -4.24700 40.88700 27.16500
H  -5.55300 41.53000 23.55700
H  -4.78500 39.96000 23.39000
H  -5.29100 40.91700 21.98500
H  0.95500 44.09100 21.18600
H  3.72400 43.50100 21.92200
H  2.67800 41.82700 20.50300
H  1.06200 42.22100 20.01600
H  1.26800 41.18800 21.40800
H  3.26900 45.57600 20.68100
H  4.03100 45.93200 22.24200
H  2.32500 47.51200 22.65200
H  1.28300 46.15200 22.78700
H  1.58500 46.92400 21.16300
H  7.22700 43.78700 26.11800
H  6.94300 45.16100 27.02300
H  6.51500 45.17900 25.27600
H  3.70400 44.10800 30.75500
H  6.65900 41.90400 33.09800
H  5.58300 40.66200 32.69300
H  4.98700 41.80100 33.90300

