158

Mg 41.05200 41.50400 26.63000
C  40.42000 43.97200 29.11000
C  41.66800 39.36900 29.25500
C  42.14400 39.26500 24.32700
C  40.54600 43.91500 24.20000
N  41.22100 41.81000 28.98600
C  40.73200 42.81600 29.74800
C  40.64500 42.37200 31.22300
C  41.13400 40.90600 31.20200
C  41.21600 40.63900 29.68300
C  42.50900 40.72600 32.01500
C  39.21500 42.46200 31.80400
C  38.98000 41.92100 33.20300
H  38.34300 42.82700 34.32100
N  41.84300 39.56200 26.80200
C  42.07900 38.85900 27.97700
C  42.55600 37.49700 27.71100
C  42.58900 37.44700 26.23400
C  42.21600 38.81900 25.72100
C  42.84800 36.49900 28.87500
C  43.02100 36.25700 25.41000
O  43.18100 36.33900 24.18300
C  43.09000 34.92400 26.11700
N  41.38900 41.64100 24.56100
C  41.68200 40.50700 23.83700
C  41.26000 40.68600 22.36200
C  40.55400 42.06300 22.36600
C  40.80400 42.57100 23.81000
C  42.38500 40.57300 21.30200
C  39.10800 42.05100 21.97800
C  38.22600 40.98300 22.61000
N  40.69000 43.48700 26.57600
C  40.47600 44.35500 25.51900
C  40.18800 45.68500 25.95600
C  40.18700 45.62100 27.37200
C  40.42300 44.25200 27.72200
C  40.00700 46.97400 25.07200
C  39.93700 46.38300 28.56600
O  39.71500 47.55800 28.75500
C  40.17200 45.33400 29.83500
C  41.36500 45.98300 30.61300
O  42.57200 45.99200 30.30200
O  40.87600 46.46500 31.85400
C  41.80300 47.19700 32.67300
H  41.63700 38.65200 30.07800
H  42.46600 38.50700 23.61000
H  40.27300 44.67500 23.46400
H  41.25000 43.04300 31.83300
H  40.39500 40.19400 31.57000
H  42.73200 41.65500 32.53900
H  43.42700 40.50900 31.47000
H  42.36800 39.99300 32.80900
H  38.53900 41.89100 31.16600
H  38.81800 43.46600 31.65500
H  39.95500 41.65100 33.60900
H  38.34000 41.04900 33.06800
H  43.15000 37.03600 29.77400
H  43.73200 35.93800 28.57300
H  42.03300 35.78000 28.96000
H  42.12500 34.63400 26.53400
H  43.85800 35.00500 26.88600
H  43.38800 34.25600 25.30900
H  40.56200 39.92500 22.01300
H  41.05700 42.82900 21.77500
H  41.93400 40.63700 20.31100
H  43.01200 39.70200 21.48900
H  43.00500 41.46600 21.37700
H  39.05000 41.93400 20.89600
H  38.76500 43.04600 22.26200
H  37.39300 41.50500 23.08300
H  38.76600 40.26000 23.22100
H  37.85900 40.36400 21.79100
H  40.83200 47.68500 25.11100
H  39.21000 47.59100 25.48500
H  39.84700 46.63600 24.04800
H  39.30600 45.29400 30.49600
H  41.27200 47.99900 33.18600
H  42.71100 47.60900 32.23300
H  42.24200 46.51400 33.39900
Mg 35.95000 50.25500 24.18400
C  35.78700 48.67400 27.44500
C  35.02600 53.22900 25.76500
C  36.09300 51.49500 21.26700
C  36.85400 47.05400 23.06000
N  35.48100 50.85600 26.35400
C  35.49500 50.04500 27.47800
C  35.17900 50.88800 28.81200
C  34.89200 52.33600 28.21400
C  35.15600 52.14100 26.66900
C  33.51500 52.94800 28.55100
C  36.42200 50.87200 29.83300
C  36.14600 50.56800 31.30200
H  34.73100 50.72100 31.83000
N  35.59200 52.12500 23.59600
C  35.28600 53.20600 24.38100
C  35.04900 54.33400 23.45600
C  35.37400 53.85900 22.13300
C  35.79900 52.48800 22.31800
C  34.77900 55.78500 24.00300
C  35.18300 54.56700 20.86100
O  35.48600 54.03500 19.74200
C  34.55100 55.99200 20.84700
N  36.19700 49.36900 22.48000
C  36.38500 50.09400 21.32500
C  36.79700 49.24800 20.11000
C  37.06500 47.83300 20.69700
C  36.64500 48.09800 22.18300
C  35.76800 49.15800 19.02500
C  38.53400 47.24700 20.51000
C  38.61700 45.85500 20.00400
N  36.05300 48.17000 24.97400
C  36.42100 47.03300 24.36100
C  36.54600 45.98000 25.31200
C  36.35300 46.58500 26.52700
C  36.01700 47.92900 26.29200
C  36.93800 44.51500 25.01900
C  36.30300 46.34400 27.94800
O  36.52000 45.30500 28.55700
C  35.84300 47.62400 28.64900
C  34.53400 47.42100 29.31900
O  33.43100 47.33500 28.81800
O  34.80900 47.24700 30.72100
C  33.78100 46.71700 31.63500
H  34.72400 54.19500 26.17500
H  36.18800 51.88900 20.25300
H  37.25000 46.15600 22.57900
H  34.34700 50.32600 29.23700
H  35.65200 52.99200 28.63900
H  32.95100 52.75300 27.64000
H  33.61900 53.98500 28.87000
H  33.08500 52.39700 29.38700
H  36.96800 51.81400 29.88900
H  37.09700 50.10600 29.45100
H  36.82100 51.21800 31.85800
H  36.38500 49.53200 31.53900
H  35.09000 55.92000 25.03900
H  33.72600 56.03100 24.14700
H  35.36700 56.47600 23.39900
H  34.26600 56.25400 19.82800
H  35.28600 56.65900 21.29800
H  33.58600 56.02000 21.35200
H  37.70400 49.74300 19.76200
H  36.27600 47.12800 20.43300
H  34.76700 48.91200 19.37800
H  36.12500 48.40600 18.32100
H  35.72500 50.12800 18.52700
H  39.24100 47.28200 21.34000
H  39.08900 47.87300 19.81100
H  38.74900 45.80700 18.92300
H  37.66600 45.38300 20.24900
H  39.23000 45.19100 20.61300
H  36.21200 43.99300 24.39700
H  37.10500 43.97500 25.95100
H  37.75500 44.71000 24.32400
H  36.45800 48.04500 29.44500
H  32.86000 47.30100 31.64000
H  34.14900 46.63000 32.65700
H  33.46400 45.73000 31.29900

