158

Mg 29.83800 58.94500 38.80900
C  26.86400 57.36500 37.68200
C  31.56700 56.19900 37.80000
C  32.63100 60.81300 38.61900
C  27.94300 61.90200 39.13200
N  29.29300 57.02700 37.96300
C  28.01500 56.59500 37.57700
C  28.05800 55.18200 37.10800
C  29.40900 54.71800 37.66100
C  30.18200 56.05900 37.81500
C  29.24700 53.89500 38.95600
C  27.98700 55.13900 35.50200
C  26.76000 54.59400 34.74100
H  26.09300 55.64000 33.75800
N  31.75800 58.54400 38.37800
C  32.32200 57.36200 37.91700
C  33.72500 57.50800 37.68500
C  34.04800 58.78300 38.20100
C  32.79100 59.42800 38.46700
C  34.67100 56.43200 37.24400
C  35.48100 59.24900 38.46100
O  36.43800 58.52000 38.11800
C  35.87500 60.52300 39.15100
N  30.18200 61.12300 38.80700
C  31.47800 61.57300 38.87800
C  31.46700 63.12000 39.08500
C  29.95200 63.44600 39.41500
C  29.30900 62.05500 39.10900
C  32.48200 63.79600 39.99500
C  29.26200 64.66500 38.79400
C  28.14000 65.35100 39.59500
N  27.79200 59.46300 38.73000
C  27.22600 60.67200 38.91000
C  25.73000 60.50900 38.76600
C  25.49000 59.24300 38.23900
C  26.79200 58.65000 38.23100
C  24.69600 61.61600 38.99600
C  24.54600 58.36200 37.77800
O  23.35600 58.51400 37.60200
C  25.36300 57.05800 37.36900
C  24.83200 55.94500 38.23300
O  24.93500 55.80000 39.43400
O  24.12900 55.09800 37.42300
C  23.57100 53.85700 37.95000
H  32.09300 55.31200 37.44000
H  33.47400 61.50200 38.53500
H  27.29400 62.76700 39.28200
H  27.25600 54.52900 37.45300
H  29.87000 54.03900 36.94500
H  29.62400 54.55100 39.74100
H  29.76700 52.94000 39.02000
H  28.21800 53.65600 39.22500
H  28.86600 54.63700 35.09900
H  28.14900 56.15300 35.13600
H  26.05100 54.11400 35.41600
H  27.08100 53.68800 34.22800
H  35.18500 56.06600 38.13300
H  35.44100 56.70900 36.52400
H  34.28900 55.54300 36.74300
H  36.81200 60.56000 39.70700
H  35.13200 60.70000 39.92800
H  35.95000 61.29800 38.38800
H  31.64900 63.57100 38.10900
H  29.94100 63.57800 40.49700
H  31.98200 64.02000 40.93600
H  32.77500 64.72800 39.51000
H  33.28200 63.07800 40.17700
H  28.71000 64.37200 37.90100
H  29.98500 65.42100 38.48700
H  28.13200 64.97100 40.61700
H  27.17300 65.13400 39.14200
H  28.31400 66.42700 39.63900
H  25.04900 62.29100 39.77600
H  23.79600 61.17500 39.42400
H  24.39200 62.19700 38.12500
H  25.21800 56.85800 36.30700
H  22.52100 54.00200 38.20300
H  24.06500 53.36200 38.78700
H  23.76900 53.15000 37.14500
Mg -10.25800 16.92000 42.28300
C  -6.77200 16.45600 42.02500
C  -9.95700 19.99300 40.80800
C  -13.61700 17.02100 42.09900
C  -10.50500 13.45700 43.09300
N  -8.49600 18.06600 41.54900
C  -7.19100 17.76400 41.69900
C  -6.30800 18.87400 41.23000
C  -7.35600 19.94800 40.79500
C  -8.70300 19.29000 40.94200
C  -7.26200 21.31800 41.51200
C  -5.28900 18.63900 40.11000
C  -5.56900 17.63200 38.87800
H  -5.21100 18.11000 37.48400
N  -11.61600 18.35200 41.67800
C  -11.27700 19.58700 41.08200
C  -12.52500 20.29000 40.86400
C  -13.64200 19.47400 41.30200
C  -12.96400 18.20200 41.70700
C  -12.59200 21.70000 40.24600
C  -15.10600 19.87200 41.23100
O  -15.36900 20.93600 40.65400
C  -16.17200 18.98300 41.79500
N  -11.88100 15.42800 42.59300
C  -13.13800 15.78900 42.50200
C  -14.13100 14.58500 42.72800
C  -13.08200 13.48000 43.21400
C  -11.75800 14.13600 42.92500
C  -15.29800 14.89300 43.76900
C  -13.22200 12.01000 42.67700
C  -12.70400 10.92000 43.66600
N  -8.97800 15.23500 42.48900
C  -9.24100 13.93500 42.84000
C  -7.98200 13.24700 43.14100
C  -6.95000 14.26800 42.85900
C  -7.63900 15.40400 42.43400
C  -7.68000 11.77200 43.53200
C  -5.52900 14.49500 42.89600
O  -4.71200 13.68000 43.26800
C  -5.34300 15.94000 42.23200
C  -4.41000 16.71400 43.10900
O  -3.43200 17.27800 42.78400
O  -4.93700 16.69400 44.34300
C  -4.20000 17.57100 45.35900
H  -9.91400 20.94500 40.27500
H  -14.70900 17.01800 42.05900
H  -10.45900 12.44200 43.49400
H  -5.76300 19.20400 42.11500
H  -7.15300 20.27100 39.77400
H  -6.91200 22.05700 40.79100
H  -6.53900 21.10800 42.30100
H  -8.21400 21.62400 41.94400
H  -4.39400 18.33700 40.65400
H  -5.03400 19.66200 39.83300
H  -6.62900 17.37700 38.87700
H  -5.00700 16.71700 39.06600
H  -13.20600 21.70600 39.34600
H  -11.64900 22.04900 39.82600
H  -12.85200 22.50500 40.93400
H  -16.27400 18.14200 41.10900
H  -17.07100 19.59700 41.73300
H  -15.79700 18.70200 42.77900
H  -14.53900 14.22700 41.78200
H  -13.28400 13.54900 44.28300
H  -15.93400 14.02400 43.93600
H  -15.94800 15.71500 43.47000
H  -14.86100 15.08000 44.74900
H  -12.65800 11.85800 41.75700
H  -14.20100 11.63400 42.38100
H  -12.17700 11.38100 44.50100
H  -12.04400 10.17400 43.22300
H  -13.39000 10.25200 44.18700
H  -6.87000 11.83200 44.25900
H  -7.45000 11.16800 42.65500
H  -8.61300 11.39100 43.94800
H  -4.74000 15.69400 41.35800
H  -4.01600 17.03700 46.29100
H  -4.78900 18.43800 45.65800
H  -3.22600 17.98100 45.09000

