158

Mg 47.03400 24.99800 28.47200
C  48.02700 27.35700 30.82100
C  46.56900 22.71600 31.07600
C  46.15000 22.61100 26.16100
C  48.37500 27.02200 25.96500
N  47.28200 25.10600 30.69900
C  47.48700 26.22900 31.39300
C  47.40900 25.98800 32.90800
C  47.18100 24.41800 32.94300
C  46.94700 24.00400 31.47900
C  48.25200 23.63900 33.71000
C  46.22400 26.75200 33.56900
C  45.56800 26.25800 34.84800
H  45.34100 27.17800 36.03600
N  46.32500 23.00000 28.61500
C  46.15600 22.21400 29.80700
C  45.68500 20.89900 29.48300
C  45.55600 20.83800 28.04200
C  45.97200 22.17600 27.56400
C  45.62800 19.67600 30.48100
C  45.18800 19.60000 27.14600
O  45.26200 19.74600 25.97100
C  44.78200 18.29500 27.72900
N  47.29500 24.84500 26.41000
C  46.74600 23.77800 25.68700
C  46.90200 24.07400 24.19700
C  47.29600 25.55000 24.15900
C  47.73700 25.82100 25.62300
C  47.75900 23.02400 23.53300
C  46.29300 26.65400 23.58400
C  46.77400 27.50900 22.38700
N  47.96300 26.76500 28.33100
C  48.54900 27.44900 27.27200
C  49.13000 28.66600 27.72100
C  48.93000 28.65300 29.07700
C  48.21000 27.53400 29.42400
C  49.77900 29.68500 26.94000
C  49.17500 29.38600 30.21700
O  49.75800 30.39300 30.37700
C  48.48800 28.62400 31.43600
C  49.48900 28.40200 32.52200
O  50.52000 27.77200 32.42800
O  49.18900 29.24800 33.59300
C  50.11800 29.21900 34.75900
H  46.46600 21.98900 31.88500
H  45.84500 21.97500 25.32700
H  48.60800 27.73900 25.17500
H  48.36100 26.17600 33.40600
H  46.26000 24.22100 33.49300
H  49.15100 24.25500 33.73300
H  48.49000 22.75600 33.11800
H  47.97900 23.31300 34.71400
H  45.40900 26.87500 32.85600
H  46.43500 27.81000 33.72800
H  46.16500 25.44900 35.26800
H  44.61300 25.77700 34.63300
H  44.67400 19.15200 30.55200
H  46.00500 20.03000 31.44000
H  46.34600 19.01900 29.99000
H  43.93000 18.38600 28.40300
H  45.62500 17.89000 28.28900
H  44.62900 17.54500 26.95300
H  45.92100 24.01100 23.72700
H  48.19100 25.78100 23.58200
H  48.57000 23.55700 23.03600
H  47.21800 22.42900 22.79800
H  48.16700 22.34100 24.27800
H  45.93200 27.35200 24.34000
H  45.47000 26.10900 23.12100
H  46.08400 27.34500 21.55900
H  47.76000 27.21300 22.02700
H  46.68700 28.53100 22.75500
H  50.50600 29.30400 26.22300
H  50.22900 30.46900 27.54800
H  49.03800 30.22700 26.35100
H  47.64400 29.15500 31.87700
H  49.78400 28.58100 35.57700
H  50.01000 30.18300 35.25400
H  51.14400 29.06800 34.42100
Mg 16.54300 52.12300 26.47500
C  18.07000 50.82400 29.36800
C  13.70800 52.75200 28.51400
C  14.85700 53.13400 23.78800
C  19.10900 50.86300 24.62600
N  15.81800 51.51800 28.63500
C  16.82200 51.37300 29.57500
C  16.22900 51.67700 31.00700
C  14.67200 51.78400 30.72100
C  14.73000 52.07800 29.18200
C  13.83700 50.56500 31.04100
C  17.00000 52.91400 31.69100
C  17.69100 52.52200 33.07800
H  16.90300 53.09200 34.30200
N  14.58400 52.94500 26.22300
C  13.54500 53.04300 27.12900
C  12.37200 53.63000 26.49500
C  12.69000 53.79000 25.11000
C  14.06100 53.30700 24.99600
C  11.16200 53.94000 27.22700
C  11.84300 54.35500 23.90100
O  12.25100 54.50000 22.75500
C  10.43500 54.73000 24.16200
N  16.83600 51.86100 24.43300
C  16.07900 52.43900 23.49600
C  16.86700 52.45000 22.19300
C  18.29200 52.00800 22.56500
C  18.02700 51.44600 23.94400
C  16.12400 51.78800 21.05400
C  19.33500 53.23700 22.57100
C  19.46200 53.96800 21.22700
N  18.21500 51.04000 26.83800
C  19.21800 50.60700 25.96200
C  20.26300 49.95200 26.69500
C  19.87500 50.10100 28.00700
C  18.62200 50.66900 28.06000
C  21.49400 49.33300 26.06000
C  20.38200 49.87900 29.31300
O  21.45900 49.42700 29.68100
C  19.21900 50.46800 30.36200
C  18.73900 49.36300 31.28500
O  17.97300 48.43300 30.94000
O  19.36400 49.52100 32.51000
C  19.04300 48.52600 33.52200
H  12.92900 53.21100 29.12500
H  14.37200 53.44400 22.86000
H  20.00600 50.65100 24.04100
H  16.33700 50.78400 31.62300
H  14.42300 52.68500 31.28100
H  13.00300 50.49300 30.34300
H  13.44200 50.58100 32.05700
H  14.38800 49.63300 30.90800
H  16.40600 53.81700 31.83000
H  17.90500 53.09500 31.11100
H  18.74300 52.80000 33.14700
H  17.69500 51.43200 33.06300
H  10.29100 53.43700 26.80600
H  11.08200 55.02400 27.15500
H  11.12200 53.70000 28.29000
H  10.33500 55.34500 25.05600
H  9.91000 53.77900 24.24300
H  9.92900 55.34200 23.41500
H  16.84600 53.52900 22.03900
H  18.71300 51.18300 21.99100
H  16.64200 50.94100 20.60500
H  15.97300 52.60800 20.35100
H  15.14000 51.50100 21.42300
H  20.35300 53.02900 22.89800
H  19.01600 54.00400 23.27700
H  19.45600 55.05600 21.28400
H  18.60400 53.67400 20.62100
H  20.31200 53.59800 20.65400
H  21.74900 48.35300 26.46200
H  22.37900 49.88200 26.38300
H  21.45800 49.31500 24.97100
H  19.60100 51.22900 31.04200
H  19.48800 48.85100 34.46300
H  19.39000 47.50200 33.38600
H  17.95700 48.56200 33.60400

