158

Mg 1.05400 8.17500 26.23100
C  1.92500 9.91700 29.18300
C  1.42200 5.20500 28.19800
C  0.63100 6.42100 23.46800
C  1.29100 11.11700 24.45000
N  1.57800 7.67000 28.37700
C  1.78800 8.56200 29.39600
C  1.75500 7.86300 30.77100
C  2.00200 6.37600 30.40200
C  1.61900 6.37600 28.93000
C  3.44000 5.96500 30.69000
C  0.34700 8.19500 31.47900
C  0.27500 8.03500 32.99200
H  1.48300 7.54800 33.80900
N  0.84000 6.13000 25.94100
C  0.99500 5.06900 26.79400
C  0.69000 3.84300 26.13300
C  0.25300 4.16400 24.83100
C  0.56300 5.61000 24.68100
C  0.67800 2.54000 26.73100
C  -0.26400 3.21300 23.64400
O  -0.42000 3.54400 22.47800
C  -0.66000 1.78500 23.98100
N  1.11600 8.69700 24.21100
C  0.81800 7.82000 23.26200
C  0.86700 8.54900 21.87000
C  0.63600 10.06500 22.29900
C  0.95800 9.95600 23.76600
C  2.21300 8.38400 21.08100
C  -0.85800 10.46600 22.14800
C  -1.28600 11.56700 21.14200
N  1.48600 10.17000 26.66100
C  1.45800 11.29700 25.80400
C  1.63400 12.51600 26.58800
C  1.85400 12.02000 27.91700
C  1.82900 10.57700 27.90200
C  1.36200 13.94400 26.14300
C  2.19500 12.36600 29.21700
O  2.48100 13.46600 29.56700
C  2.01400 11.09100 30.13600
C  3.09400 10.92800 31.09300
O  4.27100 10.96000 30.71900
O  2.66600 10.90100 32.35300
C  3.78400 11.18400 33.25000
H  1.62200 4.30200 28.77900
H  0.37000 5.89800 22.54600
H  1.16400 12.04800 23.89200
H  2.64000 8.24700 31.28000
H  1.34800 5.64600 30.87900
H  4.05600 6.63100 31.29500
H  3.86900 5.81600 29.70000
H  3.41600 4.95900 31.10800
H  -0.47300 7.79200 30.88500
H  0.19600 9.24600 31.23400
H  -0.59700 7.42400 33.22600
H  0.02700 8.96700 33.50000
H  1.25200 2.44900 27.65300
H  1.15700 1.80500 26.08500
H  -0.36400 2.22500 26.79800
H  -1.34200 1.72000 24.83000
H  0.25300 1.22900 24.19700
H  -1.14000 1.34300 23.10800
H  0.07300 8.18300 21.21800
H  1.29800 10.71200 21.72400
H  2.92600 8.03900 21.83000
H  2.60600 9.34700 20.75400
H  2.10500 7.60000 20.33100
H  -1.24200 10.50600 23.16700
H  -1.36300 9.59700 21.72600
H  -0.46900 11.95800 20.53600
H  -1.68200 12.38100 21.74800
H  -1.96600 11.03200 20.47900
H  1.31200 14.12300 25.06900
H  2.28400 14.42100 26.47500
H  0.54600 14.42600 26.68200
H  1.05100 11.37900 30.55700
H  4.57300 10.43400 33.19700
H  3.39300 11.12800 34.26600
H  4.13600 12.17900 32.98100
Mg -0.30700 42.40300 26.75300
C  2.01000 42.61400 29.43900
C  -2.82400 41.73600 29.14800
C  -2.35200 42.02500 24.29200
C  2.30900 42.84500 24.49200
N  -0.37200 42.34200 29.03500
C  0.68800 42.50500 29.90800
C  0.22200 42.77100 31.34600
C  -1.27100 42.27300 31.22200
C  -1.51600 41.99800 29.70100
C  -1.63400 40.99900 32.03100
C  0.49900 44.20800 31.84700
C  1.28500 44.34600 33.15300
H  1.39000 43.21300 34.06000
N  -2.33600 42.00700 26.73700
C  -3.18500 41.70000 27.80600
C  -4.54500 41.58200 27.30800
C  -4.47900 41.83700 25.91700
C  -3.03700 41.90500 25.56600
C  -5.80000 41.36700 28.18500
C  -5.53400 42.05600 24.81500
O  -5.33500 42.27400 23.59300
C  -6.97400 42.08900 25.25200
N  0.03600 42.14500 24.72800
C  -1.03200 42.06700 23.89200
C  -0.62600 42.30600 22.43200
C  0.81200 42.79800 22.51200
C  1.05900 42.64600 24.00500
C  -0.79000 40.99100 21.70900
C  1.21100 44.18400 21.83600
C  2.50000 44.17100 20.96000
N  1.75100 42.67600 26.88400
C  2.64300 42.84700 25.90300
C  3.97200 42.97800 26.45600
C  3.73500 43.00800 27.88700
C  2.45100 42.68500 28.05900
C  5.21200 43.13500 25.73300
C  4.37300 43.22900 29.15600
O  5.43900 43.65500 29.47100
C  3.31700 42.83600 30.25100
C  3.88600 41.66800 30.98900
O  3.97000 40.52500 30.49400
O  4.36600 42.03400 32.24300
C  5.09600 41.02300 32.98700
H  -3.63600 41.71700 29.87800
H  -2.95600 41.94100 23.38600
H  3.12800 43.02400 23.79200
H  0.61800 41.95800 31.95500
H  -2.01100 43.01900 31.51300
H  -2.71200 41.05500 32.17900
H  -1.14200 40.98100 33.00300
H  -1.29400 40.10700 31.50400
H  -0.51700 44.60100 31.87600
H  1.07300 44.71600 31.07200
H  0.85200 45.09900 33.81200
H  2.27400 44.65500 32.81500
H  -6.53100 40.70500 27.72000
H  -6.25300 42.29200 28.54000
H  -5.45800 40.81500 29.06100
H  -7.17100 42.23800 26.31400
H  -7.45600 41.15600 24.95800
H  -7.54300 42.93100 24.85800
H  -1.36000 43.00100 22.02500
H  1.40600 42.06500 21.96600
H  -0.28900 41.09500 20.74700
H  -1.86200 40.82200 21.61300
H  -0.38100 40.18700 22.32100
H  1.16800 44.92600 22.63400
H  0.37400 44.46900 21.19900
H  2.97500 43.19100 20.91600
H  3.19100 44.88000 21.41600
H  2.33600 44.54300 19.94900
H  5.33700 42.38100 24.95500
H  6.02900 43.14500 26.45400
H  5.24100 44.06400 25.16400
H  3.12000 43.61800 30.98500
H  5.74100 41.43900 33.76200
H  5.89000 40.62800 32.35300
H  4.43100 40.21000 33.27800

