158

Mg 48.38500 15.57600 27.11800
C  46.80100 15.65400 30.33500
C  50.93800 17.52200 28.59900
C  49.69700 15.77400 24.23300
C  45.57200 13.87000 25.97200
N  48.83100 16.36900 29.22300
C  48.10900 16.24500 30.37100
C  48.85200 16.83000 31.54800
C  49.98900 17.67000 30.91500
C  49.93200 17.16100 29.45800
C  49.81400 19.21600 30.89600
C  49.37200 15.71800 32.47300
C  49.22900 16.10600 34.07100
H  48.99400 17.52800 34.52500
N  50.14800 16.51200 26.47500
C  51.08000 17.20600 27.18400
C  52.16600 17.50500 26.24700
C  51.69500 17.16700 24.95100
C  50.49800 16.39200 25.16800
C  53.33100 18.38300 26.78100
C  52.17300 17.53700 23.62700
O  51.72200 17.13000 22.56700
C  53.31600 18.46700 23.56700
N  47.64400 15.19200 25.34200
C  48.46600 15.15100 24.26400
C  47.79000 14.68000 23.00800
C  46.50000 14.11600 23.60000
C  46.61500 14.34000 25.07600
C  47.52900 15.76100 21.91800
C  46.21900 12.59000 23.26800
C  44.95400 12.39500 22.45600
N  46.50500 14.98200 27.93100
C  45.54600 14.23600 27.34800
C  44.41000 13.99400 28.24900
C  44.93200 14.40000 29.46500
C  46.21000 15.07000 29.21000
C  43.14800 13.24900 27.92000
C  44.59500 14.53100 30.90900
O  43.55400 14.15100 31.49100
C  45.80800 15.36600 31.54000
C  45.26700 16.62300 32.25600
O  44.98800 17.70200 31.77600
O  44.90800 16.33900 33.50300
C  43.75800 17.11900 33.98900
H  51.60100 18.25700 29.06000
H  50.12100 15.64200 23.23500
H  44.80100 13.18200 25.61700
H  48.13100 17.44300 32.08800
H  50.98500 17.50100 31.32400
H  48.85100 19.51700 31.30900
H  49.82200 19.74100 29.94000
H  50.63600 19.63600 31.47400
H  50.43200 15.50400 32.33300
H  48.81600 14.84200 32.13900
H  50.16300 15.80600 34.54600
H  48.46900 15.49300 34.55500
H  53.21200 19.46500 26.72600
H  54.26200 18.14100 26.26800
H  53.43900 18.20600 27.85200
H  53.22600 19.42100 24.08600
H  53.43800 18.68800 22.50700
H  54.17200 17.95500 24.00800
H  48.33800 13.82700 22.60900
H  45.62200 14.74300 23.44400
H  48.00900 16.71200 22.15200
H  46.47000 15.94600 21.74100
H  47.89700 15.33900 20.98300
H  45.99100 12.07600 24.20200
H  47.08400 12.19600 22.73500
H  45.16400 11.85500 21.53300
H  44.68300 13.39200 22.11100
H  44.07800 12.11900 23.04500
H  43.45600 12.45200 27.24400
H  42.44400 13.95800 27.48400
H  42.79000 12.84600 28.86700
H  46.18400 14.64700 32.26700
H  43.29000 16.61500 34.83500
H  43.01200 17.20500 33.19900
H  44.13300 18.10300 34.27200
Mg -10.27900 40.22700 39.35600
C  -9.53100 36.90500 38.46500
C  -7.20300 41.12000 37.95500
C  -11.31000 43.35300 39.17500
C  -13.62500 39.18000 39.88200
N  -8.62400 39.08100 38.41400
C  -8.50700 37.76000 38.04700
C  -7.15500 37.32800 37.50700
C  -6.40400 38.67000 37.50500
C  -7.44200 39.72800 38.07000
C  -5.09200 38.66000 38.25600
C  -7.21400 36.58800 36.09200
C  -7.87200 37.45600 34.98200
H  -8.99400 36.85400 34.15400
N  -9.32800 42.00900 38.87400
C  -8.06400 42.15900 38.36800
C  -7.81100 43.62000 38.11200
C  -8.98900 44.26900 38.53300
C  -9.95100 43.26400 38.85100
C  -6.50300 44.16900 37.51500
C  -9.09900 45.78400 38.52600
O  -8.18400 46.53500 38.23600
C  -10.30500 46.48400 39.13200
N  -12.19500 41.11800 39.39100
C  -12.35400 42.44400 39.33900
C  -13.86400 42.83600 39.43400
C  -14.58600 41.54700 39.62800
C  -13.46500 40.52200 39.66400
C  -14.23200 43.95100 40.44000
C  -15.71500 41.11100 38.61800
C  -17.15800 40.94100 39.26000
N  -11.34000 38.39200 39.47300
C  -12.67300 38.14800 39.70400
C  -12.91900 36.73000 39.66700
C  -11.70100 36.13300 39.20800
C  -10.80200 37.27100 39.00900
C  -14.22600 36.03100 39.99100
C  -11.01300 34.95700 38.77100
O  -11.38000 33.78700 38.80300
C  -9.64300 35.44300 38.25000
C  -8.64300 34.64900 38.98900
O  -8.56000 34.69900 40.22300
O  -7.83200 33.84800 38.15400
C  -6.66700 33.27300 38.80800
H  -6.19500 41.36000 37.61100
H  -11.75900 44.34100 39.05000
H  -14.67400 38.95200 40.08000
H  -6.87100 36.58300 38.25000
H  -6.16600 39.06800 36.51800
H  -4.84800 37.73000 38.76800
H  -5.13600 39.38500 39.06900
H  -4.27400 39.02400 37.63400
H  -7.69300 35.61000 36.13100
H  -6.18200 36.42400 35.78100
H  -7.12900 37.85700 34.29300
H  -8.42300 38.29800 35.40200
H  -6.07900 44.95300 38.14200
H  -6.84700 44.59800 36.57400
H  -5.77800 43.38100 37.31300
H  -10.67100 45.84300 39.93400
H  -10.94600 46.57400 38.25500
H  -10.12300 47.46000 39.58200
H  -14.06700 43.17400 38.41800
H  -15.00500 41.42400 40.62700
H  -14.89400 43.73200 41.27800
H  -14.55300 44.77800 39.80600
H  -13.29800 44.13900 40.96900
H  -15.45400 40.20400 38.07300
H  -15.79200 41.86500 37.83400
H  -17.88300 41.29900 38.52900
H  -17.18800 41.38600 40.25500
H  -17.33500 39.86900 39.34500
H  -14.81400 35.88700 39.08500
H  -14.74700 36.56400 40.78600
H  -14.19400 35.02200 40.40100
H  -9.66300 35.12900 37.20700
H  -6.90200 33.02700 39.84300
H  -5.76900 33.89100 38.80300
H  -6.31000 32.35700 38.33700

