158

Mg 30.61700 58.21700 38.97900
C  27.93200 56.23100 37.97100
C  32.69600 55.43700 38.43100
C  33.32600 60.22600 39.23300
C  28.43100 61.05600 38.79800
N  30.26200 56.07700 38.33900
C  29.11600 55.50800 37.83600
C  29.36600 54.06300 37.32900
C  30.81600 53.74600 37.84900
C  31.33600 55.20900 38.11300
C  30.98100 52.78300 39.08300
C  29.18300 53.86400 35.74600
C  29.15600 55.22100 34.92900
H  27.98200 55.48700 33.98200
N  32.74100 57.84600 38.98200
C  33.34100 56.62400 38.75200
C  34.80200 56.82900 38.75500
C  34.97000 58.22900 38.98100
C  33.68600 58.83800 39.01300
C  35.78400 55.69500 38.45500
C  36.31400 58.95700 39.05600
O  37.36400 58.27600 39.00500
C  36.52700 60.40100 39.46100
N  30.84200 60.23900 39.05300
C  32.03400 60.87100 39.32000
C  31.93000 62.40100 39.39600
C  30.40300 62.56600 39.14100
C  29.85500 61.19100 38.97700
C  32.43300 63.11800 40.71200
C  30.13100 63.50000 37.86600
C  30.51200 64.98400 38.06200
N  28.57000 58.61400 38.67000
C  27.85000 59.75100 38.58900
C  26.41600 59.38900 38.29000
C  26.50000 57.98400 38.11000
C  27.80000 57.60900 38.29200
C  25.26200 60.30300 38.18400
C  25.69100 56.90700 37.63900
O  24.48400 56.99400 37.36900
C  26.57500 55.64100 37.50900
C  26.01700 54.65500 38.59700
O  26.29900 54.64600 39.82400
O  25.38300 53.59900 37.97600
C  25.25400 52.43200 38.81500
H  33.38100 54.59600 38.30400
H  34.09900 60.98100 39.39400
H  27.64200 61.81000 38.81600
H  28.63700 53.33500 37.68500
H  31.40700 53.30200 37.04700
H  29.99000 52.44900 39.38900
H  31.29900 53.47600 39.86200
H  31.80600 52.11000 38.85100
H  28.16000 53.51200 35.62000
H  29.98200 53.25700 35.32000
H  30.04500 55.30000 34.30300
H  29.16800 56.13000 35.53000
H  35.40700 55.27900 37.52100
H  35.80200 54.95900 39.25800
H  36.75300 56.09600 38.15800
H  35.89300 60.69500 40.29800
H  36.38300 61.02600 38.58000
H  37.58500 60.50300 39.70100
H  32.56900 62.86300 38.64400
H  29.84300 63.06100 39.93300
H  31.65600 63.72400 41.17700
H  33.28300 63.72200 40.39300
H  32.72300 62.25800 41.31500
H  29.04400 63.50600 37.78800
H  30.61700 63.16200 36.95100
H  31.11000 64.98900 38.97300
H  29.61900 65.60600 38.12800
H  31.17300 65.60800 37.45900
H  24.28900 59.81400 38.13900
H  25.45300 60.96000 37.33600
H  25.20800 61.00800 39.01300
H  26.66800 55.23500 36.50200
H  26.27400 52.19300 39.11700
H  24.77200 51.64200 38.23900
H  24.63500 52.53800 39.70600
Mg 6.69300 53.86600 40.22200
C  6.39000 50.45300 39.84800
C  9.94900 53.63100 38.84900
C  6.89700 57.24300 39.91400
C  3.25700 54.02200 40.70600
N  7.93800 52.25600 39.18300
C  7.64400 50.92000 39.34800
C  8.83000 50.00300 39.00800
C  10.03300 51.06300 39.01600
C  9.26100 52.41700 38.94700
C  10.99000 50.93300 40.21600
C  8.74900 49.20300 37.65400
C  8.10400 49.99000 36.42400
H  7.13800 49.47600 35.44500
N  8.26900 55.22400 39.49200
C  9.53200 54.96800 39.04300
C  10.26800 56.13500 38.94200
C  9.40800 57.26700 39.18600
C  8.12400 56.60700 39.60700
C  11.76300 56.17400 38.70900
C  9.70700 58.69900 39.21000
O  10.83500 59.04300 38.89100
C  8.69800 59.73400 39.77000
N  5.24200 55.42100 40.13700
C  5.62000 56.75200 40.20600
C  4.38700 57.64300 40.46000
C  3.22800 56.57200 40.64500
C  3.88400 55.21200 40.41400
C  4.57600 58.59200 41.73700
C  1.96900 56.81600 39.76600
C  1.61000 58.30800 39.30100
N  5.12400 52.55400 40.42200
C  3.80300 52.71800 40.71000
C  3.14700 51.42700 40.95500
C  4.13400 50.54600 40.64600
C  5.26200 51.21900 40.24700
C  1.65900 51.13100 41.21400
C  4.47700 49.10100 40.57300
O  3.72900 48.13500 40.89300
C  5.88000 49.01700 40.15600
C  5.80700 48.21800 38.98400
O  5.23300 48.62800 37.97400
O  6.53400 47.06000 39.06900
C  6.37400 46.09100 37.98600
H  11.01300 53.56100 38.61300
H  6.78200 58.31700 40.07400
H  2.18800 54.16700 40.87600
H  8.93900 49.27900 39.81500
H  10.65500 50.98900 38.12400
H  10.50100 50.34100 40.98900
H  11.24200 51.92000 40.60600
H  11.89400 50.33700 40.09500
H  8.31900 48.20200 37.70600
H  9.73600 49.17700 37.19100
H  8.85900 50.27800 35.69200
H  7.72500 50.91500 36.85700
H  12.02600 56.95900 38.00100
H  12.13200 55.25400 38.25500
H  12.28000 56.33400 39.65500
H  7.86600 59.88100 39.08000
H  9.26900 60.66100 39.81400
H  8.37000 59.51800 40.78700
H  4.20500 58.21000 39.54700
H  2.83000 56.63800 41.65800
H  3.59500 58.76900 42.17800
H  4.93400 59.56600 41.40400
H  5.22700 58.08200 42.44700
H  1.22900 56.54600 40.52000
H  1.97600 56.25700 38.83000
H  2.25700 58.56300 38.46100
H  1.74700 59.01800 40.11600
H  0.55400 58.27300 39.03300
H  1.58100 50.07300 41.46500
H  1.12300 51.29200 40.27900
H  1.21100 51.83300 41.91700
H  6.40300 48.34900 40.84000
H  7.19400 46.02900 37.27100
H  5.47900 46.34600 37.41800
H  6.27800 45.05100 38.29800

