158

Mg 46.16700 24.99500 28.77400
C  47.11200 27.44100 31.28800
C  45.18100 22.89000 31.19500
C  46.08900 22.64400 26.46200
C  47.38900 27.28000 26.39800
N  46.25500 25.16300 30.99300
C  46.51900 26.25400 31.80900
C  45.92800 26.02400 33.23200
C  45.71000 24.41400 33.22400
C  45.68700 24.11700 31.69100
C  46.66700 23.35500 33.88400
C  44.65800 26.83700 33.57500
C  44.87900 27.92400 34.69500
H  43.93500 27.89000 35.88600
N  45.68200 23.09300 28.80200
C  45.15600 22.40200 29.88000
C  44.75200 21.11100 29.43100
C  45.03000 20.97200 28.04800
C  45.68900 22.24900 27.76300
C  44.23800 20.07600 30.52800
C  44.69700 19.85700 27.06500
O  45.08100 19.86400 25.86500
C  43.96900 18.62400 27.49300
N  46.47200 25.02900 26.68400
C  46.49700 23.88800 26.00000
C  46.96700 24.10700 24.51600
C  46.89100 25.68700 24.43100
C  46.88000 26.06200 25.91500
C  48.29500 23.47400 24.13000
C  45.64600 26.25500 23.68200
C  44.27100 25.91800 24.29600
N  47.11700 26.97100 28.75900
C  47.47400 27.76700 27.68800
C  48.08000 29.05300 28.20500
C  47.92000 28.97400 29.61200
C  47.34800 27.67200 29.91500
C  48.68500 30.08300 27.31300
C  48.09800 29.60900 30.90100
O  48.43700 30.76800 31.06700
C  47.59000 28.66600 31.98900
C  48.65600 28.31700 32.89000
O  49.48500 27.39900 32.65600
O  48.59000 29.02100 34.07400
C  49.62400 28.76100 35.04900
H  44.76600 22.17400 31.90700
H  46.12200 22.00100 25.58000
H  47.74400 28.06000 25.72200
H  46.68800 26.30600 33.96000
H  44.75800 24.15500 33.68800
H  46.98600 22.61500 33.14900
H  46.11600 22.80600 34.64700
H  47.55700 23.73800 34.38500
H  43.75900 26.28900 33.85500
H  44.39100 27.35900 32.65600
H  44.66700 28.85700 34.17200
H  45.90700 27.97800 35.05300
H  43.16500 20.08100 30.72300
H  44.80800 20.23900 31.44200
H  44.54300 19.09700 30.16000
H  43.30700 18.86900 28.32300
H  44.65700 17.81500 27.73900
H  43.37200 18.31000 26.63700
H  46.16600 23.69500 23.90300
H  47.79900 26.06400 23.96000
H  48.38000 22.58800 24.75800
H  49.08800 24.21100 24.25600
H  48.17600 23.11600 23.10700
H  45.69800 25.92500 22.64400
H  45.65900 27.33400 23.53100
H  43.63400 25.39300 23.58400
H  43.67600 26.80500 24.51500
H  44.26000 25.28600 25.18500
H  48.84700 29.70300 26.30400
H  49.59800 30.53700 27.69800
H  48.05100 30.96700 27.24400
H  46.74800 29.07500 32.54700
H  50.63400 28.58400 34.68100
H  49.37400 27.85500 35.60000
H  49.68500 29.62700 35.70900
Mg 8.78100 47.85800 25.22000
C  6.99400 48.02100 28.14500
C  11.27300 49.65400 26.84900
C  10.44600 48.01900 22.20700
C  5.90100 46.80300 23.42800
N  9.01100 48.80300 27.17700
C  8.26400 48.63400 28.28500
C  8.83800 49.27000 29.59800
C  9.90200 50.18600 28.95800
C  10.07000 49.55200 27.54200
C  9.44300 51.67200 28.88700
C  9.35700 48.35500 30.64400
C  9.11100 48.87900 32.06900
H  8.65600 47.77700 33.16700
N  10.71400 48.54100 24.74000
C  11.55200 49.20400 25.56800
C  12.76700 49.37000 24.82100
C  12.50100 49.08100 23.47100
C  11.15300 48.49900 23.42600
C  14.13500 49.89300 25.32500
C  13.43300 49.13600 22.25800
O  13.09900 48.79600 21.12800
C  14.88000 49.56600 22.46600
N  8.28800 47.36400 23.13600
C  9.09400 47.52300 22.12400
C  8.43000 47.00200 20.82100
C  7.08000 46.43100 21.23600
C  7.07800 46.81300 22.72700
C  8.44200 48.02700 19.60000
C  6.73500 44.92900 21.03400
C  5.36200 44.63900 20.54200
N  6.87200 47.36600 25.63400
C  5.81100 47.03800 24.81800
C  4.60800 47.13300 25.59900
C  5.05900 47.29900 26.91200
C  6.42400 47.48700 26.91100
C  3.21900 46.96700 25.19400
C  4.65800 47.45500 28.27500
O  3.46700 47.38800 28.65500
C  5.91300 47.74400 29.11500
C  6.15900 46.57500 29.95500
O  7.20300 45.99000 30.01800
O  4.98700 46.34600 30.66200
C  5.01800 45.11900 31.51600
H  11.94300 50.43600 27.21200
H  11.02800 48.04900 21.28300
H  4.94500 46.42800 23.05600
H  8.08800 49.84200 30.14300
H  10.87700 50.15000 29.44400
H  8.36300 51.81100 28.94100
H  9.72300 52.20600 27.97900
H  9.88100 52.24600 29.70300
H  10.43000 48.19000 30.55000
H  8.85500 47.38800 30.61800
H  8.50100 49.78000 32.13700
H  10.11400 49.20300 32.34700
H  15.00900 49.27400 25.12300
H  14.13200 50.04900 26.40400
H  14.32900 50.86700 24.87400
H  15.03500 50.51000 22.98700
H  15.31200 49.69800 21.47400
H  15.41800 48.80900 23.03600
H  8.80100 46.07500 20.38400
H  6.34000 47.10100 20.79800
H  9.14300 48.84500 19.77000
H  7.43100 48.43200 19.56100
H  8.78500 47.48500 18.71800
H  6.91200 44.24500 21.86400
H  7.36500 44.58300 20.21500
H  4.82000 44.02800 21.26400
H  5.36100 44.10500 19.59100
H  4.79800 45.56400 20.42200
H  2.74800 47.80400 24.67900
H  2.77900 46.83100 26.18200
H  3.00800 46.04800 24.64700
H  5.67200 48.59100 29.75800
H  5.77000 44.33800 31.39800
H  4.03400 44.67700 31.35900
H  5.10200 45.49400 32.53600

