158

Mg 35.52300 1.29300 29.64700
C  33.31500 1.95800 32.29700
C  38.14700 1.12400 31.86200
C  37.68300 0.52400 27.06700
C  32.88600 1.34000 27.42800
N  35.64600 1.60500 31.78700
C  34.64500 1.86100 32.69200
C  35.17400 1.86800 34.04700
C  36.68400 1.94400 33.88000
C  36.89400 1.43200 32.41500
C  37.41700 3.31200 34.06700
C  34.74700 0.55100 34.81000
C  34.19400 0.71100 36.28200
H  34.80900 1.77400 37.16600
N  37.58900 0.92700 29.46800
C  38.44000 0.77500 30.58900
C  39.78800 0.38900 30.11100
C  39.77700 0.35900 28.70400
C  38.30000 0.53900 28.35600
C  41.00300 0.07000 31.03600
C  40.85100 0.00800 27.60700
O  40.73300 0.32000 26.45200
C  42.14700 -0.47900 28.03900
N  35.31600 0.94100 27.52100
C  36.39500 0.66500 26.66200
C  35.94300 0.65100 25.21100
C  34.41500 0.76300 25.36300
C  34.16300 1.07100 26.83100
C  36.70100 1.54100 24.16200
C  33.53500 -0.47000 24.82800
C  32.20100 -0.14500 24.05800
N  33.59000 1.74000 29.78600
C  32.66200 1.82300 28.73000
C  31.36800 2.15100 29.27800
C  31.53200 2.06900 30.66300
C  32.90900 1.87300 30.95400
C  30.20100 2.49900 28.45400
C  30.87200 2.16900 31.95100
O  29.68500 2.33600 32.08200
C  31.94200 2.12700 33.00400
C  31.81300 3.37800 33.80500
O  32.20100 4.48700 33.40300
O  31.27500 3.10800 35.03500
C  31.18500 4.29800 35.89600
H  38.97100 1.11900 32.57800
H  38.35000 0.38000 26.21500
H  32.04200 1.30000 26.73700
H  34.77800 2.72700 34.58800
H  37.19000 1.22700 34.52600
H  37.61100 3.68300 33.06000
H  38.30200 3.01700 34.63100
H  36.83100 3.97200 34.70700
H  35.51300 -0.21500 34.92600
H  33.91200 0.27300 34.16700
H  34.32900 -0.23800 36.80000
H  33.16600 1.07000 36.23300
H  40.73800 -0.13900 32.07200
H  41.80900 0.79700 30.94400
H  41.39100 -0.85400 30.60700
H  42.43000 0.17400 28.86500
H  42.85700 -0.35100 27.22200
H  42.09600 -1.51300 28.38000
H  36.16200 -0.32800 24.78500
H  34.03800 1.63200 24.82500
H  35.88300 1.92900 23.55500
H  37.48800 1.03300 23.60400
H  37.18000 2.32200 24.75100
H  33.30700 -1.08800 25.69700
H  34.20100 -0.94200 24.10500
H  32.49000 -0.03800 23.01300
H  31.91300 0.89600 24.19800
H  31.38400 -0.86400 24.11700
H  29.87800 3.46100 28.85300
H  29.52700 1.65100 28.57200
H  30.50800 2.60700 27.41400
H  31.57200 1.34100 33.66200
H  32.16200 4.76200 36.03300
H  30.90900 4.10700 36.93300
H  30.46900 4.93300 35.37400
Mg -9.66500 18.14900 42.74100
C  -6.25200 17.28000 42.69400
C  -8.81100 21.33900 41.85200
C  -12.92800 18.78600 42.52200
C  -10.26700 14.66600 43.05400
N  -7.62900 19.15400 42.25700
C  -6.39000 18.63100 42.48600
C  -5.38700 19.70600 42.29000
C  -6.25700 20.99900 42.10000
C  -7.69000 20.51700 42.09900
C  -6.01200 22.22700 42.99700
C  -4.24200 19.44700 41.24400
C  -4.69100 18.69000 39.95100
H  -4.10000 19.16400 38.60400
N  -10.73000 19.89800 42.27400
C  -10.20000 21.09500 41.96000
C  -11.27000 22.04900 41.74700
C  -12.50300 21.33600 41.91500
C  -12.08200 19.93600 42.25600
C  -11.05700 23.40000 41.21100
C  -13.89600 21.84100 41.68100
O  -14.11800 23.06000 41.56100
C  -15.02600 20.94000 41.55600
N  -11.33000 16.89000 42.37900
C  -12.55900 17.40200 42.61000
C  -13.64600 16.31000 42.95200
C  -12.72200 15.02000 42.92500
C  -11.33900 15.52000 42.74800
C  -14.32500 16.54100 44.33200
C  -12.99000 14.03400 41.72500
C  -13.80100 12.72900 42.12500
N  -8.51200 16.23900 42.96600
C  -8.90700 14.98600 43.03000
C  -7.83300 14.08300 43.19800
C  -6.72600 14.95400 43.13300
C  -7.18800 16.25400 42.85500
C  -7.90100 12.55500 43.29300
C  -5.29600 15.00200 43.14200
O  -4.44600 14.13900 43.17800
C  -4.90900 16.47000 42.88200
C  -4.07900 16.95600 43.95000
O  -2.91700 17.19800 43.88300
O  -4.85500 17.26900 45.05800
C  -4.20500 18.04600 46.11000
H  -8.48200 22.33600 41.55200
H  -14.00200 18.81200 42.71800
H  -10.58900 13.65400 43.30500
H  -4.95500 19.79400 43.28700
H  -6.06200 21.29300 41.06900
H  -6.94000 22.67200 43.35700
H  -5.74500 23.01700 42.29600
H  -5.31000 22.08400 43.81800
H  -3.42200 18.88600 41.69400
H  -3.73800 20.38500 41.01200
H  -5.76400 18.87400 39.91800
H  -4.51400 17.61700 40.02400
H  -10.99300 24.09200 42.05000
H  -11.87700 23.75400 40.58600
H  -10.19300 23.53900 40.56100
H  -14.86400 20.09100 40.89200
H  -15.89600 21.42700 41.11700
H  -15.27900 20.70700 42.59100
H  -14.48400 16.35000 42.25600
H  -12.84500 14.45700 43.85100
H  -14.04700 15.81300 45.09300
H  -15.41200 16.54800 44.25600
H  -14.21600 17.53100 44.77600
H  -12.10400 13.78700 41.13900
H  -13.70800 14.60100 41.13200
H  -14.73500 12.79100 41.56700
H  -14.12100 12.72700 43.16700
H  -13.15900 11.85800 41.99500
H  -7.37900 12.14200 42.43000
H  -8.94000 12.22900 43.34900
H  -7.49400 12.23200 44.25100
H  -4.39200 16.53100 41.92400
H  -3.19400 18.32400 45.81100
H  -4.09400 17.51300 47.05400
H  -4.68700 19.00900 46.28200

