158

Mg 1.83200 -2.24400 44.46600
C  5.19500 -1.42800 43.68800
C  0.87100 0.43900 42.53400
C  -1.42200 -3.27300 44.68000
C  2.99300 -5.29000 45.72600
N  2.91500 -0.80000 43.09300
C  4.28600 -0.62100 43.07700
C  4.60500 0.73500 42.40600
C  3.21700 1.31100 42.00600
C  2.30000 0.33500 42.63100
C  3.06600 2.79500 42.59200
C  5.52300 0.42500 41.22200
C  6.77800 1.32600 41.06800
H  6.77700 2.18000 39.72700
N  -0.07000 -1.51200 43.78600
C  -0.20000 -0.42500 42.92700
C  -1.53600 -0.15400 42.70500
C  -2.27300 -1.19200 43.44100
C  -1.21700 -2.08400 43.96100
C  -2.08300 0.99100 41.90500
C  -3.83700 -1.28000 43.56900
O  -4.67300 -0.54100 43.02900
C  -4.34800 -2.15500 44.65900
N  0.89400 -4.09700 45.02700
C  -0.47400 -4.17100 45.15400
C  -0.76900 -5.50500 45.94900
C  0.63000 -6.17700 46.06900
C  1.57900 -5.14400 45.54800
C  -1.51700 -5.34700 47.30200
C  0.78300 -7.50200 45.20500
C  1.42000 -8.71900 45.89600
N  3.67500 -3.19400 44.68600
C  4.01500 -4.40500 45.29800
C  5.47000 -4.52900 45.38500
C  5.96200 -3.35000 44.81100
C  4.84200 -2.66800 44.30500
C  6.22700 -5.68000 45.99300
C  7.16600 -2.62100 44.50800
O  8.35100 -2.84100 44.64600
C  6.70000 -1.33400 43.91000
C  6.98600 -0.11600 44.82000
O  6.33100 0.21600 45.81200
O  8.04400 0.63900 44.29900
C  8.33500 1.90300 45.03100
H  0.52100 1.34500 42.03400
H  -2.43400 -3.63900 44.86500
H  3.47700 -6.10000 46.27500
H  5.06200 1.35000 43.18100
H  2.98900 1.49500 40.95600
H  3.58800 2.86300 43.54600
H  2.04400 2.96800 42.92900
H  3.31200 3.47400 41.77500
H  4.85100 0.36400 40.36600
H  5.84000 -0.61700 41.26100
H  7.72300 0.78400 41.08900
H  6.75500 2.17800 41.74700
H  -3.16300 1.13100 41.94700
H  -1.77700 1.02000 40.85900
H  -1.62100 1.91500 42.25200
H  -5.32600 -1.88400 45.05800
H  -3.71100 -2.18600 45.54200
H  -4.21800 -3.15500 44.24400
H  -1.50100 -6.08400 45.38600
H  0.96000 -6.38000 47.08800
H  -1.18500 -4.39900 47.72400
H  -1.16600 -6.13900 47.96300
H  -2.59100 -5.34800 47.11600
H  1.43400 -7.23800 44.37200
H  -0.16100 -7.81900 44.76200
H  1.24600 -9.59100 45.26500
H  1.02100 -8.76200 46.91000
H  2.47900 -8.57200 46.10500
H  7.23100 -5.30700 46.19500
H  6.36400 -6.47100 45.25500
H  5.85600 -6.03500 46.95400
H  7.27100 -1.27600 42.98300
H  8.91800 1.71400 45.93300
H  7.36700 2.34600 45.26500
H  8.85400 2.66600 44.45100
Mg 36.15400 3.11400 29.84600
C  33.45600 3.83500 32.04000
C  38.18500 3.11600 32.56000
C  38.47000 2.88600 27.59000
C  33.71800 3.20400 27.18500
N  35.87100 3.40100 32.05300
C  34.65600 3.61800 32.73200
C  34.85000 3.69200 34.23400
C  36.41800 3.64300 34.34300
C  36.87100 3.38500 32.91400
C  37.11300 4.91100 34.90200
C  34.09700 2.51300 34.93300
C  33.71700 2.89500 36.41500
H  34.38000 3.98700 37.36000
N  38.09200 2.91000 30.06500
C  38.79800 2.93300 31.28000
C  40.15800 2.62100 30.96000
C  40.28100 2.54100 29.50900
C  38.90900 2.82500 28.97300
C  41.24100 2.36100 31.95600
C  41.50300 2.24100 28.54300
O  41.39400 2.08200 27.33900
C  42.93000 2.12600 29.15800
N  36.14300 2.88600 27.68800
C  37.24400 2.75100 26.98200
C  36.89400 2.62200 25.41200
C  35.35200 2.32000 25.43100
C  35.03000 2.75500 26.90200
C  37.20100 3.93800 24.64900
C  35.04500 0.82200 25.06300
C  34.04200 0.51600 23.92400
N  34.05300 3.60500 29.58500
C  33.23400 3.58900 28.47400
C  31.83100 3.92300 28.87900
C  31.90800 4.10000 30.30900
C  33.23800 3.83700 30.62800
C  30.65900 4.24900 27.95900
C  31.14500 4.41400 31.48000
O  29.95600 4.69000 31.59300
C  32.12000 4.13400 32.63100
C  32.01200 5.40400 33.38200
O  32.30500 6.50500 32.90600
O  31.45600 5.18000 34.62600
C  31.29900 6.36800 35.41600
H  38.81700 2.93900 33.43300
H  39.22800 2.85300 26.80500
H  33.03900 3.18400 26.33000
H  34.49600 4.68300 34.51900
H  36.78800 2.78000 34.89700
H  37.78700 5.28400 34.13200
H  37.78900 4.49300 35.64800
H  36.42800 5.69800 35.21900
H  34.59900 1.54600 34.89800
H  33.18200 2.33100 34.37000
H  33.75400 1.95100 36.95800
H  32.69800 3.28200 36.45000
H  42.04200 3.09200 31.84400
H  41.74300 1.43100 31.68900
H  40.79900 2.23600 32.94500
H  43.01500 2.80500 30.00700
H  43.61000 2.48200 28.38500
H  43.22700 1.10200 29.38200
H  37.48500 1.77200 25.07200
H  34.88000 2.95100 24.67800
H  36.29100 4.47000 24.37000
H  37.81500 3.73000 23.77300
H  37.79900 4.60000 25.27600
H  34.68000 0.51700 26.04400
H  35.87400 0.15000 24.84000
H  33.55600 1.37300 23.45900
H  33.23300 -0.15500 24.21500
H  34.63700 0.01400 23.16100
H  29.67500 4.23700 28.42700
H  30.55300 3.57700 27.10800
H  30.73700 5.29600 27.66500
H  31.60900 3.36400 33.21000
H  30.90200 7.21900 34.86200
H  32.14100 6.49000 36.09800
H  30.50400 6.13400 36.12400

