158

Mg 43.50200 4.58100 47.18600
C  41.61800 7.70600 47.19200
C  40.68300 3.01000 46.59100
C  45.46100 1.98800 46.66200
C  46.35300 6.68000 47.06300
N  41.40000 5.27300 46.91200
C  40.87900 6.53400 47.03200
C  39.32500 6.44400 46.99500
C  39.05000 4.91000 47.02800
C  40.46400 4.36900 46.82200
C  38.45500 4.25900 48.32900
C  38.64500 7.15700 45.80700
C  39.42700 7.21900 44.45000
H  38.72400 6.81600 43.19200
N  43.13800 2.78300 46.72200
C  41.85400 2.24000 46.52000
C  41.94400 0.80800 46.30700
C  43.32400 0.44800 46.32800
C  44.06000 1.73800 46.62200
C  40.73900 -0.11400 46.03400
C  43.93700 -0.90800 46.06800
O  43.15000 -1.81200 45.92000
C  45.34400 -1.19900 46.07200
N  45.66800 4.36900 46.89500
C  46.23400 3.19300 46.71300
C  47.80500 3.29800 46.54600
C  48.00500 4.82000 46.61900
C  46.60900 5.32800 46.94300
C  48.50500 2.43900 47.64400
C  48.55600 5.45900 45.27800
C  50.00100 5.16800 44.76000
N  44.01300 6.76800 47.22900
C  45.16500 7.42300 47.06200
C  44.98300 8.87900 47.05800
C  43.57100 9.03200 47.16700
C  43.03300 7.68800 47.31500
C  46.13300 9.91000 47.15800
C  42.48800 9.98900 47.40500
O  42.52200 11.21500 47.58200
C  41.21200 9.16400 47.29100
C  40.19700 9.39300 48.37100
O  40.15800 8.99600 49.51600
O  39.19800 10.16400 47.78300
C  38.00800 10.57400 48.46100
H  39.82800 2.33700 46.50300
H  46.12300 1.12200 46.59700
H  47.32000 7.18100 46.99600
H  38.96000 6.87200 47.92900
H  38.35500 4.59200 46.25100
H  38.25500 5.08400 49.01300
H  39.04200 3.42700 48.71700
H  37.58900 3.73000 47.93100
H  38.55400 8.16500 46.21200
H  37.70900 6.66000 45.55400
H  40.34700 6.64700 44.56800
H  39.62000 8.28300 44.32000
H  40.48700 -0.20800 44.97800
H  39.87200 0.39300 46.45600
H  40.71700 -1.09700 46.50500
H  45.65600 -0.97300 47.09200
H  45.88300 -0.58100 45.35400
H  45.48800 -2.26500 45.89500
H  48.05700 2.91600 45.55700
H  48.59400 5.10800 47.49000
H  49.56800 2.52900 47.42000
H  48.24800 1.39200 47.48200
H  48.28500 2.76600 48.66000
H  48.39400 6.53000 45.15300
H  47.74100 5.13200 44.63300
H  49.88500 4.54800 43.87100
H  50.69800 4.72600 45.47200
H  50.47300 6.12600 44.54200
H  46.51300 9.89400 48.17900
H  45.79600 10.92900 46.96900
H  46.96000 9.66800 46.49000
H  40.74800 9.31800 46.31600
H  37.15600 9.99600 48.10400
H  37.86500 11.64900 48.35000
H  37.99300 10.27600 49.50900
Mg 36.45100 49.51000 25.16700
C  36.47800 47.68100 28.29200
C  35.22600 52.12500 26.75700
C  36.25700 51.08400 21.98000
C  37.40200 46.53400 23.49700
N  35.82000 49.74500 27.30100
C  36.00100 49.01400 28.43500
C  35.59900 49.75100 29.70400
C  35.14500 51.11800 29.05400
C  35.44200 50.99300 27.58800
C  33.69100 51.36800 29.43100
C  36.63400 49.89300 30.77200
C  36.25700 49.50200 32.23100
H  34.80500 49.74800 32.63300
N  35.80400 51.34400 24.42000
C  35.39200 52.34100 25.33500
C  34.99900 53.53800 24.58800
C  35.23600 53.23100 23.21300
C  35.84800 51.84300 23.13400
C  34.55600 54.76500 25.35500
C  35.05200 54.11700 22.01700
O  35.29400 53.81100 20.84200
C  34.63200 55.48700 22.36000
N  36.77500 48.88500 23.03900
C  36.57500 49.70200 21.93200
C  36.87400 48.95500 20.60500
C  37.35600 47.60000 21.11100
C  37.21000 47.66600 22.71200
C  35.74500 48.97500 19.57800
C  38.84500 47.28900 20.67400
C  39.04600 45.87600 20.03300
N  36.82300 47.50300 25.70300
C  37.22800 46.45100 24.94500
C  37.55200 45.34700 25.83400
C  37.18700 45.75600 27.09900
C  36.78200 47.13000 26.98600
C  37.95400 43.94900 25.40600
C  37.08400 45.37300 28.45300
O  37.38300 44.30300 29.00300
C  36.62800 46.66200 29.30100
C  35.39000 46.30500 30.04500
O  34.29400 46.11200 29.51900
O  35.63300 46.29600 31.38100
C  34.60200 45.83600 32.36700
H  34.82500 52.97900 27.30900
H  36.31600 51.65200 21.04900
H  37.89500 45.70500 22.98500
H  34.76500 49.16100 30.08300
H  35.74400 51.92500 29.47700
H  33.22000 50.54400 29.96600
H  33.04300 51.63500 28.59700
H  33.73000 52.25000 30.07000
H  37.15500 50.84500 30.67700
H  37.38100 49.13200 30.54500
H  36.85000 50.16700 32.85800
H  36.47000 48.45000 32.41900
H  35.36400 55.46900 25.15400
H  34.60600 54.67400 26.44000
H  33.61400 55.18200 24.99900
H  33.59000 55.37100 22.65900
H  34.62200 56.03200 21.41600
H  35.31300 56.03000 23.01600
H  37.69000 49.48600 20.11500
H  36.73800 46.83800 20.63600
H  35.80300 49.81700 18.88700
H  34.79400 48.75000 20.06000
H  35.78100 48.02500 19.04500
H  39.48000 47.24700 21.55900
H  39.26000 48.06700 20.03300
H  38.12500 45.32900 19.83100
H  39.65800 45.22400 20.65700
H  39.48000 46.11100 19.06100
H  37.11900 43.46600 24.89800
H  37.90200 43.32900 26.30100
H  38.85500 43.87500 24.79700
H  37.35700 46.86200 30.08700
H  33.59600 46.15000 32.09100
H  34.85700 46.32100 33.31000
H  34.67200 44.75400 32.47800

