158

Mg 8.57400 3.50100 27.62500
C  9.99700 1.98300 30.43500
C  6.36800 5.23400 29.75800
C  6.72600 4.46200 24.95300
C  10.25900 1.14900 25.59300
N  8.20100 3.52400 29.76800
C  9.01200 2.96500 30.75700
C  8.73000 3.48100 32.19000
C  7.42000 4.33200 31.91400
C  7.28200 4.38100 30.38900
C  6.18100 3.94100 32.88300
C  9.86800 4.31400 32.87500
C  9.57300 5.23700 34.06500
H  10.17900 4.67700 35.34200
N  6.90700 4.90900 27.35300
C  6.19000 5.47800 28.34700
C  5.28200 6.46900 27.74800
C  5.35500 6.23100 26.25700
C  6.29500 5.07100 26.15200
C  4.35100 7.38300 28.60500
C  4.57900 6.87800 25.18700
O  4.74400 6.61600 24.01500
C  3.63800 7.98700 25.45100
N  8.57400 3.04200 25.66300
C  7.84700 3.62400 24.64000
C  8.18200 3.15800 23.23500
C  9.40100 2.21500 23.50200
C  9.41600 2.09300 25.00300
C  6.98700 2.32900 22.55700
C  10.84500 2.68500 23.01500
C  11.45400 1.92600 21.85300
N  9.84900 1.84500 27.90800
C  10.50200 0.95000 26.99800
C  11.38600 0.06300 27.74500
C  11.14300 0.47300 29.06700
C  10.23100 1.53200 29.11800
C  12.19100 -1.08100 27.24000
C  11.55700 0.18100 30.36300
O  12.27000 -0.75700 30.75900
C  10.88100 1.16900 31.30900
C  10.15400 0.44000 32.36600
O  9.21300 -0.32500 32.20000
O  10.60500 0.89300 33.56200
C  10.03300 0.37300 34.83500
H  5.67100 5.90900 30.25800
H  6.26000 4.83200 24.03700
H  10.68300 0.39800 24.92300
H  8.45100 2.64800 32.83500
H  7.67800 5.37200 32.11400
H  6.39800 3.27600 33.71900
H  5.59300 3.27500 32.25000
H  5.71800 4.81900 33.33300
H  10.29800 4.94000 32.09300
H  10.61500 3.58700 33.19400
H  8.49800 5.28700 34.23900
H  9.92500 6.25700 33.91000
H  4.67100 8.42200 28.68100
H  4.22300 7.13600 29.65900
H  3.31200 7.37200 28.27400
H  3.19200 8.39800 24.54500
H  4.11200 8.81200 25.98200
H  2.85700 7.72900 26.16600
H  8.53400 4.02400 22.67600
H  9.18300 1.24800 23.05000
H  6.04000 2.46600 23.08100
H  7.08600 1.27700 22.28700
H  6.83700 2.82400 21.59700
H  11.56600 2.67000 23.83200
H  10.78700 3.72600 22.69900
H  10.69600 1.39600 21.27600
H  12.14400 1.14500 22.17300
H  11.92900 2.69100 21.23700
H  12.34000 -0.93700 26.17000
H  11.82000 -2.10200 27.32700
H  13.17800 -1.06500 27.70300
H  11.46700 1.93800 31.81200
H  9.13500 -0.23100 34.70500
H  9.66100 1.18200 35.46300
H  10.77500 -0.20600 35.38500
Mg 24.50200 -4.99800 46.10700
C  26.41900 -2.74900 44.23600
C  21.96100 -4.37000 43.99200
C  23.05500 -7.75100 47.38600
C  27.48900 -5.74200 47.97000
N  24.27200 -3.79900 44.23800
C  25.12400 -2.85400 43.73100
C  24.59900 -2.11900 42.56200
C  23.04400 -2.41600 42.67800
C  23.02200 -3.57400 43.73700
C  22.09900 -1.24400 43.05400
C  25.34200 -2.59000 41.22000
C  25.98800 -1.50700 40.29600
H  25.81200 -1.56600 38.71400
N  22.68000 -5.93600 45.74900
C  21.74300 -5.40900 44.93000
C  20.51500 -6.13900 45.06200
C  20.83500 -7.24900 45.99200
C  22.28300 -7.01100 46.45400
C  19.25500 -5.81900 44.26500
C  19.93400 -8.38700 46.41500
O  18.86800 -8.48400 45.76500
C  20.24000 -9.50100 47.30900
N  25.17900 -6.58100 47.39100
C  24.37500 -7.52800 47.88100
C  25.04000 -8.25700 49.05800
C  26.34100 -7.53000 49.21800
C  26.37200 -6.57400 48.08300
C  24.28800 -8.57200 50.33400
C  27.59200 -8.43100 49.28100
C  27.50300 -9.64700 50.22200
N  26.49400 -4.43700 46.20000
C  27.56100 -4.71500 46.97700
C  28.72300 -3.86900 46.78800
C  28.27800 -3.09900 45.70400
C  26.94700 -3.47300 45.39600
C  29.98300 -3.82100 47.63600
C  28.67500 -2.00700 44.75900
O  29.73800 -1.46700 44.48500
C  27.56900 -1.77700 43.80100
C  27.07100 -0.36700 44.03100
O  26.24600 -0.03900 44.84000
O  27.50900 0.36200 43.01700
C  26.76200 1.67200 42.81400
H  21.13100 -4.11100 43.33200
H  22.59700 -8.58000 47.93000
H  28.41600 -5.89200 48.52700
H  24.77400 -1.09300 42.88500
H  22.73300 -2.76600 41.69400
H  22.61000 -0.28400 43.13000
H  21.79700 -1.45300 44.08100
H  21.35700 -1.19400 42.25800
H  24.58100 -3.08300 40.61500
H  26.18000 -3.22400 41.50900
H  27.07300 -1.57900 40.37000
H  25.78200 -0.53800 40.75100
H  18.47400 -6.57800 44.30500
H  19.40800 -6.02300 43.20600
H  18.91500 -4.78500 44.32100
H  21.13900 -10.03500 47.00100
H  19.43800 -10.23900 47.30800
H  20.37000 -9.08500 48.30800
H  25.35700 -9.20600 48.62600
H  26.39100 -6.88900 50.09800
H  24.66700 -8.27300 51.31100
H  24.13100 -9.62700 50.55400
H  23.31000 -8.11400 50.18800
H  28.42900 -7.81900 49.61700
H  27.79600 -8.76300 48.26300
H  28.05500 -9.52500 51.15400
H  27.89100 -10.46000 49.60800
H  26.50000 -9.94700 50.52500
H  30.64000 -4.65400 47.38300
H  29.66500 -3.97300 48.66700
H  30.42300 -2.84700 47.42600
H  27.90300 -1.88200 42.76900
H  25.70900 1.48200 43.02000
H  26.92300 1.99200 41.78500
H  26.93500 2.47900 43.52600

