158

Mg 34.76000 2.71000 30.19000
C  32.79300 3.54400 32.94600
C  37.44800 2.52200 32.33000
C  36.67300 2.20300 27.49400
C  31.94800 2.81800 28.17000
N  35.10100 3.20300 32.33800
C  34.11900 3.38700 33.33300
C  34.65100 3.34100 34.73900
C  36.16400 2.97400 34.52100
C  36.26000 2.84100 32.97000
C  37.19900 4.01800 35.00300
C  33.88500 2.20000 35.53900
C  33.59200 2.44200 37.00200
H  34.48200 3.48000 37.75100
N  36.79600 2.41600 29.94800
C  37.74500 2.31500 30.91200
C  39.10300 2.05500 30.30900
C  38.86000 2.03000 28.89100
C  37.40700 2.18200 28.70700
C  40.26100 1.97200 31.20600
C  39.84800 1.88800 27.74300
O  39.51000 1.78700 26.58300
C  41.33400 1.85100 28.01700
N  34.41600 2.58900 28.10900
C  35.36000 2.34300 27.19000
C  34.83800 2.34900 25.73000
C  33.33400 2.13100 26.08400
C  33.21400 2.55900 27.53900
C  35.22000 3.66900 24.99300
C  32.91500 0.67900 25.88800
C  32.12800 0.23200 24.62700
N  32.68300 3.04800 30.43300
C  31.67700 3.05500 29.54100
C  30.46200 3.51800 30.20400
C  30.86800 3.70600 31.52900
C  32.23500 3.40800 31.62200
C  29.13900 3.71400 29.60400
C  30.34300 4.16400 32.77400
O  29.20000 4.47800 33.09900
C  31.62800 4.11600 33.78600
C  31.90800 5.39100 34.43600
O  32.78300 6.22700 34.17400
O  31.02500 5.46600 35.50000
C  31.39000 6.53600 36.46700
H  38.22700 2.33800 33.07200
H  37.14300 2.27200 26.51100
H  31.08400 2.93600 27.51200
H  34.55600 4.29200 35.26200
H  36.51600 1.99900 34.85800
H  36.82800 4.90500 35.51600
H  37.82800 4.52000 34.26800
H  37.86900 3.58700 35.74600
H  34.48900 1.29300 35.56800
H  32.88900 2.00000 35.14500
H  33.76400 1.51700 37.55300
H  32.54000 2.70300 37.11500
H  41.01900 1.40900 30.66000
H  39.97500 1.54400 32.16700
H  40.88200 2.82500 31.47900
H  41.66900 0.94400 28.52000
H  41.66200 2.73000 28.57200
H  41.97600 1.97000 27.14400
H  35.22900 1.50600 25.16100
H  32.87400 2.80200 25.35900
H  36.26900 3.91100 25.16400
H  34.54300 4.45700 25.32300
H  35.10500 3.64600 23.90900
H  32.36600 0.23900 26.72000
H  33.80500 0.05900 25.77800
H  31.23700 -0.32000 24.92700
H  32.67300 -0.38700 23.91500
H  31.84200 1.12500 24.07200
H  28.83200 4.75900 29.64400
H  28.38700 3.15500 30.16100
H  29.09300 3.45600 28.54600
H  31.21900 3.37300 34.47100
H  30.92900 6.33000 37.43300
H  31.00500 7.47800 36.07800
H  32.47200 6.57400 36.59700
Mg 17.24000 50.92400 25.90400
C  18.95000 49.78300 28.64000
C  14.95500 52.48600 28.02100
C  15.74300 52.11000 23.18100
C  19.71600 49.53400 23.80900
N  17.13400 51.30600 28.11600
C  17.87500 50.60200 29.04000
C  17.37400 50.82300 30.44700
C  16.04300 51.62000 30.23200
C  16.03800 51.83900 28.72400
C  14.83500 50.89600 30.80500
C  18.47300 51.50400 31.35500
C  18.20400 51.58600 32.87600
H  17.21600 50.64000 33.56900
N  15.51100 52.08500 25.58600
C  14.71300 52.59900 26.57600
C  13.66900 53.30700 25.93700
C  14.05300 53.47800 24.51200
C  15.09800 52.48100 24.37500
C  12.67700 54.06600 26.69700
C  13.58500 54.49000 23.44200
O  14.06000 54.55300 22.30800
C  12.58700 55.53400 23.93800
N  17.64000 50.90000 23.86000
C  16.92300 51.38700 22.86800
C  17.16100 50.85800 21.45900
C  18.59600 50.39700 21.69900
C  18.69500 50.30900 23.17500
C  16.15500 49.70000 21.19600
C  19.67100 51.36200 21.09900
C  20.56100 50.90000 19.94600
N  18.97300 49.94000 26.11300
C  19.81200 49.34600 25.19000
C  20.85200 48.62100 25.85700
C  20.50100 48.65800 27.21700
C  19.35400 49.51200 27.32700
C  22.03200 47.98500 25.30100
C  20.95000 48.31200 28.59200
O  22.00600 47.69400 28.93800
C  19.91500 48.99400 29.55400
C  19.35900 47.96000 30.41500
O  18.51000 47.16900 30.00300
O  19.99100 47.97600 31.65700
C  19.57600 46.94600 32.60300
H  14.20600 52.89100 28.70500
H  15.21300 52.47600 22.30000
H  20.41400 48.98300 23.17500
H  17.12600 49.91000 30.98800
H  16.03900 52.62500 30.65300
H  14.03500 50.74200 30.08100
H  14.48400 51.52800 31.62100
H  15.05400 49.93300 31.26600
H  18.44500 52.55100 31.05500
H  19.46100 51.10400 31.12600
H  17.89000 52.62600 32.96300
H  19.16900 51.41700 33.35300
H  12.99100 55.08800 26.91000
H  12.49600 53.53300 27.63100
H  11.72300 54.05200 26.16900
H  13.01200 56.17000 24.71400
H  11.59400 55.19500 24.23100
H  12.57700 56.27900 23.14200
H  17.15200 51.62200 20.68200
H  18.88100 49.42500 21.29800
H  15.87300 49.93200 20.17000
H  15.25500 49.60100 21.80300
H  16.54800 48.68400 21.16000
H  20.37100 51.42600 21.93100
H  19.36600 52.39600 20.93600
H  20.21600 49.90400 19.66900
H  21.59500 50.80700 20.27800
H  20.49300 51.54100 19.06700
H  22.31800 48.55600 24.41800
H  21.70900 47.03600 24.87200
H  22.82200 47.76000 26.01800
H  20.56900 49.69400 30.07200
H  20.15400 47.06600 33.51900
H  19.69300 45.94300 32.19400
H  18.56600 47.12200 32.97400

