158

Mg 44.61800 4.94200 47.70900
C  42.40200 7.69800 47.33900
C  41.88500 2.99300 46.83900
C  46.70500 2.48300 47.23100
C  47.19900 7.23100 47.90100
N  42.35900 5.34200 47.03400
C  41.68900 6.51000 47.18400
C  40.18700 6.33000 47.09400
C  39.99200 4.75200 46.99000
C  41.51800 4.32300 47.04700
C  39.12600 4.11300 48.09900
C  39.49400 7.10100 45.93000
C  40.31200 7.21600 44.62200
H  39.71500 6.82200 43.25700
N  44.31300 2.94400 47.23700
C  43.13600 2.30100 46.97600
C  43.41000 0.93200 46.69200
C  44.83100 0.77500 46.72400
C  45.39000 2.08900 47.09400
C  42.45100 -0.10000 46.20800
C  45.52000 -0.57400 46.43200
O  44.84200 -1.60300 46.26500
C  47.06900 -0.77600 46.32300
N  46.66200 4.92300 47.53200
C  47.33600 3.71000 47.48600
C  48.81400 3.99500 47.55600
C  48.97700 5.50400 47.96700
C  47.50700 5.91400 47.95400
C  49.52800 3.09200 48.56400
C  49.94400 6.20900 47.05100
C  50.84000 7.12900 47.85900
N  44.80700 7.04300 47.67400
C  45.96800 7.83000 47.72900
C  45.60000 9.24300 47.75600
C  44.19400 9.22500 47.57400
C  43.75700 7.91000 47.49100
C  46.57400 10.42100 47.95000
C  43.04500 10.03800 47.47400
O  42.93100 11.23200 47.63900
C  41.80000 9.07300 47.33200
C  40.83900 9.33700 48.44700
O  40.81700 8.69500 49.52000
O  40.10900 10.40600 48.10400
C  39.23600 10.98600 49.10500
H  41.00600 2.43600 46.50900
H  47.45700 1.72400 47.00600
H  47.94100 8.02600 48.00100
H  39.64500 6.78600 47.92300
H  39.56400 4.44100 46.03700
H  38.39700 4.83900 48.45900
H  39.71200 3.72000 48.93000
H  38.51200 3.36800 47.59300
H  39.30600 8.12800 46.24500
H  38.59100 6.52200 45.73900
H  41.14000 6.51900 44.75000
H  40.53600 8.27300 44.47800
H  41.46100 0.34700 46.12000
H  42.31700 -0.86200 46.97600
H  42.79500 -0.66400 45.34100
H  47.73300 -0.36500 47.08300
H  47.38500 -0.33500 45.37800
H  47.28100 -1.84300 46.39600
H  49.14600 3.62500 46.58600
H  49.28200 5.63900 49.00400
H  50.28900 3.67700 49.08000
H  50.16500 2.42400 47.98400
H  48.92800 2.61800 49.34100
H  49.36700 6.76500 46.31200
H  50.51000 5.42600 46.54600
H  50.96400 6.86300 48.90900
H  50.44200 8.14400 47.85100
H  51.75600 7.17300 47.27000
H  47.49600 10.10700 48.44000
H  46.07600 11.20600 48.51900
H  46.78400 10.79800 46.94900
H  41.41100 9.32400 46.34500
H  39.87500 11.72800 49.58300
H  38.84700 10.38600 49.92800
H  38.39300 11.49300 48.63600
Mg 26.16400 50.62100 27.03600
C  24.15900 51.74000 29.56200
C  28.35500 49.40500 29.42200
C  28.05400 49.30500 24.68100
C  24.08000 51.98900 24.64100
N  26.24000 50.66500 29.19100
C  25.32300 51.11800 30.04600
C  25.72700 50.99400 31.49600
C  27.19500 50.52900 31.37600
C  27.23800 50.22400 29.87300
C  28.17500 51.52800 31.93100
C  24.85600 50.02600 32.24200
C  24.45700 50.34200 33.63500
H  25.48900 50.83200 34.65300
N  27.91600 49.38100 27.06400
C  28.61600 49.02100 28.12400
C  29.78900 48.21300 27.68500
C  29.85700 48.24800 26.26700
C  28.58100 48.98600 25.94100
C  30.84500 47.63900 28.70500
C  30.89800 47.71700 25.29200
O  30.72200 47.85500 24.10400
C  32.07900 47.06000 25.76500
N  26.14200 50.77600 25.05100
C  26.96900 50.01700 24.31200
C  26.66500 50.10500 22.76500
C  25.20100 50.59400 22.79900
C  25.09200 51.14500 24.25900
C  27.68200 51.13200 22.00100
C  24.20900 49.58300 22.41700
C  22.91800 50.10300 21.66800
N  24.55100 51.86300 27.03600
C  23.74600 52.26500 26.01600
C  22.51400 52.76700 26.58500
C  22.63800 52.67100 27.96800
C  23.90100 52.06000 28.19200
C  21.36600 53.29800 25.81000
C  22.02200 52.87900 29.22800
O  20.90600 53.40400 29.53900
C  22.95000 52.24600 30.32600
C  23.37700 53.25900 31.29800
O  24.23900 54.08600 31.10100
O  22.62800 53.09600 32.46100
C  22.85400 54.13700 33.44800
H  29.07000 49.06000 30.17100
H  28.61700 48.90500 23.83500
H  23.38800 52.37600 23.89000
H  25.71300 51.95500 32.01000
H  27.39800 49.65000 31.98700
H  28.53700 51.28100 32.92900
H  27.87300 52.57500 31.90000
H  29.06900 51.53500 31.30700
H  25.38200 49.09100 32.43500
H  23.94600 49.86200 31.66500
H  24.11300 49.36500 33.97400
H  23.69000 51.10700 33.51800
H  30.69400 47.86300 29.76100
H  31.78700 48.01800 28.31100
H  30.90500 46.55400 28.61500
H  32.60900 46.49900 24.99500
H  31.88600 46.23400 26.45000
H  32.80300 47.77000 26.16500
H  26.76400 49.12800 22.29100
H  25.16200 51.48100 22.16600
H  28.24500 51.58200 22.81900
H  27.30300 51.98700 21.44200
H  28.20300 50.53100 21.25700
H  23.83200 49.22100 23.37400
H  24.61900 48.77100 21.81600
H  22.06800 49.90800 22.32200
H  22.78000 49.61900 20.70100
H  22.93300 51.19000 21.58000
H  20.38300 53.22200 26.27500
H  21.30700 52.95300 24.77800
H  21.53100 54.37200 25.73100
H  22.42300 51.45100 30.85400
H  21.92200 54.27700 33.99500
H  23.18000 55.11600 33.09800
H  23.59200 53.84200 34.19300

