158

Mg -2.29200 17.03700 27.33700
C  -2.79900 15.21400 30.32200
C  -2.71100 20.03000 29.22800
C  -2.32700 18.99700 24.54600
C  -2.28800 14.18800 25.51200
N  -2.87900 17.53500 29.49300
C  -2.88300 16.63000 30.55700
C  -2.97900 17.41900 31.98600
C  -2.91900 18.94700 31.54000
C  -2.92400 18.85600 29.99500
C  -4.07700 19.85000 32.15500
C  -1.91300 17.02500 32.93400
C  -1.50100 18.02300 33.99500
H  -1.00000 17.44800 35.28800
N  -2.36600 19.29600 26.90100
C  -2.53700 20.25800 27.85600
C  -2.41900 21.57900 27.26200
C  -2.30400 21.33100 25.85400
C  -2.38100 19.81200 25.67800
C  -2.51100 22.88700 28.06200
C  -2.09300 22.23400 24.70300
O  -2.09700 21.85200 23.50000
C  -1.93100 23.68000 24.97500
N  -2.65600 16.72000 25.26600
C  -2.40400 17.60800 24.30600
C  -2.37200 16.92700 22.93100
C  -2.12800 15.46800 23.32100
C  -2.32800 15.45500 24.81400
C  -3.59800 17.22800 22.09000
C  -0.78700 14.82100 22.85100
C  0.45900 15.59700 23.29500
N  -2.44600 15.05400 27.77800
C  -2.42100 13.96800 26.94300
C  -2.64000 12.72200 27.63700
C  -2.75400 13.14200 28.97600
C  -2.67800 14.54400 29.02300
C  -2.83700 11.30300 27.11500
C  -2.95200 12.71900 30.33400
O  -3.08900 11.60100 30.80700
C  -2.81300 14.04400 31.31900
C  -1.69500 13.95600 32.21600
O  -0.59600 14.23100 31.83000
O  -1.90700 13.48900 33.47400
C  -0.68900 13.29800 34.28800
H  -2.80100 20.92200 29.85100
H  -2.07500 19.44600 23.58300
H  -2.18100 13.24800 24.96700
H  -3.97300 17.21200 32.38500
H  -1.95500 19.41300 31.74400
H  -3.56900 20.76600 32.45600
H  -4.66300 19.50300 33.00600
H  -4.74000 20.00900 31.30500
H  -0.98600 16.91200 32.37200
H  -2.17800 16.06200 33.36900
H  -2.27100 18.77800 34.15900
H  -0.67100 18.61900 33.61500
H  -3.18500 23.61400 27.60700
H  -1.50400 23.30300 28.03300
H  -2.75400 22.70600 29.10900
H  -1.03600 23.88600 25.56300
H  -2.80900 23.94300 25.56500
H  -1.99300 24.25100 24.04900
H  -1.53100 17.30700 22.35100
H  -2.87200 14.81800 22.86000
H  -4.40200 16.64000 22.53200
H  -3.38100 17.22700 21.02200
H  -4.06100 18.18800 22.31700
H  -0.75800 14.82100 21.76200
H  -0.72000 13.79500 23.21300
H  0.37500 16.48700 23.91900
H  1.05100 15.92000 22.43900
H  1.13900 14.93900 23.83600
H  -2.01400 10.67400 27.45400
H  -2.77900 11.35000 26.02700
H  -3.78800 10.86300 27.41300
H  -3.68600 14.13100 31.96600
H  -0.36500 12.30700 33.97100
H  -1.06000 13.38400 35.30900
H  0.16100 13.95900 34.11800
Mg 27.35900 49.88600 26.05800
C  25.34700 50.60600 28.84300
C  29.70800 48.57900 28.38000
C  29.38000 49.16900 23.49300
C  25.11800 51.48000 24.01000
N  27.48400 49.71700 28.43600
C  26.48300 50.02900 29.27500
C  26.83300 49.63700 30.69000
C  28.29400 49.20800 30.56000
C  28.58400 49.11600 29.03600
C  29.37400 50.03700 31.27000
C  25.89200 48.50500 31.25600
C  25.35900 48.56300 32.68300
H  26.16400 49.25500 33.81600
N  29.25500 49.02400 25.95700
C  30.04200 48.59900 27.00600
C  31.33200 48.23700 26.54300
C  31.34300 48.50500 25.12900
C  29.98000 48.94500 24.77900
C  32.48100 47.74800 27.40200
C  32.41200 48.29400 24.16400
O  32.30900 48.30600 22.93900
C  33.72400 47.93400 24.64900
N  27.23100 50.30800 24.07600
C  28.10400 49.75100 23.22500
C  27.74300 50.10500 21.75900
C  26.18900 50.52600 21.84800
C  26.14600 50.82800 23.39300
C  28.54400 51.22900 21.10800
C  25.19300 49.31400 21.45000
C  24.41000 49.44800 20.14500
N  25.61600 50.93700 26.33700
C  24.85400 51.61200 25.41800
C  23.72100 52.24600 26.15200
C  23.86000 51.79100 27.47900
C  25.03800 51.04500 27.57200
C  22.59200 52.93300 25.60200
C  23.19700 51.66400 28.71400
O  22.09200 52.12200 29.04600
C  24.16900 51.02700 29.67400
C  24.61400 52.15900 30.54600
O  25.29700 53.04500 30.18800
O  24.01200 51.93000 31.77100
C  24.31400 52.94100 32.75500
H  30.45100 48.19800 29.08400
H  30.08100 49.06500 22.66200
H  24.32000 51.87500 23.37700
H  26.82600 50.58400 31.22900
H  28.42600 48.21000 30.97700
H  29.91600 50.60000 30.51000
H  29.95800 49.30200 31.82500
H  28.86000 50.73900 31.92600
H  26.35500 47.51900 31.22600
H  25.04000 48.36900 30.59100
H  25.24700 47.54700 33.06100
H  24.38300 49.04800 32.66100
H  33.26100 48.50900 27.43300
H  32.84400 46.80400 26.99500
H  32.36800 47.53600 28.46500
H  33.62800 46.93500 25.07200
H  33.87300 48.75500 25.35100
H  34.41700 47.96000 23.80800
H  27.69000 49.18400 21.17900
H  25.99600 51.36300 21.17800
H  29.01300 50.87600 20.19000
H  29.36200 51.48100 21.78300
H  27.92200 52.07200 20.80600
H  24.49800 49.15700 22.27400
H  25.78000 48.39700 21.39300
H  24.67700 48.54600 19.59400
H  24.75800 50.30600 19.57000
H  23.33500 49.37600 20.31100
H  22.68000 53.28900 24.57500
H  22.29800 53.81700 26.16900
H  21.76000 52.22900 25.57100
H  23.74900 50.21100 30.26100
H  23.66000 52.79300 33.61500
H  24.05000 53.95400 32.45400
H  25.37200 52.87000 33.00700

