158

Mg 23.71700 -6.22600 47.35600
C  26.30800 -4.41800 46.00700
C  21.54500 -5.08300 44.90200
C  21.37700 -8.74600 48.12600
C  26.02700 -7.83000 49.34800
N  24.06500 -5.01800 45.50000
C  25.15400 -4.36500 45.18800
C  24.89700 -3.27700 44.15200
C  23.35800 -3.61700 43.68300
C  22.92100 -4.63600 44.79400
C  22.48000 -2.31300 43.49900
C  25.88800 -3.44100 43.01200
C  26.83800 -2.18800 42.75500
H  26.78100 -1.62500 41.28500
N  21.65400 -6.72400 46.72700
C  20.95900 -6.04700 45.73200
C  19.63500 -6.64200 45.62400
C  19.57500 -7.79000 46.49000
C  20.87900 -7.78900 47.18300
C  18.59700 -6.25000 44.56300
C  18.44100 -8.81000 46.41400
O  17.51400 -8.63600 45.56300
C  18.38700 -10.08100 47.34900
N  23.74100 -8.10100 48.54000
C  22.63000 -8.85900 48.78800
C  22.99000 -10.02300 49.59900
C  24.43600 -9.66000 50.17200
C  24.80300 -8.50700 49.25700
C  21.93400 -10.36300 50.70000
C  25.45100 -10.87000 50.03100
C  26.72700 -10.91000 50.90400
N  25.78300 -6.09900 47.69600
C  26.48400 -6.69100 48.64800
C  27.78700 -6.01600 48.72700
C  27.72000 -5.06400 47.68600
C  26.51400 -5.22600 47.08100
C  28.89100 -6.31800 49.75100
C  28.49400 -4.02900 47.13500
O  29.64100 -3.63100 47.36300
C  27.52800 -3.50100 45.92400
C  27.29500 -2.08400 46.24100
O  26.40200 -1.64300 46.97300
O  28.12700 -1.22100 45.55600
C  28.02800 0.17600 45.76600
H  20.86800 -4.59600 44.19600
H  20.63900 -9.49500 48.42200
H  26.65100 -8.17000 50.17700
H  24.97700 -2.29000 44.60700
H  23.40500 -4.15300 42.73500
H  23.08700 -1.43400 43.71700
H  21.77400 -2.33600 44.32800
H  22.13600 -2.25500 42.46600
H  25.28200 -3.39700 42.10700
H  26.46800 -4.36200 43.06400
H  27.91300 -2.35800 42.81700
H  26.56400 -1.33300 43.37200
H  18.95500 -5.34000 44.08100
H  17.58900 -6.27300 44.97600
H  18.65200 -7.01900 43.79200
H  17.44000 -10.57400 47.13000
H  18.46300 -9.67400 48.35800
H  19.15200 -10.82900 47.14000
H  23.09500 -10.79900 48.84100
H  24.73700 -9.32000 51.16300
H  21.07600 -9.69200 50.67300
H  22.45500 -10.25800 51.65200
H  21.50700 -11.36500 50.65400
H  25.71300 -11.08100 48.99400
H  24.86900 -11.73900 50.33900
H  26.72400 -11.79600 51.53900
H  27.04400 -9.99800 51.41000
H  27.45600 -10.98300 50.09700
H  29.01800 -7.36200 49.46300
H  28.52500 -6.22800 50.77400
H  29.83000 -5.77000 49.68000
H  28.02200 -3.66900 44.96700
H  27.98300 0.33700 46.84300
H  27.11900 0.64300 45.38800
H  28.88100 0.65200 45.28200
Mg 27.19400 49.88900 26.62200
C  25.07900 51.07200 29.22300
C  29.44800 48.99400 28.98400
C  29.09600 49.34300 24.12800
C  24.69800 51.24100 24.33400
N  27.22000 50.14400 28.90100
C  26.17400 50.43600 29.71700
C  26.50900 49.96200 31.20600
C  28.04400 49.48000 31.14900
C  28.19100 49.43000 29.57300
C  29.00700 50.45700 31.76400
C  25.53000 48.91000 31.71200
C  24.59100 49.26600 32.92000
H  24.61300 48.44400 34.29500
N  29.03700 49.43100 26.59100
C  29.87600 49.08600 27.62300
C  31.21800 48.84600 27.12700
C  31.18000 48.95500 25.68500
C  29.73900 49.20900 25.40100
C  32.38400 48.40000 28.06400
C  32.25200 48.92500 24.54100
O  31.91800 49.21600 23.36600
C  33.75900 48.56300 24.81900
N  26.91800 50.07400 24.48600
C  27.84900 49.73100 23.67500
C  27.42600 49.85900 22.16000
C  25.88000 50.18100 22.35000
C  25.81700 50.48600 23.82800
C  28.24300 50.92900 21.37900
C  24.95400 49.06400 21.93400
C  23.60300 49.62400 21.40000
N  25.39100 50.97700 26.68700
C  24.51700 51.47200 25.69000
C  23.41200 52.12800 26.26800
C  23.63400 52.05900 27.63000
C  24.80300 51.29600 27.84800
C  22.28100 52.74700 25.53000
C  23.05900 52.36600 28.91500
O  22.00800 52.98600 29.23300
C  23.93700 51.74700 30.01800
C  24.43600 52.73700 31.06600
O  25.30000 53.60400 30.98700
O  23.61300 52.59900 32.18500
C  23.90100 53.50900 33.26900
H  30.17600 48.64900 29.72100
H  29.70100 49.09000 23.25500
H  23.96100 51.69300 23.66700
H  26.47400 50.76800 31.93900
H  28.27000 48.46300 31.47100
H  28.42400 51.15500 32.36500
H  29.49000 51.04600 30.98500
H  29.81000 49.98500 32.32900
H  25.96200 47.91800 31.84600
H  24.82700 48.67500 30.91300
H  23.60600 49.51000 32.52300
H  24.90900 50.24700 33.27200
H  32.34800 47.31500 28.17000
H  32.20200 48.91100 29.01000
H  33.35800 48.66600 27.65400
H  34.21800 49.53400 25.00300
H  34.09000 47.95100 23.98000
H  33.87500 47.92100 25.69200
H  27.48200 48.86900 21.70600
H  25.69800 51.07800 21.75800
H  28.99000 51.29200 22.08400
H  27.69100 51.79000 21.00400
H  28.77100 50.45900 20.54800
H  24.62500 48.43600 22.76200
H  25.40800 48.39700 21.20100
H  22.82500 48.86900 21.50900
H  23.55000 49.91200 20.35000
H  23.32300 50.57200 21.86000
H  22.59700 53.72000 25.15300
H  21.36000 52.78400 26.11100
H  22.04300 52.12700 24.66500
H  23.30400 50.96900 30.44300
H  23.03700 53.63500 33.92200
H  24.25800 54.50500 33.00600
H  24.60800 53.07700 33.97600

