158

Mg 24.21500 -4.90200 45.87500
C  26.45200 -2.86100 44.39900
C  21.65200 -3.48300 44.07200
C  22.23800 -7.48700 46.76900
C  26.93300 -6.48200 47.69700
N  24.08700 -3.42100 44.24800
C  25.17000 -2.58400 43.90100
C  24.66000 -1.50100 42.87500
C  23.07400 -1.52600 43.07500
C  22.87200 -2.83400 43.88300
C  22.51800 -0.31900 44.02600
C  25.13800 -1.95100 41.43000
C  25.66100 -0.90000 40.44500
H  25.12000 -0.85000 39.00500
N  22.19000 -5.26600 45.63100
C  21.32300 -4.62500 44.71900
C  20.00000 -5.30400 44.66900
C  20.15900 -6.49800 45.51200
C  21.57000 -6.47600 46.00900
C  18.81600 -4.79900 43.87100
C  18.96200 -7.55700 45.73100
O  17.85300 -7.30000 45.31600
C  19.11400 -8.70500 46.69100
N  24.69600 -6.94800 46.92700
C  23.56700 -7.58700 47.33000
C  24.14300 -8.87500 48.07600
C  25.45800 -8.41400 48.62800
C  25.74800 -7.22600 47.69000
C  23.19000 -9.43600 49.07700
C  26.59200 -9.52400 48.57700
C  27.11800 -9.95200 49.95300
N  26.28200 -4.85000 46.00400
C  27.30500 -5.38900 46.79700
C  28.56400 -4.70300 46.58300
C  28.20800 -3.70300 45.68700
C  26.87100 -3.87700 45.32400
C  29.86600 -5.01800 47.22000
C  28.76200 -2.56000 44.97700
O  29.90300 -2.10900 44.96700
C  27.68900 -2.04700 44.03800
C  27.58800 -0.60800 44.42800
O  27.01300 -0.15200 45.41700
O  28.37600 0.20200 43.58500
C  28.34300 1.64800 43.90800
H  20.89200 -3.10900 43.38300
H  21.56500 -8.31700 46.99400
H  27.73500 -6.83300 48.35000
H  25.02400 -0.51500 43.16400
H  22.57300 -1.57900 42.10900
H  23.19400 0.49000 44.30400
H  22.03800 -0.75900 44.90000
H  21.69500 0.20600 43.54100
H  24.36300 -2.54500 40.94600
H  25.99200 -2.61700 41.55700
H  26.74500 -1.02000 40.42900
H  25.42800 0.01100 40.99500
H  18.26500 -5.63300 43.43800
H  19.06000 -3.97800 43.19600
H  18.20800 -4.34900 44.65600
H  18.19500 -9.28700 46.76300
H  19.49900 -8.39500 47.66300
H  19.83500 -9.37400 46.22100
H  24.26800 -9.69600 47.37000
H  25.24200 -8.12700 49.65700
H  23.61200 -9.50600 50.08000
H  22.96700 -10.44200 48.72100
H  22.21500 -8.95400 49.01200
H  27.44900 -9.19600 47.98900
H  26.17200 -10.45700 48.20100
H  28.08100 -9.52300 50.22700
H  27.05700 -11.02800 50.11500
H  26.45400 -9.49200 50.68500
H  29.64500 -4.94600 48.28500
H  30.58200 -4.26800 46.88300
H  30.14500 -6.05100 47.01600
H  28.04700 -2.13000 43.01200
H  27.37000 2.10700 43.73500
H  29.21500 2.00700 43.36200
H  28.62700 1.67300 44.96000
Mg 28.54600 58.35300 42.81700
C  26.34300 56.34400 41.14500
C  31.13000 57.08100 41.00600
C  30.62400 61.07300 43.64100
C  26.03900 60.19200 44.15700
N  28.67200 56.81900 41.31300
C  27.67800 56.10000 40.72900
C  28.13200 54.95900 39.89100
C  29.74500 55.18900 39.95100
C  29.90100 56.41500 40.86300
C  30.64100 53.95000 40.28200
C  27.54200 55.22300 38.48400
C  26.77200 53.97800 37.86900
H  27.22800 53.58700 36.52000
N  30.66900 58.78900 42.64200
C  31.50800 58.09800 41.81400
C  32.81300 58.66000 41.90400
C  32.71000 59.89400 42.60600
C  31.31100 59.96900 43.05300
C  34.04300 58.24400 41.07200
C  33.92500 60.89200 42.82800
O  35.04100 60.62400 42.46900
C  33.78700 62.11800 43.61500
N  28.46100 60.42300 43.72000
C  29.37100 61.33700 44.00200
C  28.88400 62.60700 44.62200
C  27.42000 62.23100 44.95200
C  27.24100 60.85200 44.27100
C  29.61700 63.05400 45.96000
C  26.29700 63.23500 44.55300
C  25.40400 63.63400 45.73800
N  26.58300 58.27100 42.77600
C  25.64600 59.10900 43.34400
C  24.31800 58.57200 43.03700
C  24.53600 57.49800 42.20100
C  25.98100 57.39500 42.03900
C  23.02000 59.12000 43.57500
C  23.90800 56.44200 41.44300
O  22.73500 56.08400 41.45000
C  25.04200 55.62500 40.76700
C  24.93100 54.22600 41.31300
O  25.34200 53.80600 42.37300
O  24.28400 53.49800 40.36100
C  24.05600 52.08500 40.77600
H  31.89900 56.64000 40.36800
H  31.15800 61.95100 44.01000
H  25.25700 60.67800 44.74300
H  27.94400 54.02600 40.42300
H  30.11800 55.51400 38.98000
H  30.15500 52.97500 40.29700
H  31.10800 54.21900 41.22900
H  31.40400 53.75100 39.53000
H  28.35500 55.42900 37.78900
H  26.78200 56.00500 38.44600
H  25.70600 54.19800 37.80200
H  27.02200 53.19300 38.58300
H  33.99300 58.81500 40.14400
H  33.93300 57.21900 40.71800
H  34.99200 58.36600 41.59300
H  33.04500 62.88100 43.38300
H  34.76500 62.59600 43.55700
H  33.73500 61.93200 44.68700
H  28.67400 63.29200 43.80100
H  27.20500 61.98500 45.99200
H  29.40700 64.11400 46.10700
H  30.67200 62.93600 45.71100
H  29.29800 62.48400 46.83200
H  25.63000 62.76100 43.83300
H  26.63500 64.11700 44.00800
H  25.84600 64.26300 46.51000
H  25.07000 62.72200 46.23200
H  24.51400 64.15900 45.39100
H  23.03900 60.21000 43.58300
H  22.86100 58.79900 44.60500
H  22.23600 58.70400 42.94300
H  24.91300 55.56700 39.68600
H  23.81100 52.06200 41.83800
H  24.93300 51.49400 40.51000
H  23.21700 51.70700 40.19200

