158

Mg 36.25300 49.24200 24.25700
C  36.77600 47.65400 27.33700
C  35.02300 51.95400 25.74700
C  35.60700 50.61100 21.31100
C  37.48900 46.23600 22.62300
N  36.01700 49.70300 26.30700
C  36.28100 48.94900 27.42500
C  36.00500 49.69200 28.74500
C  35.42400 51.11800 28.20600
C  35.45900 50.89800 26.65500
C  33.97700 51.48300 28.73000
C  37.27000 49.83500 29.72100
C  37.04500 49.67700 31.20800
H  35.55300 49.64200 31.70000
N  35.40800 51.04600 23.61700
C  35.02000 52.07000 24.41300
C  34.64900 53.23100 23.60200
C  34.77200 52.81700 22.27100
C  35.28500 51.49400 22.34300
C  34.10100 54.61700 24.18700
C  34.45400 53.52100 20.96300
O  34.85900 53.11500 19.93900
C  33.73100 54.84300 21.02100
N  36.35300 48.44500 22.24000
C  36.05600 49.25100 21.21300
C  36.47400 48.65300 19.87300
C  37.16600 47.27100 20.28500
C  36.95400 47.28100 21.81600
C  35.31800 48.45200 18.89500
C  38.63500 47.05300 19.83300
C  39.69400 47.91800 20.52200
N  36.96400 47.34600 24.79000
C  37.43800 46.25200 24.01900
C  37.97800 45.25600 24.92000
C  37.72200 45.83100 26.20600
C  37.15600 47.06400 26.07200
C  38.60900 43.98200 24.71500
C  37.95800 45.56700 27.67600
O  38.63400 44.71800 28.24900
C  37.30100 46.71700 28.44000
C  36.28000 46.08000 29.29700
O  35.11500 45.76200 29.00000
O  36.80300 45.86900 30.57700
C  35.80100 45.27000 31.51800
H  34.55300 52.78100 26.28300
H  35.53300 51.12900 20.35200
H  38.04000 45.44200 22.11400
H  35.16600 49.20900 29.24600
H  36.00900 52.02200 28.37600
H  34.16000 52.43900 29.22200
H  33.60800 50.76500 29.46200
H  33.23000 51.66700 27.95700
H  37.71100 50.79800 29.46400
H  38.06200 49.12300 29.49100
H  37.65700 50.46400 31.64800
H  37.52900 48.75700 31.53600
H  34.41500 54.59800 25.23100
H  33.02100 54.76000 24.16000
H  34.52800 55.48600 23.68600
H  34.44200 55.61900 21.30500
H  32.97400 54.66200 21.78400
H  33.20100 55.04100 20.08900
H  37.16500 49.34500 19.39100
H  36.59800 46.46200 19.82500
H  34.35900 48.60700 19.38900
H  35.38500 47.46400 18.43900
H  35.36800 49.23200 18.13500
H  38.70500 47.18400 18.75300
H  38.83700 45.98200 19.86000
H  39.43200 48.37100 21.47900
H  40.14700 48.56400 19.77000
H  40.54700 47.27000 20.72600
H  38.20900 43.64600 23.75800
H  38.34200 43.16500 25.38600
H  39.68900 43.98700 24.86200
H  38.00900 47.18800 29.12200
H  35.86400 44.18700 31.41000
H  34.81000 45.70800 31.63900
H  36.31300 45.60100 32.42200
Mg -11.38100 37.69700 42.31700
C  -9.15700 35.05000 41.45000
C  -9.27700 39.92700 40.86400
C  -13.98000 39.99500 42.05700
C  -13.71300 35.14600 43.02500
N  -9.62500 37.43500 41.21000
C  -8.87000 36.29500 40.92800
C  -7.68000 36.53600 40.06600
C  -7.53000 38.09600 40.18400
C  -8.89300 38.55100 40.81600
C  -6.25000 38.52600 40.96500
C  -7.93900 36.08500 38.59900
C  -6.85600 35.17400 38.02400
H  -6.13300 35.68500 36.72500
N  -11.47500 39.86400 41.90100
C  -10.51900 40.54800 41.24400
C  -10.92700 41.90800 41.27800
C  -12.34200 41.87600 41.38500
C  -12.69800 40.55500 41.81500
C  -10.00700 43.02900 40.94500
C  -13.25700 43.02400 41.09600
O  -12.77000 44.14200 40.93200
C  -14.66000 42.93700 41.07300
N  -13.45600 37.60600 42.59600
C  -14.29600 38.72600 42.58700
C  -15.66600 38.33500 43.15600
C  -15.64700 36.80100 43.41600
C  -14.17600 36.48000 43.01000
C  -16.28400 39.14500 44.33300
C  -16.69600 35.95600 42.61200
C  -17.35200 34.82100 43.37400
N  -11.43600 35.50600 42.33300
C  -12.41800 34.68400 42.67400
C  -11.95100 33.34000 42.75900
C  -10.62500 33.40800 42.28400
C  -10.38900 34.76400 41.99600
C  -12.70100 32.16600 43.39600
C  -9.39100 32.69200 41.97100
O  -9.16300 31.49000 42.11300
C  -8.40900 33.72800 41.38900
C  -7.24300 33.77200 42.32600
O  -6.07500 33.80300 42.02700
O  -7.69800 33.90000 43.62500
C  -6.74200 34.09600 44.69800
H  -8.53800 40.65100 40.51600
H  -14.92600 40.53100 41.95700
H  -14.43900 34.36500 43.26100
H  -6.81200 36.02400 40.48100
H  -7.42600 38.56000 39.20300
H  -5.40300 37.87000 40.76000
H  -6.38300 38.55300 42.04600
H  -5.88600 39.50100 40.64200
H  -8.01700 36.98000 37.98200
H  -8.94000 35.65500 38.60200
H  -7.23400 34.23000 37.63100
H  -5.98200 35.05800 38.66500
H  -10.33100 43.61400 40.08400
H  -8.98300 42.70000 40.76800
H  -9.82200 43.76000 41.73200
H  -15.07300 43.89200 40.74900
H  -14.84400 42.80000 42.13800
H  -15.01000 42.06700 40.51700
H  -16.39200 38.55200 42.37200
H  -15.63400 36.65300 44.49600
H  -16.97200 38.50800 44.88900
H  -16.96500 39.88600 43.91600
H  -15.55400 39.57700 45.01700
H  -16.17700 35.58800 41.72700
H  -17.52800 36.60400 42.33500
H  -18.43800 34.90800 43.39200
H  -16.99700 34.86700 44.40400
H  -17.08000 33.87000 42.91600
H  -12.95300 31.37700 42.68700
H  -13.59700 32.54400 43.88700
H  -12.02800 31.63800 44.07200
H  -7.96900 33.45800 40.42900
H  -7.01200 34.89200 45.39300
H  -5.77400 34.40600 44.30500
H  -6.72000 33.12000 45.18200

