158

Mg 16.53300 -1.45000 27.99200
C  15.73400 0.39800 30.82500
C  18.71600 -3.37900 30.01500
C  17.96700 -2.99700 25.29600
C  14.80600 0.74900 25.98200
N  17.22200 -1.40500 30.13900
C  16.65000 -0.68200 31.16100
C  17.37800 -0.79400 32.50800
C  18.37300 -1.96700 32.17500
C  18.06200 -2.27200 30.69400
C  19.89600 -1.77400 32.42900
C  16.35200 -1.08800 33.66900
C  16.82900 -1.75500 34.95600
H  17.23900 -0.89000 36.12500
N  18.00700 -3.19900 27.65900
C  18.70400 -3.84100 28.63100
C  19.39600 -4.95300 28.06800
C  19.12100 -4.90300 26.69600
C  18.35600 -3.69800 26.45800
C  20.28100 -5.92300 28.81400
C  19.64400 -5.75900 25.52300
O  19.42700 -5.37400 24.35600
C  20.45900 -7.07500 25.71700
N  16.43800 -1.14700 25.94500
C  17.12300 -1.89500 25.02900
C  16.75700 -1.42300 23.65800
C  15.56800 -0.40300 23.84100
C  15.61300 -0.24400 25.30800
C  18.02000 -0.86800 22.88200
C  14.10200 -0.68800 23.42800
C  13.86500 -0.17300 21.97500
N  15.38000 0.12600 28.27500
C  14.72800 0.92500 27.36100
C  13.91100 1.87800 28.05900
C  14.30900 1.73400 29.41600
C  15.20600 0.63300 29.51900
C  13.11900 2.88300 27.46600
C  14.08400 2.29600 30.70800
O  13.32700 3.23000 31.03300
C  14.99900 1.41300 31.78300
C  15.88600 2.35100 32.50300
O  16.83000 3.03000 32.10400
O  15.46000 2.49100 33.76600
C  15.94700 3.61900 34.53500
H  19.47500 -3.78500 30.68800
H  18.39700 -3.33900 24.35300
H  14.19100 1.38500 25.34100
H  17.88300 0.13700 32.76200
H  18.09200 -2.85300 32.74500
H  20.13900 -1.15000 33.28900
H  20.33300 -1.29800 31.55200
H  20.33700 -2.74500 32.65500
H  15.58200 -1.76400 33.29900
H  15.89000 -0.13800 33.93800
H  17.76800 -2.28800 34.80300
H  16.06300 -2.34800 35.45400
H  20.16400 -5.80500 29.89100
H  21.35000 -5.86300 28.60800
H  20.08400 -6.96300 28.55400
H  19.73700 -7.70900 26.23300
H  21.31400 -7.00500 26.39000
H  20.86100 -7.52600 24.81000
H  16.40900 -2.23100 23.01500
H  15.81500 0.57600 23.43100
H  18.87700 -0.75800 23.54700
H  17.73500 0.09900 22.46900
H  18.30800 -1.48900 22.03300
H  13.40700 -0.21500 24.12200
H  13.93900 -1.76500 23.40800
H  14.84700 0.06100 21.56400
H  13.33700 0.76400 22.15300
H  13.32900 -0.93700 21.41100
H  13.41400 3.21900 26.47200
H  13.17600 3.81700 28.02400
H  12.11900 2.45000 27.43500
H  14.25800 1.02500 32.48200
H  15.04100 3.96700 35.03100
H  16.28300 4.50400 33.99400
H  16.75000 3.19600 35.13900
Mg 26.95200 49.63100 26.32500
C  24.84600 50.69600 28.87800
C  29.04000 48.33500 28.71700
C  28.96200 48.80000 23.86700
C  24.78700 51.40800 24.07000
N  26.90300 49.57400 28.56000
C  25.93000 49.95500 29.38600
C  26.11000 49.40900 30.85000
C  27.58200 48.87900 30.80200
C  27.93400 48.94200 29.28000
C  28.63900 49.55500 31.69200
C  24.94000 48.53700 31.40200
C  24.38900 49.04000 32.84200
H  25.42600 49.57400 33.86100
N  28.70700 48.69200 26.28000
C  29.42800 48.18900 27.34700
C  30.57800 47.51000 26.85700
C  30.66400 47.79600 25.45000
C  29.42100 48.44200 25.11900
C  31.57200 46.80900 27.79700
C  31.69900 47.43000 24.34700
O  31.67300 47.84300 23.19300
C  32.91700 46.57700 24.68500
N  26.92900 50.26400 24.27400
C  27.89400 49.62300 23.46800
C  27.49600 49.77800 21.96200
C  26.23200 50.65100 22.00800
C  25.92400 50.75600 23.55000
C  28.67800 50.47500 21.25000
C  25.05700 50.19300 21.08700
C  24.89300 51.00900 19.75700
N  25.17500 50.86100 26.34100
C  24.42800 51.54800 25.40700
C  23.28200 52.17700 25.95200
C  23.42600 51.90400 27.33300
C  24.55700 51.06600 27.53000
C  22.29400 53.08000 25.31800
C  22.73200 52.06900 28.63300
O  21.71000 52.58900 29.02300
C  23.67200 51.27600 29.67300
C  24.15200 52.36200 30.54400
O  25.02400 53.21000 30.21900
O  23.40000 52.36300 31.69600
C  23.66300 53.32000 32.68700
H  29.66600 48.05700 29.56700
H  29.49200 48.38300 23.00800
H  24.06500 51.93000 23.43800
H  26.13300 50.21300 31.58600
H  27.51900 47.82200 31.06200
H  29.35200 48.79900 32.01900
H  28.26200 49.97000 32.62700
H  29.27100 50.28000 31.18000
H  25.18600 47.47900 31.48500
H  24.12100 48.56700 30.68300
H  23.76500 48.27600 33.30500
H  23.66200 49.83800 32.69200
H  31.38000 45.75000 27.62100
H  31.56900 46.86000 28.88600
H  32.58400 47.15500 27.58700
H  33.78500 47.15800 24.99500
H  33.18500 46.06500 23.76100
H  32.56400 45.95000 25.50400
H  27.31400 48.76500 21.60200
H  26.54400 51.67300 21.79600
H  29.13200 51.23000 21.89300
H  28.42200 50.93400 20.29500
H  29.33400 49.63800 21.01100
H  24.10400 50.15000 21.61300
H  25.41200 49.21500 20.76000
H  23.83000 51.13600 19.55300
H  25.31400 50.41600 18.94400
H  25.40700 51.96900 19.73100
H  21.60500 52.44400 24.76100
H  22.84700 53.64300 24.56700
H  21.79700 53.77600 25.99500
H  23.21800 50.53300 30.32800
H  24.04700 54.27900 32.34000
H  24.30900 52.86700 33.43800
H  22.77300 53.64800 33.22400

