158

Mg 16.84100 -3.47500 28.31300
C  15.73500 -1.27700 30.84900
C  18.67900 -5.08300 30.61800
C  18.10000 -5.26400 25.79700
C  15.26900 -1.38600 25.97200
N  17.21900 -3.10800 30.52000
C  16.65800 -2.21300 31.32300
C  16.99500 -2.43600 32.80700
C  18.10300 -3.53200 32.74000
C  17.98500 -3.99100 31.22700
C  19.48600 -3.01100 33.04800
C  15.73500 -2.98900 33.57000
C  15.67900 -2.53400 35.03100
H  16.93300 -2.08400 35.79300
N  18.08200 -5.12100 28.20900
C  18.69000 -5.70400 29.30500
C  19.25900 -6.93200 28.94500
C  19.14100 -7.02600 27.51900
C  18.34800 -5.80500 27.09900
C  20.01000 -7.87800 29.80800
C  19.72300 -8.00000 26.46300
O  19.47000 -7.90800 25.27400
C  20.46400 -9.19600 26.89800
N  16.82000 -3.30500 26.20600
C  17.45300 -4.15300 25.42500
C  17.38500 -3.77400 23.92000
C  16.28600 -2.71600 23.94300
C  16.13600 -2.37400 25.44900
C  18.71000 -3.36400 23.26400
C  14.85900 -3.14800 23.37100
C  14.42800 -2.24600 22.20200
N  15.81600 -1.70200 28.26300
C  15.06000 -1.10200 27.29100
C  14.28700 0.04100 27.80100
C  14.49600 -0.06200 29.15200
C  15.42000 -1.10600 29.43800
C  13.48500 0.94400 27.03400
C  14.28600 0.73000 30.37100
O  13.81400 1.85800 30.52000
C  14.92300 -0.17000 31.53300
C  15.68600 0.76000 32.37300
O  16.80300 1.22800 32.08300
O  14.95700 1.16100 33.44300
C  15.68200 2.07300 34.27300
H  19.31300 -5.56900 31.36200
H  18.53600 -5.86500 24.99600
H  14.80900 -0.72400 25.23500
H  17.25600 -1.45900 33.21300
H  18.02500 -4.42000 33.36700
H  19.45600 -2.10000 33.64500
H  20.05300 -2.80000 32.14100
H  20.09100 -3.74500 33.58100
H  15.89400 -4.06000 33.68800
H  14.76400 -2.73300 33.14700
H  15.27100 -3.40400 35.54600
H  15.08500 -1.62300 35.09100
H  21.06900 -7.62600 29.75100
H  20.05000 -8.95300 29.63200
H  19.66700 -7.86400 30.84300
H  19.90300 -9.90100 27.51100
H  21.18600 -8.55500 27.40200
H  20.89000 -9.66600 26.01200
H  17.07300 -4.68700 23.41200
H  16.58000 -1.82700 23.38500
H  18.65700 -2.36200 22.83900
H  18.80900 -3.99500 22.38100
H  19.54800 -3.46700 23.95300
H  14.06500 -3.00000 24.10300
H  14.91600 -4.14900 22.94200
H  13.66200 -1.62600 22.66800
H  13.95900 -2.86200 21.43400
H  15.10200 -1.65500 21.58100
H  13.94400 1.24000 26.09100
H  13.17900 1.87700 27.50600
H  12.67400 0.30700 26.68000
H  14.03500 -0.52200 32.05800
H  16.19900 2.85100 33.71000
H  16.28900 1.54200 35.00600
H  15.01400 2.67600 34.88800
Mg 41.14600 41.35700 27.09400
C  40.88600 43.88600 29.63900
C  41.89100 39.22600 29.63800
C  42.00000 39.24800 24.86000
C  41.33300 44.09800 24.78400
N  41.44100 41.60200 29.43400
C  40.98200 42.57800 30.18500
C  40.90300 42.12500 31.70300
C  41.49000 40.67200 31.64600
C  41.56600 40.45000 30.11500
C  42.89600 40.56200 32.30100
C  39.42600 42.23200 32.34400
C  39.23700 42.25400 33.86300
H  38.34600 43.31400 34.52400
N  41.64000 39.40900 27.19300
C  41.95400 38.63700 28.33400
C  42.30000 37.27100 27.88100
C  42.33300 37.26000 26.47200
C  41.95700 38.67500 26.11500
C  42.49900 36.20000 28.85900
C  42.75800 36.17400 25.45600
O  42.66500 36.28700 24.25100
C  43.18900 34.80500 25.97300
N  41.64100 41.62400 25.13400
C  41.83900 40.49400 24.35600
C  41.98400 40.90300 22.83700
C  41.69100 42.43400 22.82100
C  41.61500 42.80600 24.36000
C  43.39200 40.57900 22.15300
C  40.36300 42.77500 22.03900
C  39.10200 42.05800 22.53800
N  41.05700 43.56000 27.08800
C  41.04000 44.49600 26.06300
C  40.82100 45.79800 26.60400
C  40.73300 45.62500 27.99200
C  40.96000 44.24600 28.24300
C  40.73800 47.00600 25.88900
C  40.71800 46.36300 29.23300
O  40.49800 47.52900 29.53100
C  40.73100 45.19900 30.38900
C  41.84000 45.48100 31.30600
O  43.06200 45.47600 31.04100
O  41.37000 45.80400 32.56100
C  42.32100 45.93000 33.67400
H  42.09800 38.40300 30.32500
H  42.20100 38.54000 24.05400
H  41.23600 44.83200 23.98200
H  41.59600 42.85000 32.13200
H  40.78000 39.95700 32.06100
H  43.21000 41.50200 32.75500
H  43.63100 40.15200 31.60800
H  42.72900 39.83000 33.09200
H  38.82500 41.37300 32.04400
H  38.95300 43.09100 31.86800
H  40.26000 42.29900 34.23900
H  38.94100 41.27600 34.24400
H  41.83500 35.37200 28.61100
H  42.52300 36.52100 29.90100
H  43.55700 35.96600 28.74200
H  44.12800 34.89600 26.51800
H  43.19800 34.06400 25.17300
H  42.34400 34.58700 26.62600
H  41.15200 40.36700 22.38200
H  42.48500 42.98000 22.31100
H  43.26300 40.31000 21.10400
H  44.04900 39.99400 22.79600
H  43.93800 41.49800 21.94300
H  40.46000 42.58800 20.97000
H  40.16500 43.82900 22.23100
H  39.36200 41.56300 23.47400
H  38.93100 41.37600 21.70500
H  38.30200 42.79700 22.50400
H  40.39300 47.82100 26.52400
H  40.00000 46.83600 25.10500
H  41.67100 47.40400 25.49100
H  39.90200 45.20600 31.09600
H  42.27300 46.99600 33.90000
H  43.35000 45.68600 33.41100
H  42.07300 45.31300 34.53700

