158

Mg 30.48400 58.55800 41.03500
C  27.46600 56.93600 40.34200
C  32.16000 55.59400 40.21700
C  33.47100 60.06400 41.30100
C  28.84800 61.57900 41.12800
N  29.81600 56.55800 40.37900
C  28.57600 56.13100 40.10700
C  28.55700 54.66200 39.53000
C  29.99100 54.15500 39.96100
C  30.74800 55.51600 40.10900
C  30.00300 53.26900 41.25100
C  28.34200 54.70700 37.96100
C  27.08100 54.04500 37.34300
H  26.37100 54.95500 36.25100
N  32.57300 57.86100 40.97700
C  33.00100 56.66200 40.56700
C  34.46500 56.68400 40.57100
C  34.89700 57.95000 40.92000
C  33.66100 58.67400 41.10700
C  35.32100 55.45600 40.17500
C  36.25900 58.38700 41.17800
O  37.13700 57.57000 40.95800
C  36.66900 59.76000 41.70900
N  31.10800 60.53500 41.19100
C  32.40100 60.93300 41.36900
C  32.44000 62.44300 41.26200
C  31.00600 62.85700 41.45500
C  30.22200 61.59300 41.14000
C  33.38100 63.15800 42.30400
C  30.57500 64.06700 40.57700
C  30.45500 63.75100 39.03700
N  28.50800 59.23100 40.75300
C  27.96100 60.52100 40.94100
C  26.52300 60.41500 40.73000
C  26.28500 59.00700 40.45900
C  27.55700 58.34200 40.57600
C  25.59400 61.55800 40.76900
C  25.25000 58.03000 40.15700
O  24.04200 58.14900 40.05600
C  25.98900 56.67400 40.01100
C  25.42700 55.65800 40.96200
O  24.97600 55.96800 42.05500
O  25.31300 54.41400 40.34500
C  24.60000 53.46300 41.27000
H  32.56200 54.59900 40.01400
H  34.36600 60.68900 41.30800
H  28.33000 62.54000 41.16100
H  27.71400 54.03200 39.81300
H  30.42000 53.61200 39.11800
H  30.31700 52.25200 41.01800
H  29.04100 53.27500 41.76300
H  30.75000 53.59800 41.97300
H  29.06800 54.09400 37.42800
H  28.40200 55.70400 37.52300
H  26.32700 53.97500 38.12700
H  27.45800 53.11300 36.92100
H  34.69700 54.79900 39.57000
H  35.48900 54.90700 41.10200
H  36.25300 55.54100 39.61700
H  37.75800 59.73800 41.68600
H  36.19800 59.71400 42.69100
H  36.30600 60.47600 40.97100
H  32.81300 62.52100 40.24100
H  30.68900 63.07000 42.47600
H  34.30700 62.59000 42.38800
H  32.92200 63.19400 43.29300
H  33.58500 64.20500 42.07700
H  31.26100 64.91200 40.63500
H  29.67200 64.45700 41.04600
H  29.43500 64.02800 38.77100
H  30.68100 62.70100 38.84900
H  31.03700 64.49200 38.49000
H  26.00100 62.42200 41.29300
H  24.58900 61.28900 41.09600
H  25.36900 61.93700 39.77200
H  25.70600 56.32100 39.02000
H  25.27000 52.73000 41.71900
H  23.94100 52.86700 40.63900
H  23.93500 53.81300 42.06000
Mg 35.84300 50.04900 25.56400
C  35.48600 48.49800 28.63000
C  35.12900 53.13000 27.04700
C  35.49800 51.64000 22.46400
C  36.39000 47.07400 23.97700
N  35.18200 50.63900 27.52400
C  35.20800 49.88600 28.67500
C  35.05800 50.66900 29.99800
C  34.90600 52.10600 29.43400
C  35.08400 51.97000 27.90600
C  33.53800 52.81100 29.90200
C  36.16300 50.54400 31.14400
C  35.72600 49.92600 32.44000
H  34.29600 50.21200 33.11500
N  35.39500 52.15300 24.88100
C  35.16200 53.21900 25.64700
C  34.86600 54.36900 24.84700
C  34.94800 53.94800 23.52300
C  35.28100 52.58900 23.56800
C  34.51800 55.76500 25.32900
C  34.84900 54.74100 22.18500
O  34.91100 54.16700 21.09800
C  34.84000 56.22400 22.23400
N  35.81900 49.36900 23.46100
C  35.74600 50.26200 22.40800
C  36.04800 49.57100 21.06000
C  36.40200 48.07700 21.57400
C  36.19700 48.16100 23.11200
C  34.77500 49.54900 20.09500
C  37.80800 47.53700 21.03400
C  38.95000 48.03200 21.96900
N  35.87900 48.14600 26.17700
C  36.24200 47.09700 25.40300
C  36.31500 45.93000 26.33500
C  35.93800 46.43500 27.62900
C  35.74300 47.78300 27.43200
C  36.79500 44.58500 25.93800
C  35.88800 46.11400 29.01700
O  36.02400 45.02400 29.69900
C  35.56200 47.46100 29.75400
C  34.24100 47.10000 30.34400
O  33.20000 47.61900 29.96800
O  34.34900 46.38600 31.54500
C  33.17100 46.02400 32.28100
H  34.94400 54.03100 27.63500
H  35.47700 51.96300 21.42100
H  36.76400 46.14300 23.54700
H  34.10500 50.37600 30.43700
H  35.76000 52.69300 29.77000
H  33.78900 53.85800 30.07300
H  33.10100 52.38100 30.80200
H  32.78200 52.76100 29.11800
H  36.73700 51.46700 31.22600
H  36.85500 49.82400 30.71000
H  36.36200 50.38900 33.19500
H  36.01100 48.87500 32.40900
H  34.35800 55.78500 26.40700
H  33.66900 56.15600 24.76800
H  35.54300 56.12400 25.24000
H  35.46800 56.65300 23.01400
H  33.87600 56.67300 22.47200
H  35.23000 56.48800 21.25100
H  36.92300 49.97900 20.55200
H  35.62300 47.38500 21.25400
H  33.98900 50.24000 20.40000
H  34.22900 48.60900 20.17100
H  35.02900 49.80600 19.06600
H  38.06700 47.79700 20.00800
H  37.70300 46.46800 21.22100
H  39.23300 47.19200 22.60400
H  38.59200 48.74400 22.71300
H  39.70600 48.64100 21.47400
H  36.01800 43.99300 25.45300
H  37.09600 44.12400 26.87900
H  37.63700 44.59100 25.24600
H  36.44400 47.49700 30.39400
H  32.87300 45.00400 32.03700
H  32.33300 46.66800 32.01100
H  33.45700 45.98500 33.33200

