158

Mg 34.59700 3.23500 29.85200
C  32.29200 3.68400 32.35900
C  37.15800 3.35500 32.06700
C  36.70100 2.49300 27.25200
C  31.90000 3.38300 27.52700
N  34.65500 3.44600 31.96900
C  33.61000 3.58200 32.83300
C  34.15200 3.43900 34.23200
C  35.68900 3.52000 34.10300
C  35.86400 3.50700 32.60400
C  36.39900 4.60500 35.04600
C  33.52400 2.27300 35.09400
C  33.19100 2.43200 36.63400
H  33.95800 3.53400 37.35900
N  36.63500 3.01100 29.69200
C  37.55700 3.08000 30.73100
C  38.96300 2.83200 30.21700
C  38.78300 2.52200 28.84600
C  37.31400 2.60600 28.52000
C  40.21400 3.05600 31.17500
C  39.85600 2.16700 27.90300
O  39.65100 1.96800 26.66400
C  41.23100 2.15900 28.34600
N  34.37700 2.80500 27.69100
C  35.35200 2.60300 26.83200
C  34.82400 2.87700 25.38800
C  33.31900 2.87800 25.53100
C  33.13600 3.06700 27.05300
C  35.38100 4.13900 24.75600
C  32.40900 1.84900 24.75700
C  32.43100 0.43300 25.28000
N  32.56100 3.49200 29.79800
C  31.59100 3.59100 28.80700
C  30.26700 3.87700 29.48000
C  30.57100 3.88500 30.80500
C  31.89900 3.61700 30.98700
C  28.93600 4.00800 28.69100
C  29.90600 4.09100 32.16200
O  28.70600 4.29200 32.43000
C  31.01000 3.87600 33.15700
C  30.96000 5.10800 34.07400
O  31.59400 6.13900 33.93800
O  30.25700 4.79800 35.19500
C  30.39300 5.79200 36.27000
H  37.91700 3.18800 32.83400
H  37.32000 2.45300 26.35400
H  31.02400 3.50800 26.88700
H  33.88500 4.34500 34.77600
H  36.01300 2.49300 34.26900
H  36.72400 5.41700 34.39600
H  37.21100 4.07200 35.54200
H  35.67100 5.00500 35.75100
H  34.17600 1.40000 35.08700
H  32.52500 2.00900 34.74700
H  33.35800 1.47800 37.13500
H  32.11500 2.61100 36.64400
H  40.57300 4.06600 30.97800
H  41.12200 2.50800 30.92200
H  40.01200 3.07800 32.24600
H  41.92000 1.98700 27.51900
H  41.25600 1.22100 28.90100
H  41.67700 2.93800 28.96300
H  35.16100 2.03700 24.78000
H  32.92800 3.82300 25.15500
H  36.01900 4.58800 25.51700
H  34.65400 4.86100 24.38300
H  35.91200 3.85300 23.84700
H  32.71000 1.92000 23.71200
H  31.39100 2.23500 24.80400
H  31.43900 -0.01100 25.19900
H  32.77600 0.37300 26.31200
H  33.15800 -0.09500 24.66300
H  28.21300 3.27800 29.05200
H  29.14600 3.73900 27.65500
H  28.68000 5.06800 28.68900
H  30.68600 2.99600 33.71200
H  29.73600 6.63800 36.06700
H  31.33800 6.23600 36.58200
H  29.88300 5.31300 37.10600
Mg 48.73700 34.92500 27.06200
C  46.62600 33.87100 29.77400
C  49.15700 37.92500 28.85400
C  50.05600 36.27100 24.33600
C  47.79100 32.09600 25.22300
N  48.02400 35.72800 29.12600
C  47.36300 35.05400 30.06600
C  47.55700 35.72200 31.47200
C  47.90600 37.17500 31.02300
C  48.41800 36.98400 29.59000
C  46.78400 38.25900 31.25500
C  48.76700 35.03600 32.18800
C  48.63400 34.92100 33.73000
H  47.72100 35.93000 34.52200
N  49.37600 36.85600 26.62600
C  49.63700 37.90000 27.49700
C  50.19800 39.05700 26.79500
C  50.40500 38.61000 25.47300
C  49.95600 37.18400 25.47100
C  50.44200 40.41000 27.45500
C  51.00000 39.24800 24.23200
O  50.88600 38.79000 23.10000
C  51.70300 40.64900 24.34400
N  48.75900 34.27400 25.10300
C  49.46800 34.96700 24.16800
C  49.66300 34.22600 22.87900
C  49.22400 32.75500 23.22600
C  48.60300 33.03000 24.62100
C  48.93600 34.83800 21.59900
C  50.41500 31.69400 23.14700
C  51.53500 31.76000 22.06800
N  47.60800 33.32100 27.41200
C  47.24800 32.25900 26.56700
C  46.43700 31.29600 27.30400
C  46.17700 31.94400 28.48900
C  46.83000 33.16100 28.53300
C  45.89900 29.94500 26.86100
C  45.45400 31.79200 29.72800
O  44.87100 30.79900 30.14400
C  45.62200 33.08300 30.62900
C  45.98000 32.69100 31.96300
O  46.83000 31.86100 32.30900
O  45.07400 33.20600 32.87900
C  45.05900 32.82800 34.31300
H  49.38800 38.88000 29.33100
H  50.59800 36.50700 23.41800
H  47.63600 31.14700 24.70400
H  46.65600 35.64300 32.08100
H  48.65300 37.43600 31.77300
H  46.89200 38.97400 32.07100
H  45.78600 37.84100 31.38900
H  46.71700 38.89400 30.37200
H  49.76500 35.40900 31.96000
H  48.96900 34.01500 31.86500
H  49.62300 35.01200 34.18100
H  48.31500 33.91500 34.00000
H  51.38000 40.53000 27.99700
H  49.57000 40.64500 28.06400
H  50.35600 41.17800 26.68600
H  51.04000 41.51400 24.35500
H  52.40400 40.81100 23.52600
H  52.25100 40.66100 25.28600
H  50.72500 34.23000 22.63200
H  48.40500 32.38500 22.61000
H  49.02300 35.91300 21.75800
H  47.89700 34.51000 21.59200
H  49.45600 34.41500 20.73900
H  50.09400 30.66700 22.97100
H  50.93700 31.87100 24.08700
H  51.16200 32.39500 21.26500
H  51.68400 30.74000 21.71200
H  52.54000 32.03500 22.38800
H  45.73500 29.90000 25.78400
H  44.94700 29.83400 27.38000
H  46.55900 29.15900 27.22700
H  44.72300 33.69700 30.57600
H  44.43400 33.56100 34.82300
H  46.04000 32.70300 34.77300
H  44.59800 31.85100 34.45700

