158

Mg 46.37300 44.33900 42.67200
C  43.08200 43.15700 42.35400
C  47.32700 40.96600 42.15700
C  49.46500 45.42100 42.12400
C  45.18400 47.64100 42.63900
N  45.35300 42.29600 42.23400
C  43.98000 42.07600 42.23000
C  43.62800 40.61300 41.86100
C  44.96300 39.88500 42.23600
C  45.96900 41.11800 42.17900
C  44.91900 39.13300 43.62200
C  42.95700 40.42200 40.40000
C  43.53900 41.31500 39.29600
H  44.32800 40.66300 38.08800
N  48.13800 43.29100 42.27800
C  48.34200 41.94700 42.09600
C  49.77700 41.67700 41.79400
C  50.35000 42.95100 41.62100
C  49.31800 43.95400 42.02200
C  50.38900 40.31200 41.67500
C  51.74900 43.24900 41.04400
O  52.35400 42.29500 40.52200
C  52.36800 44.58100 40.84200
N  47.15800 46.22200 42.44500
C  48.49700 46.37900 42.37500
C  48.95100 47.87800 42.55400
C  47.56900 48.62600 42.41900
C  46.59400 47.42700 42.46800
C  49.57600 48.15900 43.95200
C  47.36600 49.45700 41.10900
C  47.47200 50.97500 41.17700
N  44.50500 45.33300 42.50500
C  44.14700 46.66600 42.67200
C  42.61800 46.69900 42.85800
C  42.20900 45.32100 42.73000
C  43.41600 44.58400 42.45500
C  41.80500 47.91000 43.10300
C  41.01700 44.54600 42.77100
O  39.82500 44.80500 42.90700
C  41.51900 43.08000 42.38900
C  41.04200 42.25900 43.57300
O  40.02500 41.56500 43.68200
O  41.80500 42.58200 44.64700
C  41.51200 41.99600 45.99500
H  47.57100 39.91400 41.99600
H  50.45000 45.89000 42.08500
H  44.94800 48.66300 42.94400
H  42.93400 40.38100 42.66800
H  45.19000 39.21500 41.40700
H  43.92900 38.76600 43.89500
H  45.15900 39.81900 44.43400
H  45.59500 38.28500 43.73000
H  41.90900 40.69800 40.51600
H  42.94000 39.40400 40.00900
H  44.41500 41.84600 39.66900
H  42.79500 42.06100 39.01400
H  50.45100 39.98100 40.63900
H  49.80600 39.56700 42.21600
H  51.37900 40.23700 42.12600
H  51.79300 45.21100 40.16300
H  53.38300 44.45400 40.46400
H  52.51800 45.04100 41.81800
H  49.72600 48.12200 41.82600
H  47.50000 49.25400 43.30700
H  48.83400 47.95200 44.72300
H  49.88600 49.20200 44.01300
H  50.48400 47.56000 44.02100
H  46.39300 49.27100 40.65400
H  48.14900 49.26400 40.37600
H  47.70400 51.42400 40.21100
H  48.24200 51.23800 41.90300
H  46.60500 51.48700 41.59600
H  41.34400 48.32800 42.20900
H  42.34600 48.72000 43.59200
H  40.93200 47.55900 43.65400
H  41.14000 42.70600 41.43700
H  41.78600 42.81100 46.66600
H  42.04500 41.11000 46.33900
H  40.49000 41.79300 46.31700
Mg 16.14800 53.37900 25.30000
C  17.54000 52.09300 28.17700
C  13.40200 54.44000 27.16000
C  14.66300 54.21800 22.31400
C  18.68200 51.71800 23.41900
N  15.63000 53.25100 27.37500
C  16.35200 52.82000 28.39200
C  15.73100 53.13800 29.73400
C  14.28900 53.45700 29.38800
C  14.42900 53.64200 27.87900
C  13.18100 52.50600 29.84200
C  16.52100 54.22300 30.55000
C  17.13900 53.73100 31.84800
H  16.19000 53.00000 32.86200
N  14.38500 54.39600 24.84500
C  13.39500 54.73100 25.77500
C  12.30300 55.37100 25.03200
C  12.61300 55.18600 23.62800
C  13.96200 54.61800 23.54300
C  11.17200 56.07600 25.80200
C  11.72900 55.42500 22.39000
O  12.00300 55.18700 21.20400
C  10.43900 56.16000 22.66400
N  16.55300 52.85900 23.07500
C  15.88800 53.45700 22.11900
C  16.41600 53.06700 20.67500
C  17.76200 52.45700 21.07800
C  17.68800 52.24700 22.63900
C  15.46200 52.12100 19.84900
C  19.00300 53.32500 20.64200
C  20.08000 52.52300 19.88700
N  17.92000 52.25600 25.63900
C  18.84800 51.71500 24.83900
C  19.90800 51.15200 25.66700
C  19.42700 51.28600 26.99000
C  18.20000 51.91600 26.93600
C  21.18700 50.51200 25.18100
C  19.74700 50.96000 28.44500
O  20.71400 50.42200 28.97100
C  18.49100 51.50900 29.21300
C  18.04300 50.49400 30.18600
O  17.20300 49.61600 30.01300
O  18.85700 50.60100 31.27300
C  18.64600 49.65200 32.35100
H  12.51200 54.77200 27.69800
H  14.31400 54.71000 21.40300
H  19.42600 51.19400 22.81600
H  15.69200 52.25500 30.37100
H  14.05900 54.39100 29.90000
H  13.49800 51.49600 30.10200
H  12.31700 52.31100 29.20800
H  12.74200 53.10700 30.63800
H  15.87700 55.07100 30.78100
H  17.33100 54.46500 29.86100
H  17.44400 54.52200 32.53300
H  18.05800 53.25600 31.50400
H  11.00700 56.99200 25.23400
H  11.46200 56.40000 26.80200
H  10.22900 55.53000 25.82600
H  9.86400 56.17300 21.73900
H  10.70200 57.19700 22.87600
H  9.88400 55.84800 23.54900
H  16.63000 53.98700 20.13000
H  17.80100 51.48200 20.59300
H  15.15400 52.69400 18.97500
H  14.72100 51.76600 20.56600
H  16.07700 51.26600 19.56700
H  19.47800 53.71400 21.54200
H  18.75700 54.19100 20.02700
H  20.71500 53.09000 19.20700
H  19.68200 51.66300 19.35000
H  20.77900 51.98400 20.52700
H  21.57200 50.94200 24.25600
H  20.84200 49.49000 25.02300
H  21.91200 50.46600 25.99400
H  18.88800 52.37600 29.74100
H  18.55000 48.64600 31.94300
H  17.67600 49.92500 32.76700
H  19.47900 49.71100 33.05100

