158

Mg 8.70200 3.21000 27.47200
C  10.19400 1.72300 30.15500
C  6.76800 5.08300 29.61600
C  7.36600 4.58300 24.81300
C  10.32200 0.82500 25.48600
N  8.41400 3.25800 29.67500
C  9.31600 2.70000 30.61100
C  9.06900 3.28900 32.00600
C  7.85400 4.28200 31.80000
C  7.66200 4.25600 30.24800
C  6.60100 4.08400 32.62300
C  10.32200 3.89100 32.68300
C  10.15500 4.47700 34.09500
H  11.16300 4.11200 35.15600
N  7.29700 4.59200 27.28400
C  6.61200 5.35100 28.22300
C  5.75900 6.27800 27.64900
C  5.80500 6.09900 26.22800
C  6.87000 5.06000 26.05100
C  4.90700 7.23000 28.49800
C  5.02800 6.74200 25.13800
O  5.06500 6.40000 23.96200
C  4.06900 7.88800 25.40400
N  8.91400 2.78100 25.42800
C  8.32800 3.58000 24.54200
C  8.74100 3.24400 23.05900
C  9.66700 1.95200 23.24800
C  9.68600 1.86400 24.79100
C  7.49900 3.11900 22.11000
C  11.16600 2.04500 22.57400
C  11.55300 0.88500 21.54100
N  9.92600 1.50000 27.68300
C  10.52100 0.66200 26.77300
C  11.46600 -0.16700 27.49200
C  11.34600 0.20800 28.82600
C  10.35100 1.20400 28.86800
C  12.43100 -1.22800 26.88700
C  11.75400 -0.11700 30.17600
O  12.56800 -0.86600 30.58700
C  11.13100 0.91500 31.01700
C  10.52600 0.29300 32.22800
O  9.41100 -0.16000 32.34300
O  11.36200 0.44000 33.29200
C  10.84300 0.04500 34.61700
H  6.44000 5.80700 30.36400
H  6.89600 5.02200 23.93000
H  10.80200 0.14000 24.78400
H  8.67700 2.44100 32.56700
H  8.17300 5.30100 32.02100
H  6.42800 4.89400 33.33200
H  6.65500 3.22400 33.29000
H  5.72200 4.06400 31.97900
H  10.65500 4.69200 32.02300
H  11.15200 3.18900 32.59900
H  9.14100 4.44400 34.49300
H  10.32900 5.54400 33.96000
H  5.04500 7.14900 29.57600
H  3.83700 7.05400 28.39000
H  5.24000 8.24000 28.25900
H  4.59400 8.67800 25.94100
H  3.25400 7.58700 26.06300
H  3.54100 8.22200 24.51100
H  9.29300 4.16200 22.85800
H  9.18100 1.04500 22.88900
H  7.16500 2.09800 22.29400
H  7.82400 3.29500 21.08400
H  6.60900 3.67900 22.39900
H  11.92800 2.12200 23.34900
H  11.04700 2.96100 21.99600
H  12.17100 0.14600 22.05300
H  12.02600 1.35900 20.68100
H  10.61700 0.41400 21.24200
H  11.86000 -1.50900 26.00200
H  12.55000 -1.97800 27.66900
H  13.45500 -0.93100 26.65800
H  11.93200 1.51000 31.45600
H  10.69400 0.92100 35.24800
H  11.75700 -0.42900 34.97400
H  9.97800 -0.61400 34.69300
Mg 48.47000 46.30800 42.79900
C  45.03000 46.45000 42.20000
C  48.54100 43.12300 41.47300
C  51.82700 46.55900 42.52200
C  48.29900 49.59700 43.75200
N  46.94300 44.96500 41.84400
C  45.61700 45.23000 41.74600
C  44.97800 44.11300 41.01100
C  45.95600 42.91700 41.26100
C  47.25300 43.68400 41.52900
C  45.60500 41.87800 42.36100
C  44.62800 44.40300 39.52100
C  43.16900 44.07400 39.15300
H  42.96900 43.88400 37.69100
N  50.02200 44.99400 42.08100
C  49.83000 43.66600 41.71400
C  51.17400 43.07000 41.65000
C  52.15800 44.10200 41.81100
C  51.39400 45.26100 42.23000
C  51.37400 41.58900 41.26900
C  53.68200 43.90100 41.71600
O  54.01600 42.90400 41.21500
C  54.67500 44.93900 42.16800
N  49.83600 47.94100 42.71400
C  51.18800 47.77100 42.84700
C  51.87500 49.06600 43.25200
C  50.75200 50.05100 43.67600
C  49.54300 49.08500 43.36400
C  53.06400 48.87900 44.32300
C  50.73400 51.45500 42.94200
C  50.52200 52.71900 43.85100
N  46.96700 47.73000 43.19700
C  47.04300 48.97100 43.68400
C  45.68300 49.57900 43.84900
C  44.85800 48.61200 43.19000
C  45.69500 47.57500 42.79700
C  45.34000 50.90200 44.45800
C  43.48700 48.29500 42.82700
O  42.52100 48.92300 43.14600
C  43.50100 46.82100 42.11900
C  42.51300 45.90400 42.75000
O  41.95000 45.00500 42.12300
O  42.41700 46.06500 44.11900
C  41.38900 45.25400 44.79700
H  48.56600 42.06200 41.21700
H  52.90100 46.75000 42.49400
H  48.38400 50.65500 44.01100
H  44.08900 43.83200 41.57500
H  46.18800 42.37100 40.34600
H  44.58900 41.97000 42.74500
H  46.46100 41.91200 43.03500
H  45.61600 40.92300 41.83700
H  45.31000 43.81700 38.90500
H  44.87100 45.44500 39.31100
H  42.49100 44.84400 39.52100
H  42.88900 43.13400 39.62700
H  51.71000 41.46200 40.24000
H  50.46400 40.99000 41.32100
H  52.08200 41.04600 41.89400
H  54.58900 45.79400 41.49800
H  55.68900 44.54100 42.14400
H  54.38400 45.16400 43.19400
H  52.23700 49.34400 42.26200
H  50.75000 50.19900 44.75600
H  53.94800 49.45200 44.04500
H  53.33000 47.82700 44.41900
H  52.81200 49.29000 45.30000
H  49.91100 51.49800 42.22900
H  51.67400 51.58800 42.40800
H  51.41100 53.34700 43.91200
H  50.24500 52.33200 44.83100
H  49.75600 53.40800 43.49200
H  45.76900 51.65000 43.79100
H  45.80100 51.04000 45.43600
H  44.27000 50.97000 44.65500
H  43.32000 46.90000 41.04700
H  40.39200 45.66400 44.63400
H  41.73300 45.26100 45.83100
H  41.42100 44.21900 44.45600

