158

Mg 51.91300 24.52000 45.28800
C  49.13200 26.49300 44.59700
C  50.22700 21.77000 44.09800
C  54.94200 22.76000 45.36000
C  53.73300 27.34900 46.35500
N  49.95000 24.16500 44.26400
C  48.95200 25.13100 44.11400
C  47.77000 24.51500 43.32900
C  47.94800 22.99300 43.63100
C  49.45200 22.93200 44.02600
C  47.03000 22.66800 44.74900
C  47.73600 24.93000 41.77900
C  49.14000 25.30200 41.20900
H  49.13200 25.48500 39.66600
N  52.53900 22.53900 44.81100
C  51.62000 21.57000 44.42900
C  52.39900 20.31500 44.37600
C  53.74100 20.59300 44.49100
C  53.81400 22.03100 44.94000
C  51.78400 19.03600 43.93500
C  54.90800 19.64600 44.27100
O  54.62400 18.59600 43.70900
C  56.38300 19.90700 44.54500
N  54.09000 25.01600 45.61700
C  55.05400 24.11600 45.65100
C  56.47200 24.69200 45.97000
C  56.09700 26.20000 46.32800
C  54.53900 26.22800 46.02600
C  57.23000 23.84600 47.13700
C  56.88500 27.20200 45.38900
C  57.65300 28.21600 46.12800
N  51.50300 26.53000 45.53500
C  52.32900 27.56500 45.97700
C  51.44800 28.74000 46.19300
C  50.21200 28.33700 45.63600
C  50.30800 27.01100 45.26700
C  51.88800 30.08200 46.77700
C  48.86900 28.76400 45.32600
O  48.40200 29.91000 45.44600
C  48.11600 27.66800 44.58800
C  47.68000 28.10500 43.29400
O  48.38200 28.31200 42.31200
O  46.32400 28.26100 43.38100
C  45.70000 28.86700 42.22500
H  49.63500 20.86200 43.96200
H  55.85000 22.16900 45.49100
H  54.27100 28.14000 46.88100
H  46.88800 24.94900 43.80000
H  47.73200 22.36500 42.76700
H  47.29600 21.66100 45.07000
H  46.02900 22.71900 44.32000
H  46.92300 23.37300 45.57300
H  46.99100 25.72400 41.71800
H  47.39400 24.10600 41.15300
H  49.76200 24.42200 41.37600
H  49.57600 26.19000 41.66600
H  51.41300 19.01800 42.91100
H  50.92800 18.76800 44.55400
H  52.50600 18.26100 44.19100
H  57.09700 19.20300 44.11700
H  56.55100 20.07100 45.60900
H  56.62200 20.82600 44.01000
H  57.04800 24.57000 45.05200
H  56.34900 26.50300 47.34400
H  56.45300 23.28400 47.65500
H  57.76400 24.56400 47.76000
H  57.91800 23.16800 46.63200
H  56.16200 27.84900 44.89300
H  57.52000 26.70400 44.65600
H  57.26200 29.21400 45.92800
H  58.71600 28.12100 45.91000
H  57.50100 28.14300 47.20500
H  51.06100 30.79100 46.73200
H  52.79500 30.34100 46.23000
H  52.16600 30.07700 47.83100
H  47.25000 27.50000 45.22800
H  44.62400 29.01800 42.31000
H  45.95000 28.36600 41.28900
H  46.06900 29.88200 42.08100
Mg 45.81100 24.68900 28.59000
C  46.30400 26.80800 31.32700
C  45.87500 22.04800 30.80400
C  46.10300 22.73000 25.90000
C  46.46100 27.53900 26.50300
N  46.10500 24.53800 30.79600
C  46.17500 25.50300 31.70800
C  46.06600 24.99200 33.16600
C  46.04600 23.40300 32.98700
C  45.87300 23.27300 31.42200
C  47.32500 22.75800 33.55600
C  44.87000 25.60500 33.97900
C  45.18800 26.00800 35.43200
H  44.26300 25.65800 36.59100
N  45.87700 22.60200 28.37600
C  45.83100 21.70900 29.37800
C  45.74100 20.37800 28.85400
C  45.81600 20.51800 27.39100
C  45.96300 22.00600 27.16300
C  45.68900 19.25100 29.73900
C  45.72000 19.51800 26.31100
O  45.92000 19.80400 25.09600
C  45.31200 18.14800 26.68200
N  46.11500 25.07600 26.54400
C  46.08500 24.09900 25.59100
C  45.95600 24.66700 24.07700
C  46.00700 26.22900 24.41500
C  46.27100 26.32600 25.90000
C  47.17800 24.28800 23.14400
C  44.76800 27.13500 23.93300
C  43.40000 26.70500 24.37400
N  46.07000 26.77500 28.79000
C  46.40900 27.75800 27.89700
C  46.69900 28.99000 28.57400
C  46.71400 28.63600 29.92800
C  46.23600 27.31300 30.01100
C  46.97400 30.32600 27.93800
C  46.94000 29.16000 31.24000
O  47.34200 30.30700 31.52400
C  46.61700 28.05100 32.24000
C  47.83800 27.84100 33.10300
O  48.94000 27.33900 32.81800
O  47.56300 28.39400 34.33900
C  48.55300 28.11200 35.40500
H  45.81300 21.27500 31.57200
H  46.12800 22.15200 24.97400
H  46.60000 28.40500 25.85300
H  46.94100 25.37700 33.69000
H  45.21200 22.94200 33.51600
H  48.00300 22.41100 32.77600
H  46.97800 21.88800 34.11300
H  47.89600 23.39900 34.22800
H  44.17800 24.77700 34.13300
H  44.35300 26.42000 33.47200
H  45.15200 27.08800 35.28700
H  46.19500 25.64500 35.63900
H  45.45500 18.29200 29.27700
H  44.90300 19.37200 30.48400
H  46.67300 19.23200 30.20800
H  45.37500 17.46800 25.83200
H  44.28000 18.17400 27.03200
H  46.01400 17.69500 27.38200
H  45.00900 24.32500 23.66000
H  46.92000 26.61800 23.96300
H  48.05300 24.86900 23.43600
H  46.86500 24.60300 22.14800
H  47.50400 23.26500 23.33000
H  44.72600 27.06400 22.84600
H  44.97900 28.16800 24.20800
H  43.68000 25.93700 25.09400
H  42.71100 26.19400 23.70200
H  42.91900 27.55300 24.86300
H  48.06000 30.38900 27.87300
H  46.66000 31.07900 28.66000
H  46.49000 30.45700 26.97100
H  45.67500 28.32100 32.71800
H  49.48000 28.61300 35.12700
H  48.69500 27.03200 35.36500
H  48.39800 28.44200 36.43200

