158

Mg 40.35200 10.17700 29.32000
C  42.13900 11.31900 32.25000
C  38.07100 8.64700 31.46300
C  38.89300 8.74100 26.66200
C  43.06800 11.05200 27.53100
N  40.08200 10.08300 31.55600
C  40.87100 10.67300 32.56100
C  40.33000 10.36300 33.98400
C  39.06500 9.38700 33.69700
C  39.04600 9.35200 32.11000
C  39.17600 7.96000 34.33900
C  39.98800 11.66700 34.65600
C  39.91500 11.38900 36.17700
H  40.68600 12.26100 37.16800
N  38.59200 9.02600 29.08900
C  37.79900 8.50900 30.06500
C  36.61200 7.86600 29.50900
C  36.78700 8.07800 28.07200
C  38.14300 8.63500 27.88800
C  35.54200 7.12300 30.32300
C  35.87100 7.65600 26.89500
O  36.25000 7.84700 25.74600
C  34.45900 7.20800 27.28100
N  40.97800 9.76300 27.41600
C  40.22000 9.18700 26.45700
C  41.02600 9.14800 25.09600
C  42.28900 9.96000 25.37600
C  42.10500 10.28600 26.84000
C  41.14100 7.73100 24.58800
C  42.37100 11.27500 24.60900
C  41.30200 12.41700 24.69200
N  42.18900 11.07900 29.69900
C  43.12400 11.48800 28.86000
C  44.20300 12.23700 29.54100
C  43.81600 12.15800 30.90300
C  42.61600 11.50500 30.93200
C  45.45400 12.86000 29.04600
C  44.22000 12.47400 32.21500
O  45.24200 13.02700 32.60900
C  43.14200 11.98800 33.18400
C  43.81000 11.00300 34.15800
O  44.03700 9.82500 33.94600
O  44.21600 11.65400 35.27000
C  44.77400 10.73000 36.29600
H  37.32500 8.33400 32.19600
H  38.43600 8.37600 25.74000
H  43.84000 11.43600 26.86100
H  41.22600 9.85300 34.33700
H  38.11400 9.82500 34.00000
H  39.66200 8.14800 35.29600
H  39.70700 7.27600 33.67700
H  38.17200 7.58600 34.53700
H  38.96400 11.92500 34.38300
H  40.67500 12.50500 34.54300
H  40.19700 10.34900 36.34100
H  38.85300 11.37500 36.41900
H  35.62300 7.17900 31.40800
H  35.48100 6.11500 29.91100
H  34.59200 7.65400 30.26600
H  33.93900 7.84900 27.99200
H  34.57500 6.23700 27.76200
H  33.83200 7.10900 26.39500
H  40.45500 9.72800 24.37100
H  43.12500 9.26200 25.34800
H  40.86200 6.98800 25.33600
H  42.17200 7.42200 24.41700
H  40.43200 7.51200 23.78900
H  42.35900 10.97400 23.56200
H  43.37800 11.67400 24.72700
H  40.85500 12.44200 23.69900
H  41.69700 13.43000 24.77500
H  40.50000 12.22500 25.40500
H  45.47900 12.72500 27.96500
H  46.36800 12.33400 29.32200
H  45.53800 13.91100 29.32300
H  42.60600 12.83300 33.61500
H  44.12900 9.90800 36.60700
H  44.86500 11.33700 37.19700
H  45.72200 10.34300 35.92300
Mg 42.77900 42.30900 27.01600
C  41.75000 44.45200 29.67600
C  43.68900 40.13200 29.52400
C  44.40800 40.51500 24.55100
C  42.50000 44.97400 24.75400
N  42.73000 42.29200 29.40100
C  42.12000 43.23200 30.20400
C  42.00800 42.73200 31.64300
C  42.82100 41.31700 31.57800
C  43.11000 41.21200 30.11200
C  44.10300 41.26500 32.60400
C  40.52900 42.61400 32.11000
C  40.07900 43.45000 33.28200
H  39.46300 42.75100 34.51100
N  43.83500 40.57400 27.07200
C  44.04100 39.76100 28.21000
C  44.68100 38.56400 27.70900
C  44.99300 38.77600 26.28800
C  44.42400 40.02500 25.91500
C  44.98700 37.35900 28.57200
C  45.81400 37.85600 25.37100
O  46.26100 38.20800 24.28000
C  46.28300 36.50500 25.84000
N  43.18500 42.58800 24.91900
C  43.84400 41.68600 24.06700
C  43.97900 42.22200 22.66200
C  43.19900 43.63200 22.72400
C  42.88800 43.75000 24.20000
C  45.41100 42.40500 22.13000
C  41.90500 43.71900 21.85400
C  40.98800 42.48300 21.77600
N  42.18600 44.28200 27.15300
C  42.13800 45.25500 26.11000
C  41.56700 46.43600 26.72300
C  41.33600 46.16600 28.04300
C  41.77700 44.84100 28.28600
C  41.21500 47.64700 25.96700
C  40.87800 46.71900 29.25100
O  40.34000 47.77100 29.41700
C  41.06800 45.59400 30.43600
C  41.90700 46.22700 31.42500
O  43.04100 46.46000 31.34800
O  41.06700 46.82500 32.39300
C  41.60000 47.88300 33.20200
H  43.93100 39.32200 30.21500
H  44.82800 40.02900 23.66900
H  42.26500 45.80100 24.08000
H  42.46000 43.57200 32.17100
H  42.18800 40.47800 31.86600
H  44.08800 42.05000 33.35900
H  44.96900 41.32400 31.94500
H  44.13000 40.27300 33.05500
H  40.31900 41.59400 32.43200
H  39.98500 42.78500 31.18100
H  39.19000 43.91500 32.85800
H  40.78200 44.22500 33.58900
H  44.35100 37.34300 29.45700
H  46.03600 37.27100 28.85700
H  44.90400 36.41400 28.03500
H  46.97200 36.01800 25.15100
H  45.45500 35.82200 26.03000
H  46.90900 36.61200 26.72600
H  43.42700 41.53500 22.02000
H  43.86500 44.40400 22.33900
H  45.62300 43.45400 21.92200
H  45.56800 41.82000 21.22300
H  46.10300 42.12500 22.92400
H  42.30900 43.84800 20.84900
H  41.30900 44.61800 22.00800
H  41.08700 41.63700 22.45700
H  40.98800 41.92800 20.83700
H  39.94900 42.80900 21.82100
H  41.16300 48.47200 26.67600
H  40.24400 47.58800 25.47500
H  42.01700 47.91800 25.28000
H  40.06000 45.36400 30.78300
H  42.11600 47.31500 33.97600
H  40.85900 48.57900 33.59500
H  42.32200 48.51500 32.68400

