158

Mg 47.32000 25.67100 28.92700
C  47.83100 27.82600 31.57100
C  46.19400 23.25900 30.98500
C  47.02300 23.57000 26.21300
C  48.80400 28.06900 26.76700
N  46.98700 25.59000 31.02300
C  47.21900 26.58700 31.89900
C  46.71000 26.14600 33.31100
C  46.29300 24.62000 33.16900
C  46.53900 24.48200 31.63500
C  47.11000 23.63700 34.06500
C  45.62500 26.98900 34.00700
C  45.95200 27.61300 35.32900
H  46.23700 26.72100 36.53900
N  46.74300 23.70200 28.66600
C  46.24800 22.91500 29.66900
C  45.78200 21.63000 29.07100
C  45.96700 21.73300 27.67000
C  46.60700 23.04400 27.43200
C  45.18200 20.49800 29.93700
C  45.64300 20.80100 26.59000
O  45.99900 20.93600 25.40000
C  44.90400 19.52600 26.91600
N  47.83400 25.83100 26.70400
C  47.62800 24.78000 25.86300
C  48.09000 25.13500 24.40900
C  48.68000 26.59400 24.58400
C  48.37500 26.88300 26.08100
C  49.15000 24.08800 23.79300
C  47.86500 27.64400 23.69600
C  48.75600 28.36600 22.69500
N  48.15100 27.51100 29.10000
C  48.74900 28.35400 28.15100
C  49.21600 29.60300 28.77100
C  48.87300 29.39700 30.08500
C  48.26000 28.16400 30.27300
C  49.82800 30.84700 28.04300
C  48.95300 30.06500 31.35300
O  49.52500 31.12900 31.69000
C  48.27800 29.02600 32.38000
C  49.29300 28.83300 33.46800
O  50.33800 28.23900 33.28200
O  48.99700 29.36700 34.65800
C  49.83400 28.95900 35.79500
H  45.85200 22.53400 31.72700
H  46.89600 22.98900 25.29700
H  49.17100 28.90800 26.17200
H  47.62200 26.25500 33.89800
H  45.22800 24.48400 33.36100
H  47.70900 23.08200 33.34300
H  46.49700 22.88700 34.56400
H  47.81100 24.19300 34.68700
H  44.74700 26.38500 34.23600
H  45.42000 27.84500 33.36400
H  45.07000 28.19800 35.58800
H  46.88000 28.16700 35.19000
H  45.59700 19.49500 29.83600
H  44.10600 20.45200 29.77300
H  45.27800 20.66900 31.01000
H  45.63500 18.92000 27.45200
H  44.56900 19.13100 25.95800
H  44.11600 19.79000 27.62100
H  47.34000 25.08500 23.62000
H  49.75900 26.52600 24.44600
H  50.06100 24.59300 23.47300
H  48.62500 23.56500 22.99400
H  49.48500 23.39500 24.56500
H  47.47900 28.42700 24.34900
H  47.04700 27.09200 23.23500
H  48.67800 29.44800 22.80500
H  48.73500 27.96600 21.68200
H  49.80100 28.24500 22.98200
H  49.66600 30.93100 26.96900
H  50.89000 30.77700 28.27600
H  49.39300 31.68500 28.58900
H  47.38600 29.49200 32.79900
H  49.71200 27.88400 35.92500
H  49.42100 29.51000 36.64000
H  50.85900 29.23100 35.54500
Mg -1.80900 33.81000 25.95700
C  -3.77500 32.51600 28.58200
C  -0.55600 36.00700 28.07400
C  -0.40200 35.29600 23.20100
C  -3.62700 31.97900 23.65500
N  -2.14700 34.21100 28.04100
C  -2.86900 33.49900 28.96900
C  -2.63100 33.89700 30.44300
C  -1.73400 35.19500 30.26800
C  -1.44600 35.15300 28.67500
C  -2.46300 36.51000 30.62700
C  -1.92500 32.81900 31.35300
C  -2.79900 32.18900 32.46100
H  -2.06200 31.78100 33.64800
N  -0.56200 35.39100 25.67000
C  -0.08500 36.11700 26.72800
C  0.90400 37.04500 26.18000
C  0.92300 36.93600 24.81400
C  -0.05400 35.84800 24.50700
C  1.67900 37.98400 27.01400
C  1.67300 37.68600 23.77900
O  1.59600 37.37900 22.65700
C  2.55500 38.75500 24.12700
N  -1.98500 33.66800 23.66300
C  -1.27800 34.35800 22.84700
C  -1.54200 34.01500 21.41600
C  -2.43000 32.75200 21.53200
C  -2.77100 32.87500 23.03500
C  -1.98300 35.16600 20.41800
C  -1.64200 31.41800 21.31100
C  -2.46700 30.27200 20.71000
N  -3.31300 32.42400 26.04900
C  -3.92400 31.73800 25.05100
C  -4.90400 30.86100 25.67300
C  -4.84400 31.09100 27.04200
C  -3.88400 32.06400 27.21700
C  -5.82300 29.95200 24.91900
C  -5.47300 30.77400 28.23100
O  -6.33300 29.94500 28.44200
C  -4.72100 31.63000 29.37900
C  -5.82100 32.37700 30.16000
O  -6.65900 33.10200 29.73700
O  -5.70300 31.91200 31.46900
C  -6.66700 32.45000 32.49600
H  -0.17000 36.70800 28.81800
H  0.12500 35.82900 22.40600
H  -4.18500 31.38200 22.93100
H  -3.62900 34.06400 30.84900
H  -0.81000 35.13100 30.84200
H  -2.12600 36.86100 31.60200
H  -3.49500 36.33600 30.93100
H  -2.49200 37.34200 29.92300
H  -1.05300 33.28600 31.81000
H  -1.64600 32.05000 30.63200
H  -3.29000 31.26800 32.14300
H  -3.62700 32.82000 32.78400
H  1.41600 37.92400 28.07000
H  1.57900 38.99600 26.62200
H  2.71500 37.66100 26.91000
H  1.89400 39.46600 24.62300
H  3.01100 39.22400 23.25600
H  3.31000 38.47900 24.86300
H  -0.55400 33.76800 21.02700
H  -3.31800 32.74800 20.90000
H  -1.88400 36.14700 20.88200
H  -3.01900 34.96200 20.14800
H  -1.46000 35.08800 19.46500
H  -1.27800 30.94700 22.22500
H  -0.73800 31.59400 20.72800
H  -1.84800 29.52200 20.21800
H  -3.13700 30.54900 19.89600
H  -3.06700 29.81300 21.49600
H  -5.38200 29.73600 23.94600
H  -6.78600 30.36100 24.61300
H  -5.81500 29.04100 25.51800
H  -4.24500 30.89100 30.02300
H  -7.66300 32.63300 32.09400
H  -6.32000 33.38600 32.93400
H  -6.77500 31.59700 33.16700

