158

Mg 53.67500 24.31600 45.12600
C  50.65900 25.98200 44.28500
C  52.25000 21.57000 43.69900
C  56.65300 22.76600 45.38800
C  54.95400 27.18400 46.32000
N  51.73000 23.87300 44.01600
C  50.77400 24.76800 43.65500
C  49.71700 24.06300 42.74400
C  49.91600 22.57300 43.20500
C  51.37300 22.66800 43.59500
C  48.91500 22.21900 44.28000
C  50.03500 24.20400 41.22200
C  48.80900 24.48500 40.27900
H  47.97800 23.32800 39.75800
N  54.35600 22.41500 44.63800
C  53.65200 21.46700 43.98500
C  54.42800 20.26300 43.91100
C  55.74100 20.53700 44.42600
C  55.66600 21.94500 44.80200
C  53.89200 18.98300 43.32200
C  56.90900 19.52800 44.52700
O  56.72100 18.34300 44.29400
C  58.25900 20.06900 45.12300
N  55.64500 25.03800 45.41600
C  56.63100 24.16000 45.68500
C  57.83200 24.91400 46.39600
C  57.20200 26.37500 46.57700
C  55.80600 26.15800 46.08600
C  58.48700 24.18400 47.72700
C  57.96500 27.59600 45.92500
C  58.63200 28.53900 46.98400
N  52.93100 26.19800 45.46800
C  53.54700 27.23500 46.10800
C  52.55200 28.30900 46.26600
C  51.43300 27.87800 45.50000
C  51.65400 26.58300 45.04700
C  52.79700 29.61200 46.92200
C  50.01300 28.15600 45.17200
O  49.37500 29.12100 45.51100
C  49.52200 26.92900 44.34700
C  49.20500 27.47500 42.98600
O  50.10800 27.80800 42.17600
O  47.85500 27.51700 42.82000
C  47.41100 28.25800 41.61500
H  51.73300 20.68100 43.33200
H  57.61500 22.32200 45.65000
H  55.32800 28.14600 46.67700
H  48.78600 24.56200 43.01200
H  49.84700 21.90800 42.34400
H  48.14900 21.53400 43.91500
H  48.45000 23.17700 44.51300
H  49.50500 21.75200 45.06800
H  50.48600 23.30200 40.80800
H  50.71500 25.03000 41.00900
H  49.20300 25.10900 39.47600
H  48.14100 25.14500 40.83300
H  53.83600 19.16700 42.24900
H  52.81600 18.83200 43.40700
H  54.43600 18.06700 43.55400
H  58.67900 20.89100 44.54300
H  58.97600 19.25000 45.17800
H  58.07300 20.36200 46.15600
H  58.55700 25.03100 45.59100
H  57.13900 26.45000 47.66300
H  58.91100 24.91400 48.41600
H  59.21400 23.48800 47.30700
H  57.83600 23.51700 48.29200
H  57.31700 28.14000 45.23800
H  58.84400 27.33400 45.33600
H  59.71000 28.49000 46.83300
H  58.42900 28.19400 47.99700
H  58.29500 29.57600 47.01300
H  53.34400 29.51100 47.85800
H  51.86300 30.16800 47.01200
H  53.37800 30.23200 46.23800
H  48.65600 26.53600 44.88000
H  48.17300 28.75600 41.01600
H  46.60100 28.94900 41.85100
H  47.08400 27.44700 40.96400
Mg 47.07100 24.47200 28.61700
C  47.47500 26.79100 31.19400
C  46.27200 22.06800 30.91600
C  47.55800 22.19500 26.18400
C  48.62900 26.85400 26.33200
N  46.86100 24.46700 30.82400
C  47.09100 25.51100 31.67600
C  46.75700 25.12700 33.12900
C  46.42100 23.61800 33.04100
C  46.52300 23.35200 31.54200
C  47.20700 22.69400 33.95100
C  45.59300 25.96500 33.78600
C  45.72100 26.65500 35.20400
H  44.55300 26.52300 36.24400
N  46.62000 22.55000 28.51700
C  46.25100 21.71500 29.55300
C  46.04500 20.43100 29.01800
C  46.46800 20.39500 27.67000
C  46.90700 21.79000 27.40500
C  45.55300 19.36300 29.89200
C  46.63500 19.27100 26.74800
O  46.96000 19.46200 25.56100
C  46.52500 17.84700 27.22200
N  47.88400 24.53300 26.56200
C  47.98200 23.42300 25.76800
C  48.63100 23.71500 24.44700
C  48.49800 25.27100 24.37700
C  48.39800 25.59900 25.88300
C  50.18200 23.19200 24.46800
C  47.09900 25.61700 23.57100
C  46.45600 27.05300 23.71400
N  47.89900 26.40200 28.71300
C  48.50000 27.26000 27.71700
C  48.75400 28.48800 28.27600
C  48.38900 28.30800 29.62500
C  47.83100 27.08500 29.87200
C  49.12500 29.78800 27.48200
C  48.45600 29.01800 30.88500
O  48.93300 30.08700 31.16900
C  47.84500 28.03200 31.96800
C  48.90400 27.72000 33.05300
O  49.99600 27.26500 32.77300
O  48.49600 28.06800 34.38200
C  49.35900 27.78600 35.55600
H  46.01100 21.27400 31.61900
H  47.76000 21.49300 25.37300
H  49.13800 27.48100 25.59600
H  47.68700 25.28200 33.67800
H  45.38600 23.34000 33.24200
H  47.88100 22.03300 33.40800
H  46.49400 22.16000 34.58000
H  47.87700 23.24700 34.60900
H  44.67300 25.40200 33.94300
H  45.25800 26.74400 33.10100
H  45.91700 27.70700 34.99700
H  46.58100 26.21200 35.70600
H  44.95600 18.74700 29.21900
H  44.93200 19.62800 30.74800
H  46.44200 18.79100 30.15700
H  47.28500 17.67300 27.98300
H  46.74000 17.24500 26.33800
H  45.50600 17.64700 27.55400
H  48.02000 23.20100 23.70600
H  49.24800 25.79300 23.78300
H  50.64800 23.16200 25.45300
H  50.81100 23.85000 23.86900
H  50.18400 22.16400 24.10500
H  46.33300 24.89900 23.86400
H  47.24500 25.46900 22.50100
H  45.53900 26.91000 24.28600
H  46.15300 27.57900 22.80900
H  47.23300 27.64200 24.20200
H  48.41900 29.97700 26.67300
H  50.03900 29.55000 26.93600
H  49.25200 30.69500 28.07200
H  47.05700 28.59400 32.47000
H  49.92900 26.85700 35.55000
H  48.74100 27.66500 36.44600
H  50.06800 28.61500 35.54200

