158

Mg 40.41900 8.06700 29.06500
C  41.98200 9.28400 32.04800
C  38.18700 6.57000 31.02800
C  39.07200 6.80800 26.23000
C  43.09200 9.21500 27.26200
N  40.09300 8.13800 31.30700
C  40.73900 8.82500 32.28900
C  39.96200 8.61900 33.62400
C  39.08000 7.35900 33.30100
C  39.07400 7.34400 31.76600
C  39.54800 6.07100 33.91000
C  39.11300 9.89600 33.96700
C  38.81700 10.04300 35.48000
H  39.47700 11.19600 36.19600
N  38.77700 6.89200 28.67000
C  37.96400 6.31800 29.63300
C  36.86300 5.62500 28.95500
C  37.12400 5.72300 27.53200
C  38.33300 6.52100 27.40700
C  35.70000 5.05600 29.70100
C  36.34300 5.05500 26.37900
O  36.69000 5.36600 25.24100
C  35.14300 4.19000 26.66400
N  41.12300 7.82800 27.00500
C  40.29100 7.47000 26.01400
C  40.83300 7.79000 24.52800
C  41.84200 8.87400 25.04300
C  42.14400 8.48200 26.50700
C  41.36600 6.51500 23.79300
C  41.40000 10.38800 24.69300
C  39.96400 10.86700 25.10000
N  42.18000 8.97400 29.45300
C  43.20400 9.37500 28.64300
C  44.29100 9.93800 29.42400
C  43.86100 9.91300 30.75800
C  42.55600 9.34700 30.77200
C  45.63300 10.28700 29.02500
C  44.25900 10.13600 32.10700
O  45.33000 10.55300 32.54800
C  43.00500 9.92200 33.02400
C  43.28700 8.98000 34.16200
O  43.42100 7.75300 34.08000
O  43.43000 9.73100 35.29100
C  43.84700 8.91800 36.54000
H  37.49100 6.02500 31.66900
H  38.57900 6.52800 25.29600
H  43.86400 9.75400 26.70900
H  40.68400 8.40300 34.41100
H  38.12300 7.71700 33.68000
H  40.58300 6.25100 34.20100
H  39.51400 5.23800 33.20900
H  38.97300 5.90700 34.82200
H  38.15800 9.86300 33.44200
H  39.67500 10.73200 33.55100
H  39.02600 9.10200 35.98900
H  37.76300 10.14900 35.73800
H  34.75900 5.46400 29.33400
H  35.91500 5.28400 30.74500
H  35.78100 3.97000 29.75400
H  35.22500 3.48300 27.49000
H  34.99400 3.78700 25.66300
H  34.28100 4.83300 26.83900
H  40.07600 8.22400 23.87500
H  42.60600 8.71800 24.28200
H  40.73000 6.28800 22.93800
H  41.39300 5.63700 24.43800
H  42.37000 6.69900 23.40900
H  41.46800 10.67300 23.64300
H  42.12300 11.02900 25.19800
H  39.39900 10.07100 25.58500
H  39.44900 11.19300 24.19700
H  39.99800 11.74900 25.73900
H  45.83700 9.67600 28.14600
H  46.34200 9.97400 29.79200
H  45.71900 11.35300 28.81200
H  42.66300 10.87900 33.41700
H  42.96600 8.44800 36.97800
H  44.45000 9.46600 37.26300
H  44.51100 8.11000 36.23300
Mg -8.78700 40.30200 43.07100
C  -8.03300 37.00700 41.79900
C  -5.83300 41.39300 41.62000
C  -9.86500 43.53600 43.51600
C  -11.75800 39.14400 44.30500
N  -7.21800 39.29600 41.69700
C  -7.11200 37.99100 41.37600
C  -5.75100 37.69200 40.71700
C  -5.02700 39.04700 40.89200
C  -6.09000 40.02100 41.40500
C  -3.78400 39.04800 41.81900
C  -5.81700 37.25700 39.16300
C  -5.18600 35.93600 38.80900
H  -3.98700 36.21100 37.85700
N  -7.97500 42.20200 42.69600
C  -6.69200 42.43500 42.06400
C  -6.48800 43.90800 42.03500
C  -7.60700 44.53800 42.60800
C  -8.59200 43.44300 42.94900
C  -5.20800 44.62700 41.46000
C  -7.83000 45.96200 42.76800
O  -7.00900 46.72600 42.21700
C  -8.90700 46.63400 43.62700
N  -10.57400 41.24800 43.70000
C  -10.73000 42.54100 43.92500
C  -12.02200 42.78100 44.60200
C  -12.74800 41.38200 44.77200
C  -11.61800 40.52400 44.27400
C  -11.88700 43.50900 45.99200
C  -14.14400 41.20200 44.07100
C  -15.22200 40.90700 45.08900
N  -9.68300 38.49200 43.15000
C  -10.88400 38.14800 43.80200
C  -11.12100 36.69800 43.72700
C  -10.00600 36.22500 42.98000
C  -9.22900 37.35700 42.57400
C  -12.27200 35.92600 44.19000
C  -9.49800 35.05100 42.34400
O  -9.82800 33.88000 42.54800
C  -8.19500 35.46200 41.61800
C  -7.03100 34.69700 42.06100
O  -6.46400 34.79800 43.12900
O  -6.84700 33.76400 41.08400
C  -5.61300 32.93800 41.31800
H  -4.83600 41.72600 41.32500
H  -10.20100 44.54300 43.77000
H  -12.66300 38.80100 44.81100
H  -5.26100 36.90300 41.28700
H  -4.69900 39.35700 39.89900
H  -4.08800 39.40400 42.80300
H  -3.01500 39.74800 41.49400
H  -3.48800 38.00000 41.85500
H  -5.33900 38.06000 38.60200
H  -6.88400 37.20400 38.94500
H  -5.86100 35.22500 38.33200
H  -4.71100 35.49900 39.68700
H  -5.42100 45.06400 40.48400
H  -4.40400 43.89100 41.44100
H  -4.80300 45.40100 42.11200
H  -8.65300 47.69100 43.69600
H  -9.08100 46.13900 44.58300
H  -9.85600 46.56300 43.09500
H  -12.64400 43.45900 44.01700
H  -12.77100 41.05900 45.81300
H  -10.84300 43.72300 46.21700
H  -12.20900 42.84500 46.79500
H  -12.39300 44.47400 46.01900
H  -14.21800 40.51400 43.22900
H  -14.40800 42.14200 43.58700
H  -15.47900 41.67600 45.81800
H  -14.86600 40.04300 45.65000
H  -16.15700 40.52600 44.67600
H  -13.16300 36.55500 44.20700
H  -12.11700 35.32800 45.08800
H  -12.33600 35.18400 43.39400
H  -8.37000 35.25200 40.56300
H  -4.80100 33.66500 41.33400
H  -5.40700 32.46000 40.36000
H  -5.64400 32.33200 42.22300

