158

Mg 24.73900 -4.48800 45.71700
C  26.73000 -2.09200 43.90000
C  22.02500 -3.28800 43.81000
C  23.10800 -7.21800 46.62500
C  27.71600 -5.73100 46.95100
N  24.52900 -2.91500 44.05000
C  25.45100 -2.11100 43.43100
C  24.79600 -1.24500 42.32800
C  23.24800 -1.48500 42.54000
C  23.22200 -2.61500 43.58200
C  22.29600 -0.28000 43.10500
C  25.38100 -1.59600 40.89700
C  25.92300 -0.41600 40.07500
H  25.66600 -0.56400 38.55000
N  22.78900 -5.12900 45.32500
C  21.82100 -4.47800 44.62700
C  20.68100 -5.31200 44.66300
C  20.89600 -6.46100 45.47700
C  22.31200 -6.31900 45.86200
C  19.45800 -4.91600 43.86300
C  19.87300 -7.53800 45.88500
O  18.75200 -7.67400 45.36700
C  20.10200 -8.52600 46.95800
N  25.32000 -6.16500 46.79400
C  24.47300 -7.23300 47.06500
C  25.18000 -8.45000 47.62600
C  26.62500 -7.89900 47.96100
C  26.60100 -6.55100 47.19100
C  24.41700 -9.02000 48.88700
C  27.73700 -8.92000 47.52400
C  28.61300 -9.48300 48.70100
N  26.74600 -3.90400 45.75900
C  27.79500 -4.49700 46.32300
C  28.93900 -3.63300 46.23900
C  28.63300 -2.72000 45.19300
C  27.26100 -2.89600 44.95200
C  30.24400 -3.76700 47.02500
C  29.08900 -1.65200 44.39100
O  30.12400 -1.06700 44.37500
C  27.85000 -1.30400 43.44600
C  27.56500 0.15300 43.65400
O  27.06700 0.71400 44.61800
O  28.10400 0.88000 42.61500
C  28.18600 2.38500 42.66400
H  21.11200 -2.92400 43.33500
H  22.52000 -8.10200 46.88200
H  28.70900 -6.01200 47.30700
H  25.02500 -0.21800 42.61100
H  22.98500 -1.84700 41.54600
H  21.56800 -0.61600 43.84400
H  21.65100 0.13900 42.33300
H  22.89500 0.57200 43.42500
H  24.67700 -2.08200 40.22100
H  26.13800 -2.37500 40.99500
H  26.97600 -0.26000 40.31200
H  25.33000 0.41900 40.44900
H  19.50900 -5.15200 42.80000
H  19.15800 -3.86800 43.87700
H  18.53000 -5.39300 44.17700
H  19.16900 -9.02300 47.22300
H  20.45900 -7.89300 47.77100
H  20.77700 -9.33600 46.68200
H  25.18100 -9.27900 46.91900
H  26.77600 -7.76800 49.03200
H  25.01500 -8.92100 49.79300
H  24.12400 -10.05800 48.73300
H  23.44000 -8.55100 49.00900
H  28.42000 -8.41000 46.84400
H  27.30900 -9.74000 46.94700
H  28.85000 -10.54200 48.60300
H  28.00400 -9.36600 49.59800
H  29.50500 -8.86600 48.80500
H  30.82100 -4.53300 46.50700
H  30.04200 -4.21100 47.99900
H  30.79200 -2.82500 46.97500
H  28.19600 -1.53200 42.43800
H  28.31400 2.64800 41.61400
H  29.06300 2.59100 43.27700
H  27.31600 2.91300 43.05700
Mg 47.91700 36.11600 27.87100
C  46.29000 34.29000 30.26200
C  48.05600 38.78600 29.77300
C  49.51600 37.72400 25.28900
C  47.78400 33.15900 25.77300
N  47.21100 36.46600 29.77500
C  46.66600 35.58300 30.67500
C  46.54200 36.18800 32.07400
C  46.98700 37.64700 31.83700
C  47.40800 37.67400 30.37400
C  45.74000 38.60700 32.04300
C  47.36300 35.42900 33.17500
C  48.79200 36.00200 33.67300
H  48.81700 36.79600 34.93500
N  48.77600 37.95600 27.58100
C  48.68700 38.93800 28.55200
C  49.43700 40.14100 28.09000
C  49.91900 39.83500 26.73400
C  49.40300 38.42400 26.49100
C  49.62100 41.31200 28.95300
C  50.72400 40.68900 25.75500
O  51.14000 40.21300 24.68100
C  51.07200 42.06300 26.13200
N  48.57100 35.51800 25.85600
C  49.17300 36.39300 25.00500
C  49.66400 35.69000 23.65700
C  49.01200 34.33500 23.85900
C  48.34800 34.31300 25.22600
C  49.14300 36.30800 22.40100
C  50.00100 33.13600 23.80200
C  49.72400 32.12100 22.64700
N  47.08400 34.20400 27.83200
C  47.11100 33.15400 26.97300
C  46.25100 32.16200 27.49300
C  45.86000 32.58200 28.71700
C  46.45700 33.80400 28.97100
C  46.07700 30.74500 26.92800
C  45.16900 32.23300 29.95400
O  44.44800 31.18500 30.17800
C  45.44000 33.26200 31.01000
C  46.06300 32.64600 32.23200
O  47.20900 32.32400 32.37800
O  45.09800 32.43500 33.16000
C  45.52300 32.04200 34.55600
H  48.08200 39.66400 30.42200
H  49.91200 38.35400 24.48900
H  47.62200 32.25800 25.17800
H  45.47800 36.14600 32.30800
H  47.77900 38.07000 32.45500
H  45.57800 38.82800 33.09800
H  44.92300 38.33400 31.37600
H  46.01600 39.58900 31.65800
H  47.73200 34.44300 32.89300
H  46.71700 35.13100 34.00100
H  49.29100 36.52000 32.85400
H  49.26500 35.07400 33.99300
H  50.57800 41.79900 28.76600
H  49.44300 41.03300 29.99100
H  48.81000 41.96900 28.64100
H  50.21600 42.70700 26.33400
H  51.66200 42.44600 25.30000
H  51.74300 42.08400 26.99100
H  50.75200 35.65400 23.60200
H  48.18500 34.11900 23.18200
H  49.83000 37.12600 22.18400
H  48.18800 36.81900 22.52600
H  49.19500 35.61400 21.56200
H  50.11500 32.57700 24.73100
H  50.99500 33.53200 23.59000
H  50.30400 31.20000 22.59300
H  49.76400 32.51000 21.63000
H  48.69700 31.77000 22.54500
H  45.85200 30.89300 25.87200
H  45.32300 30.20600 27.50200
H  47.05300 30.25900 26.92400
H  44.46300 33.70300 31.20600
H  46.59200 31.84400 34.62700
H  44.96200 31.17500 34.90400
H  45.23900 32.90600 35.15600

