158

Mg 2.96200 -1.80100 45.76100
C  6.26100 -0.72200 44.94900
C  1.69900 0.61000 43.47000
C  0.11700 -3.32100 45.96300
C  4.55700 -4.25400 47.64000
N  3.94400 -0.34000 44.27500
C  5.25700 -0.00600 44.25100
C  5.42700 1.07500 43.24800
C  4.02800 1.72600 43.14300
C  3.16700 0.61000 43.59600
C  3.80400 3.04300 43.97500
C  6.15600 0.58500 41.94800
C  7.55400 1.26900 41.67700
H  7.73000 2.05900 40.42200
N  1.11300 -1.42800 44.84700
C  0.80700 -0.39500 44.01400
C  -0.61900 -0.43900 43.76600
C  -1.16500 -1.51700 44.43700
C  0.01100 -2.18200 45.06800
C  -1.38100 0.54500 42.85800
C  -2.56200 -2.03200 44.27000
O  -3.40800 -1.40200 43.68800
C  -2.98500 -3.32300 44.81300
N  2.43900 -3.60500 46.59300
C  1.13700 -4.01200 46.57500
C  0.90100 -5.31800 47.39300
C  2.31600 -5.57100 48.03400
C  3.16300 -4.44200 47.41800
C  -0.29700 -5.18400 48.43800
C  2.92100 -6.97800 47.91800
C  2.95300 -7.87500 49.20900
N  4.99200 -2.33600 46.32100
C  5.41900 -3.33400 47.08300
C  6.90300 -3.36900 47.23600
C  7.27100 -2.30800 46.44700
C  6.09600 -1.80000 45.81800
C  7.80700 -4.34300 47.93800
C  8.36400 -1.35100 46.10800
O  9.50800 -1.18400 46.55700
C  7.78300 -0.39800 45.05100
C  7.95600 0.99300 45.63500
O  7.22800 1.48800 46.47100
O  9.16200 1.57000 45.10200
C  9.26100 2.98000 45.49900
H  1.29700 1.43300 42.87500
H  -0.83500 -3.83100 46.12300
H  4.97500 -4.88900 48.42300
H  6.05300 1.83900 43.70900
H  3.77100 1.96100 42.11000
H  3.13100 2.85500 44.81200
H  3.33800 3.75400 43.29300
H  4.73600 3.41200 44.40400
H  5.53100 0.48800 41.06100
H  6.32200 -0.48700 42.05900
H  8.19300 0.38600 41.69100
H  7.73500 1.89700 42.54900
H  -0.86900 1.47700 42.61600
H  -2.24400 0.97800 43.36300
H  -1.56900 0.06000 41.90000
H  -2.98100 -3.21700 45.89800
H  -2.21200 -4.01900 44.48800
H  -4.00000 -3.53400 44.47600
H  0.61500 -6.00200 46.59400
H  2.17700 -5.30300 49.08100
H  -0.62500 -4.14500 48.41300
H  0.02200 -5.54300 49.41700
H  -1.08900 -5.75700 47.95600
H  3.90900 -6.90300 47.46400
H  2.23700 -7.51800 47.26300
H  2.45300 -8.78300 48.87200
H  2.34100 -7.63700 50.07900
H  3.97000 -8.13000 49.50800
H  8.27500 -3.81400 48.76800
H  8.49700 -4.71200 47.17900
H  7.19600 -5.11500 48.40600
H  8.24500 -0.54900 44.07500
H  8.97700 3.03400 46.55000
H  8.60000 3.56300 44.85700
H  10.26600 3.39600 45.42700
Mg 9.71000 48.04900 26.62600
C  7.66300 48.19100 29.51800
C  12.19000 49.58400 28.53600
C  11.54800 48.02400 23.91100
C  6.83100 47.49800 24.71700
N  9.88100 48.88500 28.81000
C  8.97800 48.55300 29.77100
C  9.61200 48.91300 31.15300
C  10.76200 49.88700 30.74500
C  11.00100 49.43400 29.32000
C  10.43800 51.40400 30.90500
C  10.14800 47.72400 32.00500
C  9.92000 47.98700 33.48200
H  9.69900 46.81100 34.40700
N  11.62200 48.55800 26.31100
C  12.53500 49.09700 27.25100
C  13.86900 49.03600 26.59000
C  13.71000 48.65400 25.26100
C  12.22700 48.38800 25.06900
C  15.06600 49.38500 27.36900
C  14.79200 48.56100 24.15100
O  14.49000 48.29600 22.95900
C  16.21000 48.76200 24.48900
N  9.23000 47.99300 24.61100
C  10.16500 47.98300 23.65200
C  9.56500 47.76200 22.25300
C  8.09000 47.49100 22.46300
C  8.06400 47.57700 24.07100
C  9.78200 48.95300 21.26700
C  7.46600 46.18200 21.91300
C  7.41400 46.06700 20.39600
N  7.67500 47.82500 26.99700
C  6.59500 47.64200 26.08400
C  5.31800 47.56300 26.81900
C  5.74400 47.86100 28.13300
C  7.12700 47.96600 28.24900
C  3.99200 47.13300 26.28500
C  5.28900 47.93300 29.54800
O  4.18000 47.96300 30.10200
C  6.53900 48.02200 30.45300
C  6.58200 46.76700 31.31200
O  7.48000 45.92700 31.25100
O  5.54000 46.65800 32.15400
C  5.61000 45.73400 33.27900
H  12.99700 50.06700 29.09100
H  12.16300 47.82300 23.03100
H  5.91700 47.42700 24.12300
H  8.94600 49.50700 31.77900
H  11.66300 49.64600 31.30900
H  10.02000 51.67500 31.87500
H  9.74600 51.60600 30.08800
H  11.30500 51.99200 30.60200
H  11.22100 47.67600 31.81700
H  9.72000 46.75400 31.74800
H  9.00700 48.58200 33.51000
H  10.70900 48.58800 33.93300
H  15.78800 48.57200 27.29300
H  15.01500 49.56900 28.44200
H  15.44900 50.35900 27.06300
H  16.23400 49.72000 25.00900
H  16.83700 48.96400 23.62000
H  16.62200 47.95400 25.09500
H  10.01200 46.84800 21.85900
H  7.44900 48.30600 22.12700
H  8.86900 49.26400 20.75800
H  10.49800 48.61800 20.51700
H  10.33000 49.83000 21.61100
H  6.46100 45.99200 22.29100
H  8.03900 45.39600 22.40400
H  6.44800 45.61900 20.16200
H  8.09300 45.25200 20.14600
H  7.59900 46.96800 19.81200
H  3.60900 48.00900 25.76200
H  3.27600 46.98500 27.09400
H  4.12500 46.18900 25.75800
H  6.43200 48.92300 31.05600
H  6.44800 45.03700 33.27900
H  4.65300 45.23700 33.43700
H  5.83600 46.48400 34.03700

