158

Mg 27.58800 56.39200 40.30500
C  25.41000 53.84900 39.79200
C  30.18900 54.26600 39.56200
C  29.71400 59.09600 40.31400
C  24.94300 58.48700 40.92500
N  27.69400 54.36000 39.57700
C  26.71500 53.44100 39.48000
C  27.15800 52.12400 38.96400
C  28.72500 52.20800 39.16400
C  28.89200 53.72500 39.48100
C  29.16500 51.31000 40.34000
C  26.70300 51.80300 37.46800
C  27.30400 52.60900 36.36100
H  26.40200 53.64100 35.57800
N  29.65700 56.60100 39.84400
C  30.56000 55.61300 39.74300
C  31.88800 56.24300 39.68600
C  31.73300 57.61600 39.83900
C  30.29800 57.85800 40.00900
C  33.14600 55.45200 39.41900
C  32.92200 58.57800 39.78300
O  34.00800 58.24300 39.33500
C  32.66200 59.95400 40.18200
N  27.33200 58.54800 40.35900
C  28.35500 59.46100 40.49400
C  27.73700 60.82300 41.03700
C  26.20800 60.63700 40.87700
C  26.14400 59.11900 40.74500
C  28.19600 61.07400 42.46900
C  25.46300 61.36500 39.77700
C  24.75000 62.60800 40.25000
N  25.58500 56.22400 40.43200
C  24.62900 57.11200 40.79700
C  23.35000 56.47900 40.96400
C  23.56500 55.19100 40.47300
C  24.93400 55.12400 40.13500
C  22.04700 57.03100 41.49100
C  22.94700 53.94100 40.14100
O  21.77900 53.62600 40.19000
C  24.12300 52.99300 39.67400
C  24.14500 51.62900 40.35600
O  23.65400 50.59900 39.88000
O  24.74700 51.69800 41.59400
C  24.70200 50.39500 42.32800
H  30.96500 53.52300 39.36400
H  30.25800 60.03900 40.40300
H  24.11500 59.11100 41.26900
H  26.59600 51.45200 39.61200
H  29.26600 51.88400 38.27500
H  29.48000 50.32500 39.99700
H  28.33000 51.35600 41.04000
H  30.08100 51.73400 40.75200
H  25.61400 51.75600 37.42800
H  26.92100 50.77800 37.17000
H  27.82200 52.05300 35.58100
H  28.14700 53.18200 36.74800
H  33.03900 54.36800 39.46800
H  33.98800 55.54000 40.10500
H  33.58400 55.62000 38.43500
H  32.32700 60.10800 41.20800
H  32.10300 60.33900 39.33000
H  33.56400 60.55100 40.04200
H  28.02400 61.65900 40.39900
H  25.80500 60.72400 41.88600
H  27.59400 61.76000 43.06600
H  29.25200 61.33700 42.40800
H  28.13300 60.09400 42.94200
H  24.80800 60.73300 39.17800
H  26.17600 61.76700 39.05800
H  24.90600 62.80200 41.31100
H  23.68000 62.55800 40.04900
H  25.13100 63.51200 39.77400
H  21.33500 57.27800 40.70400
H  22.18500 57.86000 42.18600
H  21.57200 56.22800 42.05400
H  24.07200 52.64300 38.64300
H  23.77100 50.24800 42.87600
H  25.53800 50.46100 43.02400
H  24.96900 49.56000 41.68100
Mg -3.13700 34.89100 27.03900
C  -4.82400 32.96000 29.41200
C  -2.35400 37.14900 29.62600
C  -1.49500 36.71900 24.83100
C  -4.17200 32.78200 24.58500
N  -3.53900 35.10500 29.28100
C  -4.16800 34.07600 30.00800
C  -4.11900 34.36200 31.53800
C  -3.54300 35.89600 31.55800
C  -3.11400 36.06200 30.06600
C  -4.67700 36.94900 31.87000
C  -3.07800 33.27000 32.15900
C  -3.47400 32.96500 33.59700
H  -2.81300 33.77200 34.75800
N  -1.99000 36.67200 27.25200
C  -1.75900 37.44800 28.40900
C  -0.79400 38.45700 28.02000
C  -0.63200 38.37500 26.56300
C  -1.41100 37.21200 26.15300
C  -0.25400 39.56200 29.04300
C  0.16700 39.28100 25.71800
O  0.18400 39.23800 24.47000
C  0.96700 40.33000 26.40000
N  -2.94200 34.85400 24.98200
C  -2.14700 35.59500 24.30800
C  -1.91100 35.17000 22.83800
C  -2.59000 33.81100 22.91900
C  -3.31100 33.82200 24.24000
C  -2.59000 36.06200 21.72400
C  -1.60600 32.58900 22.91600
C  -1.75200 31.67200 21.64400
N  -4.28800 33.19200 27.00200
C  -4.62200 32.46100 25.89600
C  -5.59900 31.39600 26.25000
C  -5.61000 31.47100 27.68200
C  -4.81300 32.64300 28.04200
C  -6.20000 30.39000 25.43700
C  -6.16300 30.86600 28.91900
O  -6.91800 29.90500 29.07200
C  -5.60700 31.75800 30.08800
C  -6.78000 32.19700 30.90100
O  -7.68300 32.93300 30.61000
O  -6.76500 31.52600 32.06200
C  -7.87500 31.92000 33.03900
H  -1.98900 37.80900 30.41600
H  -0.83800 37.26500 24.15200
H  -4.49400 32.15000 23.75500
H  -5.12100 34.33400 31.96600
H  -2.70400 36.08700 32.22700
H  -5.49600 36.41000 32.34700
H  -5.06100 37.52900 31.03000
H  -4.30100 37.72300 32.53900
H  -2.02100 33.52800 32.22400
H  -3.03900 32.47900 31.40900
H  -3.23400 31.91100 33.73700
H  -4.49400 33.06400 33.96900
H  -0.79800 40.46800 28.78000
H  0.81200 39.77900 28.97300
H  -0.51900 39.26300 30.05700
H  0.31200 41.04500 26.89900
H  1.50500 40.87900 25.62700
H  1.74200 39.90000 27.03300
H  -0.86700 35.04000 22.55100
H  -3.37700 33.61200 22.19100
H  -3.46800 36.47400 22.22200
H  -2.88000 35.51900 20.82500
H  -1.94300 36.86500 21.37100
H  -1.65000 31.99900 23.83100
H  -0.56900 32.92500 22.88700
H  -0.91100 31.63200 20.95200
H  -2.54300 32.06500 21.00600
H  -2.05600 30.64600 21.85200
H  -6.35700 30.93200 24.50500
H  -7.10200 29.95500 25.86800
H  -5.47700 29.58000 25.33500
H  -4.93500 31.19300 30.73400
H  -8.85400 32.03300 32.57200
H  -7.50500 32.79700 33.57200
H  -8.13600 31.19000 33.80500

