158

Mg 47.85800 25.25500 28.68800
C  48.58400 27.53100 31.17400
C  47.13800 22.87300 31.27100
C  47.25400 23.08200 26.26000
C  49.00400 27.55400 26.34600
N  47.62700 25.27200 30.99600
C  47.99800 26.39200 31.77200
C  47.68800 26.20900 33.23700
C  47.37100 24.64400 33.26000
C  47.40200 24.17900 31.73400
C  48.25900 23.77700 34.11600
C  46.56800 27.23200 33.87200
C  47.00700 28.12800 35.07200
H  46.06400 28.40300 36.28300
N  47.16200 23.21100 28.75600
C  46.98100 22.44100 29.92400
C  46.60700 21.11100 29.46000
C  46.61000 21.13800 28.02000
C  46.96200 22.51700 27.59200
C  46.29800 19.97700 30.40600
C  46.28600 19.94600 27.08000
O  46.43700 20.02000 25.90400
C  45.97400 18.67100 27.59900
N  48.09400 25.37700 26.58700
C  47.77600 24.33700 25.77900
C  48.07100 24.59400 24.26400
C  48.40700 26.10800 24.27700
C  48.56800 26.40900 25.79900
C  49.12100 23.66300 23.61600
C  47.47200 27.08400 23.57300
C  48.02100 28.01100 22.44300
N  48.79000 27.11600 28.70300
C  49.09600 27.95000 27.70400
C  49.54000 29.25100 28.22600
C  49.37000 29.12600 29.61800
C  48.88800 27.80000 29.82700
C  50.05900 30.40300 27.45400
C  49.49800 29.86400 30.81300
O  49.87100 30.96100 31.13000
C  49.05300 28.80100 31.87100
C  50.19700 28.51300 32.81600
O  51.17800 27.82600 32.51200
O  49.88300 29.10000 34.04400
C  51.04000 29.05800 35.00500
H  47.00600 22.13100 32.06200
H  47.11400 22.27800 25.53500
H  49.26000 28.31900 25.61000
H  48.56200 26.44300 33.84500
H  46.32100 24.66600 33.55100
H  48.78200 23.01200 33.54200
H  47.66400 23.24600 34.85800
H  49.06800 24.41400 34.47500
H  45.73300 26.68700 34.31200
H  46.24700 27.80100 33.00000
H  47.08400 29.10900 34.60400
H  48.05000 27.98300 35.35400
H  47.02200 19.21100 30.12800
H  45.27100 19.64000 30.26400
H  46.53800 20.21900 31.44200
H  46.90000 18.38000 28.09500
H  45.62200 18.08000 26.75400
H  45.11000 18.91300 28.21800
H  47.10100 24.57100 23.76600
H  49.40400 26.12800 23.83700
H  49.62900 24.05300 22.73300
H  48.72900 22.72700 23.21900
H  49.86300 23.35700 24.35300
H  47.08800 27.75100 24.34500
H  46.57400 26.53700 23.28600
H  47.86300 29.08800 22.49600
H  47.57900 27.67000 21.50600
H  49.09700 27.91700 22.30000
H  49.63700 31.30900 27.88700
H  49.73800 30.21000 26.43000
H  51.14700 30.37900 27.50800
H  48.22300 29.08400 32.51900
H  50.84700 28.37300 35.83100
H  51.16300 30.04600 35.45000
H  51.99300 28.97200 34.48300
Mg 26.66100 50.21200 26.27700
C  25.04300 51.85100 28.91500
C  29.18400 49.29700 28.63000
C  28.66100 49.16000 23.75600
C  24.56600 51.84900 24.13600
N  27.01400 50.53700 28.52700
C  26.13100 51.14000 29.35600
C  26.53300 50.91300 30.79900
C  28.00000 50.34000 30.68800
C  28.07500 49.97400 29.18900
C  29.12600 51.28400 31.20400
C  25.46400 49.92300 31.44600
C  24.89000 50.43300 32.81700
H  25.74300 50.94300 33.95100
N  28.57500 49.19600 26.23100
C  29.44900 48.94400 27.28200
C  30.56500 48.22700 26.74700
C  30.50900 48.27900 25.32200
C  29.19600 48.89500 25.05300
C  31.75500 47.81900 27.60800
C  31.67500 47.99700 24.28700
O  31.49500 48.04200 23.10500
C  33.08900 47.71400 24.68900
N  26.71300 50.60800 24.26000
C  27.53400 49.88100 23.43400
C  27.05200 49.89600 21.99300
C  25.66400 50.73500 22.18200
C  25.61200 51.08800 23.63200
C  28.10400 50.40200 21.02700
C  24.27500 50.20200 21.60300
C  23.57300 51.10200 20.52400
N  25.04000 51.56300 26.41500
C  24.29200 52.20700 25.50000
C  23.22900 52.99200 26.07300
C  23.49000 52.90200 27.50400
C  24.62000 52.03800 27.60500
C  22.20000 53.82200 25.43800
C  23.09000 53.35200 28.80600
O  22.20500 54.05600 29.12800
C  24.15200 52.70400 29.82400
C  24.77900 53.73500 30.69300
O  25.85100 54.27500 30.50400
O  23.93400 54.01300 31.67300
C  24.49000 54.98100 32.62300
H  29.85300 48.93900 29.41500
H  29.23700 48.76500 22.91700
H  23.77500 52.22000 23.48200
H  26.44100 51.87800 31.29900
H  28.14500 49.35200 31.12400
H  28.74600 52.29700 31.33600
H  29.95400 51.44800 30.51300
H  29.48000 50.91300 32.16700
H  25.83700 48.90500 31.56400
H  24.58800 49.86000 30.80000
H  24.31300 49.54100 33.06100
H  24.22900 51.25300 32.53700
H  31.95100 46.75100 27.50900
H  31.63100 48.09900 28.65400
H  32.62700 48.44200 27.41300
H  33.49700 48.71300 24.83800
H  33.63900 47.20200 23.89900
H  33.16200 47.16000 25.62500
H  26.77500 48.87100 21.74800
H  25.87700 51.71700 21.76000
H  28.71600 49.73100 20.42400
H  28.71700 51.01900 21.68300
H  27.55300 51.08300 20.37800
H  23.57000 50.21200 22.43300
H  24.31000 49.16800 21.26200
H  22.70200 51.52000 21.03000
H  23.29200 50.50200 19.65800
H  24.26300 51.93500 20.38800
H  21.20300 53.41500 25.60900
H  22.29900 53.74600 24.35500
H  22.24300 54.83000 25.85000
H  23.60800 52.02000 30.47500
H  24.93600 55.83700 32.11700
H  25.17200 54.40000 33.24400
H  23.81200 55.35900 33.38700

