158

Mg 0.89300 8.45700 25.69800
C  1.75000 10.40900 28.46200
C  1.12400 5.70800 27.63900
C  0.50000 6.57000 22.87000
C  1.23200 11.27700 23.71500
N  1.35000 8.05400 27.79300
C  1.56800 9.04500 28.78100
C  1.34700 8.40700 30.16500
C  1.47600 6.87900 29.89100
C  1.28600 6.85700 28.35400
C  2.83800 6.24600 30.20400
C  -0.03800 8.74500 30.85000
C  -0.15200 8.62500 32.40100
H  1.08000 8.25300 33.26400
N  0.78300 6.40600 25.28100
C  0.93400 5.42400 26.28400
C  0.75800 4.11900 25.60800
C  0.52100 4.29800 24.25400
C  0.59700 5.79000 24.03200
C  0.84100 2.84200 26.43900
C  0.34300 3.35500 23.10100
O  0.31100 3.74100 21.95300
C  0.25300 1.87600 23.40900
N  1.04200 8.82300 23.57100
C  0.68900 7.89200 22.66900
C  0.72500 8.42000 21.28900
C  0.83600 9.98700 21.48600
C  1.12500 10.07000 23.00800
C  1.75600 7.82000 20.32000
C  -0.39200 10.86000 21.03000
C  -1.52200 10.96400 21.98400
N  1.39300 10.38500 25.98100
C  1.36100 11.45200 25.09300
C  1.58200 12.72900 25.77100
C  1.73200 12.32000 27.10400
C  1.62100 10.93100 27.15700
C  1.74300 14.06100 25.19100
C  1.97600 12.86300 28.50300
O  2.25000 13.95300 28.90800
C  1.83300 11.54400 29.34500
C  3.01400 11.36700 30.23700
O  4.08000 11.02200 29.87200
O  2.63900 11.61600 31.54000
C  3.77300 11.50600 32.46500
H  1.03800 4.85600 28.31700
H  0.31600 6.06100 21.92100
H  1.13000 12.22000 23.17400
H  2.06900 8.68500 30.93300
H  0.62100 6.37200 30.33900
H  2.54500 5.61700 31.04500
H  3.50500 7.02600 30.57300
H  3.24800 5.53400 29.48800
H  -0.74000 7.96400 30.55900
H  -0.34400 9.70200 30.42700
H  -0.93900 7.92100 32.67100
H  -0.49500 9.60200 32.74000
H  -0.16300 2.45100 26.60400
H  1.38800 2.97700 27.37200
H  1.47800 2.13400 25.91000
H  -0.08900 1.26200 22.57600
H  -0.58300 1.82900 24.10800
H  1.16500 1.44400 23.82000
H  -0.28400 8.11100 21.01800
H  1.73600 10.49300 21.13600
H  2.44100 7.07900 20.73300
H  2.37400 8.69700 20.13000
H  1.28000 7.47500 19.40200
H  -0.60400 10.35100 20.09000
H  -0.04500 11.85800 20.76400
H  -1.53100 10.18500 22.74600
H  -2.40600 10.76700 21.37600
H  -1.59200 11.90700 22.52600
H  2.47200 14.03700 24.38100
H  1.98600 14.75000 26.00000
H  0.76000 14.39000 24.85400
H  1.03300 11.71400 30.06500
H  4.53600 12.27800 32.36200
H  4.11300 10.47300 32.39300
H  3.35400 11.62400 33.46400
Mg 48.16000 34.69400 27.04000
C  46.46000 33.22500 29.71100
C  48.25500 37.72800 28.93400
C  48.95000 36.38500 24.29000
C  47.44400 31.82300 25.15200
N  47.64100 35.32000 29.16800
C  47.16600 34.39700 30.09100
C  47.29500 35.03300 31.41400
C  47.38800 36.60500 31.18900
C  47.81800 36.61000 29.70900
C  46.15100 37.37200 31.35600
C  48.56700 34.38400 32.05500
C  48.77800 34.63600 33.61300
H  47.79400 35.51400 34.38300
N  48.56100 36.73400 26.65400
C  48.53300 37.79900 27.51000
C  48.95000 38.98400 26.83800
C  49.15600 38.68900 25.48700
C  48.89200 37.23500 25.43100
C  49.16500 40.26100 27.54400
C  49.68200 39.58300 24.33500
O  49.62000 39.15700 23.14500
C  50.11000 41.05300 24.60800
N  48.16200 34.16500 24.96400
C  48.61900 35.02300 24.10700
C  48.91100 34.31800 22.73000
C  48.62400 32.76100 23.04100
C  48.01700 32.88500 24.45900
C  48.05500 35.01500 21.62000
C  49.79100 31.77800 22.73600
C  49.44900 30.34100 22.54000
N  47.21900 32.83000 27.28700
C  47.05500 31.72700 26.48700
C  46.40700 30.65600 27.20600
C  46.01500 31.26200 28.41000
C  46.58400 32.61800 28.44200
C  46.18700 29.29000 26.65000
C  45.31700 31.03700 29.67600
O  44.69800 30.01700 30.00600
C  45.46300 32.31100 30.47500
C  45.76200 31.97300 31.89800
O  46.75600 31.36600 32.33600
O  44.72500 32.43700 32.61300
C  44.60300 32.28800 34.03000
H  48.18200 38.68000 29.46500
H  49.28200 36.92400 23.40100
H  47.40400 30.90000 24.56900
H  46.48700 34.71500 32.07200
H  48.18500 37.04100 31.79100
H  45.28900 36.71000 31.27400
H  45.95700 38.21300 30.69000
H  46.19800 37.60700 32.41900
H  49.48200 34.76600 31.60400
H  48.59500 33.31200 31.85800
H  49.75800 35.09400 33.74400
H  48.80200 33.61200 33.98600
H  49.28200 41.08100 26.83600
H  49.94300 40.28700 28.30800
H  48.20300 40.44600 28.02200
H  50.64500 41.27500 23.68500
H  50.84500 40.99800 25.41100
H  49.19900 41.61700 24.81200
H  49.99300 34.36300 22.60900
H  47.88200 32.51700 22.28000
H  48.36900 36.04600 21.45700
H  46.97800 35.01500 21.78500
H  48.23800 34.50500 20.67400
H  50.44200 31.86700 23.60600
H  50.46700 32.23600 22.01500
H  50.17700 30.00500 21.80300
H  48.46200 30.17500 22.10800
H  49.45900 29.81300 23.49300
H  46.01100 28.70000 27.54900
H  47.03100 28.81200 26.15100
H  45.33300 29.18000 25.98200
H  44.55500 32.91000 30.40400
H  43.56700 32.03500 34.25500
H  44.82700 33.25000 34.49100
H  45.24900 31.55100 34.50600

