158

Mg 53.66700 24.55500 44.51500
C  51.17700 26.93400 43.73300
C  51.85800 22.18500 42.85000
C  56.42200 22.62800 44.60100
C  55.68500 27.33600 45.66400
N  51.70800 24.64800 43.23800
C  50.95300 25.68300 43.05200
C  49.65900 25.28400 42.31800
C  49.65600 23.63600 42.44000
C  51.16900 23.45100 42.84600
C  48.81600 23.00700 43.52700
C  49.51400 25.56900 40.79200
C  50.80400 26.00500 40.03000
H  50.52900 26.65200 38.68600
N  54.02100 22.67500 43.96500
C  53.17600 21.81400 43.32500
C  53.83000 20.52200 43.22500
C  55.06100 20.61800 43.81400
C  55.23600 22.03200 44.17600
C  53.09100 19.33700 42.56300
C  56.02200 19.44800 44.04300
O  55.75000 18.30100 43.77100
C  57.34000 19.71800 44.68100
N  55.73800 25.00300 44.96600
C  56.70200 23.96300 45.02500
C  58.09000 24.57400 45.35700
C  57.77400 26.05900 45.56900
C  56.28500 26.08600 45.39300
C  58.80600 23.78000 46.49300
C  58.49400 26.99800 44.48700
C  59.35800 27.99000 45.28300
N  53.44500 26.63600 44.79700
C  54.31300 27.60000 45.33500
C  53.57400 28.85500 45.51800
C  52.35300 28.69600 44.84700
C  52.32500 27.31000 44.46700
C  54.12700 29.98900 46.30300
C  51.07900 29.27400 44.45000
O  50.67400 30.35100 44.54900
C  50.21400 28.21600 43.77100
C  49.84000 28.70700 42.45300
O  50.57800 29.04400 41.51800
O  48.45200 28.75900 42.52400
C  47.90300 29.22200 41.22000
H  51.23000 21.38600 42.45100
H  57.36500 22.07700 44.59000
H  56.18600 28.15100 46.19100
H  48.83200 25.81800 42.78700
H  49.32000 23.12500 41.53800
H  48.24700 23.80000 44.01200
H  49.51000 22.58900 44.25600
H  48.16500 22.26100 43.06900
H  48.82900 26.41600 40.75400
H  49.00700 24.82800 40.17400
H  51.27100 25.02000 39.99700
H  51.31400 26.72800 40.66700
H  53.85500 18.98000 41.87300
H  52.17900 19.67300 42.06900
H  52.92600 18.59400 43.34300
H  57.95600 18.82300 44.76100
H  57.24900 20.05300 45.71500
H  57.86100 20.44800 44.06200
H  58.81800 24.51800 44.54800
H  58.08100 26.30500 46.58600
H  59.70200 23.38100 46.01600
H  58.11900 22.98500 46.78400
H  59.12800 24.30200 47.39400
H  57.83700 27.60200 43.86200
H  59.22100 26.55200 43.80800
H  59.80100 27.65800 46.22200
H  58.77500 28.84800 45.61700
H  60.20400 28.26400 44.65300
H  54.57400 30.78800 45.71100
H  54.82400 29.60500 47.04800
H  53.39100 30.56900 46.86000
H  49.27700 27.96400 44.26600
H  48.12500 30.28600 41.13700
H  46.82600 29.31300 41.36300
H  48.18800 28.48700 40.46700
Mg 9.92600 47.28700 26.69400
C  8.00600 47.27700 29.55700
C  12.62500 48.38900 28.41600
C  11.64700 47.30300 23.75600
C  7.04900 46.42100 24.88800
N  10.23500 47.67600 28.80100
C  9.33200 47.57100 29.83600
C  9.99400 47.87400 31.16400
C  11.33900 48.68100 30.68700
C  11.39900 48.26000 29.21900
C  11.23700 50.23000 30.75100
C  10.24600 46.57500 32.08800
C  9.68800 46.78100 33.50700
H  9.67700 45.50000 34.37900
N  11.92500 47.56900 26.17900
C  12.90700 48.07800 27.03000
C  14.14800 48.18500 26.35000
C  13.87800 47.64400 25.01900
C  12.43800 47.55600 24.90500
C  15.40500 48.77300 26.97000
C  14.87100 47.36900 23.88100
O  14.53200 47.03400 22.76400
C  16.30800 47.50500 24.04400
N  9.46500 46.84800 24.62700
C  10.31800 46.96000 23.52700
C  9.72700 46.41000 22.23700
C  8.33700 45.98800 22.70600
C  8.22800 46.47100 24.12700
C  9.73100 47.49400 21.10200
C  8.15000 44.42600 22.64200
C  9.34700 43.56500 23.10400
N  7.86200 47.01500 27.10500
C  6.87300 46.67500 26.29000
C  5.63900 46.55300 27.05200
C  6.03800 46.83500 28.38500
C  7.39200 47.08100 28.32600
C  4.27100 46.18500 26.51100
C  5.64000 47.03200 29.72500
O  4.53000 47.02200 30.20600
C  6.92700 47.15500 30.59400
C  6.93000 45.88100 31.40300
O  7.49400 44.82400 31.12000
O  6.16000 46.15100 32.48500
C  5.85500 44.91500 33.25400
H  13.47200 48.78000 28.98400
H  12.12500 47.37600 22.77700
H  6.14700 45.94900 24.49400
H  9.42400 48.58700 31.76000
H  12.22700 48.39700 31.25000
H  11.52700 50.70400 29.81400
H  12.01300 50.47800 31.47500
H  10.27500 50.66800 31.01500
H  11.33400 46.50400 32.10500
H  9.69200 45.71600 31.71100
H  8.70400 47.22100 33.34800
H  10.33200 47.50900 34.00000
H  15.94100 49.21100 26.12800
H  15.96500 47.95300 27.41900
H  15.27400 49.50000 27.77100
H  16.69400 47.04800 24.95500
H  16.50000 48.54800 23.79200
H  16.76500 46.91300 23.25100
H  10.36600 45.56900 21.96800
H  7.55600 46.50000 22.14300
H  10.26800 47.12500 20.22900
H  10.21000 48.36600 21.54800
H  8.73800 47.82100 20.79100
H  7.81800 44.10800 21.65400
H  7.24200 44.15000 23.17900
H  10.01500 43.22300 22.31400
H  8.99900 42.69700 23.66500
H  9.88900 44.16900 23.83300
H  3.79700 47.03900 26.02900
H  3.65100 46.22400 27.40700
H  4.28500 45.26100 25.93200
H  6.89700 48.04900 31.21700
H  5.95900 44.00700 32.66000
H  4.83200 44.93400 33.63000
H  6.49800 44.69700 34.10700

