158

Mg -3.35300 17.43100 26.63800
C  -3.72900 15.10500 29.28200
C  -3.20500 19.93400 28.77500
C  -3.41600 19.55900 23.94800
C  -3.94900 14.74800 24.34600
N  -3.44400 17.48200 28.66300
C  -3.55400 16.44600 29.62100
C  -3.42200 16.95200 31.06200
C  -3.30400 18.49900 30.90000
C  -3.41900 18.64000 29.34400
C  -4.43200 19.39500 31.61500
C  -2.25400 16.35000 31.99600
C  -1.88700 17.07800 33.33600
H  -2.03600 16.38300 34.67100
N  -3.33900 19.51100 26.34200
C  -3.19600 20.35900 27.41200
C  -3.13600 21.73000 26.93900
C  -3.05600 21.62900 25.52100
C  -3.22200 20.20500 25.18000
C  -3.16600 22.98600 27.78300
C  -2.77300 22.64000 24.44100
O  -2.58100 22.32400 23.23400
C  -2.64200 24.06400 24.83000
N  -3.77400 17.20800 24.45700
C  -3.65800 18.24100 23.63100
C  -3.79700 17.74000 22.09000
C  -3.88200 16.27400 22.25400
C  -3.88000 16.05000 23.76600
C  -4.99400 18.38500 21.41000
C  -2.68700 15.42800 21.52400
C  -1.24400 15.71400 22.05400
N  -3.82600 15.41800 26.71000
C  -3.87000 14.43900 25.70600
C  -3.97900 13.11400 26.28500
C  -4.05700 13.33600 27.69200
C  -3.88100 14.69200 27.94100
C  -4.09400 11.87100 25.60200
C  -4.26300 12.71900 28.96100
O  -4.36300 11.52900 29.37400
C  -4.14700 13.82300 30.08600
C  -2.99700 13.29900 30.95200
O  -1.79800 13.41000 30.76300
O  -3.49100 12.50400 31.96700
C  -2.60000 11.76600 32.85500
H  -3.10400 20.77600 29.46200
H  -3.36700 20.21000 23.07300
H  -4.11500 13.89400 23.68600
H  -4.31800 16.74100 31.64500
H  -2.35100 18.81000 31.33000
H  -5.41200 18.92300 31.68200
H  -4.55300 20.32900 31.06600
H  -4.08800 19.71000 32.60000
H  -1.35600 16.31100 31.37900
H  -2.53400 15.34700 32.31800
H  -2.56100 17.93100 33.41500
H  -0.85900 17.43900 33.30900
H  -2.22500 23.53600 27.80200
H  -3.42300 22.76900 28.82000
H  -3.85900 23.74300 27.41700
H  -3.58400 24.26300 25.34000
H  -2.44200 24.72100 23.98400
H  -1.75800 24.03800 25.46800
H  -2.89900 18.04300 21.55300
H  -4.84200 15.90600 21.88900
H  -4.66000 18.80600 20.46200
H  -5.41000 19.17800 22.03000
H  -5.78000 17.67400 21.15300
H  -2.64300 15.70500 20.47100
H  -2.96800 14.37500 21.52000
H  -0.67200 15.93300 21.15100
H  -0.71600 14.82100 22.38800
H  -1.13300 16.48300 22.81800
H  -3.44700 11.12200 26.05800
H  -3.68200 11.88300 24.59300
H  -5.12800 11.53900 25.50700
H  -5.03700 14.03600 30.67800
H  -1.91100 11.08700 32.35300
H  -3.09000 11.13900 33.60000
H  -2.10800 12.55500 33.42500
Mg 7.26500 3.13300 28.13200
C  8.55600 1.64400 31.03300
C  5.22500 5.09000 30.04900
C  5.66300 4.33500 25.27100
C  8.92700 0.81500 26.14300
N  6.96000 3.28000 30.24200
C  7.65700 2.70500 31.32400
C  7.51100 3.44200 32.64800
C  6.32700 4.44800 32.23300
C  6.12800 4.23500 30.73800
C  5.12800 4.19800 33.14600
C  8.85700 4.26200 33.01000
C  8.79300 4.92200 34.37900
H  9.58700 4.23700 35.49000
N  5.73100 4.62500 27.73800
C  4.94200 5.30600 28.66500
C  4.09300 6.23500 28.00100
C  4.30000 6.06600 26.61500
C  5.28300 4.93900 26.48800
C  3.21300 7.23500 28.74200
C  3.79900 6.84000 25.43600
O  4.23500 6.77300 24.29700
C  2.76100 7.83000 25.73900
N  7.07400 2.45100 26.07500
C  6.46000 3.18900 25.09300
C  6.64400 2.57900 23.76400
C  7.66500 1.39400 23.91300
C  7.91800 1.58500 25.46900
C  5.33100 2.15700 23.01200
C  8.99700 1.33400 23.19900
C  9.37000 -0.07600 22.67500
N  8.53600 1.52000 28.46300
C  9.06800 0.61900 27.57400
C  9.92900 -0.31000 28.33600
C  9.81400 0.11900 29.66300
C  8.90500 1.17000 29.67600
C  10.75100 -1.55100 27.79000
C  10.20900 -0.12700 31.00700
O  10.94600 -0.98000 31.52100
C  9.51300 0.95000 31.94900
C  8.84200 0.19700 32.98800
O  7.98500 -0.67900 32.84800
O  9.39100 0.56500 34.20300
C  8.60900 0.17700 35.35200
H  4.65800 5.72300 30.73500
H  5.05900 4.69400 24.43500
H  9.44200 0.17100 25.42700
H  7.24800 2.76600 33.46200
H  6.63600 5.46000 32.49400
H  5.37600 4.15700 34.20700
H  4.66800 3.24500 32.88500
H  4.46800 5.02900 32.89800
H  9.02800 4.92200 32.16000
H  9.64900 3.51400 32.98600
H  7.76500 5.05200 34.71800
H  9.37600 5.83500 34.25600
H  3.56200 8.26000 28.61600
H  3.09600 7.01900 29.80400
H  2.24000 7.11300 28.26500
H  3.16800 8.57500 26.42200
H  1.92900 7.29300 26.19400
H  2.39000 8.23600 24.79800
H  7.04400 3.40800 23.18000
H  7.13800 0.47600 23.65500
H  4.45800 2.63500 23.45700
H  5.06900 1.11100 22.85500
H  5.40600 2.63200 22.03400
H  9.81800 1.70300 23.81400
H  8.95000 1.94000 22.29400
H  9.37400 -0.01900 21.58700
H  8.71300 -0.82600 23.11600
H  10.29300 -0.45900 23.11100
H  10.34300 -1.58600 26.78000
H  10.37500 -2.38900 28.37600
H  11.83600 -1.44500 27.81900
H  10.33700 1.54100 32.34900
H  8.81800 -0.82900 35.71600
H  7.52600 0.18200 35.23500
H  8.92200 0.88100 36.12400

