158

Mg -1.84900 17.13600 27.80100
C  -2.29300 14.96300 30.53700
C  -2.25500 19.73100 30.04400
C  -1.78000 19.38100 25.22100
C  -2.06100 14.46000 25.71300
N  -2.00400 17.35400 30.05700
C  -2.25200 16.31900 30.97000
C  -2.45400 16.85000 32.43200
C  -2.37700 18.40400 32.16800
C  -2.21900 18.49000 30.65900
C  -3.57500 19.25300 32.74900
C  -1.38300 16.23500 33.44400
C  -0.69300 17.09400 34.47100
H  -0.29100 16.56200 35.82300
N  -1.97100 19.23600 27.67900
C  -2.02000 20.13100 28.71100
C  -1.90500 21.45900 28.22000
C  -1.68700 21.42300 26.84000
C  -1.88500 19.95700 26.49800
C  -1.98400 22.69200 29.12000
C  -1.46600 22.55600 25.83800
O  -1.36900 22.28000 24.67500
C  -1.30700 24.01000 26.21600
N  -1.89100 16.94300 25.79600
C  -1.88500 18.01800 24.90200
C  -2.08700 17.59500 23.42900
C  -2.16100 15.98700 23.63100
C  -2.04500 15.78200 25.15500
C  -3.33200 18.14700 22.62400
C  -1.18600 15.10700 22.79400
C  0.23500 14.86700 23.31900
N  -1.91600 15.15700 27.97800
C  -2.00500 14.18200 27.07600
C  -2.12000 12.85500 27.64600
C  -2.15000 13.08200 29.02400
C  -2.12400 14.52100 29.18600
C  -2.26200 11.55600 26.87200
C  -2.37100 12.41100 30.25000
O  -2.52300 11.26500 30.50300
C  -2.50700 13.68000 31.33100
C  -1.35800 13.22400 32.22600
O  -0.15400 13.40800 31.99100
O  -1.75600 12.58800 33.37100
C  -0.73200 12.52700 34.41200
H  -2.47400 20.51100 30.77700
H  -1.88300 20.09500 24.40200
H  -2.04700 13.60900 25.02900
H  -3.44200 16.47600 32.70300
H  -1.51200 18.89000 32.62000
H  -3.22500 19.93100 33.52800
H  -4.13200 18.45300 33.23600
H  -4.06300 19.77000 31.92300
H  -0.64400 15.79200 32.77600
H  -1.98300 15.44700 33.90000
H  -1.26300 17.99100 34.71100
H  0.16900 17.51300 33.95200
H  -2.88800 23.22700 28.83200
H  -1.02800 23.20700 29.02300
H  -2.14200 22.46800 30.17500
H  -0.95500 24.57200 25.35000
H  -0.64400 23.97400 27.08100
H  -2.30300 24.30100 26.54800
H  -1.19300 17.84500 22.85800
H  -3.16900 15.59500 23.49800
H  -4.15500 17.43400 22.56700
H  -2.94100 18.41900 21.64400
H  -3.61000 19.00200 23.24000
H  -0.96600 15.72700 21.92500
H  -1.68000 14.24200 22.35100
H  0.83400 15.67200 22.89300
H  0.47300 13.85000 23.00900
H  0.41100 14.97700 24.38900
H  -1.62700 11.48200 25.98900
H  -3.32300 11.48900 26.63100
H  -2.11400 10.73200 27.56900
H  -3.38500 13.64900 31.97600
H  -0.24100 11.56400 34.27400
H  -1.33600 12.60400 35.31600
H  0.07700 13.24900 34.52000
Mg 42.26600 41.52100 26.95300
C  41.14500 43.87200 29.37800
C  43.06800 39.49500 29.54600
C  43.50200 39.43400 24.67000
C  42.26200 44.08600 24.60200
N  42.22700 41.73300 29.29200
C  41.61100 42.67400 29.95200
C  41.43200 42.25100 31.42000
C  42.17400 40.84300 31.47400
C  42.55200 40.69200 30.01400
C  43.37000 40.70400 32.44900
C  39.96900 42.05200 31.90000
C  39.39300 43.10100 32.89900
H  38.94700 42.61200 34.27500
N  43.10500 39.65500 27.08100
C  43.34100 39.01900 28.26500
C  43.88600 37.65200 27.94100
C  43.96500 37.65600 26.44600
C  43.46100 38.93200 25.95600
C  44.31000 36.69600 29.01300
C  44.42800 36.55600 25.57400
O  44.64400 36.70100 24.34400
C  44.57400 35.16600 26.12100
N  42.61800 41.62400 24.87500
C  43.16900 40.65700 24.15200
C  43.50700 41.05500 22.70900
C  42.91500 42.52900 22.66800
C  42.61500 42.79000 24.17600
C  44.90600 40.97600 22.26900
C  41.67000 42.71200 21.75700
C  40.34200 42.03900 22.17400
N  41.73400 43.55600 26.94800
C  41.77200 44.44800 25.87400
C  41.20800 45.70800 26.30800
C  40.83800 45.49500 27.64900
C  41.18400 44.13900 27.99300
C  41.07500 46.97200 25.45400
C  40.17900 46.09800 28.74100
O  39.78200 47.27200 28.90200
C  40.43900 45.08200 30.01400
C  41.28600 45.74900 31.05200
O  42.50100 45.82100 30.96800
O  40.50700 46.29900 32.08800
C  41.25300 46.95900 33.10600
H  43.26600 38.78900 30.35500
H  43.79600 38.74500 23.87600
H  42.18700 44.90500 23.88400
H  42.08700 42.86400 32.03900
H  41.58900 39.96500 31.74600
H  44.26500 40.96100 31.88400
H  43.55000 39.67000 32.74400
H  43.14000 41.25300 33.36200
H  39.89400 41.05100 32.32600
H  39.27400 42.03700 31.06000
H  38.50300 43.56200 32.47100
H  40.01700 43.99200 32.96400
H  43.53500 35.93000 29.04200
H  44.55200 37.25900 29.91500
H  45.22600 36.31000 28.56600
H  45.56400 35.21500 26.57500
H  44.60900 34.36000 25.38700
H  43.81900 34.81400 26.82500
H  42.98500 40.46800 21.95400
H  43.62300 43.31000 22.39100
H  45.35800 41.96400 22.34800
H  44.96200 40.61000 21.24400
H  45.43800 40.29200 22.93100
H  41.91600 42.37300 20.75100
H  41.38800 43.75400 21.60700
H  40.49900 41.51800 23.11800
H  39.95300 41.21400 21.57700
H  39.53700 42.75400 22.34300
H  40.19200 46.94400 24.81600
H  41.92900 47.08100 24.78500
H  40.95800 47.82700 26.12000
H  39.56900 44.78600 30.60200
H  41.66900 46.23200 33.80400
H  40.58800 47.57200 33.71500
H  41.92400 47.67900 32.63800

