158

Mg 54.75200 23.56200 45.09700
C  52.12000 25.78200 43.87500
C  52.50900 21.11900 44.31200
C  57.31700 21.44800 45.35000
C  56.69200 26.20000 45.71600
N  52.52100 23.52200 44.08200
C  51.68600 24.51500 43.73300
C  50.34700 23.99500 43.31800
C  50.36300 22.51100 43.86800
C  51.89800 22.32700 44.05100
C  49.59300 22.27200 45.09600
C  50.18300 24.01400 41.81900
C  48.84000 24.41900 41.31100
H  48.48500 24.10800 39.85800
N  54.90500 21.52900 44.97600
C  53.86200 20.71700 44.62700
C  54.30200 19.36800 44.63500
C  55.69300 19.32100 44.94200
C  56.04900 20.80500 45.09300
C  53.41600 18.21100 44.19100
C  56.56700 18.06500 44.95700
O  56.10300 16.93800 44.81400
C  58.05200 18.14300 45.33200
N  56.72000 23.78500 45.41900
C  57.58000 22.77800 45.58500
C  58.89100 23.29700 46.13200
C  58.63800 24.81600 46.39800
C  57.24800 24.96300 45.86000
C  59.36600 22.45500 47.37300
C  59.67600 25.73200 45.67900
C  60.45100 26.67700 46.62700
N  54.58000 25.63700 44.78600
C  55.41500 26.58400 45.20800
C  54.72300 27.86800 45.16100
C  53.54500 27.57300 44.51000
C  53.41000 26.21000 44.36500
C  55.34600 29.13500 45.63200
C  52.31400 28.23300 44.08000
O  51.94100 29.38900 44.15400
C  51.32800 27.07700 43.58200
C  51.27300 27.28300 42.06500
O  52.16300 27.12400 41.27200
O  50.00100 27.74700 41.78100
C  49.83300 28.23000 40.39900
H  51.83800 20.26900 44.17800
H  58.13700 20.78500 45.63300
H  57.40600 26.99400 45.94400
H  49.59800 24.54500 43.88800
H  50.23900 21.68600 43.16700
H  49.13000 21.28500 45.07000
H  48.79700 23.00900 45.20000
H  50.24900 22.37200 45.96100
H  50.46300 23.01900 41.47300
H  50.88400 24.76000 41.44600
H  48.68700 25.49200 41.42800
H  48.17700 23.83000 41.94500
H  53.57000 18.06600 43.12200
H  52.34900 18.36100 44.35400
H  53.73100 17.24600 44.58700
H  58.77300 18.55600 44.62800
H  58.37400 17.13900 45.61100
H  58.15200 18.67800 46.27700
H  59.60000 23.17600 45.31300
H  58.55700 24.95500 47.47600
H  58.66200 21.62500 47.44400
H  59.47200 23.15000 48.20600
H  60.30200 21.97500 47.08700
H  59.22600 26.22700 44.81800
H  60.47800 25.04500 45.41000
H  60.20600 27.65900 46.22200
H  61.53800 26.59500 46.64500
H  60.18500 26.55800 47.67700
H  54.60300 29.88600 45.89700
H  56.11200 29.52500 44.96100
H  55.79400 28.93400 46.60500
H  50.38000 27.10200 44.12000
H  48.97800 28.90500 40.44100
H  49.63300 27.40000 39.72300
H  50.60600 28.83000 39.92000
Mg 16.69700 52.21900 25.83300
C  18.38500 51.00600 28.59500
C  13.98600 52.85000 27.95300
C  14.88100 53.35300 23.15800
C  19.06000 51.01800 23.73700
N  16.28500 52.06800 28.00400
C  17.16000 51.69500 28.93700
C  16.65200 51.88800 30.36700
C  15.15600 52.13100 30.13100
C  15.11300 52.44700 28.65800
C  14.31800 50.89600 30.60100
C  17.42300 53.02100 31.12400
C  17.29800 52.95600 32.60400
H  16.18400 52.13000 33.31000
N  14.77100 53.06500 25.57300
C  13.75800 53.19100 26.58700
C  12.49800 53.62300 25.96700
C  12.85300 53.93300 24.61300
C  14.21900 53.42100 24.36300
C  11.23900 53.83100 26.79100
C  11.91700 54.49500 23.49900
O  12.38700 54.80600 22.43800
C  10.51800 54.83600 23.83800
N  16.77600 51.93600 23.66500
C  16.05100 52.64800 22.75700
C  16.65000 52.62600 21.37000
C  18.00300 52.05400 21.64000
C  17.99000 51.65900 23.08700
C  15.77900 51.81500 20.36700
C  19.22200 52.95600 21.38400
C  20.29100 52.21300 20.67600
N  18.38300 51.24600 26.10400
C  19.30200 50.82300 25.07900
C  20.35200 50.03500 25.70400
C  20.09800 50.13900 27.10300
C  18.82700 50.83500 27.25100
C  21.40700 49.28600 24.98300
C  20.56800 49.82400 28.42400
O  21.57800 49.17900 28.71600
C  19.49500 50.31200 29.38800
C  18.85200 49.17500 30.10900
O  18.00300 48.40000 29.63300
O  19.16700 49.21100 31.48100
C  18.37700 48.41000 32.50400
H  13.12200 53.09500 28.57400
H  14.51100 53.97500 22.34000
H  19.88200 50.65300 23.11900
H  16.92100 51.00000 30.94000
H  14.76200 53.01400 30.63500
H  14.80600 49.95700 30.86300
H  13.67400 50.57700 29.78100
H  13.66400 51.22100 31.41000
H  17.03000 53.96700 30.75300
H  18.46900 52.96400 30.82400
H  17.08000 53.94800 32.99900
H  18.26300 52.70200 33.04200
H  10.35000 53.30200 26.44600
H  11.21200 54.92000 26.83500
H  11.43900 53.63000 27.84300
H  10.02800 53.92700 24.18500
H  10.07200 55.14200 22.89100
H  10.50900 55.54800 24.66300
H  16.71600 53.67300 21.07100
H  18.04700 51.13500 21.05600
H  15.30200 51.01900 20.93900
H  16.33800 51.37700 19.53900
H  14.97500 52.37300 19.88600
H  19.77900 53.14800 22.30100
H  19.06300 53.89600 20.85500
H  20.60300 52.76800 19.79100
H  20.03800 51.20400 20.35000
H  21.14100 52.22300 21.35900
H  21.11000 48.91100 24.00400
H  21.65600 48.37800 25.53200
H  22.27100 49.94200 24.87500
H  19.98200 51.03100 30.04600
H  18.53300 47.34700 32.32000
H  17.34200 48.61700 32.23200
H  18.78200 48.67500 33.48000

