158

Mg 50.43100 46.83300 43.10100
C  47.21400 47.36800 41.74100
C  50.53100 43.79800 41.84400
C  53.70300 46.97400 43.70400
C  50.38600 50.40400 43.85500
N  48.99500 45.77700 41.94900
C  47.76400 46.11900 41.43900
C  47.08800 44.82800 40.86900
C  48.01900 43.70800 41.22400
C  49.27500 44.47500 41.75000
C  47.52800 42.67900 42.27700
C  46.72700 44.92300 39.33600
C  45.27200 44.65700 38.95900
H  45.01000 43.48800 37.99700
N  51.96300 45.58700 42.78900
C  51.77500 44.32500 42.29600
C  53.02500 43.62300 42.22600
C  54.00100 44.53800 42.86400
C  53.28000 45.76500 43.14800
C  53.15000 42.30800 41.51000
C  55.48000 44.14600 43.06300
O  55.95900 43.11900 42.66500
C  56.39000 44.94100 44.01900
N  51.73400 48.44400 43.88800
C  53.05200 48.15100 44.03100
C  53.89400 49.41000 44.41700
C  52.75600 50.47600 44.66100
C  51.58400 49.77000 43.99300
C  54.80800 49.30700 45.63800
C  53.09600 51.89400 43.99400
C  52.40800 53.11300 44.61400
N  49.03500 48.53400 42.93500
C  49.18000 49.85900 43.36100
C  47.93100 50.59500 43.09400
C  47.09000 49.60000 42.44500
C  47.84400 48.41200 42.40500
C  47.69100 52.07700 43.35400
C  45.78700 49.33700 41.90600
O  44.80300 50.02900 41.81800
C  45.79700 47.85200 41.42800
C  44.76700 47.22600 42.28200
O  44.58700 47.30100 43.49500
O  43.86600 46.66400 41.35300
C  42.56300 46.25200 41.87900
H  50.55900 42.76800 41.48200
H  54.79200 46.98800 43.78100
H  50.35200 51.44300 44.18900
H  46.14500 44.77400 41.41200
H  48.25500 43.25500 40.26100
H  46.44000 42.62800 42.29900
H  47.88800 42.71900 43.30500
H  47.80400 41.70900 41.86200
H  47.42100 44.33800 38.73200
H  46.77400 45.97200 39.04300
H  44.92100 45.52900 38.40600
H  44.65400 44.57400 39.85200
H  54.05700 42.40500 40.91400
H  52.33700 42.11900 40.80900
H  53.34800 41.48200 42.19200
H  56.76500 45.91300 43.69800
H  57.28500 44.34800 44.20800
H  56.07400 45.03500 45.05800
H  54.51900 49.65000 43.55700
H  52.46100 50.62600 45.70000
H  55.77900 49.70500 45.34200
H  55.00700 48.29600 45.99300
H  54.43000 49.88800 46.48000
H  52.87600 51.80300 42.93000
H  54.14700 52.12400 44.16800
H  53.16100 53.75700 45.06800
H  51.51800 52.87500 45.19800
H  52.08500 53.80400 43.83600
H  48.60500 52.63000 43.56800
H  46.85500 52.06200 44.05300
H  47.33500 52.50600 42.41800
H  45.65300 47.75600 40.35200
H  42.65700 45.43100 42.58900
H  41.89900 45.98700 41.05700
H  42.13500 47.02200 42.52000
Mg -11.78600 17.68800 41.68400
C  -8.66500 16.30100 41.21800
C  -10.54900 20.79700 40.73300
C  -14.85700 18.89100 41.88300
C  -12.94500 14.39800 42.43800
N  -9.86200 18.44000 41.03300
C  -8.71100 17.66900 40.91300
C  -7.49200 18.53400 40.51400
C  -8.11700 20.02300 40.65500
C  -9.63500 19.75700 40.90800
C  -7.55500 20.73700 41.98300
C  -6.96200 18.18700 39.12700
C  -5.45900 18.26300 38.76200
H  -5.00200 18.42600 37.28900
N  -12.56800 19.55700 41.28900
C  -11.92000 20.65000 40.81300
C  -12.82100 21.76300 40.61600
C  -14.08800 21.26800 41.07300
C  -13.86100 19.83700 41.38900
C  -12.47300 23.05800 39.97100
C  -15.48100 22.08700 41.21000
O  -15.50700 23.26800 40.86900
C  -16.79500 21.45800 41.74300
N  -13.66400 16.76300 41.89200
C  -14.72200 17.58000 42.15000
C  -15.97300 16.65100 42.48900
C  -15.33500 15.36600 42.87500
C  -13.89600 15.44300 42.36200
C  -16.92900 17.29200 43.54800
C  -16.20700 14.05300 42.47900
C  -16.75900 13.21500 43.66400
N  -11.06900 15.68900 41.62700
C  -11.59500 14.45400 42.04800
C  -10.57000 13.35100 41.92100
C  -9.39700 14.12600 41.66000
C  -9.72200 15.48300 41.53100
C  -10.92700 11.95400 41.94500
C  -7.95600 14.02700 41.46600
O  -7.25300 13.00400 41.41600
C  -7.47500 15.41600 41.25800
C  -6.35400 15.91300 42.12200
O  -6.59000 16.54200 43.12300
O  -5.15100 15.28700 41.81400
C  -4.20600 15.28200 42.89000
H  -10.15100 21.75600 40.39700
H  -15.85400 19.29400 42.07400
H  -13.25000 13.43500 42.85200
H  -6.73300 18.34800 41.27300
H  -8.07000 20.61000 39.73800
H  -8.40600 21.04000 42.59300
H  -7.04400 21.67100 41.74900
H  -7.06000 20.09000 42.70700
H  -7.52400 18.73600 38.37100
H  -7.19500 17.17500 38.79500
H  -4.89000 17.36600 39.00600
H  -5.03300 19.14200 39.24700
H  -12.20600 23.76500 40.75600
H  -13.33200 23.46500 39.43700
H  -11.67600 22.86700 39.25300
H  -17.23300 20.70700 41.08400
H  -17.53400 22.25700 41.79800
H  -16.63700 21.06100 42.74600
H  -16.35000 16.66100 41.46600
H  -15.14200 15.34900 43.94800
H  -16.91900 16.69500 44.46000
H  -17.91800 17.50300 43.14300
H  -16.48700 18.21800 43.91600
H  -15.50600 13.36900 42.00100
H  -17.01500 14.34200 41.80800
H  -16.34000 12.22900 43.86200
H  -17.81000 13.03600 43.44000
H  -16.56600 13.77500 44.58000
H  -11.09900 11.72800 40.89300
H  -11.85400 11.82700 42.50300
H  -10.16800 11.29700 42.37000
H  -7.16900 15.38600 40.21300
H  -3.22100 15.39000 42.43700
H  -4.29100 14.36200 43.46800
H  -4.18500 16.08400 43.62800

