158

Mg 25.57200 0.16000 28.59700
C  27.36600 -0.03100 31.59300
C  22.68100 0.04200 30.44900
C  23.65700 0.03700 25.71100
C  28.43500 -0.32100 26.81300
N  25.12800 -0.16400 30.85200
C  26.01100 0.03800 31.87000
C  25.35800 0.14900 33.23900
C  23.89400 0.03200 32.86600
C  23.88500 -0.04700 31.28700
C  23.19700 -1.14600 33.72700
C  25.69400 1.44300 34.11200
C  25.96200 1.03700 35.63500
H  26.40100 2.13800 36.58600
N  23.49600 0.13900 28.14000
C  22.48600 0.13400 29.07800
C  21.16500 0.26800 28.44700
C  21.50100 0.15200 27.01000
C  22.92600 0.05900 26.89000
C  19.90000 0.33900 29.22200
C  20.56400 0.14700 25.79400
O  20.96900 -0.18700 24.65500
C  19.12900 0.31900 26.02800
N  25.97500 -0.06200 26.55300
C  25.04500 -0.06500 25.51600
C  25.79300 -0.01700 24.16700
C  27.23700 0.16600 24.48800
C  27.29000 -0.05400 26.02300
C  25.45300 -1.28300 23.32000
C  27.99800 1.46900 24.07400
C  27.59200 2.80200 24.76100
N  27.55300 -0.15700 29.06300
C  28.62700 -0.37400 28.20400
C  29.84000 -0.57800 28.99800
C  29.41300 -0.41700 30.34100
C  28.01200 -0.13900 30.33800
C  31.16800 -0.85000 28.44100
C  29.87000 -0.36800 31.71000
O  30.96700 -0.60300 32.20800
C  28.50500 -0.05200 32.60400
C  28.30400 -1.04100 33.65500
O  27.68100 -2.10700 33.56200
O  29.02000 -0.66600 34.79200
C  29.18900 -1.70600 35.77200
H  21.75600 0.01700 31.02800
H  23.25200 0.10700 24.69900
H  29.22200 -0.30200 26.05500
H  25.62800 -0.74300 33.80500
H  23.37400 0.94300 33.16500
H  22.32900 -0.92100 34.34600
H  23.96100 -1.62000 34.34400
H  22.76400 -1.86200 33.02900
H  24.88300 2.17100 34.12400
H  26.59100 1.89700 33.69000
H  26.65500 0.19800 35.69600
H  25.01900 0.66900 36.03900
H  20.04400 0.89200 30.15000
H  19.56400 -0.66700 29.47300
H  19.12800 0.81400 28.61700
H  18.75200 -0.32000 26.82600
H  18.54800 0.17400 25.11700
H  18.89200 1.35500 26.27300
H  25.47400 0.86000 23.60400
H  27.68000 -0.67400 23.95300
H  24.73400 -1.11700 22.51700
H  25.00200 -2.14800 23.80600
H  26.31500 -1.65000 22.76200
H  27.84700 1.66500 23.01200
H  29.04900 1.23100 24.23900
H  28.36100 2.95100 25.52000
H  26.58800 2.69800 25.17200
H  27.58900 3.65300 24.08000
H  32.03000 -0.47600 28.99300
H  31.18100 -0.40000 27.44800
H  31.13100 -1.93900 28.41800
H  28.67600 0.94200 33.01800
H  28.43900 -1.53600 36.54500
H  30.09500 -1.65000 36.37400
H  29.07000 -2.73100 35.42000
Mg 43.74200 3.18100 47.44300
C  41.23300 5.37400 46.56800
C  41.31700 0.57700 47.44900
C  46.27700 0.91100 47.62500
C  46.01300 5.68300 47.38500
N  41.48400 2.98500 46.85400
C  40.65900 4.08000 46.66400
C  39.17700 3.67100 46.53300
C  39.28200 2.16900 47.07500
C  40.76900 1.90500 47.19600
C  38.52200 1.89800 48.46400
C  38.67500 3.67900 45.03400
C  37.56600 4.71400 44.60900
H  37.87100 5.63100 43.43900
N  43.75400 1.00100 47.51400
C  42.69000 0.12300 47.45400
C  43.17200 -1.27200 47.57100
C  44.56500 -1.21400 47.81600
C  44.96000 0.29400 47.66900
C  42.25800 -2.43400 47.46900
C  45.46400 -2.40100 48.02100
O  44.95000 -3.51900 47.95700
C  46.98600 -2.25300 48.20200
N  45.90000 3.29200 47.41800
C  46.69100 2.19100 47.45600
C  48.16400 2.60000 47.46100
C  48.10100 4.17200 47.47800
C  46.60500 4.42100 47.45700
C  49.06900 1.98100 48.55400
C  49.01800 4.94200 46.49700
C  50.45800 4.91900 46.89300
N  43.69600 5.24700 47.14100
C  44.68000 6.16300 47.16000
C  44.15800 7.47800 46.84200
C  42.78700 7.23600 46.69200
C  42.55400 5.86600 46.80500
C  44.92100 8.73000 46.69500
C  41.44900 7.81700 46.47200
O  41.12000 8.95400 46.45900
C  40.38800 6.62000 46.33900
C  39.53700 6.81700 47.53700
O  39.86000 6.87000 48.68600
O  38.25800 6.93700 47.11100
C  37.22300 7.13100 48.15800
H  40.53600 -0.18300 47.38800
H  47.17900 0.30300 47.72400
H  46.74700 6.49200 47.39200
H  38.57600 4.28100 47.20900
H  38.92400 1.48200 46.30800
H  37.94700 2.76000 48.80400
H  39.31600 1.76100 49.19800
H  37.84100 1.05400 48.35600
H  38.28200 2.69100 44.79200
H  39.47300 3.99200 44.36200
H  37.26000 5.38400 45.41200
H  36.66300 4.16200 44.34800
H  42.58900 -2.96800 46.57900
H  41.19800 -2.23600 47.31100
H  42.35300 -3.14500 48.28900
H  47.40300 -1.89700 47.26000
H  47.30800 -3.24200 48.52800
H  47.15400 -1.49500 48.96800
H  48.51700 2.30900 46.47200
H  48.51100 4.49100 48.43600
H  49.91200 1.50000 48.05800
H  48.55000 1.28200 49.21100
H  49.41800 2.71500 49.28000
H  48.71100 5.96800 46.29600
H  48.79100 4.46800 45.54200
H  50.63700 4.45900 47.86500
H  50.86400 5.92800 46.96200
H  51.08700 4.46200 46.12900
H  44.37000 9.57000 47.11800
H  45.19500 8.81200 45.64400
H  45.80800 8.69800 47.32800
H  39.87000 6.72300 45.38500
H  37.12800 6.36400 48.92700
H  36.26100 7.22500 47.65300
H  37.40200 8.10000 48.62400

