158

Mg 25.38000 1.91800 29.45400
C  27.16800 1.38500 32.42900
C  22.48400 1.93700 31.36300
C  23.58400 1.97900 26.60400
C  28.24000 1.07300 27.64200
N  24.91300 1.64600 31.69600
C  25.78600 1.68600 32.75000
C  25.11100 1.98500 34.11300
C  23.62900 2.10900 33.68500
C  23.67200 1.96700 32.13000
C  22.64300 1.08100 34.32700
C  25.73900 3.21200 34.85600
C  25.99400 3.03400 36.44900
H  25.48700 4.00000 37.48300
N  23.38300 1.85700 29.08300
C  22.27600 1.85700 30.01000
C  21.06300 1.82300 29.25000
C  21.39300 1.68400 27.84700
C  22.85100 1.79800 27.79500
C  19.75600 1.70100 30.04000
C  20.42200 1.46800 26.69100
O  20.84100 1.39800 25.54000
C  18.92800 1.37000 26.85700
N  25.89300 1.58100 27.39600
C  24.96400 1.82400 26.45100
C  25.67200 1.82100 25.05800
C  27.18100 1.56100 25.43400
C  27.11900 1.48100 26.93300
C  25.11400 0.87500 24.00300
C  28.20200 2.78700 25.06000
C  29.64700 2.39000 24.44700
N  27.34500 1.42900 29.88400
C  28.38200 1.12100 29.06600
C  29.57800 0.81400 29.83200
C  29.17000 0.93600 31.16300
C  27.79600 1.30200 31.18000
C  30.85300 0.42600 29.20200
C  29.57100 0.69900 32.59900
O  30.60200 0.19500 33.04900
C  28.32000 1.16200 33.46900
C  27.96900 0.12500 34.46900
O  27.15200 -0.76400 34.35200
O  28.77400 0.30100 35.57400
C  28.38900 -0.60900 36.69500
H  21.59100 2.19100 31.93800
H  23.08500 2.13700 25.64500
H  29.12100 0.74800 27.08500
H  25.26000 1.17900 34.83100
H  23.14300 3.06000 33.90400
H  23.02300 0.44700 35.12900
H  22.38300 0.39200 33.52400
H  21.66900 1.50400 34.57300
H  25.04500 4.01900 34.61800
H  26.70600 3.42500 34.40100
H  27.07500 2.89500 36.43100
H  25.59700 2.04800 36.69000
H  18.92200 2.25900 29.61300
H  19.88300 2.05700 31.06200
H  19.38300 0.67900 30.10700
H  18.42700 1.04300 25.94600
H  18.52700 2.34200 27.14300
H  18.85100 0.59700 27.62100
H  25.50000 2.84900 24.73900
H  27.50800 0.61100 25.01200
H  24.24400 0.32700 24.36600
H  25.87500 0.12200 23.79900
H  24.80300 1.48800 23.15800
H  28.21800 3.41000 25.95400
H  27.80000 3.40900 24.26100
H  29.76900 1.31400 24.57300
H  30.45500 2.83100 25.03000
H  29.73500 2.68500 23.40100
H  31.21400 -0.48500 29.68100
H  31.49000 1.25600 29.50900
H  30.76200 0.25100 28.13000
H  28.48300 2.09000 34.01600
H  28.85000 -1.59100 36.59000
H  27.33300 -0.81100 36.87800
H  28.71500 -0.19200 37.64800
Mg -1.49900 34.23300 27.05000
C  -3.35500 32.42800 29.49000
C  -0.36100 36.27100 29.45400
C  -0.08500 36.22700 24.65900
C  -3.08100 32.37000 24.54900
N  -1.77900 34.32200 29.22400
C  -2.54400 33.45100 30.02900
C  -2.28700 33.82400 31.50900
C  -1.56900 35.20500 31.47700
C  -1.26300 35.33400 30.00600
C  -2.37400 36.44000 32.16300
C  -1.57700 32.66700 32.30400
C  -2.35100 32.13100 33.52500
H  -1.73400 32.26900 34.90100
N  -0.20100 35.85000 27.02300
C  0.14600 36.53400 28.15000
C  1.00300 37.59200 27.84700
C  1.02600 37.67700 26.42100
C  0.22200 36.56700 25.92900
C  1.62400 38.43700 28.93300
C  1.62800 38.69100 25.49700
O  1.33600 38.85400 24.34400
C  2.71200 39.57300 25.99500
N  -1.83600 34.41600 24.92900
C  -0.93300 35.17200 24.15200
C  -1.16300 34.98800 22.66900
C  -1.78200 33.56800 22.66700
C  -2.32900 33.43100 24.09700
C  -1.98300 36.09300 21.81800
C  -0.89900 32.37200 22.19600
C  -1.53800 31.43900 21.14000
N  -2.91800 32.71900 26.95300
C  -3.45700 32.10900 25.85200
C  -4.42200 31.17100 26.26900
C  -4.40300 31.24700 27.67700
C  -3.43000 32.17300 28.04100
C  -5.15100 30.06700 25.41800
C  -5.06400 30.75200 28.93100
O  -5.97500 29.99700 29.16800
C  -4.40500 31.50500 30.18700
C  -5.42200 32.37300 30.81900
O  -6.03100 33.26900 30.26300
O  -5.58300 31.86300 32.07600
C  -6.65600 32.45700 32.94600
H  -0.15000 37.00800 30.23300
H  0.38800 36.81500 23.86900
H  -3.38200 31.65800 23.77900
H  -3.30900 33.95400 31.86400
H  -0.62000 35.21300 32.01300
H  -3.19400 36.12200 32.80600
H  -2.79000 37.10800 31.40900
H  -1.73200 37.05500 32.79300
H  -0.53400 32.92600 32.48600
H  -1.48100 31.83800 31.60300
H  -2.61700 31.08900 33.34900
H  -3.34300 32.58000 33.48500
H  0.90600 39.15200 29.33500
H  2.53200 38.84500 28.49000
H  1.84700 37.77300 29.76800
H  3.59500 38.99800 26.27500
H  2.38900 40.36300 26.67200
H  3.01200 40.22000 25.17000
H  -0.15100 34.93200 22.26900
H  -2.58700 33.58900 21.93200
H  -2.79900 35.63900 21.25500
H  -1.32600 36.64700 21.14800
H  -2.47600 36.78800 22.49800
H  -0.46400 31.77800 23.00000
H  -0.05300 32.68400 21.58300
H  -1.56200 30.40600 21.48700
H  -0.97200 31.38700 20.21000
H  -2.56000 31.75800 20.93600
H  -6.20000 30.10900 25.71100
H  -4.68000 29.14400 25.75500
H  -5.03000 30.18700 24.34200
H  -3.95900 30.80500 30.89200
H  -7.02800 33.37300 32.48700
H  -6.21100 32.87600 33.84800
H  -7.57800 31.89900 33.10900

