158

Mg -0.41900 7.28900 26.30100
C  0.56000 9.29000 29.01600
C  -0.90600 4.72100 28.62900
C  -0.75100 5.22400 23.77500
C  0.38000 9.93600 24.21500
N  -0.08800 7.06100 28.55000
C  0.25700 8.01300 29.53300
C  0.19300 7.46600 31.00900
C  -0.09000 5.92400 30.68200
C  -0.45700 5.90600 29.15600
C  1.02600 4.95300 31.07800
C  -0.80900 8.16600 31.92600
C  -0.42000 8.07400 33.45900
H  0.73700 7.32200 33.99300
N  -0.76100 5.24400 26.19800
C  -1.05500 4.37700 27.25300
C  -1.56600 3.17500 26.72500
C  -1.49300 3.28700 25.29900
C  -1.00800 4.61700 25.01100
C  -1.97700 1.96200 27.66100
C  -1.72800 2.18500 24.27200
O  -1.43200 2.43200 23.11200
C  -2.38500 0.87800 24.63000
N  -0.17400 7.44200 24.30700
C  -0.37300 6.52700 23.37000
C  -0.42200 7.09900 21.95500
C  -0.44000 8.65900 22.24100
C  0.01500 8.71400 23.71000
C  0.79300 6.52500 21.05300
C  -1.87500 9.20500 21.86500
C  -1.88800 10.65800 21.19900
N  0.32200 9.20000 26.48600
C  0.60400 10.16700 25.59900
C  1.09400 11.38100 26.22000
C  1.07900 11.08700 27.53800
C  0.53300 9.75200 27.66800
C  1.48500 12.62400 25.59500
C  1.27400 11.64800 28.84900
O  1.60900 12.81900 29.11200
C  0.90700 10.51300 29.80300
C  2.01300 10.28400 30.81500
O  2.96500 9.59200 30.52600
O  1.69500 10.93600 31.97000
C  2.73900 10.90900 33.01400
H  -1.19300 3.93800 29.33400
H  -1.12200 4.65900 22.91800
H  0.69000 10.78900 23.60700
H  1.19200 7.47200 31.44500
H  -0.99200 5.60200 31.20400
H  0.55600 4.06500 31.50200
H  1.58400 5.42200 31.88900
H  1.65700 4.69300 30.22900
H  -1.74400 7.67000 31.66600
H  -0.94200 9.22900 31.72300
H  -1.34000 7.58800 33.78000
H  -0.44300 9.00600 34.02500
H  -1.97200 2.12500 28.73900
H  -1.40600 1.07100 27.40200
H  -2.97400 1.72000 27.29100
H  -3.39200 1.11600 24.97100
H  -1.83400 0.29000 25.36400
H  -2.45000 0.34000 23.68400
H  -1.35000 6.60500 21.66500
H  0.30600 9.23500 21.69400
H  1.35100 7.35200 20.61500
H  0.46100 5.73300 20.38100
H  1.49600 6.12700 21.78500
H  -2.47300 9.34000 22.76600
H  -2.47500 8.42000 21.40500
H  -2.35900 10.71200 20.21800
H  -0.85900 10.98300 21.04000
H  -2.46300 11.32800 21.83600
H  0.51000 13.09800 25.48500
H  1.87200 12.41300 24.59800
H  2.09300 13.22500 26.27100
H  0.01100 10.76300 30.37100
H  3.27200 9.95900 33.06300
H  2.25800 11.02700 33.98500
H  3.53200 11.57400 32.67400
Mg 7.44000 2.29300 28.06400
C  9.05100 0.93400 30.78600
C  5.91800 4.59600 30.13900
C  5.93700 3.53500 25.38700
C  9.02100 -0.16300 26.01700
N  7.42300 2.74000 30.30300
C  8.18600 2.02800 31.13800
C  7.89300 2.51600 32.61800
C  6.68900 3.58200 32.34000
C  6.66700 3.68100 30.83600
C  5.31700 3.18200 32.94000
C  9.12300 2.91600 33.39400
C  9.03700 4.03000 34.50200
H  9.96900 3.78100 35.67400
N  6.05500 3.72400 27.85400
C  5.59300 4.60800 28.80700
C  4.72400 5.66800 28.17800
C  4.78600 5.40900 26.81800
C  5.61800 4.15600 26.65100
C  3.98300 6.70200 28.95100
C  4.17000 6.25500 25.68500
O  4.28500 5.96100 24.49600
C  3.55600 7.52900 25.90100
N  7.59800 1.79200 25.99500
C  6.85600 2.49200 25.14000
C  6.95300 1.80100 23.74800
C  8.06800 0.81800 23.90200
C  8.23500 0.72700 25.41400
C  5.60200 1.06900 23.30400
C  9.45500 1.18500 23.29300
C  10.52800 1.88000 24.18600
N  8.65000 0.60200 28.31700
C  9.17200 -0.23900 27.34600
C  10.11100 -1.12700 28.14900
C  10.10700 -0.64600 29.43200
C  9.17200 0.34500 29.49800
C  11.17200 -2.20500 27.54800
C  10.77900 -0.81700 30.74300
O  11.64400 -1.53500 31.17100
C  9.92600 0.11700 31.71000
C  9.06600 -0.79000 32.46600
O  7.99100 -1.31000 32.15000
O  9.49600 -0.75100 33.82500
C  8.50700 -1.18100 34.76200
H  5.61800 5.45400 30.74500
H  5.43000 3.94600 24.51200
H  9.77800 -0.81500 25.57700
H  7.43400 1.66800 33.12500
H  6.90100 4.60900 32.63600
H  4.73700 2.71000 32.14600
H  4.85000 4.10300 33.28600
H  5.31700 2.49100 33.78300
H  9.99500 3.05800 32.75600
H  9.22300 2.09200 34.10000
H  8.02600 4.17000 34.88500
H  9.22500 4.96500 33.97500
H  3.94500 6.48500 30.01900
H  3.03300 6.61300 28.42400
H  4.45200 7.67000 28.77700
H  3.31400 7.98200 24.93900
H  4.17400 8.17200 26.52700
H  2.60600 7.37500 26.41400
H  7.22000 2.49400 22.95000
H  7.85400 -0.23800 23.73400
H  4.84300 1.42600 23.99900
H  5.63900 -0.02000 23.26800
H  5.27200 1.49500 22.35700
H  9.24700 1.82100 22.43300
H  9.72300 0.18900 22.93900
H  9.99700 2.55100 24.86100
H  11.23400 2.53300 23.67200
H  11.09600 1.14400 24.75400
H  11.83300 -2.50800 28.36000
H  11.75400 -1.76000 26.74100
H  10.70400 -3.12900 27.20700
H  10.48500 0.77300 32.37800
H  7.56000 -0.65600 34.63300
H  8.92000 -1.00200 35.75500
H  8.41100 -2.25900 34.63500

