158

Mg 41.15200 9.58200 29.58500
C  43.23900 10.67900 32.14400
C  38.83700 8.76000 31.88800
C  39.30100 8.49400 27.07400
C  43.81800 10.08000 27.19300
N  41.18700 9.66500 31.86500
C  41.95600 10.22900 32.73800
C  41.34200 10.31700 34.15800
C  39.93700 9.70500 33.89500
C  40.00400 9.34600 32.42100
C  39.51500 8.52700 34.84800
C  41.31300 11.79600 34.70700
C  40.54000 11.97000 35.98100
H  41.08700 12.76900 37.18700
N  39.32900 8.66400 29.48600
C  38.49600 8.41100 30.54100
C  37.29100 7.63100 30.10200
C  37.39300 7.64300 28.63600
C  38.69200 8.33500 28.35900
C  36.16800 7.18300 31.00400
C  36.49500 7.11300 27.54800
O  36.63800 7.22500 26.32700
C  35.22700 6.40500 27.96000
N  41.55700 9.04800 27.53300
C  40.58700 8.77700 26.65500
C  40.98600 8.95300 25.18800
C  42.33300 9.78300 25.27100
C  42.57900 9.52100 26.76800
C  40.96100 7.59600 24.43400
C  42.14900 11.27500 24.76100
C  41.29100 12.22100 25.61700
N  43.00400 10.35300 29.57800
C  43.95300 10.51100 28.52100
C  45.18100 11.04300 29.12600
C  44.87100 11.21500 30.52200
C  43.59600 10.68300 30.71000
C  46.42600 11.45200 28.39200
C  45.41700 11.77300 31.77700
O  46.47300 12.36800 32.02300
C  44.31500 11.41900 32.89700
C  45.07200 10.60100 33.97200
O  45.90400 9.71500 33.79500
O  44.68600 11.02700 35.21500
C  45.31100 10.39400 36.31400
H  37.97900 8.59500 32.54300
H  38.71800 8.14200 26.22000
H  44.56700 10.27800 26.42300
H  42.00900 9.70200 34.76100
H  39.21300 10.51800 33.93100
H  38.73400 8.94000 35.48500
H  40.33800 8.17900 35.47300
H  39.04200 7.70300 34.31500
H  41.10100 12.51200 33.91300
H  42.29900 12.16100 34.99600
H  40.12500 11.01600 36.30800
H  39.71100 12.58900 35.63700
H  35.18900 7.38300 30.56800
H  36.25900 7.50300 32.04200
H  36.36100 6.11800 31.13200
H  35.39500 5.68500 28.76000
H  34.89200 5.82800 27.09800
H  34.43800 7.05500 28.33800
H  40.17500 9.55800 24.78200
H  43.14500 9.35200 24.68500
H  40.57100 7.67000 23.41900
H  40.34900 6.91000 25.02100
H  41.91600 7.08300 24.32200
H  41.43300 11.27600 23.93900
H  43.09400 11.67700 24.39600
H  40.95000 11.72300 26.52500
H  40.50500 12.72400 25.05500
H  41.95500 13.03600 25.90500
H  46.64300 10.79200 27.55200
H  47.31600 11.31400 29.00600
H  46.32900 12.51000 28.14700
H  43.96000 12.36600 33.30400
H  45.58400 9.34600 36.19300
H  44.69300 10.62000 37.18300
H  46.23100 10.94500 36.50900
Mg 1.23300 41.52800 25.17900
C  2.27200 42.12300 28.39200
C  -1.73900 40.29400 26.35500
C  0.40800 40.86200 22.06300
C  4.37700 42.74200 23.99500
N  0.35700 41.25900 27.17200
C  0.88500 41.75200 28.31100
C  -0.03000 41.60700 29.56300
C  -1.31500 40.98400 28.85200
C  -0.88900 40.76600 27.41600
C  -2.06500 39.78600 29.51600
C  -0.39500 42.95100 30.24800
C  0.11200 43.10900 31.73000
H  -0.92900 43.14500 32.85600
N  -0.40700 40.71100 24.37800
C  -1.50900 40.25300 24.97100
C  -2.45000 39.76100 23.99800
C  -1.86400 39.95400 22.68000
C  -0.56900 40.55400 22.97900
C  -3.92400 39.29600 24.34600
C  -2.44200 39.65700 21.21300
O  -1.89100 40.14600 20.20500
C  -3.67400 38.85400 20.97700
N  2.21700 41.78000 23.33500
C  1.66300 41.50300 22.19400
C  2.53800 42.06200 20.99900
C  3.69800 42.70800 21.64700
C  3.37300 42.41200 23.10600
C  2.93700 40.88300 20.02500
C  3.71600 44.28700 21.48000
C  3.89000 44.84600 20.05200
N  2.99000 42.09500 25.98300
C  4.17400 42.54800 25.38800
C  5.15100 42.85800 26.39500
C  4.44500 42.70900 27.64500
C  3.15500 42.26900 27.32600
C  6.61100 43.28300 26.13100
C  4.59900 42.64900 29.04600
O  5.59400 42.87700 29.75200
C  3.18100 42.41300 29.65900
C  3.34400 41.22000 30.59600
O  3.48800 40.02400 30.30600
O  3.43000 41.69100 31.88600
C  3.56200 40.77400 33.01900
H  -2.66400 39.79900 26.65800
H  0.15900 40.79100 21.00200
H  5.23200 43.34700 23.68600
H  0.51800 40.98000 30.26700
H  -2.15300 41.67800 28.78600
H  -2.35700 39.10900 28.71400
H  -2.92700 40.15000 30.07500
H  -1.37200 39.18100 30.10200
H  -1.47000 43.12500 30.30800
H  0.04900 43.70800 29.60100
H  0.86300 43.89700 31.67700
H  0.70900 42.20100 31.82100
H  -4.61900 39.36300 23.50900
H  -4.40300 39.84900 25.15400
H  -3.93300 38.25900 24.68000
H  -3.69800 38.05500 21.71700
H  -3.51700 38.45200 19.97600
H  -4.54500 39.50100 21.07800
H  1.93500 42.80200 20.47300
H  4.67700 42.30000 21.39300
H  2.06100 40.82200 19.38000
H  2.99800 39.94700 20.58000
H  3.88700 41.09600 19.53300
H  4.67100 44.56400 21.92700
H  2.80100 44.71400 21.89200
H  3.62800 43.99000 19.43000
H  4.85400 45.30300 19.83200
H  3.20900 45.69300 19.96700
H  6.95100 43.46300 25.11100
H  7.14400 42.41500 26.51900
H  6.86000 44.16100 26.72600
H  2.95800 43.28600 30.27200
H  4.59200 40.69300 33.36600
H  3.10800 39.79200 32.88900
H  2.97400 41.23300 33.81400

