158

Mg 49.69600 47.09400 43.49100
C  46.45600 47.60200 42.30700
C  49.78400 44.07200 41.78000
C  52.99300 46.80500 44.09100
C  49.82500 50.49000 44.13800
N  48.26900 45.96600 42.29100
C  47.03500 46.36200 41.87600
C  46.35300 45.25600 41.04800
C  47.29200 44.05100 41.27300
C  48.57600 44.71900 41.71600
C  46.97500 42.86900 42.20300
C  45.96100 45.59200 39.54000
C  44.46500 45.25800 39.09800
H  44.21200 44.69100 37.65300
N  51.15600 45.53200 43.26400
C  50.98200 44.38500 42.53700
C  52.17900 43.64700 42.51100
C  53.21400 44.35900 43.22700
C  52.51500 45.60600 43.67500
C  52.31800 42.35200 41.77800
C  54.58500 43.91700 43.39300
O  54.93400 42.81700 42.97100
C  55.66600 44.69300 44.08900
N  51.17800 48.42700 44.18600
C  52.47700 48.09400 44.36800
C  53.36600 49.25900 44.74800
C  52.44400 50.48600 44.47200
C  51.05400 49.77200 44.27800
C  53.95500 49.29900 46.20000
C  53.00000 51.38200 43.35900
C  53.27100 52.87500 43.73300
N  48.38100 48.74900 43.39300
C  48.54200 50.00800 43.82400
C  47.34200 50.67300 43.78900
C  46.35900 49.76100 43.40400
C  47.15000 48.61700 43.01900
C  47.07200 52.09000 44.18900
C  44.96800 49.63300 43.01600
O  43.99400 50.37400 43.06200
C  45.02100 48.15700 42.24400
C  44.02100 47.33500 42.96100
O  44.06800 46.91300 44.14100
O  42.98700 47.00800 42.12100
C  42.03600 46.00900 42.59400
H  49.73800 43.13200 41.22600
H  54.06700 46.63600 44.19100
H  49.82700 51.54600 44.41300
H  45.40700 45.05600 41.55100
H  47.44300 43.55100 40.31700
H  46.50900 42.12600 41.55600
H  46.33100 43.04400 43.06500
H  47.82700 42.35000 42.64200
H  46.74100 45.05000 39.00500
H  46.05500 46.66800 39.38800
H  44.01800 46.25100 39.11400
H  44.07000 44.54000 39.81800
H  52.94900 42.32300 40.88900
H  51.37200 41.87500 41.52400
H  52.86400 41.70500 42.46500
H  56.53500 44.05200 44.23900
H  55.19000 44.90800 45.04600
H  55.91500 45.62600 43.58300
H  54.11900 49.21400 43.96200
H  52.27600 51.14800 45.32100
H  55.02400 49.47800 46.08600
H  53.75800 48.29800 46.58400
H  53.41200 49.97800 46.85800
H  52.28300 51.33100 42.53900
H  53.96900 51.04400 42.99000
H  54.31400 53.01400 44.01700
H  52.55900 53.13500 44.51600
H  53.06800 53.52800 42.88500
H  47.83200 52.64300 43.63600
H  47.03700 52.30000 45.25800
H  46.17800 52.42300 43.66200
H  44.65200 48.05100 41.22300
H  41.34300 46.07300 41.75500
H  41.51000 46.33300 43.49300
H  42.45600 45.00400 42.55800
Mg 6.21600 54.11800 40.93300
C  3.93500 51.38700 40.97600
C  8.61400 51.84900 40.03500
C  8.22600 56.67700 40.57700
C  3.37500 56.38900 41.32700
N  6.17700 51.96600 40.42300
C  5.13300 51.11100 40.36200
C  5.57000 49.75500 39.71800
C  7.14700 49.84400 39.69700
C  7.32400 51.31100 40.19900
C  7.84400 48.81000 40.51700
C  4.86300 49.52400 38.29500
C  4.30400 48.10600 38.03500
H  4.97500 47.37000 36.87200
N  8.17800 54.22700 40.31100
C  8.96700 53.19900 39.96100
C  10.29600 53.79600 39.70000
C  10.16300 55.21100 39.85600
C  8.77400 55.44100 40.20100
C  11.49300 52.95900 39.36500
C  11.40400 56.19700 39.60600
O  12.49800 55.72200 39.37400
C  11.20400 57.61400 39.66500
N  5.73900 56.28800 40.73500
C  6.83600 57.11000 40.75000
C  6.41000 58.54800 40.96700
C  4.87000 58.40300 41.26700
C  4.63000 56.93000 41.05300
C  7.15800 59.25500 42.07900
C  3.95900 59.35200 40.47100
C  2.99900 60.16100 41.25200
N  4.06500 54.03100 41.19000
C  3.13400 54.98500 41.42300
C  1.88500 54.36400 41.66700
C  2.07500 52.89100 41.57200
C  3.47900 52.75400 41.18100
C  0.53600 55.10800 41.91800
C  1.49100 51.60100 41.70000
O  0.39100 51.27300 42.13300
C  2.65300 50.55100 41.35300
C  2.25900 49.43800 40.35600
O  1.67900 49.66900 39.29400
O  2.57800 48.18800 40.78200
C  1.87600 46.98000 40.17400
H  9.34000 51.05300 39.85900
H  8.98300 57.46300 40.52700
H  2.53700 57.08900 41.36600
H  5.36300 48.92300 40.39100
H  7.58600 49.73100 38.70700
H  8.15900 49.07400 41.52600
H  8.69700 48.37400 39.99800
H  7.26200 47.90100 40.66500
H  5.63800 49.68200 37.54500
H  4.07000 50.25600 38.14200
H  3.22100 48.22500 37.98100
H  4.58200 47.55500 38.93400
H  12.06100 53.46500 38.58500
H  11.28800 51.95200 39.00000
H  12.14300 52.71500 40.20500
H  10.35800 57.87700 39.02900
H  12.12800 58.02500 39.26000
H  11.09200 57.91400 40.70700
H  6.67300 59.08300 40.05600
H  4.64100 58.55300 42.32200
H  7.86600 59.98700 41.69000
H  7.79900 58.54300 42.60000
H  6.57500 59.73400 42.86500
H  3.46900 58.78000 39.68300
H  4.59900 60.07900 39.97200
H  3.18700 61.20300 40.99200
H  3.06400 60.03500 42.33200
H  1.96900 60.02600 40.92200
H  -0.29200 54.55600 41.47400
H  0.49000 56.14700 41.59300
H  0.26500 55.09500 42.97400
H  2.87700 50.19500 42.35800
H  1.00300 47.15300 39.54500
H  1.45000 46.41100 41.00000
H  2.53300 46.33300 39.59300

