158

Mg 7.17600 53.94100 42.34700
C  6.84600 50.51800 41.99200
C  10.39200 53.71700 41.21900
C  7.36900 57.29600 42.26300
C  3.94200 54.12700 43.57900
N  8.35900 52.35700 41.55600
C  7.98300 51.06500 41.43600
C  9.04400 50.29900 40.72300
C  10.29300 51.21300 40.87100
C  9.63700 52.56100 41.24600
C  11.27800 50.76900 41.95100
C  8.71900 49.85100 39.27300
C  7.77000 50.81000 38.50200
H  7.79100 50.62300 36.93700
N  8.71200 55.34600 41.80400
C  9.98800 55.04600 41.38200
C  10.76100 56.28500 41.22100
C  9.88300 57.33200 41.57700
C  8.59000 56.70100 41.86700
C  12.21800 56.22900 40.89700
C  10.14900 58.81000 41.53000
O  11.26700 59.15400 41.23200
C  9.14200 59.83100 42.05700
N  5.71600 55.46300 42.60000
C  6.09300 56.72500 42.48900
C  4.90400 57.60100 42.79200
C  3.72700 56.62600 43.14800
C  4.51600 55.32300 43.11200
C  5.30600 58.68500 43.92100
C  2.46100 56.59700 42.17700
C  2.44100 55.73600 40.86400
N  5.63900 52.63700 42.83100
C  4.40800 52.79300 43.37400
C  3.86400 51.44700 43.77500
C  4.82000 50.56200 43.22400
C  5.86100 51.32400 42.64600
C  2.70000 51.13300 44.58300
C  5.18600 49.19800 43.09500
O  4.69800 48.23700 43.62300
C  6.47100 49.06000 42.22700
C  6.04300 48.30200 40.97000
O  5.06200 48.63000 40.26700
O  6.84200 47.26600 40.60000
C  6.45200 46.62500 39.39500
H  11.47200 53.66100 41.06400
H  7.45700 58.38000 42.16900
H  2.94400 54.15300 44.02100
H  9.21300 49.36400 41.25700
H  10.79900 51.37600 39.91900
H  12.10700 50.36100 41.37300
H  10.74400 50.03700 42.55700
H  11.60600 51.55900 42.62800
H  8.30900 48.84500 39.36100
H  9.62900 49.79100 38.67500
H  8.03600 51.84900 38.70000
H  6.78600 50.65400 38.94500
H  12.43300 56.91500 40.07700
H  12.54100 55.20900 40.68700
H  12.80800 56.55200 41.75400
H  9.63100 60.78700 42.24300
H  8.93700 59.38900 43.03200
H  8.38100 59.99200 41.29400
H  4.60400 58.09100 41.86600
H  3.36700 56.75000 44.16900
H  4.57500 58.58100 44.72300
H  5.12500 59.66100 43.47100
H  6.33000 58.59600 44.28600
H  2.24400 57.61700 41.86000
H  1.63200 56.27700 42.80700
H  2.15600 56.40700 40.05400
H  1.74900 54.90500 40.72700
H  3.45900 55.40300 40.66300
H  2.40500 50.08700 44.51200
H  1.88200 51.75000 44.21300
H  2.88900 51.35000 45.63500
H  7.16400 48.42800 42.78200
H  6.21400 47.41000 38.67700
H  5.58600 46.02900 39.68300
H  7.18300 46.00900 38.87200
Mg -2.05800 34.46700 26.99900
C  -3.66500 32.67400 29.45900
C  -0.50300 36.39200 29.45100
C  -0.75000 36.49300 24.57200
C  -3.61200 32.57200 24.59200
N  -2.04400 34.43700 29.27900
C  -2.75900 33.61600 30.02300
C  -2.31200 33.72400 31.49400
C  -1.41900 35.01000 31.45400
C  -1.30500 35.30300 29.97600
C  -2.06600 36.05300 32.30200
C  -1.63100 32.49600 32.11300
C  -1.98700 32.10900 33.56900
H  -0.90200 32.31300 34.61700
N  -0.85000 36.24400 27.06800
C  -0.26400 36.85000 28.12800
C  0.51600 38.00000 27.68700
C  0.36900 38.08800 26.28700
C  -0.40000 36.86800 25.87800
C  1.23000 39.03000 28.62900
C  0.88700 39.11800 25.32500
O  0.42800 39.17400 24.20400
C  2.05100 39.90800 25.77000
N  -2.20900 34.59500 24.85600
C  -1.52700 35.41700 24.06800
C  -1.72100 35.05100 22.60000
C  -2.21600 33.61500 22.71500
C  -2.75400 33.58200 24.16400
C  -2.79600 35.98200 21.86500
C  -1.17700 32.43200 22.47300
C  0.32000 32.73400 22.51000
N  -3.30400 32.91100 26.92800
C  -3.96500 32.29600 25.92000
C  -4.88000 31.29700 26.42400
C  -4.72100 31.35000 27.76900
C  -3.88000 32.37300 28.04300
C  -5.73300 30.47900 25.54300
C  -5.12400 30.76500 29.04900
O  -5.90200 29.84400 29.22600
C  -4.41500 31.59400 30.20400
C  -5.50300 32.18600 31.00300
O  -6.20400 33.13600 30.71300
O  -5.60400 31.38900 32.15400
C  -6.42800 31.86700 33.16500
H  -0.07900 36.89000 30.32600
H  -0.32100 37.06800 23.74800
H  -4.03800 31.92200 23.82600
H  -3.24100 33.89200 32.03900
H  -0.49100 34.66700 31.91100
H  -3.02100 36.33600 31.85900
H  -1.41500 36.91400 32.45000
H  -2.22300 35.54500 33.25300
H  -0.55900 32.69200 32.12400
H  -1.92800 31.63300 31.51700
H  -2.05600 31.02400 33.49300
H  -2.99100 32.34200 33.92400
H  0.95200 40.04600 28.34800
H  2.31600 38.95500 28.68300
H  0.91800 38.78800 29.64500
H  1.74300 40.70100 26.45200
H  2.59300 40.28800 24.90500
H  2.57800 39.18700 26.39600
H  -0.81600 35.11100 21.99500
H  -3.07800 33.50700 22.05700
H  -2.78900 36.85600 22.51600
H  -3.76700 35.48800 21.86400
H  -2.40400 36.22400 20.87600
H  -1.36000 32.04100 21.47200
H  -1.20500 31.55300 23.11600
H  0.87500 32.81800 21.57600
H  0.82700 31.90600 23.00600
H  0.41500 33.57600 23.19500
H  -5.86500 31.00700 24.59900
H  -6.62900 30.37400 26.15500
H  -5.30100 29.48700 25.41400
H  -3.83600 30.90900 30.82400
H  -6.07400 32.78000 33.64200
H  -6.33400 31.14900 33.98000
H  -7.44900 32.06000 32.83500

