158

Mg 35.16600 3.33400 29.44400
C  33.11100 4.39400 31.86400
C  37.93500 3.20800 31.41000
C  37.10100 2.65000 26.75800
C  32.45500 3.91400 27.08700
N  35.54700 3.97000 31.34400
C  34.48600 4.11100 32.23700
C  35.02000 4.12800 33.66000
C  36.61000 3.98200 33.41700
C  36.75400 3.70300 31.95500
C  37.42900 5.23300 33.88100
C  34.28700 3.03600 34.49600
C  33.98800 3.36200 35.98500
H  34.99000 4.29800 36.72200
N  37.14600 2.77000 29.16800
C  38.10900 2.72800 30.13400
C  39.24300 2.05800 29.64400
C  39.07300 1.94600 28.25000
C  37.74700 2.47500 28.00400
C  40.45900 1.71600 30.44600
C  40.09200 1.51000 27.16800
O  39.74700 1.45600 25.95600
C  41.53100 1.34600 27.58500
N  34.83300 3.38300 27.27000
C  35.81800 3.02100 26.41000
C  35.36100 2.88900 24.97200
C  33.85900 3.32000 25.08000
C  33.64200 3.54000 26.58700
C  36.10000 3.77000 23.99100
C  32.82800 2.25600 24.47400
C  32.45100 0.98200 25.25400
N  33.13400 4.01300 29.44300
C  32.18000 4.20700 28.45800
C  30.93300 4.58700 29.06400
C  31.24700 4.71200 30.44800
C  32.60800 4.37200 30.56500
C  29.64200 4.61700 28.36400
C  30.65600 5.04900 31.71300
O  29.52100 5.40300 32.02500
C  31.82900 4.65700 32.69600
C  31.94500 5.68400 33.74100
O  32.69700 6.64000 33.69700
O  31.19100 5.40900 34.86100
C  31.19500 6.46100 35.88200
H  38.73300 3.09400 32.14700
H  37.59600 2.33600 25.83700
H  31.72200 4.25400 26.35200
H  34.75700 5.03500 34.20500
H  37.06700 3.12600 33.91300
H  36.86400 6.04500 34.33800
H  38.04200 5.74400 33.13800
H  38.18900 4.81300 34.53900
H  34.73100 2.04100 34.53000
H  33.27800 2.94300 34.09500
H  33.79300 2.49400 36.61600
H  33.05800 3.92600 35.92100
H  41.38500 2.20400 30.14100
H  40.59900 0.63600 30.39000
H  40.28900 1.99700 31.48500
H  42.18300 0.96000 26.80200
H  41.69500 0.66200 28.41800
H  41.82800 2.33000 27.94800
H  35.48200 1.82500 24.77100
H  33.67500 4.31700 24.67900
H  36.33700 4.75500 24.39400
H  35.46400 3.85600 23.11000
H  37.07000 3.33900 23.74300
H  33.16600 1.92600 23.49200
H  31.92200 2.82300 24.26000
H  31.37500 0.82000 25.31600
H  32.95100 0.87800 26.21700
H  32.77400 0.14000 24.64300
H  29.71000 4.90200 27.31400
H  28.98900 5.32900 28.86900
H  29.10700 3.67800 28.50500
H  31.65900 3.73500 33.25300
H  32.09800 6.33800 36.48000
H  30.34800 6.29400 36.54800
H  31.10700 7.43100 35.39400
Mg 1.78300 41.83700 24.51600
C  2.94400 42.06800 27.99600
C  -1.04100 40.66900 25.74500
C  1.13900 41.13200 21.39900
C  4.93600 42.95800 23.70700
N  1.08400 41.46100 26.64200
C  1.63900 41.65500 27.86300
C  0.69900 41.32200 28.98800
C  -0.51600 40.70700 28.31500
C  -0.15100 40.90800 26.76100
C  -0.82000 39.25600 28.72900
C  0.46700 42.50800 29.93000
C  0.30700 42.31000 31.44700
H  -0.28000 41.05200 31.90600
N  0.26700 41.04200 23.67000
C  -0.85900 40.64000 24.28000
C  -1.87900 40.32800 23.34100
C  -1.21900 40.23900 22.09700
C  0.11100 40.87700 22.32400
C  -3.24900 39.86600 23.63400
C  -1.82600 39.76200 20.82400
O  -1.19500 39.73500 19.71300
C  -3.21000 39.27700 20.80200
N  2.89900 41.85100 22.80700
C  2.44600 41.51600 21.63300
C  3.43200 41.69800 20.52400
C  4.59600 42.45800 21.27000
C  4.11500 42.42300 22.68600
C  3.75800 40.39700 19.80600
C  4.83200 43.90800 20.73300
C  3.72600 45.01100 20.90200
N  3.57400 42.41500 25.62200
C  4.75200 42.98100 25.08700
C  5.68000 43.22000 26.09200
C  5.06000 42.76800 27.26600
C  3.75700 42.42200 26.91300
C  7.03100 43.83800 25.99700
C  5.26500 42.55500 28.70900
O  6.20000 42.64200 29.47000
C  3.84200 42.17700 29.21500
C  4.00900 40.82900 29.89100
O  4.77200 39.89400 29.52000
O  3.30200 40.84500 31.07200
C  3.52600 39.68800 31.92100
H  -1.97100 40.28100 26.16700
H  0.80700 41.01300 20.36500
H  5.89100 43.20000 23.23700
H  1.19200 40.53800 29.56200
H  -1.48700 41.17500 28.47700
H  -0.15400 38.92200 29.52400
H  -0.53100 38.68500 27.84700
H  -1.86600 39.25000 29.03800
H  -0.47400 42.96400 29.62300
H  1.14700 43.35600 29.84800
H  -0.31900 43.12400 31.81300
H  1.26100 42.45800 31.95200
H  -3.57500 40.12800 24.64000
H  -3.29000 38.77900 23.55100
H  -4.00000 40.42400 23.07600
H  -3.48500 38.64900 19.95400
H  -3.94800 40.06500 20.65300
H  -3.25600 38.50700 21.57300
H  2.97600 42.32400 19.75700
H  5.50100 41.89700 21.03900
H  3.39300 39.50200 20.30900
H  4.76100 39.99100 19.68000
H  3.58000 40.50500 18.73600
H  5.10200 43.71400 19.69500
H  5.74200 44.26900 21.21400
H  2.73400 44.75200 21.27200
H  3.60200 45.37600 19.88200
H  4.26600 45.69400 21.55700
H  7.61800 43.00000 25.62200
H  7.34200 44.08500 27.01200
H  7.10300 44.66400 25.29000
H  3.58200 42.90200 29.98600
H  3.15600 39.82100 32.93800
H  4.59200 39.50200 32.05400
H  3.10100 38.76800 31.51900

