158

Mg 0.34400 7.71900 25.66400
C  1.02600 9.59400 28.45700
C  0.33200 4.83100 27.68300
C  0.09900 5.87000 22.87300
C  0.38600 10.68700 23.75000
N  0.84200 7.21800 27.66900
C  1.00800 8.22500 28.69200
C  1.04700 7.57000 30.10100
C  1.07100 6.04700 29.81100
C  0.64300 6.03200 28.36300
C  2.46800 5.40900 30.24300
C  -0.22300 7.93500 30.90400
C  -0.09500 7.84100 32.40900
H  1.18300 7.42800 33.20900
N  0.27100 5.64300 25.28500
C  0.25100 4.68000 26.22800
C  0.16000 3.35000 25.52100
C  0.05800 3.66700 24.13200
C  0.08400 5.12300 24.06100
C  0.24400 1.96600 26.15700
C  0.12500 2.76000 22.96600
O  -0.12600 3.06200 21.79100
C  0.49300 1.24900 23.14200
N  0.34200 8.23100 23.53500
C  0.26300 7.27900 22.60600
C  0.08500 7.84800 21.20000
C  0.11400 9.40300 21.53300
C  0.29000 9.47100 22.99900
C  1.12200 7.39400 20.18100
C  -1.08700 10.22300 20.98800
C  -0.88400 10.78600 19.55900
N  0.48900 9.76600 25.98000
C  0.60000 10.81700 25.12000
C  0.94700 12.04700 25.86600
C  1.15200 11.59300 27.20300
C  0.81900 10.21700 27.20300
C  1.10800 13.42200 25.39500
C  1.54400 12.03100 28.53900
O  1.90300 13.14100 28.90300
C  1.32600 10.76300 29.46900
C  2.59100 10.47500 30.15800
O  3.59500 9.89900 29.72600
O  2.50600 11.03300 31.44300
C  3.71700 10.87000 32.27100
H  0.63900 3.90500 28.17400
H  -0.25100 5.40000 21.95100
H  0.40800 11.65900 23.25200
H  1.94200 7.96100 30.58600
H  0.23200 5.58300 30.33000
H  2.95800 4.78300 29.49700
H  2.37700 4.89500 31.20000
H  3.21900 6.19300 30.34000
H  -1.06300 7.25700 30.75200
H  -0.51600 8.93100 30.57200
H  -0.96300 7.35000 32.85000
H  -0.41100 8.83200 32.73500
H  1.06400 1.42200 25.68900
H  -0.69800 1.50800 25.85600
H  0.42900 1.88100 27.22800
H  -0.23500 0.92300 23.88500
H  1.48700 1.06500 23.55100
H  0.34000 0.64300 22.25000
H  -0.89900 7.63800 20.78100
H  0.95800 9.91500 21.07200
H  1.97300 6.97900 20.72200
H  1.43400 8.25300 19.58700
H  0.72100 6.62000 19.52700
H  -1.22500 11.07500 21.65500
H  -1.94000 9.55800 21.11800
H  -1.85000 10.69800 19.06000
H  -0.27400 10.13800 18.93100
H  -0.68800 11.85800 19.55900
H  0.11500 13.75000 25.70100
H  1.20400 13.50600 24.31200
H  1.86800 13.97700 25.94600
H  0.43500 10.82200 30.09400
H  4.47500 10.18200 31.89500
H  3.56400 10.62000 33.32100
H  4.26400 11.80800 32.36900
Mg 43.84600 3.46400 47.02800
C  41.94200 6.42400 46.76400
C  40.98500 1.53200 46.66600
C  45.77900 0.69400 47.05800
C  46.72800 5.39800 46.19300
N  41.72500 3.95100 46.64600
C  41.14700 5.26500 46.91700
C  39.61600 5.08900 47.03100
C  39.36100 3.53900 46.83200
C  40.78800 2.94200 46.68700
C  38.60400 2.88100 48.01100
C  38.78200 5.92400 46.01300
C  39.32500 6.29500 44.57800
H  38.76300 5.49200 43.38100
N  43.44500 1.40000 46.92000
C  42.18000 0.80000 46.78100
C  42.31700 -0.58100 46.65100
C  43.66800 -0.96200 46.80500
C  44.38100 0.41200 46.92300
C  41.12800 -1.58000 46.46800
C  44.21800 -2.41200 46.82400
O  43.56100 -3.47100 46.87400
C  45.64200 -2.60300 46.95900
N  45.97200 3.06700 46.62700
C  46.53900 1.87400 46.95000
C  48.10700 1.98500 46.84500
C  48.32600 3.43000 46.37500
C  46.88000 4.00000 46.38700
C  48.64000 1.75800 48.31500
C  49.08400 3.49600 45.03100
C  50.50600 3.92400 45.12400
N  44.33400 5.49000 46.66400
C  45.47800 6.08800 46.25600
C  45.33100 7.51700 46.15500
C  43.96900 7.73300 46.33000
C  43.37400 6.43500 46.65000
C  46.32900 8.60500 45.94200
C  42.93200 8.77000 46.44100
O  42.98900 9.95400 46.30200
C  41.52400 7.94400 46.65500
C  40.82600 8.56800 47.84200
O  41.16100 8.43100 49.02400
O  39.66600 9.18300 47.43500
C  38.72400 9.51800 48.53000
H  40.01200 1.03800 46.63300
H  46.33100 -0.19600 47.36900
H  47.49800 6.04800 45.77300
H  39.38800 5.48200 48.02100
H  38.74500 3.29700 45.96500
H  38.26500 3.47900 48.85700
H  39.31000 2.18700 48.46800
H  37.74300 2.31900 47.64700
H  38.50800 6.81400 46.57900
H  37.85500 5.40200 45.77600
H  40.37600 6.00700 44.55600
H  39.19400 7.36700 44.43300
H  41.20300 -1.87400 45.42100
H  40.20200 -1.06400 46.71900
H  41.16100 -2.51800 47.02200
H  46.13000 -2.21800 47.85500
H  46.17300 -1.95700 46.26100
H  45.89800 -3.62100 46.66700
H  48.22600 1.14700 46.15900
H  48.94200 3.90000 47.14200
H  47.89200 1.67400 49.10400
H  49.37300 2.51800 48.58400
H  49.11100 0.77500 48.33400
H  48.52800 4.16000 44.36800
H  48.98800 2.50300 44.59200
H  50.75700 4.43200 46.05500
H  50.77400 4.63500 44.34200
H  51.03400 2.97700 45.01900
H  46.72200 8.83200 44.95100
H  47.21200 8.29000 46.49900
H  46.08100 9.46000 46.57200
H  40.91000 8.09100 45.76700
H  38.83400 8.68000 49.21900
H  37.69900 9.50500 48.15800
H  39.03600 10.36600 49.13900

