158

Mg 47.61600 17.15100 28.50200
C  45.57000 17.03500 31.23600
C  49.80000 19.08900 30.25200
C  49.37800 17.83000 25.59000
C  44.95800 15.68300 26.55000
N  47.54000 18.07100 30.38000
C  46.73700 17.77900 31.41500
C  47.22300 18.42600 32.76100
C  48.37600 19.33800 32.27100
C  48.55700 18.88200 30.83000
C  48.08900 20.88600 32.57500
C  47.77900 17.24500 33.65900
C  47.47200 17.45900 35.20100
H  46.93600 18.75700 35.72400
N  49.42300 18.20500 27.97600
C  50.22200 18.80700 28.93400
C  51.43400 19.28700 28.35400
C  51.28800 18.92800 26.92100
C  50.00600 18.31300 26.80000
C  52.58600 20.00600 29.08000
C  52.22700 19.26200 25.85800
O  52.00500 19.03600 24.67000
C  53.58700 19.85800 26.16800
N  47.09000 16.98600 26.38000
C  48.03000 17.30100 25.39800
C  47.54700 16.87000 23.98600
C  46.29400 15.96200 24.39200
C  46.10900 16.20900 25.85600
C  47.22200 18.09800 23.03200
C  46.47600 14.37700 23.99400
C  45.43800 13.84600 22.92700
N  45.66800 16.46300 28.74700
C  44.69800 15.83400 27.94400
C  43.57700 15.45800 28.73300
C  43.85600 15.81800 30.00600
C  45.06300 16.54600 30.01800
C  42.37500 14.69700 28.34100
C  43.31000 15.91100 31.29000
O  42.14300 15.67400 31.64200
C  44.42100 16.64100 32.16700
C  43.84100 17.66900 33.04700
O  43.45200 18.81300 32.74700
O  43.52100 16.95300 34.21200
C  42.55300 17.53400 35.15000
H  50.44000 19.76900 30.81700
H  49.90200 17.93300 24.63700
H  44.12500 15.16200 26.07300
H  46.45400 19.02600 33.24700
H  49.26900 19.16900 32.87300
H  48.96000 21.22600 33.13500
H  47.18500 21.01700 33.16900
H  48.07200 21.60500 31.75600
H  48.85100 17.10500 33.52400
H  47.20300 16.35100 33.41800
H  48.42100 17.27100 35.70300
H  46.74500 16.69200 35.47100
H  52.38100 20.25500 30.12100
H  53.04700 20.87800 28.61600
H  53.36100 19.23900 29.04600
H  54.13000 19.20200 26.84800
H  53.39100 20.90100 26.42000
H  54.14100 19.86100 25.23000
H  48.33500 16.26600 23.53600
H  45.41800 16.23700 23.80500
H  46.18700 18.16200 22.69500
H  47.90600 18.08900 22.18400
H  47.39400 19.07600 23.48200
H  46.39100 13.71900 24.85900
H  47.44900 14.34600 23.50300
H  44.50000 13.50300 23.36300
H  45.74400 13.10400 22.18900
H  45.28000 14.75800 22.35200
H  42.76300 13.69900 28.13600
H  41.76100 15.12600 27.55000
H  41.85000 14.54300 29.28400
H  44.92900 15.86400 32.73700
H  43.16800 18.13300 35.82200
H  42.04500 16.78700 35.75900
H  41.79800 18.10700 34.61200
Mg -12.52300 16.15000 41.30000
C  -9.57400 14.35400 40.75500
C  -10.75400 18.97100 39.85700
C  -15.34600 17.78300 41.16800
C  -14.18300 13.29700 42.09600
N  -10.32600 16.61500 40.51900
C  -9.37700 15.67800 40.33100
C  -8.10400 16.24800 39.69700
C  -8.42800 17.82300 39.65600
C  -9.95800 17.81000 40.03300
C  -7.43500 18.68500 40.59300
C  -7.70000 15.59700 38.30700
C  -6.23600 15.11800 38.24300
H  -5.41500 15.78600 37.21500
N  -12.93100 18.15600 40.66700
C  -12.14100 19.13100 40.19800
C  -12.89200 20.29600 39.99400
C  -14.29600 19.93200 40.23100
C  -14.23800 18.59600 40.73400
C  -12.32800 21.64500 39.51100
C  -15.47100 20.85000 39.96500
O  -15.31300 22.08900 39.82900
C  -16.87800 20.37400 39.83500
N  -14.63600 15.51000 41.24100
C  -15.57900 16.44800 41.51300
C  -16.92400 15.90000 41.95700
C  -16.42800 14.44800 42.39500
C  -14.95800 14.43200 41.92800
C  -17.75000 16.82700 42.97000
C  -17.35200 13.42600 41.75200
C  -17.63900 12.24800 42.65300
N  -11.99300 14.17000 41.58500
C  -12.77300 13.08400 41.88700
C  -11.96700 11.89900 41.83800
C  -10.70300 12.33400 41.48100
C  -10.75800 13.72800 41.26800
C  -12.42500 10.56100 42.07700
C  -9.33700 11.94300 41.16700
O  -8.81000 10.84900 41.28600
C  -8.53500 13.18000 40.74200
C  -7.43700 13.33600 41.78600
O  -7.61100 13.80400 42.92800
O  -6.18900 13.14200 41.19600
C  -4.95000 13.35000 41.95000
H  -10.19700 19.83600 39.48900
H  -16.19800 18.46300 41.22000
H  -14.65200 12.36700 42.42200
H  -7.35800 15.88300 40.40300
H  -8.30800 18.28300 38.67500
H  -6.68000 18.01200 40.99700
H  -7.96500 19.26500 41.34900
H  -6.89500 19.29100 39.86500
H  -7.96400 16.33300 37.54800
H  -8.31400 14.73200 38.05400
H  -6.26700 14.02900 38.24400
H  -5.68100 15.27900 39.16700
H  -12.49800 21.80800 38.44700
H  -11.25100 21.67700 39.67900
H  -12.90100 22.38700 40.06700
H  -16.80400 19.40900 39.33300
H  -17.36500 21.02600 39.10900
H  -17.39200 20.34100 40.79500
H  -17.47000 15.72600 41.03000
H  -16.35400 14.33600 43.47600
H  -17.72000 16.33000 43.93900
H  -18.72000 16.95300 42.48900
H  -17.25000 17.79500 43.00000
H  -16.93100 13.07700 40.80900
H  -18.35800 13.73900 41.47500
H  -18.61600 11.81800 42.43400
H  -17.69900 12.61500 43.67700
H  -16.89200 11.46800 42.50400
H  -11.58500 9.87300 41.98000
H  -13.23600 10.24900 41.42000
H  -12.80100 10.51600 43.09900
H  -8.07400 12.94500 39.78300
H  -4.04800 13.03000 41.42900
H  -4.97600 12.68800 42.81500
H  -4.86700 14.33400 42.41200

