158

Mg 2.34600 -2.34300 45.16700
C  5.65900 -1.62000 44.57900
C  1.43900 -0.21200 42.65300
C  -0.86800 -3.68800 45.37500
C  3.49000 -5.22000 47.04400
N  3.47400 -1.12900 43.71200
C  4.81100 -0.83700 43.77500
C  5.24400 0.19300 42.74800
C  3.84200 0.80400 42.31900
C  2.83600 -0.29700 42.83300
C  3.47400 2.13200 43.08400
C  6.07400 -0.41300 41.59800
C  7.29000 0.39800 41.09200
H  7.48000 0.56500 39.58900
N  0.50500 -1.87700 44.23200
C  0.35400 -1.01400 43.18700
C  -1.11300 -0.85600 42.91700
C  -1.76800 -1.76000 43.83100
C  -0.69700 -2.51600 44.54400
C  -1.59100 0.01700 41.78300
C  -3.21900 -1.87700 43.93000
O  -3.97100 -1.20000 43.26400
C  -3.88100 -2.65700 45.04000
N  1.42800 -4.10700 46.16500
C  0.12900 -4.42200 46.04600
C  -0.19100 -5.77400 46.79200
C  1.15500 -6.19800 47.33600
C  2.08900 -5.10300 46.88900
C  -1.36600 -5.72300 47.87500
C  1.50700 -7.64900 46.90000
C  2.62800 -8.44400 47.66900
N  4.20400 -3.20200 45.83600
C  4.52600 -4.35600 46.61800
C  5.95700 -4.41400 46.75600
C  6.40500 -3.28000 46.08700
C  5.29300 -2.64000 45.45500
C  6.68700 -5.49300 47.61600
C  7.58700 -2.54100 45.71000
O  8.76300 -2.75600 46.03100
C  7.13200 -1.42600 44.73200
C  7.44600 -0.14900 45.41300
O  6.88400 0.32700 46.35700
O  8.45300 0.47800 44.71400
C  8.56600 1.91200 45.21100
H  1.27800 0.47400 41.81900
H  -1.82000 -4.21400 45.28200
H  3.78100 -6.16500 47.50700
H  5.81700 0.96700 43.26000
H  3.70400 0.86000 41.23900
H  2.52100 2.09700 43.61300
H  3.37800 2.86800 42.28500
H  4.19800 2.36000 43.86600
H  5.37700 -0.50900 40.76600
H  6.41400 -1.41600 41.85800
H  8.20800 -0.03500 41.49100
H  7.25300 1.35900 41.60400
H  -1.91800 -0.59700 40.94400
H  -0.75400 0.64800 41.48400
H  -2.41200 0.63200 42.15200
H  -3.82400 -3.69700 44.72100
H  -4.92100 -2.33500 45.10900
H  -3.31700 -2.47200 45.95400
H  -0.50800 -6.53700 46.08200
H  1.01000 -6.23000 48.41500
H  -1.83000 -4.74900 47.71900
H  -0.92000 -5.79000 48.86700
H  -2.13900 -6.46800 47.69100
H  1.82200 -7.65500 45.85700
H  0.66000 -8.33300 46.95900
H  2.93900 -7.85800 48.53300
H  3.50000 -8.61300 47.03800
H  2.17300 -9.40100 47.92800
H  7.74700 -5.47400 47.36000
H  6.22900 -6.43200 47.30400
H  6.50700 -5.14900 48.63400
H  7.62000 -1.48700 43.76000
H  9.20900 2.43100 44.50000
H  9.06300 1.93400 46.18100
H  7.64400 2.49200 45.21900
Mg 40.50600 9.09800 29.33500
C  42.36400 10.25900 32.15900
C  38.19300 7.75400 31.62100
C  38.87200 7.74600 26.71900
C  43.29000 9.98800 27.30300
N  40.34500 9.01500 31.65500
C  41.19100 9.59900 32.58900
C  40.74800 9.29100 34.06600
C  39.41700 8.49800 33.87400
C  39.26400 8.39600 32.28900
C  39.32900 7.08300 34.53600
C  40.50800 10.61100 34.91400
C  41.37000 10.78500 36.17600
H  40.84000 11.83600 37.16800
N  38.79100 7.89500 29.19500
C  37.97500 7.44300 30.23300
C  36.85500 6.64800 29.72900
C  36.97800 6.65200 28.24700
C  38.18500 7.49800 27.95800
C  35.66700 6.20000 30.55700
C  36.07200 5.93800 27.24900
O  36.35300 5.93700 26.04300
C  34.86100 5.17200 27.79600
N  41.12800 8.70100 27.32400
C  40.17500 8.21700 26.40900
C  40.45400 8.65700 24.96200
C  41.80200 9.47200 25.15700
C  42.18900 9.33000 26.65900
C  40.56700 7.54200 23.87300
C  41.54500 11.04700 24.77300
C  42.71500 11.74600 24.03200
N  42.41400 10.08100 29.60900
C  43.44100 10.25600 28.69800
C  44.46700 11.02400 29.34300
C  44.11400 11.00800 30.68500
C  42.83100 10.40600 30.80800
C  45.62200 11.67100 28.69600
C  44.56500 11.44500 32.03300
O  45.65100 11.98600 32.29400
C  43.45900 10.92800 33.02200
C  44.04900 9.99400 33.98500
O  44.22600 8.77000 33.77300
O  44.50100 10.67300 35.03300
C  45.07500 9.85700 36.10400
H  37.43800 7.34200 32.29400
H  38.32800 7.54700 25.79300
H  44.11900 10.41200 26.73300
H  41.48000 8.62200 34.51800
H  38.49700 8.96600 34.22200
H  38.70300 6.41600 33.94300
H  38.88800 7.23300 35.52200
H  40.31800 6.62500 34.57700
H  39.46900 10.79400 35.18800
H  40.62500 11.45700 34.23600
H  42.35700 11.13700 35.87700
H  41.35200 9.83700 36.71400
H  34.76600 6.77500 30.34200
H  35.84200 6.42800 31.60900
H  35.44700 5.14900 30.36900
H  35.20600 4.40400 28.48800
H  34.26100 4.86200 26.94000
H  34.12400 5.81700 28.27500
H  39.66700 9.38000 24.75100
H  42.69300 9.02000 24.72100
H  41.44800 7.57200 23.23100
H  39.75800 7.61900 23.14700
H  40.47900 6.58400 24.38500
H  41.28800 11.50000 25.73100
H  40.68600 11.17600 24.11400
H  42.25500 12.31400 23.22300
H  43.35200 10.92400 23.70400
H  43.31200 12.33200 24.73000
H  46.24200 10.93100 28.19100
H  46.12500 12.44000 29.28200
H  45.05000 12.28200 27.99600
H  43.00000 11.80300 33.48300
H  44.20300 9.40300 36.57400
H  45.65500 10.41900 36.83600
H  45.57000 9.01600 35.61800

