158

Mg 26.20300 0.89700 28.98800
C  28.28600 0.74900 31.98600
C  23.48700 0.70200 31.24600
C  24.34600 0.93300 26.44300
C  29.02600 0.26900 27.11500
N  26.01900 0.80100 31.34900
C  26.93700 0.90900 32.31000
C  26.38100 0.98300 33.74700
C  24.81600 0.87700 33.48300
C  24.72000 0.91300 31.94800
C  24.04400 -0.32300 34.24200
C  26.83000 2.16300 34.60000
C  27.38400 1.93300 35.97100
H  27.05800 2.89100 37.13900
N  24.19200 0.86400 28.83400
C  23.22000 0.78200 29.87000
C  21.96700 1.02000 29.24900
C  22.13900 1.10200 27.84100
C  23.57600 0.91000 27.62800
C  20.66800 1.17900 30.00600
C  21.05300 1.44100 26.70100
O  21.42100 1.25500 25.57600
C  19.61700 1.76800 26.96500
N  26.65700 0.52400 27.09300
C  25.70400 0.72300 26.16200
C  26.27500 0.83700 24.73200
C  27.74000 0.51700 24.91800
C  27.84400 0.40600 26.45500
C  25.64800 -0.09800 23.61600
C  28.73900 1.55500 24.36100
C  28.76400 1.63000 22.88500
N  28.29700 0.55000 29.38000
C  29.30300 0.23800 28.50100
C  30.51400 0.13800 29.21500
C  30.25000 0.35100 30.56100
C  28.85700 0.64000 30.64000
C  31.79900 -0.25300 28.73900
C  30.79600 0.48000 31.91800
O  31.94900 0.31500 32.29200
C  29.53000 0.69800 32.93100
C  29.39500 -0.33400 33.96800
O  28.91800 -1.44000 33.85800
O  29.95100 0.08400 35.15800
C  29.97100 -0.81800 36.37400
H  22.59900 0.64300 31.87900
H  23.68800 0.94900 25.57200
H  29.90600 0.14600 26.48100
H  26.70500 0.13700 34.35400
H  24.30400 1.75200 33.88100
H  22.98500 -0.06900 34.27800
H  24.49000 -0.45500 35.22800
H  24.05100 -1.30400 33.76500
H  25.99000 2.82700 34.80200
H  27.53000 2.78300 34.04100
H  28.45500 1.74100 35.90400
H  26.91800 0.98000 36.22100
H  19.97200 0.37300 29.77300
H  20.20700 2.09300 29.63100
H  20.63800 1.34800 31.08300
H  19.46800 2.66200 27.57000
H  19.16300 0.86800 27.38000
H  19.10400 1.96400 26.02300
H  26.18900 1.88000 24.42600
H  27.95500 -0.45600 24.47700
H  24.96000 -0.69500 24.21500
H  26.32400 -0.83800 23.19000
H  25.07100 0.46800 22.88400
H  29.76700 1.39600 24.68700
H  28.45100 2.56600 24.65100
H  28.40000 2.59900 22.54600
H  28.13200 0.88300 22.40500
H  29.76700 1.42400 22.50900
H  31.68800 -1.32900 28.60400
H  32.56400 0.02800 29.46300
H  32.19600 0.22700 27.84500
H  29.67300 1.65100 33.44100
H  29.41000 -0.35100 37.18300
H  31.01200 -0.94900 36.67100
H  29.53200 -1.78800 36.13800
Mg -0.72700 34.56600 26.65600
C  -3.05500 32.88600 28.83700
C  -0.02400 36.65700 29.29700
C  0.89100 36.56400 24.55400
C  -1.87300 32.56000 24.06700
N  -1.47800 34.71300 28.89600
C  -2.36500 33.91100 29.56400
C  -2.38600 34.37200 31.04200
C  -1.58800 35.67500 30.96600
C  -0.90300 35.65600 29.61300
C  -2.39200 36.85600 31.13400
C  -1.92200 33.24100 32.07600
C  -3.01100 33.05100 33.12600
H  -3.14900 34.14300 34.22300
N  0.42000 36.24800 26.92300
C  0.63700 36.92800 28.09900
C  1.52000 38.00100 27.89100
C  1.90600 37.96900 26.48100
C  1.03600 36.93700 25.89400
C  1.91900 38.90000 29.06800
C  2.79100 38.83300 25.66000
O  2.90400 38.76800 24.46800
C  3.51200 39.96000 26.35100
N  -0.46200 34.54100 24.56800
C  0.22600 35.51000 23.90100
C  0.27000 35.16100 22.37200
C  -0.33900 33.72900 22.29500
C  -0.98200 33.56400 23.74000
C  -0.56700 36.24400 21.53400
C  0.62800 32.52200 22.06400
C  1.69300 32.25600 23.18400
N  -2.15200 32.99700 26.39100
C  -2.53200 32.32500 25.26500
C  -3.61700 31.52100 25.56000
C  -3.80800 31.61200 26.96600
C  -2.90100 32.51400 27.44800
C  -4.48100 30.77800 24.60400
C  -4.66800 31.16400 28.05400
O  -5.61500 30.35200 28.15600
C  -4.10100 31.92000 29.35500
C  -5.21900 32.58900 29.95200
O  -5.72900 33.61900 29.51700
O  -5.58900 31.88200 31.09300
C  -6.71000 32.51600 31.81400
H  0.24800 37.30500 30.13300
H  1.35700 37.20900 23.80600
H  -2.09600 31.82600 23.29000
H  -3.43500 34.53500 31.28900
H  -0.85300 35.73000 31.76900
H  -2.43200 37.46500 30.23100
H  -2.02500 37.37800 32.01700
H  -3.41800 36.60700 31.40900
H  -1.03300 33.48900 32.65700
H  -1.77400 32.35300 31.46100
H  -2.69600 32.12100 33.60000
H  -4.04300 32.99700 32.77900
H  1.71000 39.86300 28.60300
H  2.95700 38.84300 29.39400
H  1.32400 38.86900 29.98100
H  2.66100 40.55400 26.68700
H  4.32300 40.35500 25.73900
H  4.11800 39.62800 27.19400
H  1.34900 35.18000 22.22100
H  -1.14600 33.61900 21.57000
H  -1.27300 36.73500 22.20300
H  -1.29300 35.79800 20.85500
H  0.03400 36.97500 20.99300
H  1.17200 32.84900 21.17800
H  0.05100 31.62400 21.84200
H  1.50500 31.49700 23.94300
H  1.94400 33.21600 23.63600
H  2.61700 31.82700 22.79700
H  -5.29500 30.22300 25.07100
H  -3.86200 30.13500 23.97900
H  -4.97800 31.53900 24.00200
H  -3.72200 31.25100 30.12800
H  -6.38400 33.37300 32.40300
H  -7.09900 31.89300 32.61900
H  -7.62000 32.68400 31.23800

