158

Mg -2.87000 17.82000 27.32100
C  -2.90000 15.61600 29.93900
C  -3.17200 20.42900 29.34900
C  -3.06100 19.72400 24.46600
C  -2.69300 14.84100 25.13000
N  -3.06700 17.95700 29.39400
C  -2.89000 16.99500 30.31800
C  -3.15500 17.53900 31.74900
C  -3.26600 19.06800 31.53700
C  -3.18800 19.16800 29.98500
C  -4.55900 19.71800 32.07700
C  -2.06100 17.09500 32.77800
C  -1.80500 17.91000 34.03400
H  -1.87400 17.20400 35.40000
N  -2.92200 19.81100 26.96100
C  -3.02600 20.73900 27.92800
C  -3.19800 22.09100 27.33100
C  -2.93000 21.85700 25.91200
C  -3.01900 20.38400 25.70600
C  -3.41200 23.41400 28.13200
C  -2.53400 22.86400 24.81900
O  -2.43800 22.53500 23.65700
C  -2.22300 24.31900 25.19100
N  -3.04000 17.31600 25.10500
C  -3.14700 18.31800 24.16000
C  -3.25500 17.67500 22.69700
C  -3.03800 16.17300 22.95200
C  -2.93300 16.07600 24.47000
C  -4.43000 18.08000 21.87700
C  -1.73300 15.52900 22.32000
C  -0.45300 15.92100 22.85600
N  -2.89700 15.63900 27.44800
C  -2.63600 14.61700 26.49800
C  -2.67800 13.33800 27.17600
C  -2.87900 13.68800 28.52400
C  -2.85500 15.07000 28.64200
C  -2.62200 11.99800 26.52100
C  -3.12800 13.14100 29.79900
O  -3.17300 11.91900 30.16800
C  -2.99200 14.39200 30.77600
C  -1.80100 14.25200 31.58900
O  -0.67800 14.66600 31.27200
O  -2.13900 13.29300 32.55400
C  -1.06600 12.93500 33.48700
H  -2.96200 21.30400 29.96800
H  -3.00800 20.25900 23.51600
H  -2.45100 13.91300 24.60800
H  -4.08100 17.08100 32.09600
H  -2.45300 19.62600 32.00000
H  -5.25800 20.02200 31.29800
H  -4.26200 20.47900 32.79800
H  -5.10700 19.03100 32.72100
H  -1.13600 17.05600 32.20200
H  -2.39100 16.11200 33.11300
H  -2.59500 18.66000 34.00200
H  -0.84700 18.35800 33.77100
H  -3.94800 24.10700 27.48300
H  -2.52600 24.01200 28.34500
H  -3.94600 23.23400 29.06500
H  -3.11300 24.86200 25.51000
H  -2.06700 24.70900 24.18500
H  -1.34800 24.58000 25.78700
H  -2.36900 18.18000 22.31100
H  -3.88100 15.67800 22.47000
H  -4.93500 17.19700 21.48600
H  -4.30000 18.58700 20.92100
H  -5.13300 18.68400 22.45000
H  -1.65000 15.70100 21.24700
H  -1.82200 14.45800 22.50100
H  -0.13000 14.94500 23.21700
H  -0.52400 16.68200 23.63300
H  0.24800 16.23100 22.08100
H  -3.46600 11.94100 25.83400
H  -2.71300 11.10500 27.13900
H  -1.66200 11.87700 26.01800
H  -3.96300 14.35600 31.26900
H  -0.09300 13.13400 33.03700
H  -1.15800 11.91900 33.87000
H  -1.14200 13.61300 34.33800
Mg 25.80900 1.13700 28.79900
C  27.84900 1.10900 31.70200
C  23.16100 1.51300 30.68500
C  24.05400 1.08700 26.02700
C  28.72300 0.35500 26.96200
N  25.56500 1.29100 30.97800
C  26.47200 1.29500 31.92900
C  25.85000 1.57200 33.31600
C  24.33100 1.51800 33.02500
C  24.33900 1.42800 31.48200
C  23.58900 0.29100 33.64900
C  26.15900 2.92500 34.05500
C  26.95400 2.79700 35.35400
H  26.58800 3.85500 36.42600
N  23.85600 1.26000 28.43800
C  22.87500 1.48800 29.33100
C  21.65100 1.65300 28.55700
C  21.92200 1.55100 27.16900
C  23.35300 1.29600 27.17200
C  20.33800 1.82400 29.23500
C  21.01700 1.66100 26.04000
O  21.38300 1.51300 24.85700
C  19.52300 2.03000 26.25300
N  26.38100 0.66200 26.79500
C  25.43600 0.86600 25.80000
C  26.04300 0.79400 24.39500
C  27.62700 0.60500 24.67100
C  27.60600 0.57500 26.25400
C  25.32900 -0.25300 23.54700
C  28.58300 1.76000 24.12500
C  29.49400 1.42700 22.89500
N  27.79500 0.67400 29.22600
C  28.84500 0.39300 28.34300
C  30.12300 0.27100 29.15300
C  29.73500 0.51600 30.44800
C  28.32500 0.76300 30.42900
C  31.44800 -0.04700 28.52800
C  30.33600 0.75700 31.77900
O  31.47500 0.69500 32.20000
C  29.09900 1.18900 32.65700
C  29.05400 0.26500 33.82600
O  28.50700 -0.84000 33.81500
O  29.68100 0.90100 34.87800
C  29.77300 0.21100 36.12800
H  22.33700 1.83700 31.32400
H  23.56500 1.32600 25.08000
H  29.53100 0.06100 26.29000
H  26.03500 0.72000 33.97100
H  23.85400 2.44000 33.35800
H  22.72000 0.74400 34.12500
H  24.16600 -0.27900 34.37800
H  23.17600 -0.40600 32.92000
H  25.26400 3.46400 34.36400
H  26.79600 3.45500 33.34600
H  28.01600 2.88500 35.12500
H  26.75500 1.84700 35.84900
H  19.87100 2.79200 29.05700
H  20.50700 1.76900 30.31100
H  19.56000 1.09500 29.00900
H  19.46900 2.88200 26.92900
H  19.08300 1.09800 26.60800
H  18.92800 2.24700 25.36600
H  25.86600 1.77400 23.95100
H  28.07400 -0.26700 24.19500
H  24.51400 -0.71600 24.10300
H  26.02400 -1.04700 23.27700
H  24.94500 0.10100 22.59000
H  29.31700 2.11000 24.85000
H  27.89400 2.57500 23.90700
H  29.26500 2.18000 22.14200
H  29.32000 0.39600 22.58500
H  30.54800 1.52200 23.15500
H  31.40500 -0.01900 27.43900
H  31.70400 -1.03300 28.91600
H  32.11100 0.73600 28.89700
H  29.21200 2.23800 32.93100
H  28.86700 0.48100 36.67100
H  30.68400 0.52600 36.63500
H  29.84700 -0.87500 36.07800

