158

Mg -2.28900 16.64500 25.66100
C  -2.52300 14.50500 28.39800
C  -4.07500 18.92500 27.49500
C  -2.23600 18.68100 23.03000
C  -1.40700 13.89300 23.57800
N  -3.06300 16.71600 27.76600
C  -2.96500 15.74300 28.75000
C  -3.54500 16.23000 30.11300
C  -4.30700 17.49800 29.70700
C  -3.78100 17.75200 28.23300
C  -5.83200 17.15500 29.54500
C  -2.39900 16.50000 31.14700
C  -2.41400 15.69000 32.46400
H  -2.52500 16.42000 33.80200
N  -2.82600 18.65400 25.42800
C  -3.60000 19.40100 26.24900
C  -3.73100 20.72000 25.70500
C  -3.15400 20.70600 24.35700
C  -2.67700 19.29100 24.23500
C  -4.39600 21.85700 26.46000
C  -3.11000 21.78600 23.35900
O  -2.55500 21.62300 22.26100
C  -3.65200 23.29800 23.58300
N  -1.88600 16.26800 23.57900
C  -1.84900 17.36900 22.73400
C  -1.28000 16.98900 21.35600
C  -1.00000 15.45600 21.53600
C  -1.35700 15.15400 23.03900
C  -2.27700 17.11100 20.16500
C  0.43900 15.22800 21.15600
C  1.49600 15.71200 22.28500
N  -2.07700 14.60700 25.87200
C  -1.81000 13.57900 24.91900
C  -1.94700 12.29300 25.57200
C  -2.12500 12.59700 26.94500
C  -2.26100 13.99900 27.06900
C  -1.88200 10.96100 24.95000
C  -2.30000 12.06700 28.30700
O  -2.31400 10.91800 28.65900
C  -2.49800 13.28700 29.26600
C  -1.38700 13.23300 30.17000
O  -0.30400 13.77000 30.05300
O  -1.71600 12.38900 31.16200
C  -0.84000 12.21000 32.32500
H  -4.80200 19.49900 28.07400
H  -2.14800 19.39200 22.20600
H  -1.21500 13.11300 22.83900
H  -4.30800 15.52200 30.43800
H  -4.20300 18.36100 30.36500
H  -6.01200 16.46100 28.72400
H  -6.42100 18.06100 29.40800
H  -6.24300 16.91200 30.52500
H  -2.42000 17.55000 31.43900
H  -1.37800 16.30700 30.81800
H  -1.45200 15.19000 32.57400
H  -3.18900 14.92800 32.54200
H  -5.48600 21.85200 26.42800
H  -4.03100 22.88200 26.38500
H  -4.06500 21.78700 27.49600
H  -3.44700 24.04400 22.81500
H  -3.09100 23.68600 24.43300
H  -4.71000 23.43800 23.80200
H  -0.40000 17.62500 21.25400
H  -1.67900 14.84800 20.93700
H  -3.23500 17.36600 20.62000
H  -2.42900 16.25300 19.51000
H  -1.84000 17.96100 19.64100
H  0.82700 15.76600 20.29200
H  0.44700 14.16600 20.91100
H  0.98400 15.91500 23.22500
H  1.99000 16.60600 21.90400
H  2.27200 14.95900 22.41900
H  -0.82700 10.71300 24.83300
H  -2.33500 11.03300 23.96100
H  -2.29500 10.30700 25.71700
H  -3.39800 13.26300 29.88000
H  0.02800 11.60500 32.06400
H  -1.26400 11.69600 33.18800
H  -0.47400 13.20200 32.58900
Mg 47.37100 15.13700 27.74300
C  45.50600 15.38000 30.77000
C  49.58600 17.37600 29.07900
C  49.11200 14.95600 24.81700
C  44.73200 13.55400 26.40300
N  47.38800 16.37500 29.61300
C  46.67300 16.14200 30.72600
C  47.22200 16.86700 31.90400
C  48.31600 17.82400 31.27700
C  48.46700 17.12800 29.89800
C  47.99000 19.32300 31.08900
C  47.87000 15.88700 32.99300
C  47.44200 16.13500 34.50800
H  48.39100 15.84800 35.67900
N  49.21200 16.00900 27.09900
C  49.92200 16.86700 27.80100
C  51.02900 17.26000 26.99300
C  51.01900 16.45700 25.77600
C  49.78500 15.75100 25.84400
C  52.01900 18.34200 27.36900
C  51.81900 16.51300 24.53500
O  51.84800 15.66500 23.67300
C  52.83300 17.64600 24.31100
N  46.99300 14.30500 25.95500
C  47.86200 14.33800 24.86400
C  47.18600 13.83600 23.62500
C  45.82100 13.29000 24.07600
C  45.76700 13.81600 25.54400
C  46.83700 15.00500 22.58600
C  45.74100 11.69500 24.11200
C  46.85000 10.92700 24.74700
N  45.51500 14.49200 28.42800
C  44.57800 13.74200 27.74100
C  43.46900 13.49200 28.60000
C  43.86000 13.93100 29.89200
C  45.01700 14.66900 29.67500
C  42.24800 12.74600 28.17800
C  43.50400 14.12900 31.30900
O  42.52500 13.76100 31.91700
C  44.60000 15.08500 31.90900
C  44.01200 16.32600 32.58400
O  43.69600 17.36100 32.07400
O  43.85100 16.08300 33.83900
C  43.24200 17.10400 34.70200
H  50.43300 17.96300 29.44200
H  49.75100 14.81500 23.94400
H  43.82500 13.06300 26.04600
H  46.47800 17.49600 32.39100
H  49.25700 17.92500 31.81800
H  48.70600 19.87000 31.70200
H  46.95800 19.49200 31.39700
H  48.16600 19.61700 30.05500
H  48.94700 15.87100 32.82700
H  47.48900 14.91600 32.67700
H  46.60800 15.44100 34.61600
H  47.02200 17.13800 34.58500
H  52.43400 18.93900 26.55700
H  52.78700 17.87000 27.98200
H  51.57400 19.04500 28.07300
H  53.41800 17.68300 25.23000
H  52.23100 18.54900 24.21400
H  53.53400 17.59800 23.47800
H  47.73900 13.05400 23.10500
H  44.99600 13.65000 23.46100
H  46.51000 15.89400 23.12500
H  46.23000 14.76400 21.71300
H  47.82500 15.16700 22.15500
H  45.58600 11.50500 23.05000
H  44.79200 11.33800 24.51200
H  47.71600 10.84400 24.09000
H  46.64500 9.91100 25.08400
H  47.17200 11.43500 25.65600
H  41.98000 12.88600 27.13000
H  41.41100 12.87800 28.86400
H  42.48100 11.68500 28.26400
H  45.06100 14.50200 32.70700
H  43.82000 18.02800 34.70400
H  43.08500 16.71300 35.70800
H  42.24900 17.32700 34.31400

