158

Mg 29.28300 57.77600 39.87700
C  26.52300 55.91300 38.91700
C  31.34800 55.52800 38.36400
C  31.86900 60.03100 39.94800
C  27.12700 60.29100 40.80200
N  28.94600 55.96400 38.55100
C  27.71900 55.30700 38.50200
C  27.88600 53.88100 37.89300
C  29.47000 53.65900 38.05200
C  29.96600 55.15200 38.34900
C  29.83000 52.78000 39.22900
C  27.26000 53.67400 36.50100
C  26.75800 54.92500 35.65500
H  26.87700 54.72500 34.11200
N  31.42800 57.69800 39.34400
C  32.03100 56.64600 38.72100
C  33.36300 56.92900 38.48800
C  33.59900 58.26600 38.95200
C  32.26600 58.80200 39.43900
C  34.31600 55.94200 37.93200
C  34.91400 59.09400 38.85300
O  35.95800 58.59700 38.42300
C  35.21800 60.51400 39.17000
N  29.55000 59.81700 40.38000
C  30.68400 60.52300 40.42400
C  30.57700 61.90700 40.99000
C  29.02500 61.91200 41.44000
C  28.52800 60.56800 40.89800
C  31.45700 62.31200 42.20800
C  28.29200 63.23700 41.05700
C  27.39100 63.96200 42.14800
N  27.24800 58.11700 39.81800
C  26.54400 59.12600 40.31200
C  25.11400 58.78000 40.32800
C  25.07200 57.51500 39.82400
C  26.40100 57.15400 39.43700
C  23.89900 59.52700 40.87200
C  24.19200 56.42000 39.31700
O  22.97000 56.38200 39.27900
C  25.09600 55.27700 38.86200
C  24.88700 54.09700 39.61100
O  25.47400 53.68800 40.63500
O  23.92200 53.33700 38.91200
C  23.33900 52.18400 39.53800
H  32.02700 54.69000 38.19500
H  32.66000 60.78000 39.87400
H  26.44500 61.10700 41.05000
H  27.35700 53.19700 38.55700
H  29.97700 53.30900 37.15300
H  28.91400 52.30600 39.58400
H  30.19700 53.42200 40.02900
H  30.54500 52.07200 38.80900
H  26.38600 53.03300 36.61600
H  27.88300 53.05700 35.85300
H  27.34200 55.78200 35.99100
H  25.68700 55.03300 35.82500
H  33.98600 54.93500 38.18900
H  35.26400 56.07600 38.45300
H  34.44900 55.91200 36.85000
H  36.29600 60.66200 39.24200
H  34.80300 60.64400 40.17000
H  34.86200 61.24800 38.44800
H  30.80300 62.58100 40.16400
H  29.08400 61.83000 42.52500
H  32.03000 61.49400 42.64600
H  30.88400 62.87200 42.94700
H  32.19900 63.07300 41.96600
H  27.64400 63.06000 40.19900
H  29.18600 63.83300 40.87300
H  27.28200 63.27700 42.98800
H  26.39800 64.17000 41.74700
H  27.86300 64.84800 42.57300
H  23.95100 59.73100 41.94200
H  23.01900 58.93800 40.61200
H  23.82900 60.50500 40.39700
H  24.79000 55.00600 37.85100
H  22.32600 51.99900 39.17900
H  23.22000 52.49500 40.57600
H  23.89700 51.25900 39.39500
Mg -11.57600 16.85200 41.59400
C  -8.42100 15.35000 41.09600
C  -10.11500 19.80900 40.41000
C  -14.63900 18.05600 41.38700
C  -12.82100 13.64000 42.38200
N  -9.51700 17.47900 40.68000
C  -8.43800 16.70000 40.72600
C  -7.20800 17.43300 40.28300
C  -7.74100 18.91100 40.26600
C  -9.22300 18.73500 40.44400
C  -7.04400 19.88600 41.32400
C  -6.65800 17.01200 38.87100
C  -5.15300 16.96200 38.73100
H  -4.63800 17.19700 37.27900
N  -12.33200 18.68800 40.93000
C  -11.57800 19.78500 40.58000
C  -12.49200 20.87300 40.25600
C  -13.85600 20.44300 40.53000
C  -13.68900 19.03000 41.00500
C  -12.06600 22.25100 39.75700
C  -15.11400 21.23500 40.27800
O  -15.08800 22.38500 39.79900
C  -16.47500 20.66100 40.61000
N  -13.47100 15.96000 41.86100
C  -14.57700 16.67700 41.70600
C  -15.86300 15.87600 41.98000
C  -15.28300 14.48500 42.37200
C  -13.74200 14.66500 42.26700
C  -16.81900 16.50300 42.98700
C  -15.80200 13.28100 41.48900
C  -16.98600 12.54100 42.03900
N  -10.78500 14.86100 41.80100
C  -11.40300 13.69400 42.24300
C  -10.35400 12.66500 42.23900
C  -9.17700 13.24200 41.82000
C  -9.48700 14.55600 41.56300
C  -10.66700 11.24400 42.45900
C  -7.75800 12.98400 41.46700
O  -7.07800 11.99600 41.51800
C  -7.16200 14.45900 41.03500
C  -6.16200 14.86000 42.04700
O  -6.37200 15.14600 43.21200
O  -4.86800 14.83600 41.44400
C  -3.69000 15.03500 42.30600
H  -9.67500 20.80100 40.28700
H  -15.65100 18.46400 41.34400
H  -13.29000 12.66700 42.54300
H  -6.51800 17.28400 41.11300
H  -7.58500 19.43400 39.32200
H  -6.17800 19.41700 41.79100
H  -7.76800 19.90800 42.13900
H  -6.84800 20.90000 40.97500
H  -7.03100 17.61900 38.04600
H  -6.99300 15.98900 38.70100
H  -4.68300 16.01900 39.00800
H  -4.86200 17.80900 39.35200
H  -12.33800 22.56400 38.74900
H  -10.99100 22.41200 39.83000
H  -12.40200 23.01400 40.46000
H  -16.64700 19.84700 39.90600
H  -17.23600 21.43000 40.47400
H  -16.43100 20.25300 41.61900
H  -16.23700 16.01700 40.96600
H  -15.52700 14.34800 43.42500
H  -16.98800 15.92200 43.89400
H  -17.81400 16.66800 42.57400
H  -16.40700 17.46600 43.28700
H  -14.96600 12.61500 41.27700
H  -16.11600 13.66400 40.51800
H  -17.25100 13.01800 42.98300
H  -16.68900 11.52600 42.30300
H  -17.80400 12.48500 41.32000
H  -11.40700 11.25300 43.25900
H  -9.80400 10.62600 42.70500
H  -11.17000 10.79100 41.60400
H  -6.64000 14.43800 40.07900
H  -3.88200 15.05500 43.37900
H  -3.31600 16.04300 42.13200
H  -2.92100 14.32000 42.01300

