158

Mg 2.09600 -0.30100 41.95600
C  5.43200 0.63300 41.63400
C  1.26200 2.87400 40.76800
C  -0.99400 -1.25900 41.84800
C  3.20900 -3.41500 43.04100
N  3.26200 1.43700 41.26600
C  4.60000 1.64600 41.22300
C  5.06100 2.92600 40.54300
C  3.69700 3.73700 40.47700
C  2.64000 2.61200 40.91300
C  3.58900 4.93300 41.37500
C  5.89800 3.02200 39.18800
C  5.84900 1.77600 38.26400
H  5.58000 1.98000 36.81800
N  0.31800 0.68900 41.43200
C  0.15900 1.97900 40.98900
C  -1.14900 2.22700 40.59600
C  -1.85900 1.05300 41.07900
C  -0.86300 0.11900 41.49200
C  -1.61600 3.57400 40.27100
C  -3.34000 0.87200 40.89000
O  -4.02700 1.78400 40.31700
C  -4.05500 -0.41800 41.35100
N  1.21500 -2.10500 42.30300
C  -0.09800 -2.21200 42.22400
C  -0.53600 -3.70600 42.47800
C  0.83300 -4.40200 42.73400
C  1.83500 -3.25500 42.65900
C  -1.72000 -4.00200 43.50700
C  1.19100 -5.69400 41.85100
C  1.28900 -7.04500 42.56900
N  3.96100 -1.25100 42.46700
C  4.23000 -2.47900 42.91600
C  5.64800 -2.63700 43.01200
C  6.18900 -1.49300 42.51700
C  5.10900 -0.65600 42.21300
C  6.37500 -3.78600 43.42700
C  7.34700 -0.77900 42.28700
O  8.51400 -1.10200 42.56400
C  6.94000 0.61600 41.64900
C  7.61600 1.63600 42.44900
O  8.19900 2.61800 41.92200
O  7.49200 1.45200 43.78300
C  8.22800 2.53900 44.61100
H  1.17300 3.93100 40.51300
H  -1.96100 -1.76400 41.80300
H  3.57400 -4.40900 43.30800
H  5.88300 3.35600 41.11500
H  3.57500 4.09000 39.45300
H  2.65300 4.87300 41.93000
H  3.57300 5.77100 40.67900
H  4.50600 5.09500 41.94100
H  6.97600 3.08200 39.33500
H  5.65700 3.98600 38.74000
H  5.13100 1.02600 38.59400
H  6.88100 1.43000 38.19600
H  -1.94100 3.70000 39.23800
H  -0.76900 4.25100 40.38200
H  -2.43100 3.99600 40.86000
H  -3.65500 -0.68300 42.33000
H  -4.10100 -1.20100 40.59400
H  -5.08900 -0.22600 41.64000
H  -0.87500 -4.05100 41.50100
H  0.76200 -4.73100 43.77100
H  -1.27000 -4.58800 44.30800
H  -2.48200 -4.61000 43.02100
H  -1.96500 -3.00900 43.88500
H  2.20100 -5.54500 41.46700
H  0.42500 -5.75400 41.07800
H  1.14600 -6.90300 43.64000
H  2.12800 -7.69500 42.31900
H  0.34600 -7.51400 42.28800
H  6.93800 -4.08600 42.54300
H  5.68500 -4.57500 43.72500
H  7.05900 -3.71900 44.27300
H  7.20200 0.64500 40.59100
H  7.84400 3.52600 44.35100
H  9.30700 2.49000 44.46400
H  8.02200 2.33200 45.66100
Mg -9.67800 41.16600 42.44100
C  -8.94600 37.96800 41.39700
C  -6.81700 42.27500 41.04900
C  -11.03900 44.40300 42.32700
C  -12.98100 39.95900 43.07700
N  -8.21500 40.27400 40.93400
C  -8.04200 38.89800 40.81400
C  -6.68200 38.63200 40.33000
C  -5.90300 39.92400 40.67100
C  -7.00400 40.93800 40.82100
C  -4.84800 39.95500 41.81000
C  -6.63100 38.14400 38.81200
C  -5.95800 36.87300 38.44300
H  -4.94300 37.05400 37.25900
N  -8.92800 43.10000 42.02200
C  -7.70900 43.33800 41.45700
C  -7.42400 44.83300 41.49800
C  -8.65100 45.39900 41.93800
C  -9.62100 44.31800 42.08600
C  -6.21200 45.55600 40.96200
C  -8.83000 46.87200 42.16600
O  -7.96700 47.71200 42.01900
C  -10.08800 47.54300 42.77600
N  -11.70000 42.10900 42.64100
C  -12.01000 43.40800 42.57200
C  -13.48600 43.66000 42.72800
C  -14.02700 42.25700 42.98800
C  -12.84300 41.35000 42.89000
C  -14.02400 44.67900 43.72700
C  -15.12200 41.86200 41.95500
C  -16.45300 41.25100 42.42600
N  -10.71900 39.30200 42.62900
C  -11.97600 38.94800 43.01200
C  -12.12800 37.46200 42.98500
C  -10.94700 37.05600 42.38900
C  -10.13900 38.19900 42.11600
C  -13.33800 36.59900 43.27700
C  -10.23700 35.89200 41.92500
O  -10.50700 34.68500 41.94100
C  -8.86100 36.44700 41.34000
C  -7.85100 35.89800 42.19900
O  -7.45800 36.39400 43.28600
O  -7.18200 34.92500 41.42900
C  -5.83300 34.45700 41.96500
H  -5.83000 42.73600 40.96500
H  -11.36400 45.42500 42.12100
H  -14.00600 39.67400 43.32600
H  -6.25300 37.86600 40.97600
H  -5.20800 40.13600 39.85900
H  -4.26700 39.03300 41.80900
H  -5.39800 39.94800 42.75100
H  -4.22400 40.84600 41.74000
H  -6.35400 38.96000 38.14500
H  -7.70600 38.01200 38.68900
H  -6.74200 36.13700 38.26500
H  -5.55600 36.45300 39.36400
H  -6.49600 45.99300 40.00400
H  -5.39300 44.89800 40.67200
H  -5.83800 46.29900 41.66500
H  -10.49600 47.01400 43.63700
H  -10.89800 47.57000 42.04700
H  -9.79100 48.54900 43.07200
H  -13.82700 43.81100 41.70400
H  -14.46700 42.09800 43.97200
H  -14.18200 45.57500 43.12600
H  -13.40600 44.95100 44.58200
H  -15.05300 44.37200 43.91200
H  -14.51800 41.21300 41.32100
H  -15.45400 42.62600 41.25200
H  -17.21700 41.98700 42.17300
H  -16.44800 41.05300 43.49800
H  -16.69700 40.27300 42.01300
H  -14.00000 37.25400 43.84400
H  -13.09100 35.74000 43.90000
H  -13.84100 36.28100 42.36300
H  -8.79200 36.10900 40.30600
H  -5.01800 35.08500 41.60500
H  -5.60700 33.43400 41.66400
H  -5.80200 34.64200 43.03900

