158

Mg 30.46600 57.80400 39.41300
C  27.63600 55.81900 38.73500
C  32.30100 55.08700 38.11900
C  33.04300 59.78200 39.58200
C  28.28300 60.45400 40.39400
N  29.99000 55.71900 38.59900
C  28.79500 55.14500 38.45000
C  28.75400 53.70500 37.90400
C  30.29600 53.45400 38.09100
C  30.91500 54.82100 38.24500
C  30.61700 52.47500 39.23400
C  28.29000 53.60300 36.49100
C  28.58300 54.77300 35.60400
H  27.64400 55.03100 34.36300
N  32.38900 57.42300 39.06400
C  32.95900 56.34600 38.41700
C  34.40100 56.62400 38.22700
C  34.59500 57.90600 38.59500
C  33.34400 58.38600 39.18100
C  35.35900 55.60500 37.70500
C  35.92200 58.70600 38.48100
O  36.87300 58.17900 37.96900
C  36.15100 60.09400 38.84300
N  30.60200 59.85200 39.84900
C  31.80500 60.40500 39.97200
C  31.76200 61.84000 40.32700
C  30.24700 61.99200 40.83700
C  29.69600 60.67000 40.38900
C  32.75700 62.40300 41.36000
C  29.45300 63.17700 40.20100
C  28.68100 63.99900 41.23800
N  28.37800 58.15400 39.57700
C  27.66800 59.25300 39.94700
C  26.27600 59.00400 39.78100
C  26.17600 57.70300 39.32700
C  27.45600 57.20700 39.23100
C  25.18500 59.96200 40.01500
C  25.30300 56.67000 38.77400
O  24.05000 56.67800 38.66100
C  26.16800 55.42100 38.48800
C  25.85900 54.31800 39.47500
O  26.48200 54.10500 40.48800
O  24.69100 53.66100 39.05600
C  24.05800 52.43800 39.71000
H  33.01200 54.30700 37.83800
H  33.82600 60.54200 39.53600
H  27.66700 61.26600 40.78600
H  28.03400 53.18600 38.53700
H  30.69100 52.96900 37.19800
H  31.65300 52.13800 39.18800
H  30.10600 51.52300 39.09300
H  30.27200 52.83600 40.20300
H  27.25400 53.29900 36.34100
H  28.87500 52.83500 35.98500
H  29.56300 54.47500 35.23000
H  28.69500 55.74600 36.08200
H  35.74400 55.89700 36.72900
H  34.96900 54.63000 37.41200
H  36.13400 55.40500 38.44500
H  35.76000 60.18400 39.85700
H  35.67500 60.74700 38.11100
H  37.20900 60.32500 38.96600
H  32.02400 62.32300 39.38600
H  30.27200 61.96800 41.92700
H  32.79800 61.60700 42.10300
H  32.27800 63.24300 41.86400
H  33.70300 62.83100 41.02900
H  28.82900 62.68500 39.45500
H  30.26100 63.78300 39.78900
H  29.15900 64.94600 41.48900
H  28.37200 63.45600 42.13200
H  27.79200 64.31000 40.69000
H  25.48500 60.54700 40.88500
H  24.31100 59.37400 40.29700
H  24.90200 60.61600 39.19000
H  25.92300 55.01400 37.50700
H  24.94800 51.89200 40.02300
H  23.33700 51.89400 39.10000
H  23.32300 52.64900 40.48600
Mg -5.74500 25.35000 25.67600
C  -4.29700 26.70500 28.47800
C  -7.51500 23.21900 27.91700
C  -7.17000 24.02300 23.05000
C  -3.81900 27.45700 23.67600
N  -5.89700 25.03700 27.92200
C  -5.25300 25.78200 28.83000
C  -5.72200 25.50500 30.27200
C  -6.55500 24.22900 30.03000
C  -6.77500 24.15300 28.56400
C  -5.86600 22.97500 30.64300
C  -6.52800 26.65800 30.97600
C  -6.10900 26.90800 32.43300
H  -6.01000 25.70300 33.38700
N  -7.07800 23.75300 25.53300
C  -7.65800 23.00100 26.50800
C  -8.54200 22.04000 25.84700
C  -8.53900 22.32400 24.42600
C  -7.60400 23.41000 24.28800
C  -9.42900 21.07900 26.64500
C  -9.18500 21.51200 23.25400
O  -9.11400 21.83700 22.07600
C  -10.00900 20.27000 23.47000
N  -5.37800 25.56300 23.68800
C  -6.22400 24.99500 22.73600
C  -6.02600 25.53600 21.39900
C  -5.09300 26.76800 21.63300
C  -4.79300 26.65300 23.12600
C  -5.45900 24.45100 20.38100
C  -5.70300 28.13700 21.17200
C  -4.86400 28.88700 20.13600
N  -4.30900 26.77600 25.98000
C  -3.57100 27.57800 25.06800
C  -2.56500 28.39300 25.78500
C  -2.88300 28.08600 27.12700
C  -3.94000 27.10700 27.15000
C  -1.61400 29.41700 25.28500
C  -2.59500 28.49300 28.48500
O  -1.69100 29.20300 28.91400
C  -3.46700 27.58900 29.39100
C  -2.58400 26.87400 30.26600
O  -1.83600 25.94500 30.00800
O  -2.62700 27.45200 31.51300
C  -1.73900 26.79500 32.54500
H  -8.14000 22.56600 28.52900
H  -7.75900 23.71300 22.18400
H  -3.41900 28.22600 23.01200
H  -4.82400 25.23800 30.82900
H  -7.56500 24.27500 30.43600
H  -4.99600 23.28600 31.22200
H  -5.65500 22.31900 29.79800
H  -6.59100 22.52200 31.32000
H  -7.60900 26.52400 30.94100
H  -6.38000 27.61500 30.47600
H  -6.87900 27.63200 32.70000
H  -5.15700 27.43500 32.36300
H  -10.47800 21.34800 26.52300
H  -9.28300 21.20800 27.71800
H  -9.16500 20.06200 26.35800
H  -9.43800 19.39600 23.78400
H  -10.23500 20.03300 22.43100
H  -10.82000 20.36100 24.19200
H  -7.02600 25.81700 21.06800
H  -4.08100 26.67100 21.24100
H  -5.98100 24.47200 19.42400
H  -5.31300 23.43000 20.73200
H  -4.45600 24.78400 20.11400
H  -5.79900 28.72700 22.08300
H  -6.70400 28.04100 20.75300
H  -4.91000 29.97000 20.25400
H  -5.34300 28.68300 19.17800
H  -3.82700 28.56200 20.05700
H  -2.04000 30.41900 25.25100
H  -1.38900 29.04300 24.28500
H  -0.76500 29.38900 25.96800
H  -4.12400 28.22200 29.98700
H  -1.90600 27.32100 33.48500
H  -0.66500 26.89600 32.38300
H  -2.09500 25.76500 32.56200

