158

Mg 36.50200 48.58100 24.78200
C  36.70400 46.63500 27.76100
C  34.93200 51.11600 26.55000
C  35.61500 49.96000 21.88300
C  37.33600 45.56900 22.97500
N  35.92900 48.80300 26.92800
C  36.19400 47.96700 27.96700
C  35.66500 48.61800 29.21000
C  35.23200 50.06500 28.87700
C  35.36100 50.01100 27.35800
C  33.78300 50.48000 29.32400
C  36.49200 48.40900 30.47600
C  36.37700 49.43700 31.69300
H  35.15400 49.36700 32.61100
N  35.67300 50.37700 24.31600
C  35.02800 51.25700 25.15500
C  34.49200 52.41300 24.39200
C  34.81800 52.06400 23.05300
C  35.38100 50.76100 23.05800
C  33.87200 53.59200 25.11300
C  34.56200 52.84100 21.79200
O  34.84000 52.42700 20.67000
C  33.89700 54.20600 21.78400
N  36.40000 47.89400 22.80800
C  36.14400 48.71700 21.76800
C  36.52000 48.11500 20.39200
C  37.48700 46.99900 20.88700
C  37.06600 46.79300 22.30800
C  35.31000 47.65700 19.59900
C  38.98700 47.34600 20.67000
C  39.58100 47.08100 19.30600
N  36.95800 46.51800 25.26600
C  37.21900 45.43400 24.39900
C  37.53900 44.28600 25.19400
C  37.36000 44.68800 26.48100
C  37.03500 46.09000 26.52400
C  37.79700 42.96100 24.63000
C  37.27600 44.14400 27.82500
O  37.42900 43.02900 28.27000
C  36.82700 45.43600 28.70700
C  35.45700 45.05400 29.26700
O  34.40400 45.19300 28.67800
O  35.61300 44.52800 30.50600
C  34.36200 44.35700 31.28900
H  34.40700 51.89900 27.10100
H  35.42700 50.38400 20.89400
H  37.86000 44.85200 22.34000
H  34.75600 48.07400 29.46700
H  35.99400 50.80200 29.12900
H  33.97300 51.44500 29.79300
H  33.47100 49.77500 30.09500
H  33.05100 50.46600 28.51700
H  37.53800 48.11700 30.38500
H  36.09500 47.53400 30.98900
H  36.49600 50.43500 31.27100
H  37.26300 49.29900 32.31400
H  33.14600 54.12100 24.49700
H  34.62300 54.36000 25.29600
H  33.42200 53.18600 26.01900
H  34.46000 54.86800 22.44200
H  32.89500 53.92000 22.10400
H  33.84800 54.69200 20.81000
H  37.03400 48.91100 19.85300
H  37.11400 46.13600 20.33600
H  34.43200 47.57000 20.23900
H  35.57000 46.73100 19.08600
H  35.08600 48.31600 18.76000
H  39.69500 46.94600 21.39600
H  39.02400 48.41200 20.89700
H  38.77100 46.81400 18.62700
H  40.38300 46.35600 19.43900
H  40.08200 47.89200 18.77700
H  38.60900 42.95700 23.90400
H  36.97800 42.49500 24.08200
H  38.09000 42.35000 25.48500
H  37.49000 45.68100 29.53700
H  34.48600 43.72100 32.16600
H  33.57700 43.83000 30.74600
H  33.97700 45.34100 31.55500
Mg 4.89400 54.71200 39.69600
C  5.32700 51.27900 39.00200
C  7.92100 55.27600 38.26000
C  4.06700 57.92600 39.69400
C  1.76700 53.86600 41.02700
N  6.28400 53.45900 38.62800
C  6.26600 52.06800 38.42200
C  7.47000 51.71300 37.54800
C  8.53000 52.71900 38.07100
C  7.56900 53.90800 38.31000
C  9.21300 52.36100 39.43400
C  7.17000 51.93100 36.03700
C  7.40400 50.69200 35.13100
H  6.37200 50.48300 34.01400
N  5.86200 56.45200 39.05100
C  7.09800 56.41400 38.44500
C  7.41800 57.74900 38.08500
C  6.32800 58.58100 38.52300
C  5.32900 57.70400 39.11200
C  8.61000 58.17200 37.26900
C  6.18600 60.14000 38.22000
O  7.10200 60.75500 37.62300
C  4.84600 60.89000 38.37800
N  3.09500 55.67300 40.12600
C  3.03200 57.04700 40.07700
C  1.71600 57.57800 40.74600
C  0.83200 56.27100 40.99000
C  1.94900 55.15300 40.72800
C  1.88500 58.46500 41.95500
C  -0.41500 56.14900 40.11500
C  -1.74900 55.97300 40.80800
N  3.66800 52.90100 40.06100
C  2.49100 52.71900 40.71000
C  2.30900 51.27600 40.95600
C  3.40400 50.63300 40.25800
C  4.15800 51.65300 39.70900
C  1.23000 50.58900 41.82700
C  4.12200 49.40200 39.95800
O  3.79500 48.23200 40.26500
C  5.42400 49.72200 39.15400
C  5.38500 48.98200 37.85800
O  4.51900 49.08700 36.98000
O  6.48000 48.12700 37.84000
C  6.44800 47.16700 36.65300
H  8.95900 55.52600 38.02800
H  3.69500 58.95200 39.64600
H  0.95900 53.62900 41.72200
H  7.79800 50.71700 37.84500
H  9.29700 53.02900 37.36100
H  9.19700 51.29900 39.67800
H  8.72200 53.02000 40.15100
H  10.22900 52.75100 39.37700
H  7.88800 52.64500 35.63400
H  6.11200 52.17500 35.94300
H  7.43200 49.78100 35.72800
H  8.40400 50.83300 34.72100
H  8.19200 58.81900 36.49700
H  9.02200 57.32000 36.72900
H  9.42800 58.50000 37.91100
H  4.93900 61.77600 37.75000
H  4.74700 61.14100 39.43400
H  3.93100 60.36700 38.10000
H  1.20200 58.13600 39.96300
H  0.58600 56.25300 42.05200
H  1.56400 59.44000 41.58900
H  2.92700 58.49500 42.27400
H  1.25200 58.18700 42.79800
H  -0.11600 55.25800 39.56200
H  -0.52800 56.93100 39.36400
H  -2.60600 56.33100 40.23800
H  -1.81500 56.40800 41.80500
H  -1.80300 54.89200 40.93900
H  1.28900 50.48100 42.91000
H  1.09000 49.54900 41.53100
H  0.26500 51.05200 41.61900
H  6.33600 49.41500 39.66600
H  6.79600 46.31100 37.23100
H  7.17300 47.38000 35.86900
H  5.46700 46.89500 36.26300

