158

Mg 35.01800 2.66700 30.09700
C  32.56300 3.53300 32.57100
C  37.36300 2.66200 32.52600
C  37.45200 2.27800 27.79100
C  32.59800 3.00600 27.70500
N  34.91800 2.91400 32.23700
C  33.86000 3.21900 33.03800
C  34.27700 3.27700 34.47900
C  35.80500 3.42600 34.44600
C  36.04700 2.92500 32.97000
C  36.39300 4.79800 34.97900
C  33.69800 2.14000 35.42400
C  33.23500 2.55800 36.87300
H  33.88400 3.76200 37.62700
N  37.05300 2.30700 30.19900
C  37.84200 2.37500 31.29500
C  39.29500 2.27500 30.93100
C  39.36400 2.17700 29.51900
C  37.93900 2.27100 29.07500
C  40.42600 2.35800 31.91500
C  40.58600 1.94900 28.58500
O  40.51300 1.83800 27.36800
C  42.04600 1.71900 29.05400
N  35.04500 2.54700 28.07300
C  36.12300 2.32500 27.31200
C  35.73100 2.24700 25.82100
C  34.19700 2.48800 25.81900
C  33.93700 2.68200 27.30400
C  36.48600 3.26100 24.92200
C  33.32300 1.34600 25.16400
C  32.50200 1.69500 23.93700
N  33.05200 3.18900 30.05400
C  32.15000 3.28100 29.07600
C  30.85700 3.68400 29.49300
C  30.99000 3.88600 30.89800
C  32.33100 3.46000 31.19200
C  29.64400 3.98200 28.61700
C  30.29600 4.26700 32.12000
O  29.15200 4.73300 32.30300
C  31.34900 4.09300 33.25000
C  31.55700 5.40500 33.90000
O  32.37800 6.23400 33.53000
O  30.65800 5.58800 34.94200
C  30.57900 6.94600 35.48100
H  38.06600 2.81800 33.34700
H  38.22600 2.24400 27.02000
H  31.91200 3.27600 26.89900
H  33.79900 4.18900 34.83800
H  36.22900 2.65600 35.09100
H  35.81600 5.46300 35.62200
H  36.60000 5.48900 34.16200
H  37.20900 4.50300 35.63900
H  34.35600 1.28000 35.54500
H  32.78700 1.82700 34.91300
H  33.23800 1.64000 37.46100
H  32.16800 2.76400 36.78700
H  41.00600 1.43800 31.84200
H  40.01600 2.33800 32.92500
H  41.04300 3.24000 31.74700
H  42.59500 1.14100 28.31100
H  42.10300 1.14200 29.97700
H  42.63000 2.63000 29.18800
H  35.86700 1.19200 25.58000
H  33.87800 3.36900 25.26200
H  36.79500 4.16400 25.44900
H  35.91200 3.44600 24.01400
H  37.37700 2.82500 24.46900
H  32.70500 0.96000 25.97500
H  33.99300 0.54300 24.85700
H  32.72200 2.69800 23.57200
H  31.44900 1.72200 24.21900
H  32.65400 0.96200 23.14400
H  29.70800 4.89300 28.02100
H  28.81800 4.08200 29.32000
H  29.49500 3.12400 27.96200
H  31.02900 3.50800 34.11200
H  30.42900 7.66600 34.67600
H  31.49500 7.30100 35.95500
H  29.72900 7.09000 36.14700
Mg 42.23900 41.51800 27.04700
C  41.19200 43.82300 29.46900
C  43.33400 39.43500 29.55500
C  43.42100 39.48200 24.72700
C  41.76100 44.00400 24.66600
N  42.19900 41.69000 29.31900
C  41.71100 42.66300 30.09500
C  41.89700 42.30300 31.57600
C  42.80400 40.99000 31.53500
C  42.73000 40.58100 30.01800
C  44.32000 40.99600 31.96400
C  40.48100 42.17400 32.17400
C  40.27200 42.95700 33.52300
H  39.70000 42.23400 34.70600
N  43.11400 39.65800 27.12700
C  43.45000 38.94300 28.20200
C  43.87200 37.65100 27.82000
C  44.01200 37.67600 26.39600
C  43.56500 39.03500 26.00300
C  44.29000 36.57400 28.74800
C  44.55700 36.54800 25.36600
O  44.57900 36.71000 24.10700
C  44.93200 35.24900 25.86000
N  42.48600 41.64400 25.06600
C  42.88900 40.66300 24.30000
C  42.70600 40.89600 22.78000
C  42.31900 42.42800 22.71300
C  42.12500 42.72400 24.27100
C  43.84100 40.53400 21.73000
C  41.13800 42.79000 21.73200
C  39.80400 43.04700 22.35500
N  41.53900 43.53000 27.00100
C  41.47700 44.47900 25.98700
C  40.83400 45.65100 26.42100
C  40.70400 45.46200 27.78700
C  41.23600 44.18500 28.10500
C  40.29200 46.76000 25.56700
C  40.31600 46.04300 29.08200
O  39.81000 47.16300 29.29500
C  40.71200 45.07000 30.22700
C  41.65000 45.72600 31.12100
O  42.72600 46.18100 30.81900
O  41.00300 45.82100 32.33500
C  41.58800 46.66900 33.29000
H  43.71100 38.84700 30.39400
H  43.85600 38.87600 23.93000
H  41.67100 44.79600 23.92000
H  42.56400 43.06200 31.98600
H  42.33600 40.19200 32.11200
H  44.39700 42.01400 32.34600
H  45.05100 40.98400 31.15500
H  44.52700 40.16700 32.64000
H  40.35400 41.11600 32.40500
H  39.73000 42.37500 31.41000
H  39.47200 43.67600 33.34200
H  41.14900 43.48500 33.90000
H  45.37500 36.61200 28.84900
H  43.86800 35.63500 28.39200
H  43.85700 36.66000 29.74400
H  45.31400 34.69700 25.00100
H  43.98500 34.75800 26.08300
H  45.54700 35.20400 26.75900
H  41.81100 40.36600 22.45300
H  43.20600 42.94700 22.35100
H  43.38600 40.33300 20.76000
H  44.15900 39.53500 22.02900
H  44.65500 41.24400 21.58500
H  40.92600 42.02600 20.98400
H  41.42300 43.69400 21.19400
H  39.56600 42.48200 23.25600
H  39.05800 42.84800 21.58500
H  39.60600 44.10800 22.50200
H  40.02600 46.43800 24.56100
H  41.03500 47.55600 25.51500
H  39.41100 47.15900 26.06900
H  39.74600 45.07600 30.73300
H  42.00200 46.05800 34.09200
H  40.74000 47.21200 33.70700
H  42.29500 47.42600 32.95200

