158

Mg 45.80800 17.51700 28.16400
C  44.09800 16.75400 31.18700
C  47.92900 19.47000 30.08100
C  47.39600 18.23500 25.52700
C  43.34800 15.77400 26.40900
N  46.01000 17.98800 30.36100
C  45.29800 17.44600 31.36000
C  45.86400 17.83100 32.75300
C  46.78500 18.99600 32.37700
C  46.94200 18.82700 30.83400
C  46.22300 20.40500 32.85300
C  46.49200 16.59100 33.37300
C  46.22300 16.36600 34.85900
H  45.89300 17.67800 35.67500
N  47.47800 18.73600 27.81700
C  48.26800 19.36700 28.71600
C  49.40500 19.93100 27.99000
C  49.23400 19.66600 26.59700
C  48.05900 18.82100 26.64800
C  50.52900 20.50700 28.81000
C  50.02100 20.02600 25.32300
O  49.72900 19.79300 24.14200
C  51.29800 20.83600 25.47500
N  45.18700 17.34700 26.22000
C  46.11100 17.65200 25.32800
C  45.66500 17.22900 23.88600
C  44.59900 16.09500 24.20400
C  44.20800 16.51900 25.68400
C  45.26200 18.32700 22.86600
C  45.17900 14.61900 24.12800
C  44.62600 13.82400 22.94600
N  44.06900 16.47600 28.61300
C  43.19500 15.75700 27.83100
C  42.05300 15.25400 28.62300
C  42.46800 15.59500 29.94500
C  43.62100 16.34500 29.89800
C  40.79800 14.59500 28.17300
C  42.06700 15.43100 31.42300
O  41.22600 14.74100 31.95600
C  43.19000 16.21100 32.22700
C  42.57000 17.28200 32.94600
O  42.13400 18.26900 32.38100
O  42.61400 17.05600 34.37200
C  41.85000 18.04100 35.11200
H  48.55800 20.12200 30.69000
H  47.88600 18.33800 24.55700
H  42.75300 15.03400 25.86900
H  45.04200 18.20000 33.36700
H  47.71300 18.82700 32.92300
H  46.38100 20.51300 33.92600
H  45.14800 20.43500 32.67600
H  46.66400 21.24400 32.31400
H  47.55900 16.53000 33.15700
H  46.28700 15.67200 32.82300
H  47.15700 16.00000 35.28500
H  45.46100 15.58700 34.88500
H  51.38000 20.70200 28.15600
H  50.71900 19.84700 29.65600
H  50.10800 21.44800 29.16500
H  52.13200 20.20800 25.78800
H  51.16700 21.75200 26.05100
H  51.65200 21.17400 24.50100
H  46.46600 16.64500 23.43200
H  43.65900 16.19700 23.66200
H  44.23300 18.31600 22.50500
H  45.97500 18.26500 22.04500
H  45.30900 19.30700 23.34200
H  44.93500 14.09400 25.05200
H  46.26700 14.55700 24.14800
H  44.12100 14.44300 22.20500
H  44.06900 12.94900 23.28200
H  45.43900 13.29900 22.44400
H  40.91600 14.31800 27.12500
H  39.99100 15.28000 28.43500
H  40.73000 13.68000 28.76100
H  43.59500 15.48000 32.92700
H  42.02300 19.06100 34.77000
H  42.23600 18.05300 36.13100
H  40.78500 17.81000 35.13300
Mg -11.98000 16.47500 40.93200
C  -8.85200 15.08100 40.43300
C  -10.75100 19.58200 39.77100
C  -15.16600 17.74600 40.71400
C  -13.29900 13.42100 41.52200
N  -10.07100 17.16300 39.97600
C  -8.89000 16.43400 39.92300
C  -7.74900 17.38900 39.33600
C  -8.32100 18.78600 39.44900
C  -9.83700 18.53700 39.76300
C  -7.58900 19.72300 40.45800
C  -7.10100 16.93000 37.99100
C  -5.58500 17.02500 37.84300
H  -5.07300 16.88400 36.40100
N  -12.80800 18.41900 40.51200
C  -12.13400 19.52900 40.07400
C  -13.06500 20.64200 39.96600
C  -14.36900 20.15900 40.32200
C  -14.15000 18.71900 40.54100
C  -12.61400 22.08800 39.71300
C  -15.71000 20.98000 40.44700
O  -15.69100 22.19500 40.27500
C  -17.06100 20.43000 40.85700
N  -14.00600 15.64800 41.13100
C  -15.14300 16.40000 41.05800
C  -16.37900 15.49600 41.27500
C  -15.68300 14.12000 41.68200
C  -14.21800 14.38000 41.36900
C  -17.42900 15.96000 42.23900
C  -16.27500 12.97100 40.92800
C  -16.50800 11.66400 41.74500
N  -11.25900 14.66400 40.97600
C  -11.91200 13.51500 41.33400
C  -10.98700 12.38100 41.35500
C  -9.77300 13.00300 41.07800
C  -10.00700 14.38100 40.83500
C  -11.18200 10.88000 41.62900
C  -8.33100 12.73300 41.10400
O  -7.64800 11.70400 41.31700
C  -7.72700 14.11500 40.57300
C  -6.76600 14.63500 41.61200
O  -6.88100 15.64500 42.30600
O  -5.67800 13.71300 41.78000
C  -4.72400 13.84300 42.88900
H  -10.46800 20.59900 39.49300
H  -16.18700 18.12700 40.65000
H  -13.66200 12.40700 41.70500
H  -7.00700 17.33600 40.13200
H  -8.29300 19.36000 38.52200
H  -7.39000 20.61500 39.86400
H  -6.66500 19.22000 40.74400
H  -8.20300 19.80900 41.35500
H  -7.55900 17.51900 37.19800
H  -7.46600 15.95500 37.66600
H  -5.24200 16.15600 38.40600
H  -5.25900 17.95600 38.30600
H  -13.34900 22.62000 39.10800
H  -11.58400 22.24900 39.39500
H  -12.73200 22.46700 40.72800
H  -17.72100 21.29500 40.92100
H  -16.93100 19.86700 41.78100
H  -17.37500 19.81900 40.01100
H  -16.83800 15.29500 40.30700
H  -15.66500 13.96300 42.76100
H  -18.40800 15.89400 41.76300
H  -17.17800 17.00900 42.39300
H  -17.46600 15.29200 43.10000
H  -15.60200 12.68800 40.11900
H  -17.19100 13.25000 40.40700
H  -15.66300 11.02000 41.49900
H  -17.45000 11.14100 41.58500
H  -16.41200 11.88200 42.80900
H  -11.23800 10.39100 40.65700
H  -12.11700 10.73000 42.16800
H  -10.30700 10.52300 42.17300
H  -7.14500 13.97900 39.66100
H  -3.67000 13.72600 42.63700
H  -4.98300 13.12700 43.66800
H  -4.90500 14.83200 43.31100

