158

Mg 17.27000 -1.99600 28.28900
C  16.21900 0.19200 30.87500
C  19.16800 -3.73000 30.78500
C  18.69800 -3.72900 25.85100
C  15.36100 -0.16000 26.06400
N  17.73100 -1.63500 30.57900
C  16.99800 -0.80400 31.40100
C  17.17100 -1.15300 32.82700
C  18.34000 -2.31300 32.84100
C  18.42100 -2.67600 31.34600
C  19.67100 -1.85300 33.52300
C  15.93300 -1.68000 33.54500
C  15.74300 -1.04600 34.91400
H  16.88200 -0.44600 35.76300
N  18.66100 -3.51800 28.30300
C  19.25100 -4.17000 29.35900
C  20.08800 -5.25800 28.91100
C  20.15700 -5.16400 27.47600
C  19.14400 -4.12400 27.13000
C  20.85800 -6.12700 29.87100
C  21.10700 -5.92600 26.49800
O  21.04800 -5.72800 25.28100
C  22.07000 -7.00800 27.08300
N  17.08800 -1.90600 26.30600
C  17.74900 -2.75000 25.47700
C  17.09100 -2.74100 23.98400
C  15.98300 -1.68000 24.13700
C  16.10400 -1.27200 25.61900
C  18.16500 -2.52300 22.85500
C  14.51000 -2.13600 23.72900
C  14.38200 -2.19000 22.17800
N  16.07700 -0.26400 28.36000
C  15.30300 0.30800 27.39500
C  14.62100 1.40900 27.96400
C  14.94500 1.39200 29.29900
C  15.79200 0.33100 29.53100
C  13.64400 2.37700 27.34500
C  14.81000 2.17000 30.49100
O  14.22300 3.24500 30.77100
C  15.51900 1.36300 31.63300
C  16.42400 2.26600 32.39000
O  17.58600 2.59600 32.09400
O  15.66300 2.61200 33.58600
C  16.31700 3.52200 34.54400
H  19.62700 -4.36500 31.54500
H  19.10100 -4.28400 25.00100
H  14.75600 0.31100 25.28600
H  17.54600 -0.25200 33.31400
H  18.08800 -3.27900 33.27900
H  19.55200 -0.87500 33.98800
H  20.47000 -1.80800 32.78400
H  20.00400 -2.50700 34.32900
H  15.87000 -2.76200 33.65900
H  15.05400 -1.44300 32.94500
H  15.23100 -1.75700 35.56200
H  15.04200 -0.22500 34.76200
H  20.94200 -7.17100 29.56800
H  20.25800 -6.20000 30.77800
H  21.81100 -5.61700 30.01000
H  22.51500 -6.60000 27.99100
H  22.80500 -7.02300 26.27900
H  21.62000 -7.97400 27.31500
H  16.66500 -3.73900 23.87400
H  16.21500 -0.82800 23.49800
H  19.11800 -2.20700 23.28000
H  17.84400 -1.83600 22.07200
H  18.22700 -3.50800 22.39200
H  13.87600 -1.31800 24.07200
H  14.28900 -3.08500 24.21900
H  13.68600 -3.01200 22.01300
H  15.31600 -2.44800 21.67900
H  13.96300 -1.24800 21.82300
H  13.14000 1.95000 26.47700
H  14.18400 3.24100 26.95800
H  13.05700 2.75200 28.18300
H  14.60200 0.98800 32.08800
H  15.76800 3.44900 35.48300
H  16.45600 4.54800 34.20300
H  17.30700 3.10800 34.73600
Mg 9.14200 47.47200 28.33900
C  7.35000 47.12100 31.38000
C  11.94900 48.21200 30.15200
C  10.74100 48.52300 25.53700
C  6.05700 48.28200 26.72900
N  9.52600 47.60900 30.52400
C  8.73500 47.34600 31.63300
C  9.49400 47.61800 32.97400
C  10.84600 48.05500 32.45800
C  10.77100 48.04100 30.90100
C  11.29600 49.48900 32.94200
C  9.37800 46.41700 33.88700
C  10.51900 46.09400 34.86500
H  10.10500 45.20600 36.08900
N  11.15800 47.77700 27.91100
C  12.13800 48.02200 28.80900
C  13.42400 48.14900 28.17300
C  13.11600 48.31400 26.75600
C  11.60600 48.21900 26.63300
C  14.80300 48.28600 28.84400
C  14.03800 48.56000 25.55600
O  13.61600 48.75100 24.45400
C  15.46700 48.51300 25.82500
N  8.49700 48.21000 26.35700
C  9.32700 48.51200 25.40600
C  8.73600 49.09100 24.16300
C  7.22900 48.84200 24.49100
C  7.21100 48.35600 25.94900
C  9.08600 50.59700 23.92700
C  6.49300 47.78700 23.57600
C  7.30000 46.42700 23.60700
N  7.12400 47.54300 28.81500
C  5.98600 47.83500 28.06500
C  4.79000 47.55700 28.89500
C  5.29700 47.21000 30.23000
C  6.71900 47.29900 30.06900
C  3.31600 47.67200 28.43100
C  4.91500 46.92900 31.57600
O  3.80700 46.79700 32.03300
C  6.20900 47.07300 32.36700
C  6.33000 45.89000 33.17900
O  6.52300 44.75800 32.71100
O  6.26200 46.13300 34.52900
C  6.49500 44.91700 35.35100
H  12.81200 48.38100 30.79800
H  11.33800 48.83100 24.67600
H  5.09300 48.39100 26.22800
H  8.94500 48.49700 33.31100
H  11.48300 47.20100 32.68800
H  12.38200 49.52800 33.02400
H  10.80000 49.63300 33.90200
H  10.87900 50.28300 32.32400
H  8.98400 45.52900 33.39100
H  8.61300 46.72700 34.59800
H  10.78500 47.05800 35.29900
H  11.43300 45.72200 34.40200
H  15.64800 47.74900 28.41200
H  14.81900 48.05400 29.90900
H  15.09100 49.33800 28.83900
H  15.97900 48.81600 24.91300
H  15.64100 47.45700 26.02900
H  15.77700 49.19100 26.62100
H  9.04000 48.49700 23.30100
H  6.74200 49.81000 24.37300
H  9.93200 50.57800 23.24000
H  9.43900 51.01200 24.87100
H  8.23700 51.15500 23.53200
H  6.43000 48.08500 22.52900
H  5.50100 47.60700 23.99200
H  8.07800 46.41900 24.37000
H  7.75900 46.27100 22.63100
H  6.74100 45.52000 23.83900
H  3.25000 48.43500 27.65500
H  2.60400 48.01700 29.18100
H  2.97200 46.66700 28.18900
H  6.06900 47.90900 33.05300
H  6.41000 45.31700 36.36100
H  7.42000 44.40000 35.09300
H  5.68500 44.21100 35.17000

