158

Mg 8.07400 2.51200 28.01500
C  9.87700 1.04100 30.63900
C  6.49900 4.57000 30.02500
C  6.38500 3.64600 25.28200
C  9.44600 -0.07800 25.90700
N  8.17200 2.66600 30.07500
C  8.99900 2.10500 30.98600
C  8.84000 2.74500 32.39300
C  7.67700 3.81300 32.11600
C  7.44600 3.64000 30.59300
C  6.41400 3.70300 32.99000
C  10.13100 3.23200 33.06600
C  10.24400 2.82700 34.54600
H  11.09800 3.66400 35.48400
N  6.82300 4.10100 27.65800
C  6.26900 4.81900 28.68400
C  5.29800 5.72300 28.07000
C  5.36600 5.56500 26.62600
C  6.22500 4.38500 26.43700
C  4.23000 6.51000 28.87100
C  4.58400 6.26200 25.50200
O  4.70100 5.91700 24.32800
C  3.89300 7.53600 25.85000
N  7.87600 1.77500 25.94300
C  7.14200 2.49900 25.02300
C  7.36900 2.03900 23.55200
C  8.20500 0.76500 23.84200
C  8.52700 0.79700 25.30800
C  6.12000 1.72600 22.64500
C  9.38500 0.50200 22.87000
C  9.36700 -0.84100 22.11900
N  9.51700 0.87400 28.21400
C  9.93600 -0.01900 27.24000
C  10.87500 -1.01300 27.92100
C  10.90600 -0.54900 29.27800
C  10.05300 0.51500 29.38200
C  11.53700 -2.23400 27.29500
C  11.40600 -0.80800 30.54600
O  12.01000 -1.81900 31.01600
C  10.82000 0.27000 31.55500
C  10.05700 -0.39600 32.66600
O  8.84300 -0.63300 32.67700
O  10.84100 -0.61000 33.78700
C  10.22000 -0.82700 35.07000
H  5.93900 5.23600 30.68500
H  5.88200 4.04300 24.39700
H  9.63100 -0.91100 25.22600
H  8.26900 1.97500 32.91100
H  8.09900 4.80700 32.26700
H  6.44000 4.69100 33.44800
H  6.39800 2.92300 33.75100
H  5.59700 3.57100 32.28000
H  10.15800 4.31800 32.97100
H  10.98400 2.84500 32.50900
H  10.51600 1.77200 34.58200
H  9.21000 2.84300 34.89200
H  4.01700 6.00700 29.81400
H  3.28000 6.61000 28.34600
H  4.69500 7.48900 28.98600
H  4.49600 7.98300 26.64000
H  2.96200 7.40700 26.40300
H  3.87100 8.15600 24.95400
H  7.98700 2.79500 23.06800
H  7.56600 -0.08300 23.59200
H  5.21700 1.89700 23.23200
H  6.14500 0.74700 22.16700
H  6.11900 2.53200 21.91100
H  10.27100 0.70100 23.47400
H  9.32200 1.33600 22.17000
H  8.69600 -0.63100 21.28500
H  9.02400 -1.58500 22.83800
H  10.34000 -1.10200 21.70300
H  12.32500 -1.83400 26.65600
H  10.72800 -2.77200 26.80200
H  12.00600 -2.85700 28.05700
H  11.63300 0.84200 32.00000
H  10.92500 -0.68300 35.88800
H  9.88800 -1.85500 35.21600
H  9.35800 -0.17500 35.20900
Mg 49.78800 45.81600 42.80600
C  46.35600 45.89100 42.45100
C  49.73800 42.29800 42.15700
C  53.14400 45.87200 42.16500
C  49.77000 49.38400 42.90400
N  48.20900 44.32000 42.27100
C  46.87500 44.60800 42.17000
C  46.06700 43.34400 41.84200
C  47.14400 42.26100 41.96400
C  48.49100 42.96600 42.09900
C  46.85500 41.14400 42.97800
C  45.34900 43.36000 40.51200
C  46.18900 43.81900 39.26400
H  45.99700 43.04400 37.98200
N  51.24300 44.28500 42.46200
C  51.02000 42.89200 42.30700
C  52.28000 42.25200 42.38800
C  53.30600 43.22100 42.21700
C  52.59300 44.54800 42.23200
C  52.30800 40.74200 42.36500
C  54.80000 42.88200 41.90200
O  55.14400 41.71600 41.86500
C  55.77500 43.98400 41.85000
N  51.20500 47.41900 42.41800
C  52.49400 47.15500 42.29000
C  53.40600 48.43000 42.27500
C  52.31400 49.52200 42.42100
C  51.00900 48.73400 42.59900
C  54.54300 48.38400 43.30700
C  52.17000 50.50600 41.20000
C  52.05000 52.02500 41.36200
N  48.34800 47.30900 42.79100
C  48.51900 48.71100 42.94900
C  47.14400 49.25200 43.13000
C  46.30800 48.17700 42.83000
C  47.06300 47.07500 42.70100
C  46.70900 50.61100 43.58200
C  44.92300 47.76800 42.53100
O  43.91200 48.45700 42.52600
C  44.97100 46.27300 42.17900
C  43.99800 45.56400 43.00100
O  42.98100 45.04500 42.57500
O  44.33000 45.51100 44.32600
C  43.32000 44.82000 45.20300
H  49.70700 41.21000 42.06000
H  54.22200 45.85400 41.99200
H  49.67100 50.47100 42.94400
H  45.32300 43.20200 42.62600
H  47.12200 41.78300 40.98500
H  47.66400 41.12700 43.70800
H  46.89800 40.19700 42.44000
H  45.97400 41.32800 43.59300
H  44.50100 44.04000 40.59600
H  44.93200 42.36800 40.33900
H  47.25200 43.86700 39.49900
H  45.90900 44.84700 39.03500
H  53.28700 40.31300 42.58200
H  52.06700 40.26300 41.41600
H  51.59900 40.27200 43.04600
H  55.59100 44.57900 42.74500
H  55.57800 44.51900 40.92100
H  56.76500 43.52900 41.88500
H  53.78200 48.35900 41.25500
H  52.43800 50.10300 43.33400
H  54.62700 49.26700 43.94200
H  55.50900 48.01800 42.96100
H  54.22300 47.55000 43.93100
H  51.27500 50.23700 40.63900
H  53.03200 50.32700 40.55700
H  52.91300 52.59400 41.01500
H  52.02600 52.30200 42.41600
H  51.10000 52.33500 40.92600
H  46.50600 51.17800 42.67300
H  47.46200 51.07700 44.21800
H  45.71600 50.56900 44.02900
H  44.83700 46.20800 41.09900
H  43.27700 45.12900 46.24800
H  43.76900 43.82700 45.16600
H  42.29200 44.80500 44.84200

