158

Mg 47.46500 24.85300 27.74900
C  48.09300 27.26400 30.16300
C  46.65400 22.76900 30.36400
C  46.47400 22.59100 25.55600
C  48.67900 26.98100 25.24700
N  47.22300 25.07600 29.99800
C  47.51500 26.17500 30.74600
C  47.26500 25.96500 32.26700
C  47.05100 24.41500 32.32900
C  47.07900 24.04800 30.81700
C  48.07200 23.56400 33.19100
C  46.18100 26.91000 33.02300
C  45.48200 26.40000 34.31000
H  45.55400 27.37900 35.45300
N  46.81300 22.91600 27.95700
C  46.54100 22.14000 29.09400
C  46.10100 20.76800 28.80400
C  45.89900 20.84000 27.38000
C  46.44300 22.11400 26.90000
C  45.79000 19.67900 29.82600
C  45.24800 19.70100 26.49800
O  45.15700 19.82000 25.26200
C  44.60600 18.54000 27.16800
N  47.67900 24.73800 25.67900
C  47.02000 23.79500 24.99600
C  47.33700 24.02600 23.51800
C  47.83400 25.46800 23.46600
C  48.07700 25.76400 24.86400
C  48.19400 22.96900 22.74500
C  46.91900 26.50900 22.63500
C  47.64900 27.30500 21.58100
N  48.38000 26.64300 27.71300
C  48.81600 27.42500 26.59600
C  49.35900 28.70800 27.05900
C  49.04900 28.68600 28.48400
C  48.45800 27.44800 28.77400
C  50.23400 29.77400 26.24400
C  49.26200 29.43900 29.73000
O  49.90900 30.40200 29.98500
C  48.52900 28.53300 30.91300
C  49.51600 28.22500 32.01900
O  50.56100 27.67400 31.93000
O  49.07800 28.89600 33.08700
C  49.72600 28.60200 34.37000
H  46.49300 22.15500 31.25300
H  46.15800 21.99700 24.69600
H  48.99500 27.74200 24.53100
H  48.18200 26.16200 32.82300
H  46.05000 24.29900 32.74600
H  47.56700 22.96400 33.94900
H  48.82100 24.23400 33.61200
H  48.56200 22.88500 32.49300
H  45.39600 27.15000 32.30600
H  46.64600 27.85200 33.31300
H  46.00200 25.49300 34.61700
H  44.46500 26.13400 34.02000
H  46.35600 18.75300 29.72100
H  44.71100 19.52100 29.83800
H  45.86500 20.12500 30.81700
H  43.80400 18.84700 27.83900
H  45.40700 18.09400 27.75700
H  44.27500 17.83300 26.40700
H  46.29500 24.02000 23.19700
H  48.85000 25.48000 23.07000
H  48.70600 22.26500 23.40000
H  48.89500 23.43300 22.05100
H  47.63200 22.38200 22.01900
H  46.45500 27.28100 23.24900
H  46.12900 25.88100 22.22300
H  47.72900 26.80600 20.61500
H  48.66200 27.40400 21.96900
H  47.09800 28.24500 21.56100
H  49.83300 29.97200 25.25000
H  51.23100 29.35500 26.10500
H  50.24500 30.62600 26.92400
H  47.75100 29.21100 31.26400
H  49.37500 27.64100 34.74500
H  49.56200 29.42400 35.06700
H  50.79900 28.45100 34.25500
Mg 29.45400 58.00500 39.41400
C  26.93600 55.77200 38.23500
C  31.72500 55.43500 38.34500
C  31.87400 60.15000 40.01900
C  27.10800 60.42800 39.67600
N  29.29300 55.88000 38.34200
C  28.17500 55.20300 38.05500
C  28.44900 53.69600 37.65200
C  29.96900 53.62600 37.82200
C  30.37100 55.13500 38.13100
C  30.65400 52.65800 38.90000
C  28.04900 53.31500 36.22600
C  28.42800 54.36000 35.02200
H  27.32100 54.80800 34.02800
N  31.49500 57.89500 39.24300
C  32.25300 56.66800 38.86200
C  33.67200 57.02600 38.97400
C  33.75200 58.33800 39.56200
C  32.33700 58.87000 39.60800
C  34.70100 56.12200 38.45100
C  35.07200 59.01100 39.91600
O  36.12500 58.50900 39.77700
C  35.06800 60.34300 40.42900
N  29.54700 60.19800 39.41900
C  30.59500 60.80700 40.01100
C  30.24400 62.25000 40.42900
C  28.73900 62.06600 40.61600
C  28.39200 60.82900 39.83500
C  31.01300 62.91400 41.63900
C  28.01800 63.28500 40.01900
C  27.00700 64.02100 40.99800
N  27.35400 58.08400 39.11600
C  26.58500 59.14800 39.29200
C  25.20400 58.83000 39.07900
C  25.29600 57.46700 38.65900
C  26.63600 57.05500 38.66800
C  24.00400 59.78700 39.15000
C  24.44800 56.36200 38.28900
O  23.21400 56.27400 38.19100
C  25.50000 55.16100 38.09500
C  25.17000 54.06300 39.10000
O  25.73700 53.82600 40.13000
O  23.95900 53.42100 38.75300
C  23.44500 52.34100 39.57800
H  32.45900 54.62800 38.39300
H  32.66600 60.84000 40.31600
H  26.33800 61.16300 39.92000
H  27.96300 53.03300 38.36700
H  30.49000 53.45700 36.88000
H  29.98300 51.80200 38.97500
H  30.81700 53.11400 39.87600
H  31.61400 52.25600 38.57700
H  27.00500 53.01000 36.30500
H  28.71000 52.49100 35.95800
H  29.26600 53.89400 34.50300
H  28.81500 55.30500 35.40400
H  35.42700 55.93800 39.24200
H  35.14800 56.57300 37.56500
H  34.33700 55.11400 38.25300
H  36.05700 60.77100 40.59100
H  34.68300 60.19500 41.43800
H  34.62600 61.08700 39.76600
H  30.63700 62.87100 39.62400
H  28.55800 61.86100 41.67200
H  30.29200 63.32100 42.34800
H  31.79800 63.57300 41.26900
H  31.54400 62.15400 42.21100
H  27.42100 63.03800 39.14100
H  28.71200 64.08400 39.75600
H  26.98300 65.05200 40.64700
H  27.21800 64.02200 42.06700
H  26.01300 63.64900 40.74800
H  24.30200 60.80100 38.88400
H  23.56200 59.67000 40.14000
H  23.31300 59.44500 38.37900
H  25.41100 54.95500 37.02800
H  24.08600 51.46000 39.61100
H  22.46500 51.99400 39.24900
H  23.25600 52.50600 40.63800

