158

Mg 40.88400 9.13300 29.41800
C  42.49600 10.42700 32.17100
C  38.52200 7.80900 31.50800
C  39.30000 7.86700 26.63600
C  43.48000 10.24000 27.49900
N  40.60300 9.04200 31.56100
C  41.27600 9.80500 32.54500
C  40.50400 9.90700 33.92100
C  39.33300 8.87300 33.69200
C  39.43000 8.51500 32.23800
C  39.21200 7.50900 34.53800
C  40.13700 11.35100 34.30600
C  39.29800 11.39700 35.61700
H  39.82100 12.06500 36.80900
N  39.15700 7.92100 29.12900
C  38.34500 7.50000 30.11400
C  37.21500 6.85600 29.50000
C  37.23200 7.11300 28.10600
C  38.61200 7.66900 27.89900
C  36.12300 6.27300 30.30600
C  36.23800 7.01100 27.03700
O  36.44600 7.32000 25.89500
C  34.82500 6.44900 27.39600
N  41.28700 9.08400 27.48100
C  40.54400 8.48100 26.52600
C  41.10800 8.59400 25.08800
C  42.29100 9.59900 25.31700
C  42.37400 9.63400 26.84300
C  41.41900 7.33300 24.41300
C  42.25000 11.01700 24.77800
C  40.94900 11.85100 24.93700
N  42.68900 10.08700 29.66600
C  43.66100 10.49800 28.84300
C  44.67400 11.28600 29.49600
C  44.26100 11.26000 30.81000
C  43.08800 10.49900 30.88000
C  45.88900 11.80000 28.88000
C  44.62500 11.65000 32.14600
O  45.53000 12.37800 32.55800
C  43.52000 11.12300 33.10900
C  44.08900 10.25700 34.15000
O  44.87500 9.35900 33.92200
O  43.90700 10.86500 35.38400
C  44.30600 10.11700 36.55200
H  37.69400 7.48200 32.14000
H  38.87100 7.36300 25.76800
H  44.27300 10.62400 26.85400
H  41.11800 9.39800 34.66300
H  38.33600 9.28000 33.86000
H  39.31900 6.52000 34.09200
H  38.17900 7.50300 34.88800
H  39.90000 7.57500 35.38100
H  39.69200 11.91200 33.48400
H  41.08000 11.85400 34.52100
H  39.22300 10.36100 35.94600
H  38.25500 11.58500 35.36000
H  36.00600 5.21900 30.05600
H  35.14500 6.74200 30.20300
H  36.37900 6.22800 31.36500
H  34.78400 5.47600 27.88400
H  34.31300 6.32800 26.44100
H  34.39200 7.21700 28.03700
H  40.31800 9.02500 24.47300
H  43.17900 9.17400 24.85000
H  41.18400 6.48700 25.05900
H  42.44600 7.04200 24.19200
H  40.78300 7.14900 23.54700
H  42.43600 10.94600 23.70600
H  43.08500 11.59300 25.17800
H  40.27000 11.67600 24.10200
H  41.21800 12.90100 25.04900
H  40.40300 11.67700 25.86400
H  45.98000 11.70800 27.79800
H  46.71600 11.25200 29.33200
H  46.04700 12.86000 29.07900
H  43.09000 12.00200 33.59000
H  45.23100 10.43300 37.03500
H  44.27700 9.05800 36.29500
H  43.50000 10.43500 37.21400
Mg 36.46900 49.24300 24.66600
C  36.58900 47.29300 27.60600
C  35.51000 51.95600 26.63600
C  36.21700 50.97000 21.77600
C  37.13400 46.37800 22.86500
N  35.94900 49.54300 26.88100
C  36.30100 48.63600 27.85800
C  36.32000 49.29000 29.24400
C  35.63200 50.76200 28.96700
C  35.71600 50.75700 27.39000
C  34.16900 50.97400 29.49000
C  37.66000 49.33300 30.03400
C  37.57500 48.79500 31.51700
H  36.26600 48.99600 32.26300
N  35.82300 51.16200 24.25500
C  35.44500 52.10700 25.21900
C  35.15900 53.35600 24.46500
C  35.42400 53.07100 23.11400
C  35.79300 51.66400 22.97700
C  34.89000 54.60100 25.22900
C  35.33000 54.01300 21.88000
O  35.46200 53.64900 20.71400
C  34.96400 55.47700 22.15300
N  36.50500 48.73000 22.59000
C  36.56200 49.62300 21.58000
C  37.03800 49.00800 20.19000
C  37.20700 47.51800 20.59700
C  36.82600 47.50100 22.10400
C  36.01700 49.13900 18.93500
C  38.62300 46.94800 20.32500
C  39.72500 47.61400 21.21400
N  36.73200 47.19200 25.08700
C  37.04800 46.15400 24.29300
C  37.47200 44.97700 25.04000
C  37.28000 45.41000 26.36900
C  36.79700 46.73600 26.36900
C  38.06500 43.68800 24.51400
C  37.47600 45.02700 27.71300
O  37.97800 44.06000 28.16700
C  36.96400 46.23000 28.61100
C  35.75800 45.69900 29.26600
O  34.70800 45.48100 28.69600
O  35.89300 45.66800 30.61900
C  34.70300 45.13700 31.30800
H  35.26000 52.74900 27.34400
H  36.27600 51.52100 20.83500
H  37.68200 45.55300 22.40600
H  35.66700 48.62500 29.81000
H  36.18600 51.61400 29.36100
H  33.98100 51.87500 30.07300
H  33.98200 50.13700 30.16200
H  33.47600 50.99300 28.64800
H  37.95900 50.38100 30.04500
H  38.34400 48.75600 29.41100
H  38.46700 49.13900 32.04000
H  37.66900 47.70900 31.53300
H  35.26900 55.50300 24.74900
H  35.31600 54.65400 26.23100
H  33.81900 54.61500 25.43300
H  35.71700 56.04800 22.69600
H  33.97600 55.43300 22.61200
H  34.91500 56.12000 21.27500
H  38.04400 49.37900 19.99400
H  36.65700 46.76500 20.03300
H  36.53100 49.19100 17.97500
H  35.42000 50.04500 19.03800
H  35.32200 48.30300 19.01100
H  38.90700 47.17400 19.29800
H  38.69500 45.86200 20.25800
H  39.27500 48.16200 22.04200
H  40.17100 48.37900 20.57900
H  40.50600 46.90900 21.50200
H  38.59900 43.30400 25.38300
H  38.64800 43.79700 23.60000
H  37.23100 42.98600 24.49400
H  37.78200 46.48700 29.28400
H  33.79700 45.71400 31.12700
H  34.91100 45.17300 32.37800
H  34.58300 44.12400 30.92300

