158

Mg 26.04100 0.57900 29.18700
C  27.94900 0.18900 32.17100
C  23.25700 1.15200 31.15400
C  24.29700 0.52600 26.43100
C  28.97800 -0.14200 27.30000
N  25.63500 0.66500 31.39100
C  26.56600 0.51800 32.38900
C  25.85600 0.73900 33.82000
C  24.36800 1.08500 33.49700
C  24.40300 0.96900 31.94700
C  23.31600 0.14000 34.09800
C  26.60100 1.69800 34.71800
C  25.89200 2.44800 35.91700
H  26.42600 2.20700 37.34800
N  24.03200 0.78700 28.77700
C  23.06900 1.11100 29.67600
C  21.74600 1.34900 29.00400
C  22.06800 0.93700 27.59400
C  23.49200 0.76000 27.54000
C  20.41700 1.67200 29.69600
C  21.09100 0.70700 26.43700
O  21.35300 0.30200 25.34000
C  19.60200 0.69500 26.86000
N  26.54800 -0.07200 27.18000
C  25.64800 0.20300 26.22700
C  26.24100 -0.03100 24.87000
C  27.73500 -0.27700 25.09800
C  27.72900 -0.09600 26.57900
C  25.50600 -1.01900 23.86200
C  28.65200 0.90700 24.46200
C  29.90600 0.43300 23.65000
N  28.10500 0.11500 29.60800
C  29.14500 -0.14300 28.71900
C  30.30000 -0.36300 29.52300
C  29.95000 -0.19500 30.86300
C  28.52500 0.07700 30.85800
C  31.72500 -0.62300 29.01800
C  30.39900 -0.11900 32.25300
O  31.54000 -0.19800 32.69600
C  29.07400 0.01700 33.15500
C  28.77900 -1.14500 33.95100
O  28.49000 -2.22400 33.51400
O  28.88800 -0.83900 35.36000
C  28.46200 -1.93000 36.28600
H  22.42000 1.37900 31.81800
H  23.73000 0.55500 25.49800
H  29.86200 -0.40100 26.71300
H  25.94600 -0.23700 34.29700
H  24.07400 2.10900 33.72500
H  23.51100 0.04700 35.16600
H  23.37900 -0.85900 33.66600
H  22.32600 0.58700 34.00500
H  27.08400 2.44400 34.08700
H  27.46800 1.29100 35.23700
H  24.82700 2.22500 35.97500
H  26.03000 3.51500 35.74000
H  20.69200 1.89500 30.72700
H  19.85000 0.74600 29.60000
H  19.85300 2.46400 29.20300
H  19.50700 -0.04500 27.65500
H  19.03800 0.42900 25.96700
H  19.25900 1.69400 27.12900
H  26.02800 0.90100 24.34600
H  28.04400 -1.32100 25.05300
H  24.99100 -0.59800 22.99800
H  24.70300 -1.45700 24.45500
H  26.17100 -1.81900 23.53800
H  29.04600 1.67300 25.13000
H  28.01900 1.41000 23.73000
H  29.74900 -0.56700 23.24600
H  30.72600 0.44800 24.36700
H  29.98200 1.20500 22.88400
H  32.38100 0.20300 29.29200
H  31.78900 -0.78000 27.94100
H  32.08000 -1.46500 29.61200
H  29.21800 0.84200 33.85300
H  28.77200 -1.59600 37.27700
H  28.96600 -2.89600 36.27800
H  27.38300 -2.08400 36.30200
Mg 41.06000 8.92000 29.72000
C  42.93600 10.04900 32.38600
C  38.87500 7.41400 31.95600
C  39.42700 7.68400 27.05800
C  43.69700 9.90600 27.69000
N  41.08500 8.55200 31.98500
C  41.78000 9.32400 32.78700
C  41.18400 9.35600 34.25100
C  40.04600 8.32600 34.08400
C  39.95000 8.10800 32.59100
C  40.17000 7.01300 34.89800
C  40.69100 10.76300 34.70700
C  40.09200 10.78100 36.11700
H  40.73400 11.66500 37.19100
N  39.26700 7.77900 29.57200
C  38.57800 7.21300 30.61400
C  37.49900 6.49100 30.04000
C  37.62800 6.57900 28.64500
C  38.81200 7.37100 28.39000
C  36.45800 5.80300 30.83300
C  36.67700 6.13900 27.55700
O  36.89700 6.28700 26.38200
C  35.25200 5.58400 27.92400
N  41.59600 8.68100 27.82900
C  40.71600 8.25800 26.85800
C  41.41400 8.11500 25.44600
C  42.51400 9.23700 25.61000
C  42.60300 9.27600 27.11800
C  41.83300 6.54900 25.22300
C  42.16200 10.49300 24.80200
C  41.71400 11.65800 25.60200
N  42.95400 9.79100 29.95500
C  43.93300 10.12300 29.05000
C  45.10900 10.64900 29.69600
C  44.72100 10.76800 30.97800
C  43.43700 10.17800 31.07100
C  46.33600 11.16700 29.04000
C  45.05300 11.18600 32.30500
O  46.08500 11.68700 32.78700
C  43.86100 10.84000 33.24900
C  44.36900 10.04600 34.41900
O  44.80400 8.88500 34.45100
O  44.28200 10.74500 35.55300
C  44.93800 10.25800 36.74000
H  38.03800 7.14100 32.60200
H  38.88300 7.38800 26.15800
H  44.52000 10.25700 27.06400
H  42.02900 9.09700 34.88900
H  39.03300 8.67600 34.28600
H  40.80500 6.31400 34.35300
H  39.16500 6.63900 35.09100
H  40.59100 7.20800 35.88400
H  39.96600 11.23100 34.04000
H  41.48800 11.50600 34.73300
H  39.88500 9.77700 36.48500
H  39.15000 11.31100 35.97300
H  36.63000 5.74100 31.90700
H  36.24100 4.79200 30.48900
H  35.57100 6.41700 30.67600
H  34.73200 6.35400 28.49300
H  35.32100 4.71900 28.58400
H  34.67700 5.38700 27.01800
H  40.66700 8.26700 24.66700
H  43.46700 8.82800 25.27500
H  41.19800 5.92600 25.85300
H  42.88000 6.33600 25.43800
H  41.62900 6.22100 24.20400
H  41.31000 10.35100 24.13700
H  43.08600 10.58700 24.23100
H  42.47600 12.36400 25.93100
H  41.23400 11.33500 26.52500
H  40.94300 12.25700 25.11700
H  45.97500 11.78800 28.21900
H  46.92900 10.36200 28.60600
H  46.88800 11.63500 29.85500
H  43.37000 11.75100 33.59000
H  45.79200 10.92300 36.86700
H  45.11100 9.18800 36.85200
H  44.30400 10.49800 37.59300

