158

Mg 25.98300 1.18000 29.50900
C  28.30400 0.69300 32.31500
C  23.51100 1.27900 31.80100
C  23.96200 1.23300 26.91900
C  28.74600 0.53100 27.34100
N  25.98700 1.04200 31.84400
C  26.98500 0.91800 32.74000
C  26.42700 1.26400 34.20000
C  24.85100 1.23100 33.98700
C  24.77200 1.22000 32.47100
C  24.13600 0.03200 34.63400
C  27.02200 2.50400 34.92600
C  27.94000 2.23100 36.14000
H  27.93900 3.21800 37.34600
N  24.02900 1.26900 29.40800
C  23.12400 1.26400 30.43000
C  21.76500 1.41300 29.89800
C  21.88200 1.30700 28.48200
C  23.32600 1.28200 28.20500
C  20.59600 1.47400 30.79300
C  20.77400 1.29500 27.39500
O  20.91200 1.02400 26.20300
C  19.37900 1.53700 27.75800
N  26.36200 0.95000 27.45700
C  25.33500 1.10100 26.57500
C  25.78100 1.00000 25.13400
C  27.27300 0.73300 25.25200
C  27.51500 0.74500 26.76700
C  25.08000 -0.04900 24.21000
C  28.24100 1.64500 24.37600
C  29.07200 2.67300 25.18200
N  28.05400 0.65800 29.70000
C  29.02400 0.49800 28.74600
C  30.26200 0.23900 29.34600
C  30.06800 0.32900 30.72500
C  28.70100 0.55500 30.92000
C  31.64700 0.11700 28.72600
C  30.68500 0.26900 32.00000
O  31.88300 0.11300 32.35400
C  29.60800 0.49600 33.10400
C  29.52600 -0.67600 34.05300
O  29.04600 -1.76200 33.74900
O  29.82600 -0.30600 35.38500
C  29.36600 -1.19000 36.46000
H  22.68300 1.46000 32.49000
H  23.32200 1.10500 26.04300
H  29.47900 0.30600 26.56400
H  26.57800 0.31600 34.71600
H  24.36000 2.12800 34.36300
H  24.72600 -0.61800 35.28200
H  23.65700 -0.58900 33.87600
H  23.32700 0.41800 35.25400
H  26.18600 3.08800 35.31000
H  27.41300 3.23100 34.21400
H  28.98400 2.19100 35.82700
H  27.68300 1.26000 36.56300
H  19.97100 0.58100 30.77400
H  19.91100 2.24300 30.43500
H  20.77500 1.76500 31.82800
H  19.25400 2.55600 28.12600
H  19.08800 0.87100 28.57000
H  18.73100 1.51800 26.88200
H  25.56700 1.93500 24.61600
H  27.58100 -0.27500 24.97500
H  25.83800 -0.72100 23.80800
H  24.48500 0.31100 23.37000
H  24.33300 -0.61800 24.76400
H  27.72700 2.00700 23.48500
H  29.06000 1.00200 24.05400
H  28.35200 3.10800 25.87500
H  29.37400 3.49800 24.53800
H  29.94600 2.34600 25.74700
H  32.41000 0.66300 29.28000
H  31.66800 0.46400 27.69300
H  31.86000 -0.95000 28.79400
H  29.85900 1.32200 33.77000
H  28.80900 -2.09600 36.22100
H  28.63300 -0.54700 36.94700
H  30.17100 -1.33600 37.18000
Mg -4.85300 25.54600 26.57800
C  -3.75300 26.96200 29.57400
C  -6.64700 23.20600 28.45300
C  -5.26600 23.74100 23.84700
C  -2.72600 27.72900 24.78800
N  -4.99500 24.98600 28.73200
C  -4.55900 25.82800 29.84200
C  -5.13200 25.32000 31.13800
C  -5.72800 23.92900 30.76600
C  -5.83200 24.03000 29.22600
C  -4.89400 22.80800 31.30100
C  -6.16400 26.34200 31.80800
C  -6.50000 26.15500 33.31300
H  -5.96900 25.04400 34.29100
N  -5.97000 23.87800 26.17000
C  -6.66200 23.11300 27.07100
C  -7.53100 22.23200 26.32600
C  -7.11800 22.24700 24.96200
C  -6.06800 23.28500 24.94100
C  -8.69400 21.51500 26.89500
C  -7.70400 21.56900 23.75200
O  -7.11800 21.58200 22.67900
C  -9.01700 20.85600 23.80800
N  -4.24000 25.76900 24.55900
C  -4.49000 24.83500 23.60800
C  -3.84400 25.17800 22.25000
C  -3.22600 26.56100 22.59200
C  -3.47900 26.74700 24.07100
C  -2.86500 24.04800 21.86300
C  -3.68400 27.71700 21.69100
C  -3.04000 28.07400 20.35400
N  -3.49000 27.07400 27.01200
C  -2.62500 27.81400 26.17800
C  -1.91700 28.69300 27.04000
C  -2.32800 28.42600 28.36400
C  -3.30400 27.38500 28.28800
C  -0.81200 29.65100 26.57300
C  -2.19900 28.77800 29.78300
O  -1.55900 29.66300 30.30700
C  -3.11900 27.91900 30.60900
C  -2.37000 27.17400 31.64400
O  -1.63100 26.22700 31.44100
O  -2.74700 27.52500 32.86700
C  -2.27100 26.77600 33.98000
H  -7.18000 22.48000 29.07000
H  -5.46400 23.25400 22.89000
H  -2.03700 28.33800 24.20000
H  -4.33800 25.19000 31.87300
H  -6.71800 23.89900 31.22000
H  -4.05200 23.20800 31.86500
H  -4.46000 22.18800 30.51700
H  -5.48200 22.20300 31.99200
H  -7.08900 26.48600 31.25100
H  -5.65700 27.30100 31.70300
H  -7.58600 26.09800 33.38800
H  -6.23100 27.10800 33.76700
H  -9.46000 21.71600 26.14600
H  -8.98600 21.98600 27.83300
H  -8.58000 20.44100 27.04300
H  -9.78700 21.59200 24.04000
H  -8.91300 20.00200 24.47600
H  -9.35900 20.43900 22.86100
H  -4.54500 25.34300 21.43100
H  -2.14400 26.43900 22.54200
H  -3.00700 23.95100 20.78700
H  -3.12100 23.09700 22.32900
H  -1.80800 24.29500 21.96500
H  -3.52300 28.65000 22.23200
H  -4.75700 27.66200 21.50900
H  -2.26100 27.35200 20.10900
H  -2.85500 29.14300 20.24900
H  -3.72200 27.89100 19.52400
H  -0.65500 29.51400 25.50300
H  0.01800 29.39800 27.23300
H  -1.23800 30.62100 26.82800
H  -3.88600 28.57700 31.01600
H  -1.89100 27.41300 34.77900
H  -1.48200 26.10800 33.63300
H  -3.10500 26.21800 34.40500

