158

Mg 0.96500 8.35900 24.15400
C  1.46700 10.00800 27.23600
C  0.97200 5.41800 25.93000
C  0.99000 6.64800 21.25400
C  1.37900 11.28800 22.57000
N  1.13700 7.83500 26.38200
C  1.15200 8.63900 27.36700
C  1.14600 7.82400 28.73400
C  1.02700 6.31600 28.28500
C  1.06400 6.51900 26.78800
C  2.05000 5.27900 28.80600
C  0.16300 8.33300 29.89200
C  0.87400 8.71900 31.23700
H  2.09400 7.86700 31.64700
N  0.91400 6.33900 23.65100
C  0.92200 5.28400 24.49200
C  0.87500 3.99800 23.81600
C  0.84400 4.33200 22.41700
C  0.86000 5.82000 22.40000
C  0.71100 2.63500 24.54800
C  0.63400 3.44500 21.16100
O  0.55300 3.86200 20.02300
C  0.74800 2.00200 21.39500
N  1.09200 8.89100 22.14700
C  1.07800 8.03400 21.12300
C  1.23000 8.78900 19.74600
C  1.09300 10.23800 20.22100
C  1.18100 10.19900 21.75900
C  2.55400 8.45400 18.97900
C  -0.24700 10.99900 19.85100
C  -0.05500 12.43000 19.30700
N  1.30000 10.31200 24.78500
C  1.49700 11.39000 23.97000
C  1.89400 12.53600 24.75400
C  1.80400 12.04700 26.03000
C  1.43100 10.68100 25.99800
C  2.29800 13.92300 24.47500
C  1.99500 12.43300 27.44200
O  2.34300 13.46900 28.00600
C  1.69400 11.12400 28.22500
C  2.85100 10.90300 29.16100
O  3.91600 10.32300 28.96400
O  2.63100 11.55300 30.33200
C  3.56800 11.33400 31.49700
H  0.92100 4.52900 26.56200
H  1.14800 6.23800 20.25500
H  1.44200 12.27100 22.09900
H  2.10100 8.06600 29.20100
H  0.04300 6.00800 28.63800
H  2.63200 5.66200 29.64400
H  2.74200 5.01800 28.00600
H  1.47900 4.43300 29.18900
H  -0.61600 7.59700 30.09200
H  -0.37200 9.21900 29.55100
H  0.10700 8.62300 32.00500
H  1.15500 9.76800 31.13900
H  0.68600 2.73600 25.63300
H  1.54900 1.96400 24.35900
H  -0.17800 2.08100 24.24800
H  -0.20700 1.60200 21.73500
H  1.48600 1.73400 22.15100
H  0.94500 1.48600 20.45500
H  0.36600 8.44200 19.17900
H  1.99000 10.82000 20.01000
H  3.41000 8.73100 19.59400
H  2.52500 8.98100 18.02600
H  2.74200 7.40200 18.76700
H  -0.91200 11.09100 20.71000
H  -0.79600 10.49300 19.05800
H  -0.69100 12.63800 18.44600
H  0.93900 12.74400 18.99000
H  -0.37800 13.08500 20.11700
H  3.33100 14.06400 24.15600
H  2.04700 14.51000 25.35900
H  1.71200 14.17200 23.59000
H  0.78400 11.30000 28.80000
H  4.04600 12.31100 31.56500
H  4.28400 10.52800 31.34000
H  3.00500 11.05600 32.38800
Mg 46.66500 24.36900 28.33200
C  47.56300 26.75700 30.90300
C  46.08800 22.19100 30.87200
C  46.48900 22.10400 26.13800
C  47.82400 26.72700 26.02000
N  46.58900 24.57700 30.67600
C  46.99300 25.60300 31.47800
C  46.78100 25.23800 32.94500
C  46.38900 23.78400 32.94100
C  46.35000 23.48500 31.39800
C  47.32000 22.89200 33.70900
C  45.86700 26.17900 33.76600
C  46.52500 26.77900 35.09600
H  45.54300 27.19300 36.12800
N  46.17300 22.44100 28.40300
C  45.99300 21.73800 29.53900
C  45.48700 20.41100 29.17200
C  45.69300 20.30800 27.76600
C  46.09100 21.63100 27.35700
C  44.98600 19.34100 30.14000
C  45.37100 19.19600 26.81900
O  45.20400 19.32500 25.59900
C  45.03500 17.81500 27.47200
N  47.14300 24.38100 26.31500
C  46.75800 23.31200 25.58900
C  47.01200 23.54800 24.11300
C  47.14000 25.09700 24.07800
C  47.42400 25.48300 25.60600
C  48.30900 22.94000 23.50100
C  45.97000 25.92800 23.52600
C  44.76700 26.23100 24.40300
N  47.50000 26.35400 28.36500
C  47.91300 27.15400 27.37000
C  48.56300 28.32400 27.82700
C  48.39900 28.25500 29.21500
C  47.78600 26.99000 29.50400
C  49.17900 29.42500 26.97100
C  48.61300 28.91700 30.43900
O  49.06200 30.02700 30.62600
C  48.16300 27.97400 31.62100
C  49.29900 27.46400 32.46300
O  49.83700 26.37700 32.48000
O  49.72000 28.45000 33.33500
C  50.52600 28.08300 34.48200
H  45.87100 21.47700 31.66900
H  46.52100 21.31700 25.38100
H  48.01900 27.54000 25.31700
H  47.73600 25.26700 33.46900
H  45.34200 23.81300 33.24300
H  46.70600 22.06800 34.07200
H  47.75100 23.39800 34.57200
H  48.11900 22.48000 33.09200
H  45.00100 25.57500 34.03600
H  45.47700 27.01800 33.19000
H  47.14300 27.62600 34.79800
H  47.23400 26.03600 35.46100
H  44.00900 19.00300 29.79500
H  44.64900 19.81500 31.06200
H  45.72400 18.55300 30.28800
H  45.91000 17.31000 27.88100
H  44.82900 17.10500 26.67100
H  44.14300 17.69700 28.08800
H  46.11000 23.33700 23.53900
H  47.92200 25.40100 23.38200
H  49.10100 23.61900 23.18700
H  48.04400 22.28100 22.67400
H  48.72200 22.26400 24.25000
H  45.65600 25.36900 22.64400
H  46.43400 26.86500 23.21800
H  44.83900 25.72200 25.36500
H  43.82000 25.81700 24.05700
H  44.79000 27.31800 24.47600
H  49.59600 28.96800 26.07300
H  49.95700 29.96100 27.51300
H  48.45400 30.14500 26.59100
H  47.42200 28.44500 32.26600
H  50.47400 28.88900 35.21500
H  51.51500 27.76400 34.15500
H  50.16700 27.18600 34.98600

