158

Mg 30.31200 58.13900 40.37200
C  27.26700 56.47400 39.36700
C  32.12500 55.46500 39.21700
C  33.19600 60.03300 40.62500
C  28.40400 61.03300 40.80700
N  29.74000 56.15000 39.56000
C  28.48700 55.74300 39.21400
C  28.57900 54.46400 38.42800
C  30.12700 53.95500 38.77700
C  30.71900 55.24800 39.27700
C  30.14900 52.81800 39.82900
C  28.37000 54.76600 36.95500
C  27.32300 53.77300 36.37200
H  26.53200 54.22500 35.20400
N  32.34200 57.84200 39.91600
C  32.88400 56.67600 39.45500
C  34.29600 56.71600 39.49800
C  34.66500 58.04000 39.90000
C  33.39600 58.71400 40.12200
C  35.17300 55.63700 39.13500
C  36.08200 58.59800 40.01300
O  37.06400 57.87400 39.80000
C  36.30700 59.97800 40.40700
N  30.72400 60.29000 40.48100
C  32.01100 60.76200 40.78200
C  31.87800 62.33500 41.07400
C  30.37300 62.59300 41.22200
C  29.78700 61.23800 40.74000
C  32.71600 62.88100 42.29300
C  29.84600 63.76200 40.42700
C  29.56500 63.63200 38.89700
N  28.30800 58.65600 40.17600
C  27.68900 59.86400 40.44900
C  26.28100 59.76700 40.25900
C  26.05300 58.47900 39.78600
C  27.29000 57.78600 39.80300
C  25.34200 60.95100 40.39200
C  25.08900 57.54500 39.35000
O  23.87400 57.74200 39.17800
C  25.80600 56.19100 39.03000
C  25.14100 55.06200 39.89300
O  24.71900 55.16600 41.02600
O  25.23200 53.88200 39.14500
C  24.61700 52.82100 39.89000
H  32.61700 54.56300 38.84800
H  34.06300 60.61600 40.94400
H  27.79200 61.91800 40.99300
H  27.91300 53.70000 38.82900
H  30.72000 53.69600 37.90000
H  30.97100 52.13500 39.61300
H  29.23700 52.22100 39.86000
H  30.34100 53.27000 40.80200
H  29.34100 54.50200 36.53800
H  28.16100 55.77900 36.61000
H  26.60500 53.33800 37.06600
H  27.87400 52.87900 36.08200
H  35.61700 55.05300 39.94200
H  35.87500 56.15600 38.48200
H  34.69600 54.88800 38.50300
H  35.97400 60.12400 41.43400
H  35.80600 60.61600 39.67900
H  37.38900 60.07400 40.49700
H  32.29000 62.90700 40.24300
H  30.18100 62.69100 42.29100
H  33.18800 62.06200 42.83500
H  32.05700 63.19400 43.10300
H  33.34900 63.70600 41.96500
H  30.57700 64.56800 40.36100
H  28.95000 64.24300 40.81800
H  29.65400 62.60700 38.53900
H  30.38700 64.17200 38.42700
H  28.66000 64.06700 38.47300
H  25.78400 61.81200 40.89300
H  24.52200 60.49500 40.94700
H  24.87600 61.21700 39.44300
H  25.59000 55.83800 38.02200
H  25.00000 52.69600 40.90300
H  24.82000 51.85800 39.42100
H  23.53200 52.88400 39.96800
Mg -1.16100 34.78100 26.35200
C  -2.89600 32.97600 28.85900
C  -0.37100 37.14400 28.73200
C  0.16100 36.68900 23.88500
C  -2.68600 32.75600 23.90600
N  -1.68800 35.06600 28.51200
C  -2.27800 34.15300 29.31700
C  -2.17200 34.63400 30.78600
C  -1.73600 36.06200 30.74500
C  -1.20000 36.13900 29.23500
C  -2.81600 37.10400 31.05500
C  -1.28900 33.67400 31.66700
C  -2.01000 33.04100 32.93900
H  -1.07000 32.90600 34.22100
N  -0.18600 36.59200 26.33600
C  0.06200 37.38600 27.42200
C  0.74200 38.59800 26.90900
C  0.96200 38.42200 25.54100
C  0.35800 37.18500 25.21500
C  1.11900 39.75200 27.76200
C  1.75200 39.28400 24.52900
O  1.93500 39.04200 23.34700
C  2.23500 40.53000 24.93500
N  -1.43500 34.85000 24.16800
C  -0.58000 35.63400 23.37700
C  -0.73500 35.30200 21.93600
C  -1.50500 33.88700 22.06200
C  -1.90800 33.84400 23.48700
C  -1.45900 36.41300 21.05300
C  -0.58700 32.68200 21.66400
C  0.54100 32.28400 22.63000
N  -2.48300 33.15300 26.28000
C  -3.01600 32.47400 25.22100
C  -3.80700 31.37400 25.81500
C  -3.83600 31.50300 27.24500
C  -2.94200 32.61300 27.49100
C  -4.45500 30.36400 24.91400
C  -4.28000 31.02100 28.45700
O  -5.02200 30.11400 28.68700
C  -3.69500 31.99300 29.59000
C  -4.81200 32.60900 30.32700
O  -5.28100 33.61400 29.96300
O  -5.22600 31.84000 31.40100
C  -6.18700 32.57000 32.20600
H  -0.15100 37.86200 29.52500
H  0.48900 37.29500 23.03800
H  -2.99500 31.95100 23.23500
H  -3.15300 34.64600 31.26100
H  -0.95100 36.24800 31.47700
H  -2.82200 37.22400 32.13900
H  -3.75800 36.85200 30.57000
H  -2.45100 38.01600 30.58400
H  -0.47000 34.20800 32.15000
H  -0.89100 32.86100 31.06000
H  -2.54200 32.09600 32.82700
H  -2.76000 33.79300 33.18600
H  0.55500 39.86600 28.68700
H  1.02200 40.65200 27.15400
H  2.15900 39.58800 28.04200
H  2.78400 40.50300 25.87600
H  1.32400 41.11300 25.07300
H  2.84800 41.03900 24.19100
H  0.21000 35.02500 21.46900
H  -2.43200 33.81600 21.49200
H  -0.70100 36.73900 20.34100
H  -1.56500 37.33900 21.61800
H  -2.43400 36.10600 20.67300
H  -0.08900 32.95900 20.73400
H  -1.10700 31.73900 21.49900
H  0.50300 31.21700 22.85100
H  0.66400 33.01100 23.43300
H  1.36400 32.49900 21.94900
H  -5.38100 30.85200 24.60800
H  -4.72800 29.39300 25.32800
H  -3.78800 30.32100 24.05300
H  -3.02300 31.37900 30.19000
H  -5.68600 33.45700 32.59300
H  -6.44900 31.90200 33.02700
H  -7.10200 32.77200 31.64900

