158

Mg 44.81900 3.66200 46.87100
C  42.69600 6.42600 46.92600
C  42.10000 1.56600 46.94800
C  46.93700 1.16400 46.44700
C  47.61500 5.99500 46.87300
N  42.63400 3.99400 46.75100
C  41.99200 5.18700 46.73500
C  40.43700 5.03700 46.88400
C  40.24700 3.46100 47.07700
C  41.74100 2.93600 46.90600
C  39.52900 2.96700 48.35200
C  39.56700 5.65900 45.79400
C  39.84800 5.25800 44.42100
H  40.22900 6.40700 43.52400
N  44.56900 1.66000 46.64300
C  43.36300 0.97200 46.75500
C  43.70100 -0.39100 46.68000
C  45.01000 -0.59400 46.26800
C  45.61700 0.75200 46.43600
C  42.62700 -1.45400 46.86200
C  45.71400 -1.90700 45.86500
O  45.11700 -2.98200 45.83600
C  47.13000 -1.94100 45.54100
N  46.94600 3.65700 46.40900
C  47.49900 2.40300 46.54200
C  48.96800 2.44700 46.81500
C  49.26700 4.03000 46.62800
C  47.86400 4.65200 46.75600
C  49.41000 1.81400 48.19700
C  50.14700 4.50800 45.45600
C  51.65300 4.18200 45.66200
N  45.11700 5.77900 46.82900
C  46.31600 6.52700 46.87300
C  45.88600 7.91600 47.07000
C  44.48300 7.90100 47.09300
C  44.07100 6.53900 46.99400
C  46.83300 9.13800 47.16700
C  43.36000 8.80900 47.33400
O  43.23700 10.02800 47.47900
C  42.15400 7.86600 47.23800
C  41.40300 7.82500 48.45700
O  41.74500 7.15200 49.40600
O  40.15700 8.36900 48.27500
C  39.22100 8.38100 49.40500
H  41.19900 0.94900 46.93600
H  47.63400 0.34900 46.24100
H  48.46100 6.68600 46.87300
H  40.10200 5.49400 47.81500
H  39.73900 3.08000 46.19100
H  38.83100 2.22700 47.96100
H  39.06000 3.73000 48.97300
H  40.21400 2.42400 49.00300
H  39.73100 6.73200 45.89900
H  38.50900 5.51500 46.01400
H  38.91000 4.84300 44.05300
H  40.70200 4.59800 44.26600
H  41.76500 -1.17400 47.46700
H  43.03300 -2.35300 47.32500
H  42.28600 -1.77600 45.87800
H  47.67800 -1.76900 46.46700
H  47.30500 -1.19500 44.76600
H  47.29200 -2.93100 45.11500
H  49.53300 1.91600 46.04900
H  49.77300 4.36600 47.53300
H  50.22700 1.11700 48.01200
H  48.62900 1.15100 48.56900
H  49.72000 2.60600 48.87800
H  50.01200 5.57700 45.29400
H  49.79300 3.93800 44.59700
H  52.03700 3.51700 44.88900
H  51.82300 3.84800 46.68600
H  52.19500 5.12800 45.62300
H  47.83500 8.76700 47.38100
H  46.35100 9.65300 47.99800
H  46.77400 9.77500 46.28500
H  41.50700 8.12000 46.39800
H  38.38500 7.76300 49.07700
H  38.88400 9.39600 49.61800
H  39.49900 7.80800 50.28900
Mg -5.24000 24.93000 25.62900
C  -3.99800 26.18600 28.50000
C  -7.13200 22.65900 27.55700
C  -6.42300 23.49100 22.78900
C  -2.96600 26.81100 23.82300
N  -5.47200 24.41700 27.81000
C  -4.84200 25.14300 28.82600
C  -5.31000 24.66900 30.20500
C  -6.11300 23.38000 29.81500
C  -6.22100 23.42200 28.31500
C  -5.38400 21.99000 30.21200
C  -6.17300 25.75600 30.97200
C  -5.96400 25.88100 32.58500
H  -5.21400 24.78700 33.22300
N  -6.50600 23.33600 25.21200
C  -7.27000 22.60700 26.14200
C  -8.30400 21.81500 25.48100
C  -7.93600 21.83500 24.11200
C  -6.87900 22.89200 23.98900
C  -9.43600 21.21700 26.17300
C  -8.48000 21.07600 22.99600
O  -7.89600 21.07800 21.90700
C  -9.59600 19.96100 23.14800
N  -4.61000 24.97100 23.52700
C  -5.42100 24.40200 22.58600
C  -5.00300 24.87600 21.24700
C  -3.97900 26.09000 21.49400
C  -3.76100 25.92300 23.04600
C  -4.31500 23.77700 20.45300
C  -4.67200 27.45300 21.11300
C  -3.86500 28.29400 20.10900
N  -3.72800 26.20600 26.02900
C  -2.97100 27.00000 25.20000
C  -2.11600 27.83100 25.96600
C  -2.52700 27.56700 27.26400
C  -3.56800 26.58900 27.23800
C  -1.01500 28.81200 25.48700
C  -2.29400 27.90200 28.67600
O  -1.53100 28.73200 29.17200
C  -3.21100 27.06600 29.50900
C  -2.32400 26.18200 30.28500
O  -1.69800 25.22600 29.84900
O  -2.25800 26.59900 31.58900
C  -1.28000 25.91900 32.43900
H  -7.86600 22.04800 28.08700
H  -6.78700 23.08100 21.84400
H  -2.39500 27.53600 23.24000
H  -4.39500 24.42800 30.74700
H  -7.04200 23.40600 30.38500
H  -5.48400 21.29300 29.38000
H  -5.71800 21.45500 31.10100
H  -4.30600 22.15000 30.21300
H  -7.19400 25.66500 30.60200
H  -5.90100 26.72100 30.54500
H  -6.91100 25.80000 33.11900
H  -5.57800 26.84900 32.90400
H  -9.32500 20.13300 26.19300
H  -10.33900 21.37500 25.58500
H  -9.65700 21.55400 27.18600
H  -9.78700 19.39800 22.23400
H  -10.45800 20.41600 23.63500
H  -9.14700 19.37300 23.94800
H  -5.93800 24.98500 20.69700
H  -3.06600 25.96400 20.91200
H  -4.39700 24.06300 19.40400
H  -4.84400 22.83000 20.56300
H  -3.28500 23.63600 20.78100
H  -4.94800 28.04800 21.98300
H  -5.59200 27.23300 20.57100
H  -3.58200 29.20800 20.63100
H  -4.42600 28.49400 19.19600
H  -2.86500 27.94900 19.84800
H  -1.43800 29.81300 25.40200
H  -0.65500 28.52500 24.49900
H  -0.15900 28.81200 26.16200
H  -3.87100 27.62400 30.17400
H  -1.75400 25.13400 33.02800
H  -0.93300 26.65100 33.16800
H  -0.37400 25.58200 31.93600

