158

Mg 47.20100 24.37900 27.59900
C  47.49600 26.56400 30.20100
C  46.59300 21.89000 29.95600
C  46.86200 22.22600 25.11800
C  48.13900 26.79900 25.40200
N  46.94400 24.26400 29.84100
C  47.11000 25.28600 30.66400
C  46.76500 24.84300 32.07100
C  46.51900 23.30000 32.01100
C  46.79300 23.14200 30.52800
C  47.30100 22.24200 32.89900
C  45.66900 25.67300 32.70100
C  45.20000 25.23600 34.05100
H  45.16800 26.30900 35.17200
N  46.65400 22.27800 27.54400
C  46.48100 21.46500 28.61300
C  46.04800 20.15400 28.15700
C  46.18000 20.19300 26.69800
C  46.60900 21.58900 26.37000
C  45.51900 19.11500 29.03100
C  45.89500 19.10100 25.70600
O  46.09100 19.24500 24.49200
C  45.21500 17.74000 26.20300
N  47.37700 24.49900 25.54900
C  47.14800 23.49200 24.71900
C  47.37200 23.92700 23.21200
C  47.51300 25.48600 23.30400
C  47.65800 25.64200 24.84500
C  48.54900 23.31100 22.43000
C  46.21300 26.12700 22.82700
C  44.92300 26.03800 23.63300
N  47.79000 26.28200 27.71300
C  48.20200 27.14700 26.74700
C  48.68400 28.39600 27.38800
C  48.30000 28.23300 28.73700
C  47.83200 26.93500 28.86400
C  49.27700 29.57300 26.76400
C  48.33400 28.85400 29.95200
O  48.70400 29.96900 30.27200
C  47.69800 27.86200 30.93400
C  48.51900 27.64500 32.23400
O  49.61400 27.08400 32.40100
O  47.82400 28.26000 33.18600
C  48.37300 28.31400 34.53200
H  46.21900 21.09800 30.60800
H  46.71600 21.56500 24.26100
H  48.28800 27.58600 24.65900
H  47.60600 24.95300 32.75600
H  45.46300 23.16300 32.24100
H  46.65600 21.45200 33.28200
H  47.69300 22.71800 33.79800
H  48.09100 21.74200 32.33900
H  44.77100 25.45400 32.12400
H  45.79200 26.75600 32.73000
H  45.73500 24.32100 34.30500
H  44.16900 24.92000 33.88600
H  46.38800 18.53300 29.33700
H  44.69200 18.52200 28.64100
H  45.11300 19.44400 29.98700
H  45.82900 17.24900 26.95800
H  45.24800 17.14100 25.29300
H  44.18000 17.83000 26.53100
H  46.39600 23.64300 22.81800
H  48.42900 25.91200 22.89500
H  49.24600 24.11200 22.18400
H  48.33900 22.86500 21.45800
H  49.01500 22.53500 23.03800
H  46.11000 25.79000 21.79600
H  46.38200 27.17300 22.56800
H  44.17200 25.88300 22.85800
H  44.78100 26.96500 24.18900
H  45.02900 25.18500 24.30300
H  48.88300 29.64200 25.75100
H  50.33600 29.32100 26.80700
H  48.94400 30.46700 27.29100
H  46.73800 28.34000 31.12900
H  47.46500 28.31100 35.13500
H  48.86000 29.27100 34.71900
H  48.99000 27.42900 34.68900
Mg 47.65000 34.01000 26.92000
C  45.80100 32.55600 29.50600
C  48.07500 36.81400 29.07400
C  49.04600 35.81000 24.37400
C  46.95500 31.47900 24.85000
N  46.93500 34.65500 29.02800
C  46.24100 33.81800 29.91000
C  46.08900 34.55700 31.27300
C  46.44300 35.97900 30.82100
C  47.25300 35.78300 29.58200
C  45.21300 36.86800 30.61100
C  47.02700 33.99700 32.31000
C  46.49400 33.97600 33.75800
H  45.62200 35.06600 34.33100
N  48.65200 35.93800 26.77900
C  48.72200 36.86800 27.80200
C  49.55700 37.90400 27.30500
C  49.80800 37.71200 25.95000
C  49.13500 36.47200 25.62700
C  50.06600 39.06200 28.22100
C  50.51300 38.58000 24.87400
O  50.64600 38.26200 23.72000
C  51.29900 39.74800 25.40500
N  47.87500 33.78500 24.94300
C  48.55400 34.62600 24.03900
C  48.60200 34.01300 22.67000
C  48.25100 32.45600 23.00000
C  47.65400 32.56200 24.37400
C  47.97100 34.73500 21.47000
C  49.44800 31.48500 23.00700
C  49.30100 30.28600 22.07500
N  46.61000 32.37600 27.08500
C  46.42300 31.40100 26.15700
C  45.71700 30.30800 26.80800
C  45.48400 30.66700 28.14200
C  46.06500 31.95500 28.23500
C  45.25400 29.02200 26.15900
C  44.83200 30.26100 29.35100
O  44.26000 29.23800 29.61700
C  44.85600 31.51200 30.21500
C  45.21400 31.14500 31.64500
O  46.32800 30.88900 32.01900
O  44.07600 30.89800 32.35200
C  44.39600 30.30900 33.68600
H  48.32500 37.61000 29.78000
H  49.61000 36.30600 23.58200
H  46.82900 30.63400 24.17100
H  45.07900 34.40000 31.65200
H  47.06500 36.36100 31.63100
H  44.24200 36.40900 30.80100
H  45.09400 37.22900 29.59000
H  45.16100 37.68700 31.32800
H  47.94200 34.57400 32.44200
H  47.39300 33.00000 32.06500
H  47.43100 34.05400 34.30900
H  46.12900 32.95900 33.89900
H  51.08900 39.42500 28.12400
H  50.18000 38.69100 29.24000
H  49.36900 39.87600 28.02300
H  50.60100 40.43600 25.88200
H  51.63600 40.17900 24.46300
H  52.11300 39.65000 26.12400
H  49.68500 34.07100 22.56500
H  47.42900 32.17700 22.33900
H  47.80800 34.13800 20.57300
H  48.55600 35.59500 21.14300
H  46.94100 34.99400 21.71600
H  49.67800 31.21700 24.03800
H  50.34400 32.05800 22.76600
H  49.45800 29.45500 22.76300
H  50.04600 30.44400 21.29500
H  48.35500 30.16400 21.54900
H  45.54700 28.23700 26.85600
H  45.79000 28.86400 25.22300
H  44.17300 28.96900 26.03300
H  43.86100 31.94000 30.33600
H  44.89700 31.02300 34.34000
H  44.98500 29.39600 33.60400
H  43.47100 29.99400 34.16900

