158

Mg 43.07700 4.49200 46.98000
C  40.83000 7.26200 46.56700
C  40.43000 2.28400 46.94600
C  45.29400 1.94500 46.51600
C  45.64100 6.74700 45.87400
N  40.95600 4.79700 46.74600
C  40.21300 6.02700 46.66400
C  38.76200 5.74200 46.53500
C  38.64900 4.20900 46.78700
C  40.06500 3.70200 46.91100
C  37.86200 3.72000 48.05100
C  38.01500 6.23300 45.20500
C  38.71700 5.67400 43.96900
H  39.30300 6.78600 42.99800
N  42.89600 2.38200 46.83300
C  41.73600 1.67700 46.87500
C  42.05800 0.23400 46.88900
C  43.50700 0.09800 46.88100
C  43.95800 1.50400 46.78700
C  40.94200 -0.88000 47.00900
C  44.36600 -1.13200 46.91200
O  43.88900 -2.22000 47.13900
C  45.88700 -1.17400 46.63900
N  45.18600 4.40800 46.32700
C  45.85900 3.25700 46.38400
C  47.36600 3.45000 46.00800
C  47.47900 4.98100 45.74200
C  46.01000 5.44500 46.01100
C  48.27400 2.94200 47.13400
C  48.01400 5.33100 44.38300
C  47.22000 5.04800 43.16200
N  43.27200 6.61600 46.54400
C  44.37500 7.34600 46.16900
C  44.03700 8.75600 46.12800
C  42.73700 8.75500 46.30000
C  42.23300 7.44100 46.53600
C  44.96000 9.94700 45.85200
C  41.59200 9.61400 46.48600
O  41.57600 10.82500 46.43500
C  40.29200 8.70000 46.55000
C  39.38600 8.88800 47.68700
O  39.25200 8.11700 48.64500
O  38.51500 9.85100 47.39300
C  37.25300 9.97800 48.01300
H  39.55700 1.62800 46.97300
H  46.07500 1.19700 46.36100
H  46.46700 7.44700 45.72900
H  38.20700 6.18800 47.36000
H  38.11300 3.65400 46.01600
H  38.56500 3.28100 48.76000
H  37.04600 3.06000 47.75800
H  37.61400 4.64100 48.57900
H  37.89500 7.31700 45.20000
H  36.97600 5.90700 45.23400
H  37.92600 5.20800 43.38200
H  39.47900 4.99900 44.35900
H  40.09600 -0.42800 47.52800
H  41.34200 -1.76000 47.51200
H  40.63500 -1.10000 45.98600
H  46.53700 -0.69800 47.37400
H  46.00100 -0.74500 45.64400
H  46.22800 -2.20000 46.50700
H  47.51300 2.89800 45.07900
H  48.08200 5.40900 46.54400
H  49.07800 2.31100 46.75700
H  47.59500 2.32900 47.72700
H  48.81400 3.67900 47.72800
H  48.95700 4.81100 44.20900
H  48.17500 6.40300 44.26800
H  47.68500 4.36800 42.44800
H  47.02200 5.92800 42.55100
H  46.25300 4.72900 43.55200
H  45.34500 10.07400 44.84000
H  45.87900 9.77600 46.41400
H  44.43300 10.85700 46.13800
H  39.72300 8.76500 45.62300
H  36.46800 9.96900 47.25700
H  37.27600 10.89500 48.60100
H  37.04500 9.14500 48.68500
Mg 9.95600 47.60900 25.63700
C  8.09300 47.42900 28.52800
C  12.38200 49.23600 27.29200
C  11.71300 47.48900 22.84600
C  7.17300 46.56700 23.83000
N  10.07100 48.43000 27.67400
C  9.32600 48.11300 28.80000
C  9.88900 48.75700 30.09400
C  10.98400 49.75000 29.45000
C  11.18600 49.12100 28.03700
C  10.73300 51.31300 29.40800
C  10.53200 47.73200 31.01700
C  10.60000 47.98000 32.58300
H  10.12500 46.89800 33.60700
N  11.77100 48.21700 25.16500
C  12.67500 48.76900 26.02000
C  13.97400 48.68200 25.38200
C  13.79100 48.29400 24.04000
C  12.34500 48.02500 23.95000
C  15.30100 48.84900 26.19400
C  14.86700 47.96300 22.99300
O  14.62500 47.47100 21.88800
C  16.27600 48.31800 23.28000
N  9.40800 47.29400 23.55600
C  10.40400 47.18100 22.66600
C  9.84300 46.62200 21.30600
C  8.36900 46.29000 21.61800
C  8.28800 46.76200 23.06600
C  9.92300 47.72000 20.19700
C  8.00000 44.84600 21.41300
C  8.62800 43.86000 22.40100
N  7.93900 47.18700 26.03600
C  6.93300 46.71500 25.25700
C  5.87700 46.40600 26.02600
C  6.26600 46.61300 27.34400
C  7.56000 47.06600 27.30800
C  4.46900 46.02100 25.38200
C  5.92100 46.44500 28.76000
O  4.90000 46.00900 29.30000
C  7.10000 46.91800 29.48500
C  7.55600 45.87000 30.44300
O  8.25700 44.99600 30.01700
O  7.03100 45.95800 31.70300
C  7.39300 44.86800 32.63000
H  13.18400 49.88300 27.65600
H  12.22200 47.37700 21.88600
H  6.38200 46.21400 23.16400
H  9.16200 49.36900 30.62800
H  11.90700 49.74400 30.02900
H  11.37900 51.85600 30.09700
H  9.67200 51.49900 29.57600
H  11.02500 51.73200 28.44600
H  11.53700 47.49200 30.66800
H  9.95500 46.80900 30.96100
H  9.97000 48.81200 32.89800
H  11.62500 48.30200 32.76100
H  15.22300 48.81000 27.28100
H  15.69400 49.83500 25.94600
H  16.01800 48.04700 26.01500
H  16.25100 49.25300 23.84100
H  16.70400 48.55200 22.30600
H  16.75500 47.51900 23.84600
H  10.34000 45.67400 21.10000
H  7.59800 46.75100 21.00100
H  10.73500 48.39200 20.47600
H  8.94900 48.13600 19.94000
H  10.22000 47.19800 19.28700
H  8.45200 44.58500 20.45600
H  6.91400 44.80300 21.33900
H  9.49200 44.29700 22.90200
H  8.89300 42.95400 21.85600
H  7.75100 43.56400 22.97600
H  4.06500 46.86900 24.82900
H  3.78200 45.66900 26.15100
H  4.47900 45.25000 24.61200
H  6.84800 47.77700 30.10700
H  6.52500 44.25900 32.88200
H  7.64700 45.38400 33.55600
H  8.22400 44.18100 32.47200

