158

Mg 30.36200 58.08600 40.33400
C  27.56600 56.16100 39.33700
C  32.46100 55.68800 39.48700
C  32.89600 60.43300 40.21400
C  28.05500 60.87700 40.57800
N  29.97600 56.15300 39.54400
C  28.81900 55.51500 39.22900
C  29.09300 54.04800 38.97800
C  30.61900 53.90300 39.22900
C  31.08400 55.39000 39.40600
C  31.05400 52.78600 40.25100
C  28.54600 53.50300 37.61500
C  29.32400 53.89900 36.33300
H  28.44500 54.35400 35.23300
N  32.35900 58.06200 39.90100
C  33.07000 56.96900 39.53600
C  34.43900 57.24800 39.26200
C  34.59400 58.62100 39.59500
C  33.25800 59.12600 39.93700
C  35.39400 56.18500 38.72700
C  35.96100 59.27800 39.59800
O  36.96900 58.57300 39.37700
C  36.14700 60.70500 39.91400
N  30.46700 60.42600 40.32400
C  31.66700 61.04400 40.43400
C  31.48800 62.50200 40.70800
C  29.94600 62.63300 41.03600
C  29.38700 61.24900 40.59400
C  32.42500 63.22100 41.76100
C  29.22100 63.76800 40.24800
C  27.95100 64.42900 40.76300
N  28.21600 58.40300 40.34100
C  27.45400 59.57700 40.40400
C  26.06400 59.19500 40.44400
C  26.04600 57.88000 40.06500
C  27.37600 57.45600 39.85200
C  25.02100 60.12800 40.71200
C  25.19500 56.76000 39.74900
O  23.94900 56.64500 39.72900
C  26.10800 55.59500 39.18800
C  25.79700 54.26200 39.80300
O  26.43900 53.64700 40.65200
O  24.92900 53.60700 38.97100
C  24.62300 52.18600 39.31000
H  33.09100 54.81300 39.30700
H  33.71000 61.16100 40.18300
H  27.32400 61.67600 40.72300
H  28.54000 53.47300 39.72100
H  31.00400 53.50500 38.29000
H  30.43900 51.90300 40.07800
H  30.85800 53.17800 41.24900
H  32.09900 52.48400 40.18300
H  27.56500 53.97000 37.53300
H  28.39000 52.44100 37.80400
H  29.95300 53.06400 36.02500
H  30.14100 54.58300 36.56400
H  36.04500 56.43900 37.89000
H  34.97900 55.23800 38.38200
H  35.85900 55.74500 39.60900
H  35.72300 60.96300 40.88500
H  35.62500 61.14100 39.06300
H  37.21600 60.91300 39.95300
H  31.69500 62.98600 39.75400
H  29.62700 62.68800 42.07700
H  31.89400 63.56200 42.65000
H  32.85500 64.10500 41.29000
H  33.17600 62.51700 42.11900
H  29.11600 63.36100 39.24200
H  29.96000 64.53000 39.99700
H  28.34700 65.37800 41.12500
H  27.49900 63.98700 41.65100
H  27.27200 64.58100 39.92400
H  25.05200 60.94700 39.99300
H  24.92000 60.57400 41.70200
H  24.18000 59.47500 40.47700
H  25.71700 55.50200 38.17500
H  25.22900 51.64600 38.58200
H  23.59600 52.02600 38.98200
H  24.87800 51.93400 40.33900
Mg -1.80300 33.72300 25.45500
C  -3.46000 32.10700 28.20200
C  -0.44000 35.85400 27.84900
C  -0.36600 35.34600 23.01700
C  -3.22500 31.47100 23.33900
N  -1.96100 33.94000 27.81500
C  -2.60800 33.09400 28.69300
C  -2.40600 33.59300 30.13100
C  -1.53600 34.90600 29.95900
C  -1.30400 34.92800 28.42100
C  -2.15800 36.24900 30.51000
C  -1.89300 32.64200 31.23100
C  -2.75600 32.63300 32.52400
H  -2.03600 32.52400 33.88200
N  -0.49700 35.38000 25.42200
C  -0.08300 36.12500 26.47500
C  0.88300 37.21800 25.99300
C  0.96800 37.00200 24.52300
C  0.01800 35.90800 24.23700
C  1.73300 38.02000 26.93200
C  1.82300 37.65800 23.51300
O  1.75800 37.32900 22.31300
C  2.77000 38.84200 23.83600
N  -1.75200 33.39700 23.48900
C  -1.15800 34.25200 22.63700
C  -1.45700 33.95800 21.16200
C  -2.24300 32.61500 21.26100
C  -2.40600 32.44800 22.77900
C  -2.23800 35.10900 20.45000
C  -1.53500 31.36200 20.61700
C  -0.47200 30.65400 21.47800
N  -3.10300 32.13800 25.66700
C  -3.61500 31.30500 24.65300
C  -4.56000 30.40800 25.26800
C  -4.49200 30.64500 26.62000
C  -3.59700 31.75100 26.88500
C  -5.44300 29.41700 24.53000
C  -5.05200 30.29600 27.93800
O  -5.95600 29.50200 28.18400
C  -4.37100 31.25700 28.96500
C  -5.38700 31.95100 29.84200
O  -5.74200 33.14200 29.63800
O  -5.78500 31.15300 30.94500
C  -6.35200 31.89900 32.06000
H  -0.06700 36.50100 28.64600
H  0.04500 35.77300 22.10000
H  -3.89800 30.96100 22.64700
H  -3.35400 34.01400 30.46400
H  -0.56300 34.77500 30.43300
H  -1.40300 36.83200 31.03700
H  -3.08600 36.03700 31.04100
H  -2.49700 36.88700 29.69400
H  -0.85300 32.90400 31.42400
H  -1.85400 31.60000 30.91600
H  -3.12000 31.60900 32.44100
H  -3.53700 33.39300 32.56200
H  2.78100 37.91100 26.65400
H  1.56800 37.65700 27.94700
H  1.54500 39.09300 26.89200
H  3.04400 39.39500 22.93700
H  3.74800 38.47800 24.14900
H  2.32700 39.46300 24.61400
H  -0.44300 33.68100 20.87400
H  -3.26500 32.75200 20.90700
H  -2.19400 35.97400 21.11200
H  -3.27700 34.78800 20.38200
H  -1.73200 35.31500 19.50700
H  -1.09400 31.72300 19.68800
H  -2.42900 30.76400 20.44000
H  -0.08700 31.20300 22.33800
H  0.41900 30.62000 20.85000
H  -0.71800 29.61800 21.70800
H  -4.92300 28.87700 23.74000
H  -6.37800 29.94000 24.32900
H  -5.79000 28.69600 25.27100
H  -3.83800 30.59000 29.64100
H  -6.71500 31.27300 32.87500
H  -7.22000 32.36400 31.59300
H  -5.60700 32.62600 32.38300

