158

Mg 17.28000 -1.53100 27.66800
C  16.36400 0.42600 30.40900
C  19.34100 -3.32400 29.85900
C  18.70800 -2.96200 24.98400
C  15.54700 0.76900 25.48700
N  17.77900 -1.43800 29.83700
C  17.16800 -0.60100 30.78300
C  17.62800 -0.89500 32.21100
C  18.89800 -1.83000 31.99900
C  18.65200 -2.26500 30.46900
C  20.32600 -1.23500 32.36200
C  16.57200 -1.51900 33.10700
C  16.42000 -1.07600 34.55300
H  17.13500 -2.13300 35.39800
N  18.65200 -3.14600 27.50200
C  19.42800 -3.71400 28.49500
C  20.24400 -4.72400 27.94500
C  19.99000 -4.69700 26.49700
C  19.11200 -3.53200 26.24500
C  20.83800 -5.79300 28.83800
C  20.53100 -5.58500 25.37600
O  20.08400 -5.50600 24.24100
C  21.59200 -6.69100 25.66700
N  17.00100 -1.18200 25.53700
C  17.68300 -1.95900 24.64100
C  17.50500 -1.49700 23.20400
C  16.25600 -0.44500 23.40200
C  16.26800 -0.25400 24.92000
C  18.74600 -0.87500 22.46800
C  14.89600 -0.86800 22.82800
C  13.75800 -1.26800 23.77200
N  16.13000 0.14600 27.86600
C  15.53800 1.00700 26.89300
C  14.85200 2.07200 27.55700
C  15.07900 1.83600 28.94000
C  15.90400 0.70100 29.08100
C  14.11200 3.12700 26.91100
C  14.70600 2.29900 30.32000
O  14.02000 3.22400 30.69600
C  15.60800 1.38800 31.23800
C  16.46400 2.30000 32.07300
O  17.37000 3.03200 31.69500
O  16.12800 2.19300 33.39000
C  16.92000 3.02600 34.32800
H  20.00200 -3.74600 30.61800
H  19.18100 -3.38800 24.09700
H  15.02100 1.48300 24.85000
H  17.89700 0.07700 32.62300
H  18.82800 -2.74600 32.58500
H  20.86100 -1.00600 31.44000
H  20.88200 -1.89800 33.02500
H  20.14800 -0.34100 32.95900
H  16.73400 -2.59700 33.07800
H  15.62700 -1.34000 32.59400
H  15.36400 -0.99300 34.81000
H  16.91000 -0.10300 34.55700
H  21.92800 -5.79000 28.81600
H  20.43500 -6.76400 28.55000
H  20.44200 -5.66800 29.84600
H  22.49500 -6.39600 26.20200
H  21.94600 -7.09700 24.71900
H  21.16400 -7.58000 26.13000
H  17.25100 -2.41500 22.67400
H  16.57800 0.41500 22.81600
H  19.36200 -1.54000 21.86300
H  19.35900 -0.40100 23.23500
H  18.35300 -0.04200 21.88500
H  15.05300 -1.73800 22.19100
H  14.40800 -0.11300 22.21100
H  13.50000 -0.34900 24.29700
H  14.22800 -1.95800 24.47300
H  12.96900 -1.75500 23.20000
H  14.82200 3.50100 26.17300
H  13.93600 4.01000 27.52400
H  13.15900 2.87300 26.44600
H  14.99700 0.77100 31.89700
H  17.80800 2.51100 34.69500
H  16.23300 3.25500 35.14300
H  17.32200 3.96100 33.93700
Mg 26.55400 50.39700 27.16700
C  24.44300 51.68700 29.65600
C  28.81100 49.58600 29.69300
C  28.57200 49.62700 24.82300
C  24.20200 51.53900 24.85000
N  26.61300 50.59700 29.40700
C  25.58600 51.07100 30.24200
C  25.90000 50.75400 31.70300
C  27.34500 50.23000 31.71600
C  27.66200 50.11600 30.18500
C  28.40400 51.23100 32.26300
C  24.86100 49.55400 32.05500
C  23.82700 49.92100 33.19300
H  24.01100 48.98100 34.44100
N  28.46900 49.85500 27.20700
C  29.22000 49.46400 28.32200
C  30.50500 48.97600 27.87700
C  30.49400 49.07700 26.46300
C  29.17000 49.55900 26.09600
C  31.55800 48.52900 28.88400
C  31.64600 48.63600 25.50300
O  31.58800 48.79100 24.31800
C  32.88000 48.02500 26.11000
N  26.42500 50.56100 25.06300
C  27.32900 50.07000 24.34400
C  27.01400 49.97700 22.85900
C  25.57100 50.72100 22.83300
C  25.33600 50.96400 24.32400
C  28.09500 50.67400 21.83900
C  24.44100 49.87600 22.13800
C  23.85600 50.52000 20.89100
N  24.67400 51.37400 27.21500
C  23.91300 51.80200 26.17300
C  22.77400 52.51700 26.68200
C  22.91800 52.51800 28.12100
C  24.14800 51.83800 28.32500
C  21.67100 53.13900 25.91700
C  22.40500 52.96800 29.38100
O  21.40000 53.63800 29.59300
C  23.31800 52.34800 30.47500
C  23.73500 53.52400 31.34900
O  24.48700 54.44100 31.08400
O  23.06300 53.41500 32.55100
C  23.17700 54.51600 33.60200
H  29.45400 49.19500 30.48400
H  29.14500 49.10800 24.05200
H  23.49100 51.92800 24.11800
H  25.68300 51.65300 32.28000
H  27.47000 49.29800 32.26700
H  27.96800 51.82600 33.06500
H  28.82900 51.92400 31.53600
H  29.19100 50.55900 32.60400
H  25.49900 48.73100 32.37600
H  24.23200 49.17900 31.24800
H  22.86200 49.94000 32.68800
H  24.10800 50.96400 33.33900
H  31.37900 49.08500 29.80500
H  32.60600 48.68600 28.63200
H  31.44100 47.47900 29.15000
H  32.47100 47.13900 26.59700
H  33.36400 48.61900 26.88500
H  33.60000 47.63600 25.39100
H  26.78500 48.94200 22.60400
H  25.69000 51.73400 22.44800
H  28.70800 51.41900 22.34700
H  27.56200 51.06600 20.97400
H  28.59900 49.76500 21.50900
H  23.62500 49.81800 22.85900
H  24.72500 48.85400 21.88600
H  23.92700 49.97400 19.95000
H  24.24100 51.53700 20.80900
H  22.81000 50.73400 21.11100
H  21.95500 54.17200 25.71700
H  20.78100 53.14200 26.54700
H  21.37800 52.59100 25.02100
H  22.70600 51.72600 31.12800
H  23.58000 55.43500 33.17800
H  23.81900 54.18200 34.41800
H  22.20600 54.68600 34.06700

