158

Mg 10.32800 48.09800 25.83700
C  8.11500 48.38100 28.49200
C  12.51600 49.94500 27.63000
C  12.53600 47.99000 23.24900
C  7.74500 47.32200 23.72500
N  10.28900 48.96800 27.81900
C  9.34400 48.92400 28.75600
C  9.74500 49.56200 30.09700
C  10.94400 50.43400 29.59000
C  11.28200 49.79300 28.23700
C  10.68100 51.91600 29.41200
C  10.20200 48.53900 31.12400
C  9.55800 48.73700 32.56900
H  9.70600 47.54400 33.52600
N  12.28800 48.68900 25.55100
C  13.02100 49.43500 26.40000
C  14.42900 49.60200 25.93900
C  14.39800 49.07600 24.62500
C  13.06500 48.52300 24.45900
C  15.45700 50.24000 26.77000
C  15.45800 49.09600 23.60100
O  15.30000 48.59300 22.47200
C  16.73900 49.86400 23.87800
N  10.26400 47.61400 23.81500
C  11.27300 47.62000 22.90300
C  10.82600 47.19400 21.48400
C  9.28600 46.92700 21.72800
C  9.04700 47.42000 23.20500
C  11.15600 48.32600 20.36200
C  8.84900 45.43500 21.50800
C  9.55300 44.30100 22.30900
N  8.36200 47.77000 26.02900
C  7.45000 47.49000 25.09700
C  6.13000 47.27600 25.66900
C  6.33700 47.59900 27.05700
C  7.72000 47.92900 27.16200
C  4.86700 46.88700 24.87200
C  5.73500 47.75800 28.30600
O  4.56600 47.73400 28.61900
C  6.80100 48.23100 29.30800
C  7.00700 47.19200 30.36900
O  7.85700 46.33000 30.22700
O  6.06600 47.23400 31.42400
C  6.34000 46.41800 32.60400
H  13.21500 50.59500 28.15900
H  13.12200 47.63400 22.39900
H  6.93400 47.03000 23.05400
H  8.94200 50.17400 30.50700
H  11.89500 50.43500 30.12300
H  9.69000 52.16900 29.78700
H  10.75800 52.20200 28.36300
H  11.41700 52.55600 29.89900
H  11.24800 48.59000 31.42600
H  9.87900 47.54700 30.80600
H  8.50400 48.58400 32.33400
H  9.81300 49.70600 32.99800
H  15.83500 51.14400 26.29400
H  16.23500 49.47800 26.72000
H  15.24400 50.52200 27.80100
H  17.39000 49.90300 23.00400
H  17.19600 49.39100 24.74700
H  16.62600 50.90500 24.17900
H  11.23400 46.20100 21.29300
H  8.64400 47.51600 21.07300
H  11.94600 47.99800 19.68600
H  11.55300 49.16600 20.93000
H  10.25500 48.62900 19.82800
H  9.01400 45.10100 20.48300
H  7.80700 45.31900 21.80500
H  8.86400 43.73300 22.93500
H  10.30400 44.60400 23.03800
H  10.05600 43.69900 21.55300
H  5.02500 46.31700 23.95600
H  4.20700 47.70200 24.57700
H  4.11600 46.39100 25.48700
H  6.43600 49.15700 29.75300
H  6.86900 45.47600 32.46000
H  5.33800 46.07300 32.85800
H  6.74200 47.11900 33.33700
Mg -0.72700 34.56600 26.65600
C  -3.05500 32.88600 28.83700
C  -0.02400 36.65700 29.29700
C  0.89100 36.56400 24.55400
C  -1.87300 32.56000 24.06700
N  -1.47800 34.71300 28.89600
C  -2.36500 33.91100 29.56400
C  -2.38600 34.37200 31.04200
C  -1.58800 35.67500 30.96600
C  -0.90300 35.65600 29.61300
C  -2.39200 36.85600 31.13400
C  -1.92200 33.24100 32.07600
C  -3.01100 33.05100 33.12600
H  -3.14900 34.14300 34.22300
N  0.42000 36.24800 26.92300
C  0.63700 36.92800 28.09900
C  1.52000 38.00100 27.89100
C  1.90600 37.96900 26.48100
C  1.03600 36.93700 25.89400
C  1.91900 38.90000 29.06800
C  2.79100 38.83300 25.66000
O  2.90400 38.76800 24.46800
C  3.51200 39.96000 26.35100
N  -0.46200 34.54100 24.56800
C  0.22600 35.51000 23.90100
C  0.27000 35.16100 22.37200
C  -0.33900 33.72900 22.29500
C  -0.98200 33.56400 23.74000
C  -0.56700 36.24400 21.53400
C  0.62800 32.52200 22.06400
C  1.69300 32.25600 23.18400
N  -2.15200 32.99700 26.39100
C  -2.53200 32.32500 25.26500
C  -3.61700 31.52100 25.56000
C  -3.80800 31.61200 26.96600
C  -2.90100 32.51400 27.44800
C  -4.48100 30.77800 24.60400
C  -4.66800 31.16400 28.05400
O  -5.61500 30.35200 28.15600
C  -4.10100 31.92000 29.35500
C  -5.21900 32.58900 29.95200
O  -5.72900 33.61900 29.51700
O  -5.58900 31.88200 31.09300
C  -6.71000 32.51600 31.81400
H  0.24800 37.30500 30.13300
H  1.35700 37.20900 23.80600
H  -2.09600 31.82600 23.29000
H  -3.43500 34.53500 31.28900
H  -0.85300 35.73000 31.76900
H  -2.43200 37.46500 30.23100
H  -2.02500 37.37800 32.01700
H  -3.41800 36.60700 31.40900
H  -1.03300 33.48900 32.65700
H  -1.77400 32.35300 31.46100
H  -2.69600 32.12100 33.60000
H  -4.04300 32.99700 32.77900
H  1.71000 39.86300 28.60300
H  2.95700 38.84300 29.39400
H  1.32400 38.86900 29.98100
H  2.66100 40.55400 26.68700
H  4.32300 40.35500 25.73900
H  4.11800 39.62800 27.19400
H  1.34900 35.18000 22.22100
H  -1.14600 33.61900 21.57000
H  -1.27300 36.73500 22.20300
H  -1.29300 35.79800 20.85500
H  0.03400 36.97500 20.99300
H  1.17200 32.84900 21.17800
H  0.05100 31.62400 21.84200
H  1.50500 31.49700 23.94300
H  1.94400 33.21600 23.63600
H  2.61700 31.82700 22.79700
H  -5.29500 30.22300 25.07100
H  -3.86200 30.13500 23.97900
H  -4.97800 31.53900 24.00200
H  -3.72200 31.25100 30.12800
H  -6.38400 33.37300 32.40300
H  -7.09900 31.89300 32.61900
H  -7.62000 32.68400 31.23800

