158

Mg 47.04800 25.79600 29.37200
C  48.32000 27.87900 32.02900
C  45.78700 23.77600 32.02200
C  46.50100 23.33300 27.22800
C  48.65400 27.73100 27.11000
N  46.76400 25.94300 31.72900
C  47.54600 26.81400 32.53700
C  47.18300 26.56100 34.04900
C  46.63500 25.07300 34.05000
C  46.44000 24.84600 32.53300
C  47.63900 24.10400 34.80400
C  46.21400 27.57600 34.70700
C  46.61000 28.17200 36.15400
H  45.48900 28.17400 37.20600
N  45.95700 23.90100 29.54400
C  45.63600 23.20500 30.73800
C  44.92500 21.97100 30.29200
C  44.95500 21.94800 28.86300
C  45.84800 23.06800 28.48900
C  44.29600 21.05100 31.33000
C  44.31400 21.01900 27.82500
O  44.53900 21.21400 26.64500
C  43.55300 19.70500 28.28300
N  47.60300 25.51800 27.49800
C  47.22400 24.43000 26.81400
C  47.77400 24.51700 25.36200
C  48.09200 26.06000 25.19300
C  48.14000 26.45500 26.72000
C  49.02100 23.57700 25.27100
C  47.09300 26.88500 24.41400
C  47.27400 26.85900 22.89500
N  48.15000 27.53700 29.46800
C  48.81900 28.26100 28.37900
C  49.55300 29.34600 28.97200
C  49.34600 29.23000 30.37100
C  48.51000 28.11100 30.63400
C  50.37600 30.37000 28.29500
C  49.72700 29.89100 31.65300
O  50.44900 30.83200 31.86000
C  48.93700 29.07400 32.79800
C  49.93500 28.70800 33.85600
O  50.97600 27.95400 33.72600
O  49.68200 29.36000 35.07000
C  50.70100 29.32300 36.12200
H  45.30300 23.24400 32.84400
H  46.33200 22.55000 26.48500
H  49.10700 28.31100 26.30300
H  48.13400 26.68100 34.56800
H  45.63600 25.09400 34.48600
H  47.23300 23.91900 35.79800
H  48.64500 24.52500 34.81200
H  47.71600 23.15300 34.27800
H  45.15800 27.31000 34.65500
H  46.16800 28.41300 34.01000
H  46.84800 29.22700 36.01400
H  47.44300 27.52700 36.43200
H  44.24900 20.03700 30.93300
H  43.25900 21.31400 31.53900
H  44.91300 21.05700 32.22800
H  44.22900 19.10100 28.88800
H  43.51200 19.23800 27.30000
H  42.59100 20.07300 28.64000
H  46.93400 24.42600 24.67300
H  49.08800 26.18400 24.76800
H  49.86100 24.20700 24.97700
H  48.83000 22.81300 24.51800
H  49.24500 22.97300 26.15000
H  47.29800 27.87800 24.81700
H  46.06700 26.65000 24.69600
H  46.43000 26.87200 22.20500
H  47.90100 26.02100 22.59000
H  47.78800 27.74300 22.51900
H  51.28700 30.45600 28.88800
H  49.91200 31.35300 28.21000
H  50.61700 30.08900 27.27000
H  48.28000 29.80800 33.26400
H  50.24200 28.58300 36.77800
H  50.97500 30.29000 36.54500
H  51.63200 28.85500 35.80000
Mg 1.51800 42.28300 25.90300
C  3.87900 42.01100 28.54100
C  -0.96100 41.54300 28.20100
C  -0.50900 41.80900 23.38100
C  4.22400 42.89500 23.74000
N  1.53500 41.88400 28.03000
C  2.52700 41.88700 28.92700
C  2.04400 41.90100 30.33700
C  0.54600 41.57400 30.27400
C  0.36200 41.69500 28.73600
C  0.24500 40.16300 30.93900
C  2.27400 43.31400 30.96000
C  2.58000 43.41500 32.44000
H  2.10000 42.22000 33.38200
N  -0.48100 41.79900 25.80300
C  -1.27200 41.38000 26.85100
C  -2.58800 40.92700 26.33400
C  -2.59100 41.08000 24.97200
C  -1.18600 41.58300 24.67800
C  -3.65000 40.35000 27.34400
C  -3.67400 40.86200 23.90400
O  -3.50100 41.11100 22.71700
C  -5.04600 40.27900 24.45700
N  1.84500 42.22200 23.86200
C  0.81200 42.22800 23.01100
C  1.27700 42.35300 21.52100
C  2.73400 43.02700 21.74200
C  2.92800 42.74800 23.25300
C  1.44200 41.00000 20.78400
C  2.70900 44.56600 21.43700
C  3.35800 45.09500 20.07600
N  3.65500 42.48100 26.02800
C  4.64900 42.73700 25.11600
C  5.89100 42.77500 25.78000
C  5.62100 42.51600 27.12700
C  4.27500 42.27900 27.21200
C  7.23100 43.14200 25.23300
C  6.29500 42.33800 28.44300
O  7.43800 42.35700 28.81700
C  5.08700 42.19700 29.40800
C  5.36500 41.12200 30.48200
O  5.08400 39.96100 30.32400
O  6.04800 41.64000 31.55500
C  6.23800 40.78900 32.68400
H  -1.75100 41.35900 28.93200
H  -1.25100 41.62000 22.60200
H  4.94200 43.29600 23.02200
H  2.64000 41.22400 30.95100
H  -0.03800 42.33100 30.79800
H  -0.01400 39.45300 30.15300
H  -0.63300 40.28600 31.57200
H  1.01300 39.82100 31.63300
H  1.37800 43.90400 30.76800
H  3.06300 43.84000 30.42200
H  1.99900 44.20800 32.91000
H  3.66200 43.49200 32.53800
H  -4.73400 40.35600 27.22900
H  -3.60200 40.92900 28.26700
H  -3.41200 39.31300 27.58100
H  -4.77300 39.37700 25.00500
H  -5.64000 40.05200 23.57200
H  -5.51500 41.03600 25.08600
H  0.58400 43.05100 21.05100
H  3.44900 42.46600 21.13900
H  2.43100 40.81500 20.36300
H  0.84700 41.15100 19.88300
H  0.94100 40.14200 21.23000
H  3.16300 45.11800 22.26000
H  1.65100 44.82100 21.50300
H  2.73700 45.90500 19.69500
H  3.38300 44.30500 19.32500
H  4.31000 45.58900 20.26900
H  7.46600 44.18800 25.42900
H  7.16600 43.14200 24.14500
H  8.09500 42.59600 25.60900
H  5.06800 43.15900 29.92000
H  7.27000 40.44000 32.65100
H  5.60700 39.90100 32.71200
H  6.27400 41.40400 33.58300

