158

Mg 17.61800 -1.91300 27.09200
C  16.64600 0.11900 29.73500
C  19.30200 -3.83900 29.28500
C  18.67700 -3.62500 24.50800
C  16.01300 0.30000 24.85900
N  18.27900 -1.52500 29.30700
C  17.42200 -0.95100 30.18000
C  17.85600 -1.32400 31.68100
C  18.95700 -2.40400 31.45000
C  18.92800 -2.58300 29.91900
C  20.45500 -2.13200 31.95200
C  16.62900 -1.57400 32.58200
C  16.46300 -0.70500 33.80300
H  17.77300 -0.49500 34.55000
N  18.78900 -3.55800 26.94500
C  19.36600 -4.27500 27.93900
C  19.97800 -5.46500 27.46000
C  19.76300 -5.47800 26.07500
C  19.09400 -4.16500 25.77300
C  20.64900 -6.49800 28.33400
C  19.98000 -6.55500 25.01100
O  19.45400 -6.55800 23.90800
C  20.72800 -7.80700 25.21100
N  17.36400 -1.67800 24.96400
C  17.92000 -2.53300 24.11800
C  17.79300 -2.06900 22.58300
C  16.73600 -0.88200 22.76800
C  16.67100 -0.75600 24.26800
C  19.18700 -1.71900 22.03500
C  15.30900 -0.83700 22.10100
C  15.18800 0.25600 21.05900
N  16.54100 -0.11200 27.21800
C  15.95400 0.66500 26.22600
C  15.15400 1.67500 26.82400
C  15.41200 1.54200 28.21400
C  16.32900 0.49400 28.37600
C  14.17700 2.67500 26.12800
C  15.07500 2.04000 29.45300
O  14.44800 3.02700 29.76600
C  15.94100 1.17400 30.55600
C  16.83900 2.00900 31.45400
O  17.99200 2.29900 31.16400
O  16.14400 2.51500 32.57100
C  17.06800 3.23100 33.45500
H  19.76200 -4.63100 29.87900
H  19.02000 -4.19200 23.64100
H  15.62600 0.97200 24.09000
H  18.35900 -0.46600 32.12600
H  18.65400 -3.29900 31.99300
H  20.48100 -1.14400 32.41100
H  21.18700 -2.06600 31.14700
H  20.78200 -2.87000 32.68500
H  16.70900 -2.60100 32.93800
H  15.74600 -1.43700 31.95600
H  15.72300 -1.18200 34.44500
H  16.04100 0.29000 33.66100
H  21.19500 -7.23200 27.74100
H  19.85800 -6.99100 28.89800
H  21.32400 -6.12700 29.10500
H  21.64700 -7.65600 25.77800
H  21.08400 -8.16100 24.24400
H  20.05800 -8.46200 25.76800
H  17.36400 -2.91100 22.03900
H  17.27100 0.03500 22.52000
H  19.23300 -0.69300 21.67000
H  19.43500 -2.29500 21.14300
H  20.00000 -1.86800 22.74600
H  14.51400 -0.57100 22.79700
H  15.11200 -1.79200 21.61300
H  16.09400 0.83500 20.87300
H  14.35300 0.94000 21.21200
H  15.07300 -0.24700 20.09800
H  14.61000 3.04100 25.19700
H  13.73400 3.40900 26.80100
H  13.34000 2.04500 25.82600
H  15.18400 0.67300 31.15900
H  17.65600 3.95000 32.88500
H  17.85000 2.56900 33.82800
H  16.60000 3.70600 34.31700
Mg 0.17100 42.34900 25.76300
C  2.58100 42.40000 28.32300
C  -2.02800 41.25300 28.13300
C  -2.10200 42.29800 23.48400
C  2.71500 43.15800 23.44800
N  0.31700 41.77600 27.97900
C  1.35200 41.99500 28.88100
C  0.87300 42.06300 30.31200
C  -0.51400 41.42200 30.24300
C  -0.77400 41.49000 28.70100
C  -0.71000 39.96200 30.68500
C  0.92900 43.50800 30.96100
C  1.88400 43.57700 32.19600
H  1.82600 42.48500 33.27600
N  -1.78000 41.83500 25.80100
C  -2.48700 41.35400 26.81400
C  -3.82300 41.00300 26.42100
C  -3.91500 41.52400 25.10300
C  -2.58000 41.99300 24.74600
C  -4.76900 40.43500 27.39800
C  -5.18400 41.58400 24.23200
O  -5.07400 42.04500 23.06500
C  -6.57400 41.13200 24.67400
N  0.26400 42.82700 23.73700
C  -0.84100 42.68400 22.97300
C  -0.50300 43.04700 21.50500
C  1.03500 43.44700 21.58600
C  1.42400 43.13400 22.97700
C  -0.91300 41.98200 20.52800
C  1.37000 44.92300 21.18600
C  1.01900 46.12900 22.14000
N  2.15600 42.59400 25.75900
C  3.06600 42.89900 24.78500
C  4.37700 43.04900 25.38800
C  4.22700 42.78200 26.74000
C  2.87200 42.57500 26.94400
C  5.59700 43.40000 24.56700
C  4.96300 42.66600 27.96300
O  6.19100 42.81800 28.20200
C  3.93900 42.51800 29.08000
C  4.33500 41.30000 29.87300
O  4.28400 40.13100 29.46600
O  4.83600 41.69300 31.10800
C  5.33200 40.61300 31.96600
H  -2.77800 40.89800 28.84200
H  -2.83300 42.10600 22.69500
H  3.46400 43.42200 22.69900
H  1.55100 41.36800 30.80800
H  -1.34000 41.98100 30.68400
H  0.12300 39.75100 31.35500
H  -0.94200 39.20700 29.93200
H  -1.57500 39.91400 31.34700
H  -0.06700 43.94100 31.05800
H  1.34200 44.17600 30.20600
H  1.72500 44.55700 32.64800
H  2.85400 43.59200 31.70000
H  -4.41700 39.61100 28.01800
H  -5.70500 40.08300 26.96500
H  -4.92900 41.26000 28.09200
H  -6.65200 40.07100 24.91100
H  -7.33100 41.49200 23.97700
H  -6.72400 41.59900 25.64700
H  -1.17000 43.90100 21.39300
H  1.63100 42.89100 20.86100
H  -1.35700 41.07800 20.94500
H  0.01200 41.64300 20.06300
H  -1.66400 42.36800 19.83900
H  0.94200 45.04600 20.19100
H  2.45200 45.02500 21.09400
H  1.71100 46.39900 22.93800
H  0.02400 46.02000 22.57200
H  0.84000 46.99000 21.49700
H  6.55300 43.34100 25.08700
H  5.45700 44.43900 24.26900
H  5.56600 42.85400 23.62400
H  3.88800 43.42200 29.68600
H  6.20100 40.15600 31.49400
H  4.63800 39.79300 32.15500
H  5.51700 41.13400 32.90600

