158

Mg 24.64400 -4.89700 45.68500
C  26.70100 -2.34400 44.62600
C  22.05900 -3.70900 43.92100
C  23.10700 -7.95700 46.11500
C  27.46600 -6.24200 47.53300
N  24.44700 -3.29500 44.22000
C  25.38200 -2.28400 44.13700
C  24.89800 -1.36600 43.00300
C  23.32200 -1.58500 43.08000
C  23.25200 -2.94900 43.73700
C  22.51200 -0.59000 43.94100
C  25.66000 -1.79500 41.71400
C  26.25000 -0.75300 40.73900
H  25.95800 -0.80700 39.23000
N  22.76400 -5.64600 45.21600
C  21.86000 -4.99500 44.48600
C  20.67900 -5.81500 44.32800
C  20.99700 -7.06400 44.92800
C  22.35100 -6.94700 45.47900
C  19.42500 -5.46000 43.58100
C  20.07200 -8.27800 45.00600
O  18.86300 -8.22300 44.61800
C  20.51900 -9.67600 45.47600
N  25.32700 -6.92400 46.39300
C  24.37300 -7.91900 46.62200
C  25.01500 -9.07400 47.49400
C  26.29400 -8.43300 48.00900
C  26.43900 -7.15700 47.26100
C  23.94500 -9.55100 48.52300
C  27.59100 -9.27300 47.74600
C  28.63400 -9.29800 48.89100
N  26.77300 -4.47800 45.97700
C  27.73200 -5.05900 46.85000
C  28.90100 -4.18500 46.85600
C  28.56400 -3.10200 45.94000
C  27.25500 -3.35800 45.40900
C  30.14700 -4.32400 47.60200
C  29.04300 -1.98200 45.33000
O  30.09800 -1.40000 45.45500
C  27.83400 -1.40500 44.35800
C  27.56000 0.01900 44.59100
O  26.93000 0.47400 45.52300
O  28.19600 0.74100 43.64900
C  27.99800 2.18000 43.83000
H  21.19100 -3.34500 43.36700
H  22.67700 -8.92500 46.38000
H  28.30500 -6.57800 48.14600
H  25.16400 -0.32500 43.18400
H  22.80900 -1.62900 42.11900
H  21.82100 -0.02000 43.32100
H  23.16000 0.08400 44.50200
H  21.92000 -1.08100 44.71300
H  24.83900 -2.13300 41.08100
H  26.37300 -2.59000 41.93200
H  27.33600 -0.84700 40.72600
H  25.93700 0.25100 41.02600
H  19.05900 -6.15500 42.82500
H  19.59600 -4.50900 43.07700
H  18.51000 -5.25000 44.13500
H  20.76800 -9.72800 46.53600
H  21.43500 -10.00000 44.98300
H  19.71800 -10.40000 45.32400
H  25.19100 -9.97000 46.89900
H  26.17100 -8.10200 49.04100
H  24.36300 -9.58200 49.53000
H  23.47300 -10.51700 48.34800
H  23.17700 -8.78000 48.57400
H  28.07700 -8.88900 46.84900
H  27.13400 -10.25400 47.62000
H  28.47900 -10.26000 49.37900
H  28.38700 -8.56200 49.65800
H  29.64200 -9.13000 48.51400
H  30.27400 -3.51600 48.32200
H  31.01100 -4.36900 46.93900
H  30.15400 -5.23600 48.19800
H  28.11300 -1.50600 43.30900
H  28.68500 2.93500 43.44600
H  28.04700 2.38800 44.89900
H  26.99600 2.47900 43.52500
Mg 27.34600 49.97200 26.34500
C  25.28300 51.06700 29.01300
C  29.56600 48.84600 28.56100
C  29.36700 49.32600 23.62400
C  25.23200 51.79700 24.17200
N  27.41000 50.05400 28.56100
C  26.44300 50.44500 29.41500
C  26.75500 50.01400 30.85800
C  28.30300 49.56300 30.78200
C  28.46500 49.44400 29.21300
C  29.39400 50.50300 31.50000
C  25.71900 48.93000 31.34000
C  25.26500 48.91400 32.83300
H  26.19000 49.66700 33.79400
N  29.11000 49.14900 26.13800
C  29.93700 48.75100 27.20700
C  31.07700 48.09300 26.68400
C  31.05500 48.25200 25.25200
C  29.83900 49.01100 24.95000
C  32.15500 47.44600 27.53600
C  32.23700 47.90100 24.33200
O  32.12000 48.04600 23.10000
C  33.55700 47.44300 24.86400
N  27.33400 50.57500 24.20600
C  28.22100 50.07400 23.30100
C  27.73600 50.27000 21.88700
C  26.23200 50.80500 22.13800
C  26.25000 51.09900 23.59900
C  28.66000 51.18800 21.05300
C  25.20500 49.80400 21.67900
C  24.24800 50.30900 20.55500
N  25.61900 51.23200 26.53000
C  24.87000 51.93200 25.51300
C  23.75200 52.49400 26.08900
C  23.88900 52.21800 27.48700
C  25.01200 51.44800 27.68500
C  22.59000 53.15100 25.33200
C  23.27100 52.44900 28.75600
O  22.22400 53.05500 29.09300
C  24.17500 51.66200 29.90100
C  24.73300 52.72800 30.78400
O  25.80100 53.27200 30.65200
O  23.80400 53.12500 31.71200
C  24.13400 54.33000 32.43900
H  30.28400 48.56800 29.33500
H  30.03600 49.15800 22.77800
H  24.51500 52.27500 23.50000
H  26.69200 50.91300 31.47200
H  28.38800 48.57200 31.22700
H  29.91500 49.90100 32.24500
H  28.82000 51.25600 32.04000
H  30.05800 50.89000 30.72700
H  26.12000 47.94900 31.08400
H  24.83100 49.01200 30.71400
H  25.31700 47.88900 33.20300
H  24.21800 49.21600 32.86300
H  33.05000 48.06200 27.62400
H  32.39100 46.49600 27.05700
H  31.94700 47.31200 28.59800
H  34.20400 47.31100 23.99600
H  33.55000 46.49800 25.40700
H  33.89600 48.31400 25.42400
H  27.76000 49.28200 21.42800
H  26.17500 51.74900 21.59600
H  29.49200 51.61200 21.61500
H  28.09600 52.05900 20.71900
H  29.05000 50.65700 20.18400
H  24.59200 49.52700 22.53600
H  25.59100 48.81100 21.45000
H  24.25500 49.53200 19.79000
H  24.48900 51.23300 20.03000
H  23.25400 50.47600 20.97100
H  21.70700 53.32800 25.94800
H  22.29200 52.34500 24.66300
H  23.01700 53.98200 24.77100
H  23.72200 50.93600 30.57500
H  24.62800 55.07300 31.81300
H  24.76600 54.06800 33.28800
H  23.28100 54.77900 32.94800

