158

Mg -9.51700 17.68900 42.24100
C  -6.16300 17.27100 42.55400
C  -9.11200 20.96800 41.45200
C  -12.85500 17.89300 41.40800
C  -9.85800 14.16400 42.20800
N  -7.81400 18.92300 42.07000
C  -6.52300 18.61200 42.36600
C  -5.59300 19.87100 42.27300
C  -6.64400 20.99600 42.29400
C  -7.95700 20.26800 41.91000
C  -6.73400 21.72400 43.70700
C  -4.70000 19.84400 40.94700
C  -5.03200 18.77000 39.91000
H  -4.62000 19.15300 38.52800
N  -10.78100 19.25000 41.57400
C  -10.39200 20.46100 41.20600
C  -11.55000 21.26600 40.82000
C  -12.68600 20.46600 40.91900
C  -12.12600 19.12100 41.29700
C  -11.41500 22.73500 40.40200
C  -14.11000 20.87000 40.76700
O  -14.42800 22.04100 40.52400
C  -15.38300 19.94700 40.93800
N  -11.10100 16.26200 41.84600
C  -12.39300 16.63100 41.74800
C  -13.35400 15.45900 41.72300
C  -12.36200 14.22500 41.84100
C  -10.95900 14.88200 41.98500
C  -14.36700 15.47600 42.87700
C  -12.33400 13.39100 40.46700
C  -12.83600 11.86900 40.51200
N  -8.28100 16.03400 42.40400
C  -8.55400 14.67000 42.45100
C  -7.30600 13.97600 42.67900
C  -6.33800 14.93300 42.85300
C  -7.01100 16.17000 42.64200
C  -7.09800 12.47000 42.74100
C  -4.94600 15.28400 43.04500
O  -3.96400 14.58000 43.12200
C  -4.79500 16.85000 42.99400
C  -4.43300 17.33100 44.35000
O  -3.43600 17.99300 44.54300
O  -5.41300 16.96900 45.25200
C  -5.08100 17.28600 46.71100
H  -9.08700 22.05900 41.42800
H  -13.86500 17.81900 41.00000
H  -10.00000 13.08400 42.27700
H  -4.81900 19.90600 43.04000
H  -6.58300 21.70400 41.46700
H  -5.91100 21.58700 44.40900
H  -7.68500 21.50100 44.19000
H  -6.60800 22.78000 43.46700
H  -3.68300 19.70800 41.31400
H  -4.90200 20.82000 40.50400
H  -6.08100 18.47300 39.90500
H  -4.51000 17.83800 40.12600
H  -10.75800 22.80200 39.53500
H  -11.12800 23.32800 41.27100
H  -12.34300 23.23800 40.12700
H  -15.45700 19.02300 40.36500
H  -16.21200 20.57300 40.60800
H  -15.50000 19.72700 41.99900
H  -14.02200 15.46200 40.86200
H  -12.70400 13.61500 42.67700
H  -14.52000 14.53200 43.39900
H  -15.31600 15.85600 42.49900
H  -14.00400 16.15000 43.65300
H  -11.31700 13.34700 40.07700
H  -12.89900 13.92900 39.70500
H  -13.13400 11.61300 41.52900
H  -12.00700 11.24300 40.18000
H  -13.71100 11.93600 39.86600
H  -7.37500 12.34700 43.78800
H  -6.08800 12.14200 42.49700
H  -7.72400 11.77700 42.17900
H  -4.05500 17.12700 42.24300
H  -5.96400 17.80000 47.09200
H  -4.26100 17.99600 46.81900
H  -4.91200 16.33600 47.21700
Mg -4.33500 25.06100 26.03800
C  -2.78800 26.83200 28.65300
C  -5.41600 22.67300 28.28100
C  -5.50100 23.49100 23.50600
C  -2.46800 27.15800 23.73500
N  -4.18100 24.82300 28.27000
C  -3.54300 25.72400 29.06200
C  -3.94600 25.46400 30.52300
C  -4.53700 23.93900 30.37700
C  -4.71800 23.72800 28.89400
C  -3.66200 22.81700 31.00800
C  -5.09400 26.51500 30.94200
C  -5.45900 26.62300 32.40100
H  -5.06300 25.44100 33.33100
N  -5.32900 23.32500 25.90700
C  -5.76600 22.51000 26.93500
C  -6.66800 21.55000 26.36200
C  -6.50700 21.59600 24.93100
C  -5.73700 22.82000 24.70600
C  -7.50300 20.67300 27.19100
C  -7.09400 20.65000 23.82700
O  -6.91900 20.82100 22.65900
C  -7.88600 19.46500 24.16000
N  -3.96700 25.27100 23.86400
C  -4.83800 24.65100 23.11800
C  -4.84500 25.18500 21.54800
C  -3.77500 26.28600 21.66200
C  -3.41700 26.28200 23.15500
C  -4.51500 24.01900 20.63900
C  -4.30900 27.69200 21.15900
C  -4.29400 27.88600 19.67400
N  -2.90400 26.68300 26.12100
C  -2.18800 27.43300 25.09700
C  -1.37400 28.45700 25.70700
C  -1.61000 28.26900 27.10000
C  -2.51000 27.17800 27.28400
C  -0.63500 29.50500 25.09800
C  -1.33900 28.83600 28.38700
O  -0.69800 29.84900 28.74700
C  -2.12700 27.95400 29.36900
C  -1.32100 27.46900 30.56800
O  -0.23700 26.92200 30.52100
O  -1.98700 27.82200 31.72200
C  -1.27000 27.46500 32.90200
H  -5.79700 21.98900 29.04300
H  -5.95100 23.04200 22.61800
H  -1.87700 27.78700 23.06600
H  -3.03700 25.43600 31.12400
H  -5.52100 24.01700 30.83900
H  -2.68400 23.26300 31.19300
H  -3.51700 22.01700 30.28200
H  -4.07000 22.41500 31.93500
H  -5.95000 26.17800 30.35700
H  -4.82200 27.50400 30.57300
H  -6.53500 26.76800 32.50500
H  -5.16500 27.62800 32.70300
H  -7.22600 19.63000 27.03500
H  -8.50000 20.83100 26.77900
H  -7.43500 20.88600 28.25800
H  -8.64100 19.67900 24.91600
H  -7.31500 18.60000 24.50000
H  -8.40900 19.15100 23.25700
H  -5.78400 25.64200 21.23600
H  -2.96400 26.03700 20.97800
H  -4.44800 23.04300 21.12100
H  -3.66100 24.19500 19.98500
H  -5.34200 23.88800 19.94100
H  -3.78000 28.53900 21.59500
H  -5.35400 27.71200 21.46900
H  -3.97200 26.96900 19.18000
H  -3.82400 28.80500 19.32500
H  -5.35700 27.96900 19.44500
H  -0.66800 29.51100 24.00800
H  0.40200 29.41000 25.42100
H  -1.06500 30.45300 25.42200
H  -2.87900 28.60400 29.81600
H  -1.81900 27.87300 33.75100
H  -0.27600 27.90900 32.86500
H  -1.26500 26.37900 32.99600

