158

Mg 49.81900 46.51200 40.25100
C  46.70200 47.88600 39.32000
C  48.85600 43.61900 38.83200
C  53.05600 45.41100 40.44200
C  50.90200 49.78400 40.91600
N  47.92000 45.83000 39.20300
C  46.78900 46.52000 38.95700
C  45.70100 45.62300 38.36600
C  46.29000 44.14400 38.48900
C  47.75800 44.50900 38.86300
C  45.47800 43.21500 39.46200
C  45.34700 45.95200 36.86500
C  43.78500 45.93000 36.59600
H  43.36500 44.89200 35.60800
N  50.81900 44.76300 39.72300
C  50.20800 43.68800 39.15000
C  51.13900 42.54700 39.10900
C  52.41300 43.07300 39.47800
C  52.13700 44.44900 39.95200
C  50.75200 41.12300 38.60500
C  53.71000 42.27900 39.54500
O  53.75700 41.07600 39.35100
C  54.96100 42.84700 39.99600
N  51.73200 47.49300 40.53800
C  52.90600 46.76800 40.71300
C  54.03000 47.67700 41.05700
C  53.34100 49.08100 41.00200
C  51.90200 48.77600 40.88100
C  54.68000 47.26300 42.39600
C  53.90700 50.02900 39.93500
C  54.67300 51.31700 40.39400
N  48.93100 48.45600 40.37300
C  49.54100 49.66900 40.54900
C  48.49500 50.72000 40.36600
C  47.29700 50.06500 40.02800
C  47.68700 48.71200 39.89700
C  48.78500 52.14100 40.49700
C  45.94300 50.20700 39.70300
O  45.24100 51.21300 39.77000
C  45.47400 48.86400 39.12000
C  44.22300 48.38800 39.77600
O  43.98900 48.48700 40.94900
O  43.36200 47.87700 38.85700
C  42.02000 47.62000 39.33700
H  48.63000 42.67900 38.32400
H  54.09700 45.10900 40.57100
H  51.15700 50.75100 41.35500
H  44.90600 45.79300 39.09200
H  46.29800 43.52700 37.59100
H  46.01200 42.92200 40.36600
H  45.12200 42.31300 38.96400
H  44.62200 43.74000 39.88400
H  45.87700 45.26600 36.20400
H  45.83200 46.91500 36.70700
H  43.48900 46.93300 36.28700
H  43.29300 45.70800 37.54300
H  50.21800 41.13300 37.65500
H  50.27900 40.53700 39.39200
H  51.64200 40.53200 38.38700
H  54.90700 42.92800 41.08200
H  55.14400 43.77000 39.44500
H  55.76900 42.19700 39.66000
H  54.77100 47.65500 40.25800
H  53.46600 49.54500 41.98100
H  54.09300 46.56400 42.99200
H  54.94100 48.16500 42.94900
H  55.66300 46.90400 42.09100
H  53.13700 50.27300 39.20300
H  54.59000 49.41900 39.34300
H  54.15000 52.25300 40.19600
H  55.65500 51.27900 39.92400
H  54.84800 51.23300 41.46600
H  48.43100 52.46000 41.47700
H  48.24800 52.70800 39.73700
H  49.82800 52.45600 40.53800
H  45.37000 48.87400 38.03500
H  41.89300 47.30100 40.37200
H  41.67400 46.75400 38.77300
H  41.38800 48.48000 39.11700
Mg 28.17400 56.54800 40.24200
C  25.99800 53.85200 39.55300
C  30.71600 54.57600 39.11100
C  30.10700 59.41000 39.76500
C  25.41000 58.60100 40.63200
N  28.22900 54.47900 39.23800
C  27.29100 53.53800 39.16300
C  27.81200 52.22000 38.54000
C  29.38100 52.37900 38.81300
C  29.49700 53.90700 39.04500
C  29.99500 51.54600 40.03200
C  27.39100 52.10800 37.00900
C  27.08200 53.35500 36.15000
H  27.30500 53.33400 34.70100
N  30.14900 56.94600 39.69100
C  31.02900 55.93500 39.31700
C  32.36100 56.56600 39.08000
C  32.21100 57.99300 39.29400
C  30.80600 58.19700 39.58900
C  33.54700 55.77700 38.57200
C  33.27800 59.05500 39.05600
O  34.34400 58.75400 38.58400
C  33.14600 60.44800 39.39800
N  27.86900 58.62200 40.23100
C  28.80800 59.62700 39.99800
C  28.20700 60.99300 40.13800
C  26.71900 60.73000 40.13300
C  26.62300 59.19800 40.38100
C  28.78800 61.81800 41.30400
C  25.91800 61.02000 38.78400
C  24.88000 62.16500 38.64000
N  26.09400 56.28300 40.20500
C  25.14000 57.23600 40.52400
C  23.86400 56.45700 40.77400
C  24.13600 55.13900 40.33900
C  25.51800 55.12500 40.01800
C  22.52700 56.95400 41.27300
C  23.67600 53.80000 40.13600
O  22.54500 53.35000 40.26900
C  24.82900 52.98800 39.60800
C  24.97300 51.83700 40.51900
O  24.49700 50.71300 40.44200
O  25.88200 52.11000 41.51800
C  26.19800 51.01700 42.48100
H  31.57000 53.92100 38.92400
H  30.62800 60.35500 39.60200
H  24.53000 59.23700 40.75000
H  27.44200 51.36200 39.10200
H  29.97400 52.08700 37.94700
H  29.97100 50.47100 39.85800
H  29.62000 51.79600 41.02500
H  31.06900 51.71700 39.96500
H  26.52500 51.44800 36.94900
H  28.20600 51.53600 36.56600
H  27.56000 54.21800 36.61400
H  26.01600 53.55700 36.25200
H  34.18100 56.26100 37.82900
H  33.23100 54.85800 38.07700
H  34.19700 55.56600 39.42100
H  32.83200 60.48200 40.44200
H  32.46700 60.94000 38.70100
H  34.03600 61.07100 39.31100
H  28.40300 61.56800 39.23300
H  26.24100 61.34500 40.89600
H  28.95900 62.85800 41.02200
H  29.68400 61.27400 41.60300
H  28.06800 61.58500 42.08700
H  25.34700 60.12300 38.54500
H  26.59900 61.13800 37.94100
H  24.76800 62.72300 39.56900
H  23.90500 61.77300 38.34900
H  25.35400 62.87100 37.95800
H  21.79800 56.93300 40.46200
H  22.75800 57.97400 41.58000
H  22.27100 56.28400 42.09300
H  24.71900 52.47300 38.65400
H  25.38200 50.96400 43.20200
H  27.16900 51.34400 42.85300
H  26.36600 50.02900 42.05300

