158

Mg 0.22900 7.77900 27.37900
C  1.08400 9.81700 30.13100
C  0.25800 5.12200 29.50700
C  -0.06000 5.80200 24.69800
C  0.79000 10.57600 25.32100
N  0.71400 7.58500 29.58700
C  0.94200 8.47300 30.49600
C  0.73100 7.99300 31.94000
C  0.71000 6.48200 31.77900
C  0.49100 6.37100 30.20300
C  1.99700 5.66200 32.20600
C  -0.66500 8.43700 32.45600
C  -0.81200 8.37600 33.96300
H  0.41500 8.01100 34.86500
N  -0.00100 5.69500 27.22100
C  -0.02300 4.80500 28.17300
C  -0.33600 3.53100 27.62500
C  -0.44000 3.69200 26.23600
C  -0.18800 5.12000 25.99100
C  -0.42200 2.36900 28.53100
C  -0.71700 2.66300 25.16400
O  -0.74300 2.97200 24.02800
C  -0.98400 1.22900 25.53000
N  0.24700 8.18800 25.43100
C  0.10000 7.21200 24.44900
C  0.13100 7.72900 22.98200
C  0.15400 9.31100 23.20400
C  0.47900 9.37700 24.71000
C  1.35200 7.18600 22.28400
C  -1.22800 10.08000 23.03100
C  -1.31600 10.91500 21.70200
N  0.80600 9.78800 27.62500
C  0.89400 10.83600 26.71500
C  1.26500 12.06600 27.38700
C  1.31300 11.66900 28.71100
C  1.00900 10.31100 28.85200
C  1.38900 13.47800 26.79100
C  1.65400 12.21300 30.00200
O  2.13500 13.31600 30.30400
C  1.16000 11.05800 31.00600
C  2.09500 10.95600 32.21600
O  3.07600 10.23700 32.26700
O  1.77100 11.92400 33.18000
C  2.86800 12.25200 34.13100
H  0.26500 4.27100 30.19100
H  -0.37800 5.27800 23.79400
H  0.97400 11.45400 24.69800
H  1.58100 8.24100 32.57500
H  -0.12100 5.94000 32.22900
H  1.82200 4.62600 31.91500
H  2.30900 5.86300 33.23100
H  2.82300 5.93500 31.54900
H  -1.42400 7.76500 32.05400
H  -0.67700 9.47000 32.10700
H  -1.66600 7.75800 34.24200
H  -1.12500 9.35200 34.33400
H  -0.75600 2.65600 29.52800
H  0.50400 1.82800 28.72100
H  -1.11200 1.56400 28.27700
H  -1.87400 1.18400 26.15700
H  -0.21800 0.89000 26.22800
H  -1.04400 0.61200 24.63400
H  -0.73600 7.38500 22.41800
H  0.92400 9.78900 22.59700
H  1.05900 6.42600 21.55900
H  2.08700 6.77800 22.97700
H  1.84400 8.02000 21.78200
H  -1.44700 10.76200 23.85300
H  -2.06100 9.37700 23.06600
H  -0.63500 10.38300 21.03700
H  -0.93100 11.92000 21.87200
H  -2.32100 10.98000 21.28600
H  1.78300 13.33900 25.78400
H  2.18300 13.92700 27.38800
H  0.43800 14.00200 26.88600
H  0.13300 11.34100 31.23700
H  3.75900 12.46600 33.54100
H  3.01400 11.30200 34.64600
H  2.72400 13.15600 34.72200
Mg 35.43200 3.30500 29.87900
C  32.95100 3.92200 32.30000
C  37.82300 3.51100 32.51300
C  37.87200 2.53100 27.65500
C  33.08100 3.54500 27.41600
N  35.36100 3.75700 32.14800
C  34.24400 3.92100 32.89100
C  34.54200 3.98300 34.43000
C  36.11200 4.09800 34.42800
C  36.49900 3.77400 32.93000
C  36.66400 5.35800 35.02800
C  34.09500 2.66200 35.16900
C  33.63300 2.70900 36.62300
H  34.31800 3.75800 37.53800
N  37.51100 3.01800 30.04100
C  38.32800 3.19800 31.20100
C  39.67000 2.78200 30.88800
C  39.66500 2.33900 29.48800
C  38.31400 2.67300 28.97700
C  40.76300 2.60400 31.94800
C  40.69600 1.51900 28.71700
O  40.53900 1.19100 27.53400
C  41.89300 0.94700 29.38100
N  35.47000 3.09600 27.79600
C  36.56700 2.70700 27.15800
C  36.18000 2.65800 25.66000
C  34.63100 2.85600 25.51500
C  34.36200 3.21900 26.99700
C  36.98300 3.49500 24.60100
C  33.85300 1.69300 24.97200
C  33.31400 1.74000 23.58600
N  33.45000 3.84500 29.78100
C  32.58600 3.78600 28.69100
C  31.19400 4.02000 29.16900
C  31.30100 4.08100 30.56700
C  32.66700 3.84600 30.90400
C  29.92800 4.22800 28.41400
C  30.56900 4.28300 31.83700
O  29.41100 4.51400 32.05200
C  31.64900 4.23700 32.97100
C  31.76500 5.57700 33.57400
O  32.01400 6.65400 33.01700
O  31.19400 5.52200 34.84400
C  31.12000 6.70800 35.71100
H  38.56600 3.45200 33.31000
H  38.49900 2.13500 26.85400
H  32.33900 3.51800 26.61500
H  33.97900 4.84000 34.79900
H  36.50200 3.23400 34.96700
H  37.46600 5.12700 35.72900
H  35.87100 5.98100 35.44200
H  37.21100 5.82200 34.20700
H  34.82800 1.85600 35.14000
H  33.24200 2.32300 34.58100
H  33.83700 1.69200 36.95700
H  32.54300 2.72700 36.64500
H  41.71000 2.81000 31.45100
H  40.72400 1.60400 32.38000
H  40.61000 3.39800 32.67900
H  42.69100 1.63400 29.66400
H  42.27800 0.19200 28.69500
H  41.50100 0.34700 30.20200
H  36.47400 1.67400 25.29600
H  34.43000 3.71200 24.87000
H  36.42600 3.92800 23.77000
H  37.75500 2.86800 24.15600
H  37.50000 4.26900 25.16700
H  33.04000 1.43800 25.65200
H  34.49600 0.81800 25.06300
H  33.92600 2.49000 23.08400
H  32.27000 2.05400 23.56600
H  33.53100 0.89100 22.93700
H  29.27000 3.42000 28.73400
H  30.07300 4.39000 27.34600
H  29.43500 5.12700 28.78300
H  31.39400 3.52500 33.75600
H  30.28900 7.35500 35.42800
H  32.07400 7.23400 35.67500
H  31.00500 6.33900 36.73000

