158

Mg 45.49800 4.61400 47.72100
C  43.26900 7.37700 47.32200
C  42.81200 2.53600 47.15000
C  47.72400 1.98700 47.50300
C  48.28600 6.88500 47.59200
N  43.28500 4.97200 47.31600
C  42.59100 6.17900 47.21700
C  41.10900 5.95800 46.72600
C  41.08700 4.39700 46.91300
C  42.53500 3.92700 47.14900
C  40.16600 3.91400 48.12900
C  40.94000 6.48300 45.28200
C  39.89700 7.50600 44.97000
H  39.16900 7.12900 43.69600
N  45.27000 2.54700 47.46300
C  44.09100 1.95500 47.27800
C  44.39200 0.51600 46.93400
C  45.80200 0.27400 47.02300
C  46.33700 1.62900 47.35400
C  43.31500 -0.48400 46.52000
C  46.47500 -1.01300 46.70300
O  45.73900 -2.01500 46.44800
C  48.04200 -1.16900 46.72100
N  47.69800 4.50900 47.22800
C  48.34900 3.27100 47.50300
C  49.82300 3.47500 47.67600
C  49.97500 5.02500 47.70500
C  48.54000 5.50100 47.59800
C  50.38400 2.81200 48.96800
C  50.92700 5.60900 46.70900
C  50.58800 5.30000 45.25400
N  45.78900 6.65600 47.65800
C  46.96700 7.42600 47.51600
C  46.56300 8.82400 47.48300
C  45.18100 8.83400 47.52700
C  44.71200 7.49200 47.47900
C  47.57500 9.94200 47.38300
C  43.98200 9.68400 47.50000
O  43.91800 10.92600 47.46200
C  42.74000 8.77900 47.23100
C  41.74500 9.08000 48.34200
O  41.55300 8.38900 49.38600
O  40.91600 10.05500 47.95300
C  39.68600 10.23200 48.70200
H  41.89900 1.97100 46.95200
H  48.43800 1.18900 47.71400
H  49.18600 7.50400 47.57600
H  40.28000 6.33600 47.32500
H  40.73300 3.85400 46.03700
H  39.61900 3.03600 47.78700
H  39.44900 4.66300 48.46600
H  40.78900 3.70300 48.99900
H  40.67700 5.60000 44.70000
H  41.92400 6.81500 44.95100
H  40.29500 8.49100 44.72700
H  39.20900 7.62900 45.80700
H  42.35700 -0.03800 46.25100
H  43.27100 -1.04400 47.45400
H  43.65500 -1.16800 45.74300
H  48.31400 -1.00400 47.76400
H  48.31500 -0.41500 45.98300
H  48.44300 -2.15000 46.46700
H  50.36100 3.04000 46.83400
H  50.29100 5.40700 48.67600
H  49.49700 2.38600 49.43600
H  50.70300 3.54300 49.71000
H  51.16100 2.04800 48.91900
H  51.86500 5.10000 46.93200
H  51.21200 6.62400 46.98700
H  49.66900 4.73100 45.11700
H  51.38700 4.71700 44.79600
H  50.52800 6.23300 44.69300
H  48.07500 9.81900 46.42200
H  48.36200 9.83400 48.12900
H  46.94900 10.83400 47.40600
H  42.30500 8.98700 46.25400
H  39.79800 10.09600 49.77800
H  38.97800 9.43500 48.47500
H  39.10000 11.12600 48.48800
Mg 47.62100 33.95500 26.39000
C  45.82900 32.53000 29.07100
C  48.14800 36.80100 28.45100
C  49.10200 35.42700 23.80500
C  46.67700 31.18900 24.39700
N  46.98400 34.56500 28.44000
C  46.45300 33.73000 29.43300
C  46.58100 34.34300 30.80300
C  46.93100 35.83000 30.48500
C  47.35700 35.77000 29.04300
C  45.76800 36.82700 30.66700
C  47.70000 33.58700 31.65400
C  47.28700 33.38600 33.07600
H  46.26000 34.34600 33.69500
N  48.42800 35.87500 26.14400
C  48.67100 36.83800 27.09500
C  49.64200 37.79600 26.56000
C  49.70600 37.51900 25.17500
C  49.09800 36.20200 24.94500
C  50.24200 38.95800 27.37000
C  50.45900 38.28300 24.07500
O  50.62800 37.86200 22.94400
C  51.09300 39.61600 24.28900
N  47.83100 33.47100 24.34600
C  48.49900 34.25500 23.49900
C  48.46300 33.54600 22.07200
C  48.16500 32.16000 22.57400
C  47.47300 32.26100 23.83000
C  47.37600 34.12100 21.06900
C  49.34300 31.26700 22.80700
C  49.41800 29.96700 21.92400
N  46.39500 32.34000 26.56200
C  46.08100 31.28000 25.66300
C  45.28700 30.31100 26.34200
C  45.11700 30.81000 27.62600
C  45.81000 32.01200 27.72800
C  44.89800 28.97000 25.79700
C  44.50700 30.53400 28.87700
O  43.75100 29.61000 29.14200
C  44.95300 31.59600 29.87800
C  45.54900 30.86800 31.00800
O  46.25300 29.92000 30.94500
O  44.87300 31.18600 32.18500
C  45.18000 30.34500 33.29000
H  48.24900 37.70500 29.05500
H  49.51900 35.88000 22.90400
H  46.50000 30.36700 23.70100
H  45.59100 34.21500 31.24200
H  47.77500 36.18800 31.07300
H  45.24200 37.25600 29.81400
H  46.00500 37.58500 31.41400
H  44.94800 36.30800 31.16400
H  48.65600 34.08800 31.50700
H  47.81800 32.58000 31.25200
H  48.26800 33.40600 33.55100
H  47.06200 32.33500 33.25600
H  50.10200 38.72400 28.42500
H  49.80900 39.88100 26.98500
H  51.30100 39.15000 27.19400
H  51.52800 39.89600 23.32900
H  51.86800 39.41800 25.03000
H  50.33500 40.29600 24.67700
H  49.45100 33.66500 21.62800
H  47.54600 31.71800 21.79300
H  47.32700 35.18900 21.27800
H  46.41600 33.61800 21.18900
H  47.68700 34.05400 20.02700
H  49.49200 31.04000 23.86300
H  50.18800 31.92200 22.59500
H  50.43000 29.73900 21.59000
H  48.74300 30.07800 21.07500
H  49.11000 29.12400 22.54300
H  45.88100 28.50500 25.71900
H  44.24500 28.98200 24.92400
H  44.52200 28.33300 26.59800
H  44.05600 32.11600 30.21400
H  44.86900 29.34500 32.98800
H  44.78400 30.64300 34.26000
H  46.25900 30.30400 33.43600

