158

Mg 48.26900 15.78400 27.88400
C  46.31900 15.01300 30.78400
C  50.38700 17.38200 29.93700
C  49.82200 16.70100 25.18900
C  45.72900 14.17000 26.00500
N  48.25900 16.26300 30.00200
C  47.41200 15.84800 31.03500
C  47.92100 16.22300 32.42100
C  49.01000 17.28700 32.10900
C  49.28100 16.90200 30.62200
C  48.58100 18.81100 32.30100
C  48.26700 14.98300 33.23800
C  47.97600 15.05500 34.74100
H  47.36100 16.31400 35.30300
N  49.98300 16.81000 27.59100
C  50.74500 17.39700 28.53300
C  51.97600 17.91100 27.90900
C  51.75700 17.77000 26.46700
C  50.43600 17.15800 26.36000
C  53.05300 18.56800 28.83800
C  52.64900 18.23800 25.36200
O  52.24900 18.16900 24.18400
C  53.97000 18.88300 25.66200
N  47.85400 15.45000 25.87900
C  48.60100 16.04100 24.87700
C  48.12600 15.54500 23.46700
C  46.86700 14.72500 23.75300
C  46.74300 14.83100 25.28600
C  47.76600 16.80300 22.53100
C  46.88300 13.23900 23.26400
C  47.42100 12.17100 24.27900
N  46.43000 14.77400 28.21400
C  45.54800 14.17000 27.36200
C  44.49700 13.56600 28.10300
C  44.72500 13.80600 29.45500
C  45.94500 14.55200 29.48400
C  43.35200 12.67700 27.48000
C  44.29600 13.67800 30.77800
O  43.32100 13.14500 31.28700
C  45.23600 14.50600 31.69200
C  44.41800 15.57700 32.25500
O  44.35400 16.73100 31.84500
O  43.90000 15.17100 33.48400
C  43.09100 16.12700 34.25800
H  51.06000 17.82500 30.67300
H  50.28500 16.97300 24.23800
H  44.87600 13.72600 25.48800
H  47.00900 16.75000 32.70100
H  49.91200 17.05900 32.67600
H  47.55800 18.95700 32.64500
H  48.73000 19.38400 31.38600
H  49.24500 19.20200 33.07200
H  49.34400 14.82400 33.18000
H  47.88200 14.11600 32.70100
H  48.95900 14.88500 35.18100
H  47.28600 14.23500 34.93800
H  54.00000 18.76500 28.33600
H  53.22200 18.02800 29.77000
H  52.64500 19.48700 29.25900
H  53.77700 19.90900 25.97800
H  54.54700 19.01500 24.74700
H  54.53700 18.22100 26.31500
H  48.89900 14.91600 23.02700
H  45.94700 15.14300 23.34500
H  48.53200 16.98700 21.77800
H  47.82500 17.68700 23.16600
H  46.77200 16.79400 22.08300
H  47.49300 13.16900 22.36400
H  45.92600 12.82600 22.94600
H  47.72900 12.57800 25.24200
H  48.27100 11.64700 23.84300
H  46.56500 11.56300 24.57300
H  43.80300 11.71000 27.25700
H  42.97500 13.23700 26.62500
H  42.48800 12.61600 28.14300
H  45.60900 13.96500 32.56200
H  43.08200 17.09500 33.75600
H  43.64600 16.30600 35.17900
H  42.07400 15.79500 34.46900
Mg 48.96800 44.80100 43.01200
C  45.75700 45.69000 41.96300
C  48.58900 41.82700 41.53700
C  52.33900 44.55600 43.19800
C  49.39600 48.19700 44.02700
N  47.31100 43.91500 41.98200
C  46.12800 44.38500 41.59500
C  45.24300 43.35500 40.80000
C  46.12500 42.09400 40.93500
C  47.41000 42.60900 41.55800
C  45.42500 40.91900 41.66500
C  44.91300 43.75200 39.34700
C  43.51900 43.33800 38.81700
H  43.43100 42.09500 37.88900
N  50.23700 43.30500 42.65900
C  49.87300 42.07300 42.06200
C  51.04900 41.30000 41.81800
C  52.18100 42.13600 42.13600
C  51.61900 43.36900 42.76800
C  50.97200 39.84600 41.28400
C  53.63400 41.79500 41.77200
O  54.00400 40.68700 41.35700
C  54.73300 42.83400 42.03000
N  50.71700 46.30700 43.46800
C  51.99800 45.86600 43.51900
C  52.90500 46.91600 44.03600
C  51.91400 48.05700 44.39600
C  50.58000 47.51200 43.96900
C  54.01000 46.54200 45.11000
C  52.21400 49.49700 43.99300
C  52.78000 50.44200 45.08300
N  47.78100 46.60100 43.21100
C  48.06600 47.80000 43.72000
C  46.85100 48.58000 43.79200
C  45.89800 47.77900 43.11500
C  46.58200 46.58400 42.75000
C  46.78600 50.00200 44.14600
C  44.49400 47.74700 42.55800
O  43.55300 48.54400 42.59500
C  44.53100 46.45300 41.65900
C  43.29500 45.65300 41.93100
O  42.48200 45.28300 41.13500
O  43.14000 45.46300 43.26500
C  41.85500 44.89000 43.76900
H  48.36900 40.81700 41.18300
H  53.41800 44.42700 43.30200
H  49.48700 49.19200 44.46700
H  44.31500 43.12500 41.32400
H  46.38700 41.68300 39.96000
H  44.37900 40.96400 41.96800
H  45.90000 40.74200 42.63000
H  45.59100 40.03300 41.05200
H  45.59300 43.25800 38.65300
H  44.96000 44.83900 39.28000
H  42.97800 44.10500 38.26400
H  42.93600 43.03800 39.68800
H  51.12000 39.78300 40.20600
H  50.02800 39.34700 41.50500
H  51.64200 39.12400 41.74900
H  54.47400 43.78100 41.55500
H  55.60800 42.48400 41.48200
H  54.82400 42.82600 43.11600
H  53.49400 47.16800 43.15400
H  51.84200 48.06400 45.48400
H  53.81200 45.56300 45.54500
H  53.92100 47.10400 46.04000
H  55.06000 46.50300 44.82100
H  51.33900 49.95400 43.52900
H  52.86400 49.39200 43.12400
H  52.10300 51.28400 45.23200
H  53.75900 50.75200 44.71700
H  53.02100 50.03300 46.06400
H  45.73300 50.28300 44.13700
H  47.15200 50.61300 43.32100
H  47.25500 50.20100 45.11000
H  44.42000 46.79000 40.62800
H  41.74600 45.24100 44.79500
H  41.76200 43.81400 43.62700
H  41.05100 45.30900 43.16300

