158

Mg 26.75700 0.82800 29.31300
C  28.45900 1.01700 32.35100
C  23.82700 1.73700 31.09300
C  24.98900 0.62500 26.43100
C  29.55000 -0.21800 27.74300
N  26.20500 1.40200 31.51500
C  27.04100 1.34700 32.61600
C  26.34900 1.65800 34.02500
C  24.87300 1.69000 33.49100
C  24.98800 1.58900 31.91000
C  24.01700 0.54700 34.08900
C  26.82700 3.02200 34.53900
C  27.50300 3.00500 35.90000
H  26.82600 3.67100 37.04400
N  24.65000 1.07900 28.86600
C  23.63400 1.41900 29.69700
C  22.43300 1.58900 28.99100
C  22.75800 1.33300 27.63200
C  24.18100 0.90400 27.57300
C  21.06400 1.85400 29.69900
C  21.88600 1.43100 26.35900
O  22.27200 1.20900 25.17200
C  20.44500 1.91900 26.54800
N  27.22700 0.38800 27.40100
C  26.34400 0.32200 26.35200
C  27.01800 0.09800 25.03100
C  28.54200 -0.22400 25.41200
C  28.49300 0.04900 26.90900
C  26.33500 -0.94500 24.12300
C  29.55700 0.64300 24.55400
C  30.53900 -0.21000 23.71700
N  28.56700 0.36900 29.93700
C  29.65000 -0.00600 29.12100
C  30.84100 0.01800 29.92600
C  30.49400 0.36600 31.16200
C  29.03100 0.57000 31.14300
C  32.13200 -0.27500 29.42700
C  30.92100 0.77200 32.47500
O  32.05000 0.89800 32.98900
C  29.65000 0.95300 33.35300
C  29.69200 -0.13500 34.41200
O  29.35600 -1.29500 34.19800
O  30.16500 0.32600 35.64700
C  29.88100 -0.51600 36.79000
H  23.01300 2.05100 31.75000
H  24.41700 0.64600 25.50100
H  30.52500 -0.38500 27.28100
H  26.63400 0.88500 34.73900
H  24.32500 2.60200 33.73000
H  23.27500 1.08400 34.68000
H  24.75700 -0.13200 34.51300
H  23.61800 -0.04900 33.26900
H  26.07000 3.80300 34.60200
H  27.60500 3.29900 33.82800
H  28.46700 3.49400 35.76300
H  27.72000 1.97700 36.19000
H  20.51500 2.61300 29.14100
H  21.12400 2.06500 30.76600
H  20.55700 0.90300 29.53800
H  20.01700 1.82200 25.55100
H  20.54000 2.96800 26.82500
H  19.83800 1.43300 27.31200
H  26.97500 1.07500 24.54800
H  28.71100 -1.28900 25.25000
H  25.58900 -1.46600 24.72300
H  27.12400 -1.58500 23.72700
H  25.83800 -0.38600 23.33000
H  30.06000 1.26300 25.29600
H  28.97700 1.15400 23.78600
H  31.54500 0.15100 23.93000
H  30.38800 0.01900 22.66200
H  30.46500 -1.28800 23.85900
H  32.56200 0.57600 28.89900
H  31.98900 -1.10300 28.73100
H  32.82500 -0.59700 30.20400
H  29.91400 1.85600 33.90400
H  29.48600 0.06300 37.62400
H  30.79300 -0.94500 37.20400
H  29.09700 -1.23900 36.56900
Mg 9.12800 48.89500 26.48100
C  6.95500 49.41800 29.19000
C  11.71900 50.17100 28.24600
C  11.06800 48.20500 23.86700
C  6.18600 48.43400 24.46300
N  9.28300 49.62100 28.52900
C  8.31700 49.58400 29.55300
C  8.86000 50.16700 30.90800
C  10.20800 50.79200 30.31800
C  10.43000 50.19200 28.91600
C  10.15600 52.31800 30.22800
C  9.09700 48.99300 31.94500
C  8.94500 49.50600 33.36700
H  8.46900 48.44800 34.38600
N  11.14300 49.12900 26.09600
C  12.08300 49.61400 26.97200
C  13.41400 49.42700 26.49300
C  13.23500 48.87100 25.16700
C  11.74800 48.70600 25.01300
C  14.66200 49.70800 27.28600
C  14.41500 48.28700 24.18400
O  14.12900 47.82300 23.13900
C  15.82300 48.28200 24.55800
N  8.72200 48.49400 24.40500
C  9.70100 48.01500 23.62800
C  9.13000 47.41600 22.37200
C  7.59700 47.78700 22.38200
C  7.42500 48.24300 23.87500
C  9.86600 47.99400 21.19200
C  6.69300 46.49900 22.08100
C  5.54100 46.67400 21.09000
N  7.05200 48.90300 26.68000
C  5.97600 48.75200 25.79300
C  4.75500 48.74400 26.52500
C  5.13000 49.09800 27.83200
C  6.50400 49.12200 27.90500
C  3.40800 48.29400 26.01800
C  4.55700 49.40800 29.11100
O  3.38000 49.31600 29.44500
C  5.76200 49.73300 30.00700
C  5.59000 48.82000 31.16800
O  5.94200 47.65600 31.21200
O  4.98400 49.50500 32.10100
C  4.54200 48.76600 33.22600
H  12.60800 50.59000 28.72300
H  11.75000 48.00400 23.03800
H  5.21200 48.31900 23.98200
H  8.19900 50.97400 31.22400
H  10.92900 50.50800 31.08400
H  9.92000 52.61700 29.20700
H  11.13500 52.70300 30.51300
H  9.41100 52.73100 30.91000
H  10.11000 48.59100 31.94100
H  8.41100 48.17700 31.71600
H  8.26800 50.36100 33.35300
H  9.94900 49.81200 33.65900
H  15.39900 50.45300 26.98400
H  15.26200 48.80000 27.33800
H  14.45800 49.96000 28.32600
H  16.48000 47.90100 23.77600
H  15.88700 47.64200 25.43800
H  16.14400 49.32000 24.47200
H  9.34700 46.35100 22.29700
H  7.33200 48.66400 21.79300
H  10.73600 48.62500 21.37500
H  9.30100 48.69100 20.57300
H  10.23500 47.22600 20.51200
H  6.31900 46.13000 23.03600
H  7.30600 45.71300 21.63900
H  5.32900 47.74100 21.01200
H  4.67400 46.07300 21.36500
H  5.84300 46.21200 20.15000
H  3.46400 47.32100 25.52900
H  2.98600 49.06200 25.36900
H  2.80900 48.16500 26.91900
H  5.71500 50.78700 30.28200
H  5.38600 48.61400 33.89800
H  4.07000 47.81000 33.00000
H  3.81600 49.39100 33.74600

