158

Mg 35.30300 49.01000 25.93800
C  35.72100 47.02600 28.78200
C  34.03900 51.55000 28.00400
C  34.50300 50.77500 23.26000
C  36.48400 46.40900 24.05100
N  34.89200 49.23400 28.16100
C  35.27500 48.31200 29.10100
C  35.09900 48.89100 30.47700
C  34.35400 50.24600 30.21600
C  34.39300 50.41100 28.68000
C  32.92300 50.37100 30.89500
C  36.41700 49.11500 31.27300
C  36.34200 48.94800 32.80200
H  34.99400 48.92800 33.48100
N  34.45300 50.88300 25.62500
C  34.05900 51.80300 26.58600
C  33.83300 53.11000 26.03300
C  33.87800 52.92100 24.59800
C  34.30700 51.49100 24.43900
C  33.60700 54.41000 26.84400
C  33.70900 53.97600 23.53700
O  33.85900 53.70000 22.36800
C  33.31900 55.43500 23.93600
N  35.44700 48.68700 23.91700
C  34.93500 49.46400 23.00200
C  34.96500 48.83800 21.62700
C  35.74000 47.50500 21.87800
C  35.97100 47.57200 23.38100
C  33.63700 48.66700 20.85500
C  37.03000 47.26000 21.05900
C  38.32100 47.81300 21.68600
N  35.89600 47.03800 26.31600
C  36.39500 46.12000 25.44700
C  36.75400 44.94300 26.08600
C  36.55700 45.15300 27.46900
C  36.07600 46.49500 27.53000
C  37.28600 43.65400 25.38300
C  36.52900 44.67600 28.84000
O  36.79100 43.57500 29.37600
C  36.03000 45.93800 29.74800
C  34.85700 45.49200 30.53900
O  33.71400 45.40000 30.08800
O  35.25300 45.27900 31.86200
C  34.14700 44.84600 32.67800
H  33.84900 52.37000 28.69900
H  34.19300 51.33100 22.37300
H  36.99800 45.66500 23.44000
H  34.50800 48.12600 30.98300
H  34.92800 50.98200 30.77900
H  32.14000 50.63800 30.18500
H  32.90600 51.23600 31.55800
H  32.66600 49.45100 31.41900
H  36.75700 50.12400 31.03600
H  37.18800 48.46600 30.85600
H  37.06900 49.59000 33.29900
H  36.77300 47.94800 32.85500
H  32.73400 54.98100 26.52800
H  34.46300 55.08200 26.77200
H  33.45100 54.14900 27.89100
H  34.00100 55.74300 24.72900
H  32.30900 55.41500 24.34400
H  33.44700 56.12100 23.09900
H  35.51200 49.49000 20.94600
H  35.06800 46.65200 21.78800
H  33.54500 47.63000 20.53000
H  33.44800 49.36000 20.03500
H  32.81000 48.78400 21.55500
H  36.90700 47.85700 20.15600
H  37.04700 46.18600 20.87200
H  39.06800 47.31200 21.07100
H  38.42200 47.59300 22.74900
H  38.48500 48.87000 21.47600
H  37.37200 42.88500 26.15000
H  38.16200 43.91500 24.78900
H  36.43400 43.33700 24.78200
H  36.83300 46.23800 30.42100
H  33.31400 45.54600 32.74300
H  34.46900 44.73800 33.71400
H  33.72500 43.85300 32.52500
Mg -3.13700 34.89100 27.03900
C  -4.82400 32.96000 29.41200
C  -2.35400 37.14900 29.62600
C  -1.49500 36.71900 24.83100
C  -4.17200 32.78200 24.58500
N  -3.53900 35.10500 29.28100
C  -4.16800 34.07600 30.00800
C  -4.11900 34.36200 31.53800
C  -3.54300 35.89600 31.55800
C  -3.11400 36.06200 30.06600
C  -4.67700 36.94900 31.87000
C  -3.07800 33.27000 32.15900
C  -3.47400 32.96500 33.59700
H  -2.81300 33.77200 34.75800
N  -1.99000 36.67200 27.25200
C  -1.75900 37.44800 28.40900
C  -0.79400 38.45700 28.02000
C  -0.63200 38.37500 26.56300
C  -1.41100 37.21200 26.15300
C  -0.25400 39.56200 29.04300
C  0.16700 39.28100 25.71800
O  0.18400 39.23800 24.47000
C  0.96700 40.33000 26.40000
N  -2.94200 34.85400 24.98200
C  -2.14700 35.59500 24.30800
C  -1.91100 35.17000 22.83800
C  -2.59000 33.81100 22.91900
C  -3.31100 33.82200 24.24000
C  -2.59000 36.06200 21.72400
C  -1.60600 32.58900 22.91600
C  -1.75200 31.67200 21.64400
N  -4.28800 33.19200 27.00200
C  -4.62200 32.46100 25.89600
C  -5.59900 31.39600 26.25000
C  -5.61000 31.47100 27.68200
C  -4.81300 32.64300 28.04200
C  -6.20000 30.39000 25.43700
C  -6.16300 30.86600 28.91900
O  -6.91800 29.90500 29.07200
C  -5.60700 31.75800 30.08800
C  -6.78000 32.19700 30.90100
O  -7.68300 32.93300 30.61000
O  -6.76500 31.52600 32.06200
C  -7.87500 31.92000 33.03900
H  -1.98900 37.80900 30.41600
H  -0.83800 37.26500 24.15200
H  -4.49400 32.15000 23.75500
H  -5.12100 34.33400 31.96600
H  -2.70400 36.08700 32.22700
H  -5.49600 36.41000 32.34700
H  -5.06100 37.52900 31.03000
H  -4.30100 37.72300 32.53900
H  -2.02100 33.52800 32.22400
H  -3.03900 32.47900 31.40900
H  -3.23400 31.91100 33.73700
H  -4.49400 33.06400 33.96900
H  -0.79800 40.46800 28.78000
H  0.81200 39.77900 28.97300
H  -0.51900 39.26300 30.05700
H  0.31200 41.04500 26.89900
H  1.50500 40.87900 25.62700
H  1.74200 39.90000 27.03300
H  -0.86700 35.04000 22.55100
H  -3.37700 33.61200 22.19100
H  -3.46800 36.47400 22.22200
H  -2.88000 35.51900 20.82500
H  -1.94300 36.86500 21.37100
H  -1.65000 31.99900 23.83100
H  -0.56900 32.92500 22.88700
H  -0.91100 31.63200 20.95200
H  -2.54300 32.06500 21.00600
H  -2.05600 30.64600 21.85200
H  -6.35700 30.93200 24.50500
H  -7.10200 29.95500 25.86800
H  -5.47700 29.58000 25.33500
H  -4.93500 31.19300 30.73400
H  -8.85400 32.03300 32.57200
H  -7.50500 32.79700 33.57200
H  -8.13600 31.19000 33.80500

