158

Mg 24.96600 0.97000 29.33500
C  27.15800 0.78200 32.18400
C  22.28000 0.81400 31.62100
C  22.99600 0.62900 26.81400
C  27.77100 0.15900 27.45000
N  24.75600 0.85900 31.66700
C  25.78500 0.96500 32.54300
C  25.31700 1.45100 33.92500
C  23.72200 1.17900 33.85600
C  23.53800 1.04200 32.26300
C  23.12000 -0.06200 34.64000
C  25.61300 2.92800 34.29400
C  26.24800 3.00100 35.73700
H  25.53600 3.87900 36.77700
N  22.99900 0.90200 29.21800
C  22.04000 0.89200 30.21300
C  20.67600 0.82600 29.65500
C  20.87000 0.83000 28.25000
C  22.34900 0.75200 28.01600
C  19.42000 0.94300 30.54500
C  19.96500 0.80100 27.13200
O  20.24100 0.93500 25.97000
C  18.52800 0.65300 27.44000
N  25.40300 0.57500 27.39800
C  24.40100 0.58300 26.50400
C  24.87800 0.63000 25.04400
C  26.41800 0.52800 25.27100
C  26.58300 0.31700 26.76500
C  24.20000 -0.35000 24.05700
C  27.18300 1.78300 24.71300
C  27.25500 3.04900 25.59800
N  27.10800 0.47700 29.68400
C  28.12000 0.25700 28.80200
C  29.37600 0.20300 29.53100
C  29.03500 0.36600 30.85000
C  27.65100 0.51900 30.89700
C  30.70400 -0.04400 28.87400
C  29.60700 0.58100 32.14100
O  30.81900 0.52300 32.52700
C  28.39300 0.89400 33.10100
C  28.39200 -0.03900 34.30000
O  28.13300 -1.20800 34.27400
O  28.83800 0.64000 35.42400
C  29.06400 -0.14800 36.63700
H  21.43800 0.73700 32.31100
H  22.51500 0.67700 25.83500
H  28.54100 0.00700 26.69100
H  25.78300 0.71500 34.58100
H  23.09800 2.02900 34.13200
H  22.35300 -0.53800 34.02900
H  22.59500 0.30500 35.52200
H  23.96200 -0.69800 34.91400
H  24.69500 3.51200 34.23000
H  26.31600 3.30000 33.54900
H  27.27700 3.31400 35.56000
H  26.27600 1.98400 36.12900
H  19.05800 1.97100 30.56700
H  19.52900 0.46600 31.51900
H  18.60900 0.34900 30.12600
H  18.55700 -0.37100 27.81200
H  17.89300 0.75200 26.56000
H  18.22000 1.45500 28.11200
H  24.50800 1.62600 24.80400
H  26.78100 -0.40800 24.84700
H  23.36700 0.12100 23.53600
H  23.81800 -1.27500 24.48800
H  24.92700 -0.67000 23.31000
H  26.66900 2.09700 23.80400
H  28.14800 1.48100 24.30600
H  26.99900 2.76700 26.61900
H  26.63500 3.87400 25.24700
H  28.24700 3.47500 25.74900
H  31.01200 0.84400 28.32300
H  30.60300 -0.91700 28.22900
H  31.46400 -0.08100 29.65500
H  28.45900 1.90200 33.51100
H  28.08300 -0.33400 37.07400
H  29.71200 0.26900 37.40800
H  29.50000 -1.11800 36.39500
Mg 45.27200 4.78900 46.93300
C  43.64700 7.75400 46.29200
C  42.29500 3.10900 46.44700
C  46.91700 1.77900 47.53100
C  48.29900 6.46500 47.11200
N  43.26500 5.28300 46.24700
C  42.80600 6.60600 46.13900
C  41.39600 6.62300 45.59200
C  40.89600 5.25500 45.99700
C  42.21800 4.50800 46.29600
C  39.78300 5.25200 47.08100
C  41.39400 6.80100 44.00400
C  40.61500 8.13100 43.52800
H  40.89300 8.72600 42.10200
N  44.69800 2.72300 46.93000
C  43.42100 2.27200 46.78900
C  43.38300 0.87400 46.79700
C  44.70500 0.45500 47.07300
C  45.54000 1.62100 47.21700
C  42.24100 0.01100 46.44700
C  45.12100 -1.05100 47.09800
O  44.40000 -1.99900 46.79100
C  46.48600 -1.50700 47.52200
N  47.30600 4.18200 47.08300
C  47.72400 2.93100 47.38500
C  49.19900 2.88700 47.83200
C  49.73900 4.32800 47.55200
C  48.33300 5.04400 47.29900
C  49.57800 2.45000 49.29500
C  50.79000 4.55500 46.40100
C  51.94100 5.53800 46.78000
N  45.90100 6.77000 46.68700
C  47.22300 7.28200 46.81000
C  47.01200 8.72100 46.71600
C  45.62400 8.98000 46.54200
C  45.03100 7.75400 46.46900
C  48.00500 9.75200 47.02500
C  44.62200 9.98800 46.52500
O  44.60500 11.16900 46.71000
C  43.24900 9.20100 46.22000
C  42.15400 9.68900 47.16500
O  41.71200 9.02400 48.13400
O  41.70700 10.89200 46.72100
C  40.53500 11.49500 47.38400
H  41.28700 2.70400 46.33500
H  47.46900 0.90700 47.88600
H  49.16000 7.07300 47.39700
H  40.90000 7.48200 46.04400
H  40.50700 4.64400 45.18200
H  39.57100 6.29100 47.33300
H  40.23900 4.75800 47.93900
H  39.04000 4.56000 46.68300
H  40.82100 5.99600 43.54400
H  42.41900 6.89800 43.64700
H  40.77000 9.00600 44.16000
H  39.54200 7.94000 43.55700
H  41.27600 0.37700 46.79500
H  42.22800 -0.97600 46.91100
H  42.17800 -0.12800 45.36700
H  46.66000 -1.00200 48.47200
H  47.15400 -1.05200 46.79000
H  46.56300 -2.58600 47.66200
H  49.70400 2.19500 47.15900
H  50.04300 4.74700 48.51100
H  49.67100 1.36400 49.29200
H  48.83800 2.48600 50.09500
H  50.56800 2.80300 49.58400
H  50.31900 5.10900 45.58900
H  51.07300 3.60000 45.95900
H  51.57000 6.54700 46.60100
H  52.68000 5.17900 46.06400
H  52.19500 5.54400 47.84000
H  48.88900 9.43200 47.57600
H  47.50000 10.59200 47.50200
H  48.28100 10.20900 46.07400
H  43.01200 9.57000 45.22200
H  39.80400 10.71600 47.59800
H  40.06200 12.26900 46.77900
H  40.85800 12.02800 48.27800

