158

Mg 44.89100 5.25800 48.43000
C  42.35400 7.63300 47.84600
C  42.49900 2.81300 48.15100
C  47.31400 2.90600 48.48500
C  47.24100 7.69300 48.00400
N  42.61000 5.23500 48.18800
C  41.85700 6.31400 47.81800
C  40.43100 5.95500 47.37200
C  40.41300 4.43800 47.78500
C  41.88300 4.11600 48.08500
C  39.50100 4.14700 49.08600
C  40.23100 6.31100 45.87700
C  39.02800 7.24800 45.50400
H  38.30700 6.99600 44.17400
N  44.89400 3.14600 48.51400
C  43.78800 2.36200 48.39300
C  44.24500 1.00200 48.35800
C  45.63500 0.99800 48.47500
C  46.04000 2.37600 48.46200
C  43.32800 -0.16700 48.35400
C  46.52900 -0.24900 48.74600
O  45.98900 -1.37600 48.83500
C  48.02000 -0.19800 48.85700
N  46.96100 5.26700 48.09100
C  47.78800 4.20700 48.44700
C  49.27800 4.61000 48.66100
C  49.26600 6.14600 48.58600
C  47.76400 6.39600 48.09800
C  50.03900 3.94100 49.90300
C  50.42300 6.79800 47.63200
C  51.31800 7.84000 48.30500
N  44.84900 7.29500 48.03900
C  45.88400 8.16700 47.83600
C  45.31700 9.52000 47.74000
C  43.97200 9.36500 47.79300
C  43.71400 8.00900 47.99700
C  46.14200 10.84400 47.55300
C  42.74100 10.12300 47.71300
O  42.55800 11.36400 47.66800
C  41.62700 8.97700 47.73400
C  40.67800 9.23400 48.80600
O  40.77400 8.89200 50.00500
O  39.67600 10.03400 48.34400
C  38.70600 10.49100 49.32800
H  41.74900 2.02100 48.10000
H  48.08100 2.13100 48.42700
H  47.91400 8.55100 48.05800
H  39.67500 6.48000 47.95500
H  40.20000 3.79700 46.93000
H  40.15200 3.88100 49.91900
H  38.95400 3.23600 48.84400
H  38.89100 4.99700 49.39100
H  40.26700 5.43800 45.22400
H  41.08500 6.92300 45.59000
H  39.36300 8.28400 45.51200
H  38.30600 7.14500 46.31400
H  43.51800 -0.96300 49.07400
H  43.50000 -0.72300 47.43300
H  42.28000 0.12600 48.41400
H  48.40600 -1.20800 48.99600
H  48.10600 0.37200 49.78200
H  48.55000 0.07400 47.94400
H  49.68400 4.14300 47.76300
H  49.38300 6.55500 49.58900
H  49.26700 3.91200 50.67100
H  50.85000 4.60900 50.19300
H  50.39300 2.91300 49.84000
H  49.77400 7.27400 46.89700
H  50.93800 5.98400 47.12300
H  51.30400 8.71000 47.64800
H  52.29500 7.36200 48.36800
H  51.00400 8.08500 49.32000
H  45.44700 11.61900 47.23100
H  46.99600 10.69100 46.89200
H  46.46800 11.06400 48.57000
H  41.12400 9.09200 46.77400
H  39.10600 10.96400 50.22500
H  38.26500 9.62000 49.81300
H  37.97100 11.09700 48.79900
Mg 50.24700 45.58100 41.30900
C  46.98400 46.47400 40.48600
C  49.53800 42.46600 40.11500
C  53.51100 44.80300 41.64500
C  51.11000 48.98600 41.72900
N  48.47300 44.63100 40.28500
C  47.24600 45.17400 40.09600
C  46.28800 44.24800 39.38400
C  47.11800 42.92500 39.37800
C  48.47100 43.31300 40.03000
C  46.35600 41.73900 40.10900
C  46.02700 44.64700 37.93700
C  44.57100 44.37900 37.37100
H  44.40500 43.56000 36.11400
N  51.35600 43.83100 41.03500
C  50.85100 42.65400 40.54800
C  51.93900 41.71200 40.44000
C  53.17100 42.40100 40.79800
C  52.73700 43.77000 41.21100
C  51.76300 40.27700 40.00800
C  54.58400 41.81600 40.80400
O  54.71700 40.62700 40.48800
C  55.85700 42.50500 41.23100
N  52.02500 46.79200 41.48600
C  53.20700 46.14600 41.78000
C  54.27700 47.20200 42.02000
C  53.56900 48.59300 42.18700
C  52.16400 48.14900 41.68400
C  55.24100 46.95500 43.15700
C  54.16400 49.70400 41.24300
C  54.12800 51.10900 41.80000
N  49.25200 47.43700 41.30600
C  49.69600 48.69700 41.54500
C  48.57400 49.59100 41.36000
C  47.54300 48.79700 40.91600
C  47.92800 47.45300 40.90600
C  48.70400 51.05600 41.48800
C  46.17300 48.85400 40.46200
O  45.40500 49.78300 40.38200
C  45.70800 47.38100 40.25300
C  44.46000 47.11900 40.99700
O  44.29700 47.16900 42.24100
O  43.45600 46.79200 40.09000
C  42.19000 46.50500 40.70100
H  49.31600 41.53800 39.58400
H  54.56500 44.59500 41.83800
H  51.34800 50.01200 42.01800
H  45.35400 44.05800 39.91400
H  47.44000 42.57400 38.39800
H  45.27500 41.60700 40.05500
H  46.61100 41.70900 41.16800
H  46.83600 40.86100 39.67600
H  46.70400 44.14700 37.24400
H  46.30200 45.69700 37.83100
H  44.23200 45.38300 37.11400
H  43.97400 44.04700 38.21900
H  52.57400 39.90100 39.38400
H  50.97300 40.18800 39.26100
H  51.76500 39.62100 40.87900
H  55.70100 42.82700 42.26100
H  55.66700 43.33900 40.55600
H  56.73300 42.01200 40.81100
H  54.96400 47.20500 41.17300
H  53.59700 48.95700 43.21400
H  56.24900 46.65500 42.87300
H  54.82400 46.13100 43.73600
H  55.37800 47.83700 43.78200
H  53.57400 49.61500 40.33000
H  55.17600 49.45200 40.92800
H  53.46600 51.65200 41.12500
H  55.14800 51.49300 41.80700
H  53.67100 51.09100 42.78900
H  48.30900 51.54100 40.59500
H  49.77300 51.26500 41.45200
H  48.24700 51.38100 42.42300
H  45.41100 47.39500 39.20500
H  41.55100 46.42100 39.82200
H  41.73200 47.24400 41.35900
H  42.23800 45.50900 41.14100

