158

Mg 47.14900 24.77800 28.84900
C  47.76100 26.97600 31.49000
C  45.66600 22.62400 31.17300
C  46.43400 22.56400 26.38500
C  48.84500 26.80700 26.72600
N  46.89400 24.75200 31.13300
C  47.11100 25.84900 31.94500
C  46.73800 25.58300 33.38100
C  46.14000 24.18100 33.26200
C  46.17600 23.84200 31.79700
C  46.91700 23.12700 34.16300
C  45.64800 26.64800 33.91100
C  46.03200 27.48600 35.13900
H  45.11500 27.48800 36.43000
N  46.17000 22.84500 28.79000
C  45.65400 22.12500 29.80900
C  45.02600 20.89200 29.31300
C  45.21200 20.91200 27.89700
C  45.99000 22.14000 27.61600
C  44.18400 19.92300 30.21800
C  44.72000 19.98300 26.80800
O  44.93600 20.09700 25.56300
C  43.70700 18.91300 27.18900
N  47.46400 24.73600 26.90600
C  47.18800 23.72600 26.04800
C  47.69900 23.94900 24.63600
C  48.13600 25.41100 24.72800
C  48.19900 25.64100 26.21400
C  48.77600 22.94400 24.06600
C  47.19200 26.45300 23.96700
C  45.79200 26.53200 24.55600
N  48.10200 26.50600 29.00500
C  48.77500 27.28300 28.05400
C  49.29400 28.51600 28.64800
C  48.93600 28.41200 30.01200
C  48.22100 27.12600 30.21200
C  50.00600 29.65100 27.91100
C  48.92200 29.09700 31.23800
O  49.26400 30.19000 31.44200
C  48.19500 28.19600 32.29200
C  49.22100 27.96100 33.34100
O  50.09700 27.09500 33.32200
O  49.12500 28.95800 34.30200
C  50.05500 28.82600 35.44200
H  45.22000 21.91100 31.87000
H  46.33200 21.91100 25.51600
H  49.41100 27.42100 26.02300
H  47.65900 25.61400 33.96500
H  45.10300 24.20300 33.59800
H  46.92200 22.16400 33.65200
H  46.35400 23.02700 35.09000
H  47.91300 23.49200 34.41400
H  44.64400 26.23800 34.01800
H  45.64900 27.33200 33.06200
H  45.92200 28.51800 34.80500
H  47.08000 27.29400 35.37200
H  43.23900 19.75000 29.70400
H  43.90300 20.36900 31.17300
H  44.71900 18.98500 30.36400
H  42.84100 19.24900 27.75900
H  44.18400 18.04100 27.63700
H  43.26100 18.55800 26.26000
H  46.83200 23.83700 23.98500
H  49.16800 25.43800 24.37700
H  48.56200 21.94900 24.45700
H  49.82000 23.23200 24.18700
H  48.57900 22.94500 22.99400
H  47.01100 26.01100 22.98700
H  47.71100 27.41100 23.96700
H  45.82600 27.30600 25.32300
H  45.44100 25.55500 24.88900
H  45.10800 26.88700 23.78500
H  49.78000 29.67700 26.84500
H  51.08600 29.56800 28.03400
H  49.70600 30.61900 28.31100
H  47.38000 28.79400 32.69800
H  49.67600 28.06800 36.12800
H  50.19000 29.78500 35.94200
H  51.05700 28.51700 35.14500
Mg -11.53300 16.40700 42.40500
C  -8.14400 16.57400 41.63200
C  -11.90200 19.68000 41.50700
C  -14.90900 15.88900 42.67400
C  -10.99100 12.84500 43.10800
N  -10.17000 17.91000 41.36700
C  -8.83600 17.78500 41.41200
C  -8.21300 19.26100 41.21300
C  -9.35700 20.19600 41.56300
C  -10.58200 19.18800 41.60600
C  -9.05800 21.20600 42.81000
C  -7.62100 19.50500 39.74700
C  -6.08500 19.84600 39.61300
H  -5.27400 19.00800 38.54100
N  -13.18500 17.59900 42.09000
C  -13.13500 18.90300 41.76900
C  -14.45900 19.42200 41.70700
C  -15.37900 18.33700 41.96200
C  -14.51900 17.21600 42.27200
C  -14.77600 20.88900 41.33900
C  -16.85200 18.42900 42.02000
O  -17.30800 19.50700 41.67100
C  -17.76600 17.33800 42.41600
N  -12.79500 14.63500 42.90800
C  -14.13900 14.72000 43.03300
C  -14.74300 13.40500 43.49300
C  -13.48900 12.46200 43.53600
C  -12.36800 13.35700 43.11900
C  -15.29300 13.52000 44.96700
C  -13.59600 11.17200 42.64000
C  -13.66600 11.37800 41.16400
N  -9.94800 14.93200 42.31400
C  -9.89600 13.62100 42.70400
C  -8.47800 13.22100 42.72500
C  -7.78300 14.32900 42.26300
C  -8.72900 15.35100 42.01900
C  -7.84200 11.83900 42.98200
C  -6.47300 14.82000 41.92900
O  -5.42300 14.22100 41.87900
C  -6.68100 16.27800 41.50300
C  -5.81300 17.08600 42.33600
O  -6.02000 17.40900 43.45100
O  -4.78200 17.53600 41.61600
C  -3.86400 18.48500 42.42400
H  -12.01600 20.76500 41.55400
H  -15.99100 15.74100 42.70000
H  -10.81100 11.78800 43.31300
H  -7.43000 19.37100 41.96300
H  -9.60500 20.90000 40.76800
H  -8.00800 21.09800 43.08100
H  -9.59400 20.74500 43.64000
H  -9.47100 22.19700 42.62500
H  -8.25700 20.16100 39.15200
H  -7.75800 18.59800 39.15900
H  -5.51300 19.76500 40.53800
H  -6.10000 20.92100 39.43200
H  -15.11500 21.39400 42.24400
H  -15.49100 20.71000 40.53600
H  -13.92700 21.38400 40.87000
H  -18.74800 17.76800 42.61600
H  -17.36300 17.02400 43.37900
H  -17.79100 16.57900 41.63400
H  -15.50500 13.13500 42.76100
H  -13.24300 12.10900 44.53700
H  -15.19800 12.57200 45.49600
H  -16.30400 13.90500 44.83800
H  -14.75300 14.33000 45.45800
H  -14.45700 10.57900 42.94800
H  -12.67900 10.65300 42.92100
H  -12.84200 10.96500 40.58300
H  -13.74900 12.43900 40.92700
H  -14.63200 10.98900 40.84500
H  -6.80000 11.96600 43.27400
H  -7.87900 11.39100 41.98900
H  -8.46300 11.29400 43.69200
H  -6.43000 16.33000 40.44400
H  -4.36000 19.23400 43.04100
H  -3.30500 19.04800 41.67800
H  -3.20100 17.98100 43.12800

