158

Mg 48.44200 34.28400 27.81600
C  46.40200 32.70000 30.17800
C  48.66800 36.95400 29.98800
C  49.82500 36.15800 25.26400
C  47.45600 31.81900 25.57200
N  47.78000 34.66900 29.91400
C  47.04800 33.83500 30.68200
C  47.09100 34.31300 32.10600
C  47.28800 35.85200 31.89600
C  47.98500 35.83600 30.53000
C  45.96100 36.77700 31.87500
C  48.33100 33.56200 32.78800
C  48.18100 33.49400 34.32400
H  47.21300 34.49000 35.02800
N  49.27200 36.18500 27.69700
C  49.34100 37.11500 28.75400
C  50.19600 38.18400 28.33500
C  50.47500 37.99800 27.00700
C  49.88900 36.74200 26.57300
C  50.64300 39.32200 29.22600
C  51.30000 38.87500 26.06200
O  51.21200 38.72000 24.84600
C  52.21300 39.97300 26.60100
N  48.47500 34.11300 25.77000
C  49.17100 34.96200 24.94600
C  49.32100 34.33000 23.53900
C  48.70400 32.92400 23.67900
C  48.13300 32.93500 25.10500
C  48.82900 35.26400 22.41600
C  49.63500 31.74900 23.36500
C  50.52000 31.79200 22.05800
N  47.30000 32.47800 27.85100
C  46.99000 31.61300 26.84700
C  46.10600 30.58400 27.31300
C  45.87200 30.94500 28.71800
C  46.52400 32.15700 28.91100
C  45.68800 29.39400 26.48500
C  45.21900 30.53000 29.90900
O  44.54800 29.59100 30.30000
C  45.38800 31.78800 30.84200
C  45.57100 31.44000 32.29700
O  46.39100 30.75500 32.83500
O  44.49200 32.01400 32.92600
C  44.34300 31.59400 34.38300
H  48.64200 37.76100 30.72300
H  50.34400 36.62500 24.42400
H  47.19000 30.99100 24.91100
H  46.10500 34.24400 32.56500
H  48.02100 36.17300 32.63600
H  45.88500 37.38400 32.77700
H  45.11300 36.10500 31.74500
H  45.91900 37.45700 31.02400
H  49.25600 34.08900 32.55200
H  48.35200 32.49800 32.55100
H  49.17100 33.80400 34.65800
H  47.94500 32.51000 34.72900
H  51.70900 39.31300 29.45200
H  50.11900 39.25300 30.17900
H  50.36100 40.24500 28.71900
H  51.64600 40.78600 27.05500
H  52.72200 40.39600 25.73500
H  52.83500 39.44100 27.32100
H  50.38400 34.22200 23.32300
H  47.83300 32.77200 23.04200
H  48.47200 34.51900 21.70600
H  49.51900 35.97300 21.96000
H  47.94600 35.87700 22.59600
H  49.07100 30.81600 23.39100
H  50.36400 31.68200 24.17200
H  50.32800 32.63900 21.39900
H  50.20800 30.98400 21.39700
H  51.57600 31.63000 22.27600
H  46.39000 29.20900 25.67200
H  44.75300 29.57800 25.95600
H  45.64100 28.47400 27.06800
H  44.46700 32.34000 30.66000
H  44.30300 30.53300 34.63200
H  43.54600 32.04400 34.97400
H  45.26500 32.00900 34.79000
Mg -11.38800 16.85600 42.12200
C  -7.96800 16.98000 42.65500
C  -11.30600 20.33000 41.69600
C  -14.50200 16.68500 40.88700
C  -11.07400 13.40400 41.75900
N  -9.81500 18.45600 42.18100
C  -8.52700 18.22000 42.36100
C  -7.73500 19.51400 42.22900
C  -8.89900 20.57000 42.39800
C  -10.07800 19.72600 42.05100
C  -8.92800 21.15200 43.76100
C  -7.03300 19.72600 40.83700
C  -5.50900 19.93000 40.93400
H  -4.90300 20.74400 39.78900
N  -12.79600 18.33100 41.38900
C  -12.56100 19.69700 41.32200
C  -13.87700 20.40200 41.07500
C  -14.76200 19.35400 40.65400
C  -14.06200 18.01100 40.99600
C  -13.97500 21.88900 41.09600
C  -16.09600 19.48300 39.91100
O  -16.28100 20.63800 39.43600
C  -17.14000 18.46500 39.68200
N  -12.62700 15.32800 41.53000
C  -13.91700 15.45000 41.12100
C  -14.57100 14.07700 40.88900
C  -13.39200 13.06600 40.98500
C  -12.26500 13.98200 41.47800
C  -15.89200 13.80900 41.73800
C  -13.14600 12.30800 39.62600
C  -14.03100 11.03900 39.41200
N  -9.88800 15.41800 42.40000
C  -9.95800 14.05300 42.20200
C  -8.66700 13.51900 42.42200
C  -7.79400 14.56600 42.65400
C  -8.60700 15.70600 42.60700
C  -8.28300 12.07300 42.21600
C  -6.41900 15.01400 42.82400
O  -5.34800 14.36200 42.93600
C  -6.47500 16.59100 42.85300
C  -6.03900 17.03200 44.23700
O  -6.50000 16.59000 45.29900
O  -5.25400 18.12900 44.17500
C  -4.65600 18.76500 45.32900
H  -11.28300 21.42100 41.74100
H  -15.53500 16.48800 40.59300
H  -11.01200 12.33100 41.56800
H  -7.25000 19.56700 43.20300
H  -8.81300 21.36800 41.66100
H  -9.85900 20.86400 44.25000
H  -8.92700 22.24000 43.69500
H  -8.04000 21.04200 44.38300
H  -7.51800 20.42900 40.16000
H  -7.14500 18.73900 40.38800
H  -5.00300 18.96600 40.86700
H  -5.29800 20.44400 41.87200
H  -15.03600 22.11200 41.21400
H  -13.58300 22.29600 40.16400
H  -13.46700 22.29500 41.97100
H  -16.89100 17.71100 38.93500
H  -18.16400 18.83400 39.62700
H  -17.30700 17.83700 40.55700
H  -14.90900 14.07100 39.85300
H  -13.59700 12.48600 41.88500
H  -15.83800 12.86300 42.27600
H  -16.78600 13.83200 41.11500
H  -16.04400 14.53800 42.53400
H  -12.10500 11.98700 39.58200
H  -13.21900 12.96900 38.76200
H  -14.24600 10.50000 40.33500
H  -13.36900 10.31000 38.94500
H  -14.81800 11.11500 38.66200
H  -8.22300 11.77500 41.16900
H  -9.12400 11.56400 42.68800
H  -7.32100 11.82400 42.66300
H  -5.75700 16.89100 42.09000
H  -5.21900 18.56600 46.24000
H  -4.62300 19.85100 45.25000
H  -3.63400 18.39700 45.42400

