158

Mg 48.06100 15.06300 27.78100
C  46.08300 15.18400 30.69100
C  50.27300 17.31500 29.39400
C  49.95500 15.16700 25.05300
C  45.62000 13.14000 26.20800
N  48.20200 16.14100 29.79400
C  47.25100 15.94400 30.85000
C  47.84800 16.65300 32.12600
C  48.97600 17.57900 31.59800
C  49.17600 17.00700 30.19900
C  48.61300 19.11500 31.50200
C  48.31500 15.54200 33.22600
C  48.01300 15.88700 34.66800
H  49.03900 15.40000 35.70100
N  49.86200 16.17300 27.22100
C  50.61900 16.99800 28.08100
C  51.86800 17.44800 27.36300
C  51.77400 16.72700 26.07600
C  50.45700 16.07100 26.01600
C  52.86500 18.29700 28.01900
C  52.80900 16.69700 25.03900
O  52.64000 16.12000 23.95200
C  54.14500 17.35100 25.31400
N  47.77000 14.48100 25.92100
C  48.74000 14.51600 24.95400
C  48.50500 13.45300 23.81700
C  47.13800 12.79100 24.19800
C  46.83800 13.46300 25.54800
C  48.53100 14.09600 22.34700
C  47.19300 11.27700 24.43000
C  48.07800 10.47600 23.35400
N  46.15100 14.39600 28.22400
C  45.26700 13.60300 27.52600
C  44.08000 13.39200 28.28000
C  44.35800 13.98900 29.49000
C  45.66300 14.54900 29.48400
C  42.82600 12.70000 27.79300
C  43.77100 14.15100 30.81400
O  42.74000 13.77100 31.30200
C  44.92000 14.93800 31.69500
C  44.33900 16.18100 32.29300
O  43.84200 17.12200 31.67200
O  44.40800 16.04800 33.66200
C  44.07800 17.23000 34.46000
H  50.92200 18.08100 29.82400
H  50.61800 15.05000 24.19300
H  45.13400 12.37600 25.59700
H  47.11100 17.29200 32.61300
H  49.86800 17.47600 32.21600
H  48.64600 19.46200 30.47000
H  49.37100 19.78300 31.91100
H  47.74200 19.40000 32.09300
H  49.37700 15.40500 33.02200
H  47.87800 14.58800 32.93500
H  47.09000 15.43000 35.02400
H  47.85200 16.94900 34.84800
H  53.62500 17.78700 28.61100
H  52.36100 18.94600 28.73500
H  53.44800 18.96100 27.38100
H  54.89900 16.99200 24.61400
H  54.45700 17.05900 26.31700
H  54.08800 18.41900 25.10100
H  49.29800 12.71300 23.92400
H  46.46600 13.05700 23.38300
H  48.72500 13.29500 21.63400
H  49.33700 14.82100 22.23200
H  47.59000 14.62000 22.18000
H  46.19000 10.85600 24.35900
H  47.46800 10.88800 25.41000
H  48.57800 11.08900 22.60500
H  47.37200 9.84500 22.81400
H  48.78000 9.80700 23.85100
H  42.13300 12.43400 28.59200
H  43.11400 11.85700 27.16600
H  42.35000 13.41500 27.12200
H  45.08200 14.21500 32.49500
H  44.34200 18.18700 34.01000
H  44.63500 17.12900 35.39200
H  42.99700 17.12600 34.55700
Mg -9.16800 41.51800 42.47800
C  -8.20600 38.15600 41.61800
C  -6.43200 42.61900 40.66800
C  -10.41900 44.50600 42.72000
C  -12.18800 39.99100 43.50800
N  -7.69000 40.53300 41.21900
C  -7.45400 39.19200 41.03800
C  -6.21600 38.99600 40.12600
C  -5.55300 40.29800 39.94900
C  -6.60900 41.23600 40.63500
C  -4.15200 40.42800 40.64900
C  -6.57800 38.41400 38.72100
C  -5.73000 37.24700 38.29100
H  -4.77400 37.57200 37.17600
N  -8.39500 43.41400 41.90700
C  -7.20700 43.64200 41.29500
C  -7.10700 45.11800 41.18900
C  -8.28300 45.72700 41.66700
C  -9.07600 44.56400 42.17600
C  -5.93500 45.71400 40.55700
C  -8.59900 47.23700 41.63100
O  -7.83400 47.98400 41.09700
C  -9.80700 47.85800 42.39300
N  -11.03800 42.11700 43.14000
C  -11.27900 43.43800 43.14900
C  -12.67700 43.66700 43.59700
C  -13.33400 42.29900 43.79200
C  -12.12000 41.39700 43.41500
C  -12.82500 44.69900 44.74800
C  -14.62900 41.98900 42.92000
C  -15.85000 41.43200 43.66800
N  -9.96300 39.53200 42.79500
C  -11.15600 39.05200 43.23800
C  -11.19000 37.67600 43.31500
C  -10.06600 37.24000 42.59600
C  -9.34800 38.41600 42.35000
C  -12.38000 36.84500 43.69100
C  -9.39900 36.06700 42.13800
O  -9.75900 34.92800 42.18800
C  -8.11000 36.62100 41.44500
C  -7.00700 36.04600 42.11900
O  -6.69200 36.30600 43.26600
O  -6.23900 35.25100 41.25500
C  -5.16000 34.44300 41.98100
H  -5.63700 43.02000 40.03500
H  -10.85700 45.49800 42.84500
H  -13.09500 39.48300 43.84400
H  -5.48900 38.40600 40.68600
H  -5.44700 40.46600 38.87700
H  -4.21300 40.82900 41.66000
H  -3.40600 41.02900 40.12900
H  -3.70500 39.44100 40.76200
H  -6.54000 39.17800 37.94400
H  -7.61700 38.09200 38.79300
H  -6.42800 36.47700 37.96200
H  -5.07700 36.79400 39.03700
H  -6.20000 46.56900 39.93500
H  -5.48300 45.04200 39.82900
H  -5.16700 45.85100 41.31800
H  -9.69600 47.38000 43.36600
H  -10.79200 47.63100 41.98500
H  -9.71100 48.94400 42.39600
H  -13.06600 44.15300 42.70200
H  -13.47900 42.20700 44.86900
H  -11.95000 45.33500 44.88200
H  -13.23100 44.22800 45.64400
H  -13.69800 45.27100 44.43600
H  -14.37800 41.27100 42.13900
H  -14.95400 42.93400 42.48500
H  -15.52900 41.48000 44.70800
H  -16.12300 40.41000 43.40600
H  -16.68600 42.10700 43.48400
H  -12.97600 37.26400 44.50100
H  -11.95500 35.89400 44.01400
H  -13.01900 36.60700 42.84000
H  -7.99300 36.48200 40.37100
H  -5.58900 33.86900 42.80200
H  -4.35800 35.11300 42.29200
H  -4.84800 33.77800 41.17600

