158

Mg 1.53800 -0.78400 42.69000
C  4.98500 -0.63700 42.05700
C  1.06800 2.11700 41.06200
C  -1.74300 -1.46500 42.74100
C  2.13000 -4.15300 43.72300
N  2.94400 0.64600 41.70500
C  4.27300 0.43300 41.51700
C  4.77300 1.64100 40.70500
C  3.58500 2.63100 40.67300
C  2.41400 1.80700 41.17500
C  3.69800 3.93400 41.51200
C  5.44000 1.22400 39.33100
C  6.58700 2.18400 38.90300
H  6.54100 2.86100 37.60600
N  -0.12800 0.25100 42.12600
C  -0.12000 1.48600 41.50100
C  -1.48500 1.86500 41.25400
C  -2.30400 0.89400 41.87200
C  -1.42300 -0.19100 42.25700
C  -1.87600 3.21000 40.70100
C  -3.75300 1.05900 42.03100
O  -4.31800 2.10500 41.70600
C  -4.58700 0.10200 42.75400
N  0.34700 -2.59500 43.06400
C  -0.95300 -2.52900 43.10000
C  -1.54700 -3.85200 43.64400
C  -0.25900 -4.74000 44.00100
C  0.79800 -3.84400 43.45500
C  -2.71500 -4.03000 44.70400
C  -0.18500 -6.12300 43.28400
C  0.17300 -7.29400 44.22100
N  3.18600 -2.00900 43.20900
C  3.27600 -3.32100 43.55700
C  4.61400 -3.66200 43.88200
C  5.43000 -2.67200 43.24600
C  4.45800 -1.66300 42.84200
C  5.19600 -4.88100 44.53600
C  6.75000 -2.24700 42.88900
O  7.85800 -2.68400 43.09700
C  6.47900 -0.95200 42.02500
C  7.30000 0.20800 42.54800
O  7.45600 0.52600 43.73600
O  7.90500 0.79700 41.50100
C  8.65200 2.01300 41.77700
H  1.03500 3.07500 40.53900
H  -2.77400 -1.81900 42.79800
H  2.41600 -5.06100 44.25700
H  5.48600 2.16700 41.34000
H  3.47200 2.83100 39.60800
H  4.55000 3.94000 42.19200
H  2.83200 3.88700 42.17200
H  3.60200 4.84100 40.91400
H  4.70000 1.09000 38.54200
H  5.90400 0.26000 39.53900
H  7.53100 1.64000 38.89700
H  6.70000 2.94000 39.68000
H  -2.80200 3.30600 40.13400
H  -1.07600 3.63600 40.09700
H  -1.90900 3.78000 41.63000
H  -5.62200 0.43300 42.66600
H  -4.34800 -0.03600 43.80800
H  -4.32600 -0.77300 42.15900
H  -1.86900 -4.29500 42.70200
H  -0.24800 -4.84400 45.08500
H  -3.52100 -4.48400 44.12700
H  -3.10600 -3.05900 45.00800
H  -2.50300 -4.78000 45.46600
H  0.50500 -6.15100 42.44100
H  -1.16000 -6.40200 42.88400
H  0.29100 -6.99800 45.26400
H  1.05800 -7.81200 43.85400
H  -0.63700 -8.01900 44.14000
H  6.21500 -4.66800 44.86000
H  5.11400 -5.67000 43.78900
H  4.54200 -5.05500 45.39100
H  6.84000 -1.29400 41.05500
H  8.27300 2.65900 42.56900
H  8.77100 2.50700 40.81300
H  9.67400 1.72700 42.02200
Mg 47.58100 44.23600 41.61900
C  44.00400 43.86400 41.75700
C  47.78700 40.88800 41.61200
C  50.82200 44.64500 41.21700
C  47.13000 47.70700 41.36300
N  46.06800 42.61700 41.59300
C  44.68900 42.63900 41.62800
C  44.09400 41.21700 41.70600
C  45.36200 40.23100 41.85700
C  46.45900 41.30700 41.74600
C  45.36000 39.36000 43.08700
C  43.24900 40.83300 40.42100
C  43.56100 41.56400 39.06800
H  43.63800 40.69600 37.85400
N  49.11300 42.95400 41.44300
C  49.03900 41.56400 41.47200
C  50.35900 40.98100 41.29600
C  51.28300 42.06600 41.27700
C  50.44100 43.33500 41.36200
C  50.72800 39.46400 41.30700
C  52.81400 41.97500 41.22000
O  53.46000 40.93500 41.18400
C  53.65700 43.19000 41.23100
N  48.77200 45.93300 41.07400
C  50.08300 45.82700 41.17600
C  50.75800 47.19000 40.93600
C  49.60800 48.13600 40.91400
C  48.38100 47.24800 41.15800
C  51.88000 47.48500 42.00200
C  49.39600 48.96900 39.66900
C  49.22900 50.48800 39.88900
N  45.93200 45.57200 41.59000
C  45.92300 46.97200 41.42700
C  44.55800 47.39800 41.55600
C  43.78900 46.20200 41.71200
C  44.63000 45.12900 41.68300
C  44.00400 48.75700 41.44200
C  42.42000 45.61000 41.90700
O  41.37000 46.12300 42.15500
C  42.50400 44.08800 41.88300
C  41.83200 43.33100 43.01800
O  41.19800 42.31400 42.91300
O  42.17900 43.95100 44.14600
C  41.42500 43.46400 45.34700
H  48.03700 39.82700 41.55400
H  51.85500 44.98500 41.11900
H  47.06100 48.78700 41.51100
H  43.47200 41.18700 42.60000
H  45.44000 39.52900 41.02600
H  44.40600 38.83300 43.09000
H  45.33600 39.96600 43.99200
H  46.05300 38.51900 43.11600
H  42.19000 40.90700 40.66500
H  43.42800 39.76900 40.26800
H  44.53100 42.02900 39.24400
H  42.74700 42.25300 38.84200
H  50.99700 39.02700 40.34500
H  49.84400 38.86200 41.51700
H  51.53900 39.31600 42.02100
H  53.32700 43.72700 40.34200
H  54.71100 42.96700 41.06300
H  53.41000 43.76000 42.12700
H  51.32600 47.16300 40.00600
H  49.67000 48.71400 41.83600
H  51.76000 46.79100 42.83400
H  51.70700 48.49900 42.36000
H  52.84000 47.40000 41.49300
H  48.50500 48.74800 39.08200
H  50.24900 48.88900 38.99500
H  48.14800 50.59100 39.79100
H  49.96000 51.08400 39.34200
H  49.45900 50.80800 40.90500
H  43.51900 48.99800 40.49600
H  44.71800 49.57500 41.54100
H  43.25800 48.97800 42.20500
H  42.04200 43.84000 40.92700
H  40.41200 43.86100 45.41000
H  41.97800 43.64700 46.26800
H  41.45400 42.37500 45.32200

