158

Mg 1.76300 -0.95800 43.97700
C  5.07400 -0.39900 43.12500
C  1.00000 2.00300 42.46300
C  -1.51300 -1.90000 44.08700
C  2.72000 -4.16900 44.87800
N  2.94000 0.50800 42.89500
C  4.24000 0.60700 42.60400
C  4.71600 1.85200 41.88100
C  3.41500 2.66900 42.00100
C  2.41300 1.69000 42.55800
C  3.51800 4.01100 42.74500
C  5.25200 1.54100 40.38400
C  6.47400 2.44200 40.03500
H  6.28500 3.38900 38.87700
N  0.01400 -0.12000 43.34800
C  -0.11800 1.15900 42.77600
C  -1.46200 1.53000 42.61400
C  -2.19000 0.42700 43.09200
C  -1.22500 -0.61500 43.51600
C  -1.96300 2.81600 41.93000
C  -3.71500 0.39100 43.13400
O  -4.43900 1.34900 42.82300
C  -4.50500 -0.86200 43.52600
N  0.77600 -2.76200 44.48000
C  -0.55700 -2.86900 44.49600
C  -1.03200 -4.31400 44.95600
C  0.26800 -5.04500 45.08900
C  1.31100 -3.98700 44.73300
C  -1.92900 -4.29700 46.26000
C  0.30400 -6.39000 44.18600
C  0.60000 -7.68100 44.98900
N  3.57500 -2.04300 44.17800
C  3.75000 -3.30400 44.69000
C  5.17200 -3.62500 44.68000
C  5.76400 -2.48500 44.10700
C  4.74200 -1.60000 43.74700
C  5.83100 -4.99400 45.18500
C  7.00700 -1.86400 43.71800
O  8.19100 -2.12300 43.84800
C  6.61400 -0.44900 43.00500
C  7.33300 0.50600 43.77200
O  7.05200 0.92400 44.87400
O  8.47000 0.75100 43.07100
C  9.20600 1.97900 43.48800
H  0.73500 3.02100 42.16800
H  -2.58200 -2.11600 44.03100
H  2.99000 -5.19600 45.13300
H  5.56300 2.32500 42.37800
H  2.98600 3.01300 41.06000
H  2.91900 4.04400 43.65600
H  3.08600 4.76800 42.09000
H  4.48900 4.22700 43.19000
H  4.48500 1.84300 39.67200
H  5.40700 0.46400 40.32500
H  7.34400 1.81400 39.84000
H  6.70400 3.05300 40.90700
H  -3.00500 3.03600 42.15900
H  -1.89100 2.83900 40.84300
H  -1.29600 3.59200 42.30400
H  -5.56900 -0.65000 43.41900
H  -4.31000 -0.93700 44.59600
H  -4.24700 -1.75400 42.95600
H  -1.69700 -4.70300 44.18400
H  0.35800 -5.19900 46.16400
H  -1.55100 -4.96000 47.03800
H  -2.84100 -4.77600 45.90400
H  -2.18100 -3.30100 46.62400
H  1.02500 -6.17600 43.39700
H  -0.66700 -6.54300 43.71500
H  1.43800 -8.23100 44.56300
H  -0.26300 -8.33300 45.12900
H  0.86700 -7.27500 45.96500
H  6.91400 -4.87500 45.18500
H  5.60700 -5.68200 44.37000
H  5.52700 -5.36000 46.16600
H  6.92700 -0.40900 41.96200
H  10.14100 1.66400 43.95000
H  8.68300 2.47800 44.30500
H  9.47000 2.71800 42.73200
Mg 47.47600 24.18300 27.76400
C  47.91400 26.48700 30.50100
C  46.72500 21.84800 30.12000
C  47.41600 21.93200 25.34800
C  48.59300 26.64000 25.58700
N  47.44200 24.20200 30.09400
C  47.42300 25.24800 30.95200
C  47.09300 24.86100 32.39700
C  46.74300 23.27600 32.25800
C  46.95200 23.10000 30.72700
C  47.42100 22.28500 33.30500
C  46.00600 25.73200 33.07300
C  46.33900 26.06700 34.58600
H  45.16000 26.11800 35.52200
N  47.05700 22.18100 27.66300
C  46.78200 21.40900 28.77600
C  46.45000 20.08900 28.33600
C  46.59400 20.04800 26.92400
C  47.03600 21.38500 26.55300
C  46.03900 18.88000 29.29000
C  46.41300 18.86300 25.93100
O  46.50600 18.94800 24.72500
C  46.08000 17.45700 26.43600
N  47.95600 24.27000 25.80200
C  47.79900 23.25300 24.97400
C  48.36000 23.58100 23.53200
C  48.51800 25.12900 23.62300
C  48.33800 25.37900 25.06900
C  49.67300 22.86900 23.07700
C  47.41500 25.85300 22.78600
C  46.06600 26.01200 23.46600
N  48.33300 26.07100 27.94700
C  48.60300 27.00100 26.94700
C  49.05200 28.21000 27.57200
C  48.81100 28.09600 28.97400
C  48.33700 26.75000 29.14000
C  49.61100 29.44900 26.97000
C  48.79800 28.76700 30.31900
O  49.19700 29.90900 30.66800
C  48.18500 27.76400 31.33600
C  49.03200 27.47400 32.53000
O  49.94500 26.73700 32.56700
O  48.66200 28.19100 33.60900
C  49.46400 28.25700 34.82100
H  46.29200 21.13500 30.82400
H  47.39500 21.18100 24.55500
H  48.85900 27.43400 24.88700
H  48.02600 24.85100 32.96000
H  45.67500 23.06400 32.31500
H  46.52700 21.76200 33.64700
H  48.09500 22.58000 34.10900
H  47.90800 21.55200 32.66300
H  45.04400 25.22300 33.12300
H  45.71300 26.64600 32.55800
H  46.81500 27.03400 34.75000
H  47.02000 25.28700 34.92800
H  46.60900 18.00300 28.98400
H  44.96200 18.72100 29.22800
H  46.34500 19.11600 30.30900
H  45.93200 16.72900 25.63800
H  45.15800 17.56700 27.00700
H  47.00000 17.21000 26.96600
H  47.61400 23.26700 22.80100
H  49.47500 25.48400 23.24300
H  49.58500 22.08700 22.32300
H  50.05200 22.36300 23.96500
H  50.38800 23.61800 22.73900
H  47.34200 25.15200 21.95500
H  47.87500 26.82800 22.61900
H  45.99300 25.23300 24.22500
H  45.34600 25.69000 22.71400
H  45.82100 27.00400 23.84400
H  48.93000 30.28800 27.11600
H  49.93500 29.41600 25.93000
H  50.47200 29.76400 27.56100
H  47.22500 28.11300 31.71800
H  50.39000 27.69000 34.72000
H  48.93700 27.63600 35.54500
H  49.68100 29.24200 35.23500

