158

Mg 1.74200 -2.00100 44.65100
C  4.89100 -0.99200 43.70800
C  0.34800 0.36100 42.50300
C  -1.29900 -3.47600 44.98300
C  3.26000 -4.82300 46.26000
N  2.62000 -0.61000 42.99400
C  3.91300 -0.27100 42.92500
C  4.12500 0.95900 41.98000
C  2.66600 1.35600 41.72500
C  1.79300 0.33100 42.47800
C  2.33000 2.83000 42.12900
C  4.91600 0.65400 40.65500
C  6.22700 1.35300 40.56000
H  6.56200 2.09800 39.21300
N  -0.27000 -1.56600 43.99300
C  -0.60700 -0.55900 43.04900
C  -2.07700 -0.42700 43.02900
C  -2.62100 -1.52900 43.80500
C  -1.43200 -2.24500 44.32600
C  -2.90100 0.60400 42.36300
C  -3.99000 -1.92200 43.99600
O  -4.90000 -1.35500 43.45400
C  -4.43400 -3.02100 44.87100
N  1.11900 -3.82900 45.54600
C  -0.24500 -4.13000 45.67800
C  -0.48200 -5.39700 46.42600
C  0.94400 -5.81500 46.81100
C  1.87700 -4.71200 46.23100
C  -1.56000 -5.49900 47.56500
C  1.34100 -7.35400 46.47000
C  1.46900 -8.26700 47.69900
N  3.75500 -2.78100 45.01600
C  4.16100 -3.85500 45.73200
C  5.58900 -3.86100 45.69900
C  6.00300 -2.70200 44.96600
C  4.81400 -2.19000 44.54600
C  6.52000 -4.80800 46.40900
C  7.07400 -1.91400 44.49000
O  8.27200 -2.01300 44.69200
C  6.43300 -0.82200 43.53400
C  6.89900 0.52200 43.94400
O  7.75100 1.22200 43.42300
O  6.13200 0.96400 45.03800
C  6.51500 2.31100 45.46900
H  -0.10500 1.17500 41.93300
H  -2.18200 -4.05800 45.25600
H  3.76000 -5.68500 46.70600
H  4.63800 1.66000 42.63800
H  2.36000 1.29300 40.68100
H  1.62900 2.74600 42.96000
H  1.84900 3.38500 41.32400
H  3.20500 3.40700 42.42800
H  4.29500 0.92300 39.80100
H  5.07400 -0.42100 40.56000
H  7.00500 0.59200 40.62700
H  6.34400 2.07200 41.37100
H  -2.28300 1.46600 42.11200
H  -3.64700 0.91100 43.09600
H  -3.43100 0.19500 41.50300
H  -3.97300 -3.09700 45.85600
H  -4.30400 -4.01700 44.44800
H  -5.51000 -2.94200 45.02900
H  -0.72800 -6.08000 45.61300
H  1.01300 -5.67600 47.89000
H  -1.15300 -5.48400 48.57600
H  -2.15500 -6.41100 47.50500
H  -2.32500 -4.73100 47.45400
H  2.11600 -7.47800 45.71300
H  0.62000 -7.89700 45.86000
H  0.90900 -9.16400 47.43400
H  1.14100 -7.89300 48.66900
H  2.49100 -8.63800 47.77600
H  7.48200 -4.32000 46.56100
H  6.67500 -5.72400 45.83900
H  6.22300 -5.03200 47.43400
H  6.70300 -1.10700 42.51700
H  7.48900 2.18000 45.94000
H  5.75000 2.57000 46.20000
H  6.57400 3.01800 44.64200
Mg -1.54100 34.59900 25.88700
C  -3.17500 32.61800 28.44800
C  -0.18400 36.52000 28.26900
C  -0.21500 36.20800 23.40500
C  -3.49500 32.77900 23.47200
N  -1.57900 34.58500 28.13100
C  -2.34500 33.72900 28.91000
C  -2.12200 34.04300 30.42200
C  -1.36600 35.38600 30.34600
C  -0.98400 35.53700 28.89800
C  -2.18000 36.55300 30.77600
C  -1.28100 32.92600 31.19400
C  -1.98100 32.13100 32.29300
H  -1.23100 32.14000 33.64000
N  -0.26900 36.07800 25.81100
C  0.18200 36.79500 26.89500
C  1.07300 37.79700 26.42400
C  1.21800 37.61800 25.02100
C  0.18900 36.63700 24.68500
C  1.83700 38.69900 27.38200
C  2.21700 38.11700 23.99200
O  2.21600 37.93300 22.73400
C  3.21200 39.01200 24.56000
N  -1.88900 34.60600 23.79100
C  -1.21500 35.42200 22.96600
C  -1.63100 35.33900 21.52800
C  -2.49000 34.07500 21.54700
C  -2.67100 33.78800 23.05000
C  -2.42900 36.60400 21.03800
C  -1.87400 32.86600 20.83700
C  -0.53900 32.46200 21.40200
N  -3.06600 33.08900 25.92400
C  -3.79300 32.46500 24.83800
C  -4.58800 31.41800 25.39300
C  -4.33000 31.38900 26.77300
C  -3.46200 32.44500 27.02200
C  -5.17600 30.33200 24.61300
C  -4.62800 30.71800 28.07200
O  -5.34000 29.76700 28.21900
C  -3.86100 31.43500 29.17600
C  -4.90700 31.73500 30.21700
O  -5.47800 32.77500 30.25300
O  -4.92400 30.80300 31.18300
C  -5.54400 30.99000 32.49400
H  0.27700 37.13600 29.04400
H  -0.15600 36.91600 22.57600
H  -4.09400 32.26900 22.71500
H  -3.14400 34.16500 30.78000
H  -0.41200 35.39600 30.87200
H  -3.04000 36.61000 30.10900
H  -1.57000 37.45200 30.68800
H  -2.47400 36.32900 31.80100
H  -0.37400 33.36900 31.60400
H  -0.99900 32.23600 30.39800
H  -2.14100 31.12200 31.91300
H  -2.92000 32.62000 32.54900
H  2.92400 38.64800 27.32300
H  1.59600 38.67200 28.44400
H  1.77400 39.76600 27.17200
H  3.68100 38.49000 25.39500
H  2.69900 39.91000 24.90300
H  4.06700 39.19700 23.91000
H  -0.75000 35.31200 20.88600
H  -3.47200 34.23000 21.09900
H  -1.75500 37.42100 20.78000
H  -3.12500 36.97300 21.79100
H  -2.95500 36.33600 20.12100
H  -1.68200 33.17500 19.80900
H  -2.53400 32.00700 20.95400
H  0.18000 32.37700 20.58700
H  -0.64000 31.47500 21.85400
H  -0.15800 33.16300 22.14400
H  -4.66500 30.03700 23.69600
H  -6.16000 30.61800 24.24000
H  -5.45500 29.49300 25.25100
H  -3.04800 30.89000 29.65700
H  -4.90200 31.70700 33.00600
H  -5.72400 30.06100 33.03500
H  -6.53800 31.43500 32.53000

