158

Mg -1.52100 18.14500 27.44000
C  -2.07700 16.07900 30.17000
C  -2.11600 20.84000 29.46000
C  -0.86400 20.02900 24.80200
C  -1.58400 15.31400 25.33400
N  -2.03000 18.38000 29.70300
C  -2.13000 17.41200 30.64000
C  -2.43400 18.07200 31.99200
C  -2.56100 19.56600 31.56200
C  -2.31200 19.62200 30.10700
C  -3.91800 20.30600 31.98800
C  -1.28400 17.88600 33.05600
C  -1.88300 17.43800 34.39500
H  -0.92700 17.37800 35.54300
N  -1.37000 20.14100 27.23400
C  -1.69500 21.04600 28.11900
C  -1.61700 22.33900 27.48000
C  -1.07500 22.18600 26.19200
C  -1.03000 20.69200 26.05900
C  -2.20300 23.56200 28.17100
C  -0.68400 23.23200 25.21700
O  -0.20700 23.02500 24.09900
C  -0.88400 24.64100 25.68400
N  -1.42000 17.73500 25.34700
C  -1.03200 18.70000 24.49100
C  -1.02900 18.15100 23.09900
C  -0.81600 16.65200 23.31500
C  -1.28400 16.55200 24.70400
C  -2.28700 18.42300 22.18400
C  0.67300 16.09300 23.14500
C  1.81700 16.89400 23.64900
N  -1.79700 16.12000 27.64000
C  -1.80300 15.08600 26.72100
C  -1.75800 13.83000 27.41200
C  -1.93100 14.15700 28.73500
C  -1.95700 15.54500 28.88100
C  -1.61600 12.49900 26.86900
C  -1.88500 13.56400 30.03500
O  -1.64400 12.41600 30.45500
C  -2.14700 14.79600 31.01200
C  -1.02100 14.67200 31.95700
O  0.18800 14.81800 31.71000
O  -1.42200 14.08000 33.18700
C  -0.36700 13.76000 34.18300
H  -2.16400 21.66200 30.17800
H  -0.57100 20.64200 23.94700
H  -1.53200 14.41300 24.71900
H  -3.38400 17.76400 32.42800
H  -1.79600 20.14100 32.08300
H  -4.76800 19.63000 31.90700
H  -4.06800 21.17100 31.34100
H  -3.94000 20.63200 33.02800
H  -0.73900 18.82700 33.13900
H  -0.59800 17.10300 32.73100
H  -2.24600 16.41800 34.27000
H  -2.68700 18.12100 34.66800
H  -1.41200 24.22700 28.51700
H  -2.78800 23.31600 29.05700
H  -2.83700 23.97000 27.38300
H  -1.90800 24.98900 25.54900
H  -0.19000 25.12600 24.99800
H  -0.50100 24.59900 26.70300
H  -0.11500 18.42300 22.57100
H  -1.47300 16.10800 22.63700
H  -1.97900 18.89500 21.25100
H  -2.82800 19.18300 22.74800
H  -3.01500 17.65400 21.92500
H  0.79200 15.86600 22.08600
H  0.80700 15.14300 23.66200
H  2.44200 17.21800 22.81700
H  2.34000 16.35000 24.43500
H  1.46000 17.73000 24.25100
H  -1.34100 12.57500 25.81700
H  -2.54300 11.93300 26.77000
H  -0.80700 11.98800 27.39000
H  -3.06800 14.67800 31.58400
H  -0.75900 13.71400 35.19900
H  0.41000 14.50900 34.33500
H  0.13900 12.87600 33.79400
Mg -1.44600 35.19400 26.83800
C  -3.52500 33.62900 29.10500
C  -0.45800 37.38100 29.40800
C  0.08300 37.19100 24.60700
C  -2.74900 33.33800 24.32600
N  -2.06000 35.55400 28.98700
C  -2.77100 34.67400 29.71600
C  -2.82800 35.20400 31.17100
C  -1.95700 36.50800 31.21500
C  -1.44700 36.50700 29.79200
C  -2.71200 37.78100 31.56200
C  -2.42800 34.16700 32.21300
C  -3.43900 33.56500 33.19000
H  -2.85200 33.06500 34.55100
N  -0.30300 36.94300 27.01200
C  0.03700 37.62300 28.13500
C  1.07700 38.62700 27.85900
C  1.25900 38.61000 26.41900
C  0.28700 37.55100 25.96800
C  1.79000 39.50300 28.83400
C  2.16700 39.47200 25.49800
O  2.32600 39.18700 24.31400
C  3.04200 40.50700 26.08900
N  -1.16600 35.14800 24.79300
C  -0.53800 36.10700 24.04800
C  -0.53200 35.76400 22.54800
C  -1.38400 34.42600 22.54300
C  -1.73700 34.26000 23.97800
C  -1.10900 36.94100 21.61200
C  -0.73700 33.10400 22.06200
C  -1.55500 32.16800 21.13500
N  -2.87500 33.73600 26.70700
C  -3.31300 33.05800 25.59300
C  -4.30800 32.10700 26.00800
C  -4.34800 32.22100 27.41800
C  -3.53400 33.27400 27.76700
C  -5.04800 31.14100 25.12500
C  -4.99100 31.66800 28.60400
O  -5.72600 30.73500 28.72300
C  -4.55700 32.66800 29.72700
C  -5.80800 33.36900 30.08600
O  -6.15700 34.47800 29.70900
O  -6.50700 32.68800 31.05300
C  -7.51400 33.49400 31.74800
H  -0.04900 37.73500 30.35600
H  0.62800 37.70900 23.81400
H  -3.20500 32.66400 23.59800
H  -3.88000 35.35800 31.41300
H  -1.09200 36.43300 31.87400
H  -3.31900 37.56200 32.44000
H  -3.33200 38.19400 30.76700
H  -1.95600 38.44600 31.97900
H  -1.55600 34.58400 32.71800
H  -2.21700 33.26900 31.63200
H  -3.93500 32.66500 32.82500
H  -4.24900 34.23700 33.47500
H  2.86700 39.58600 28.68900
H  1.77800 39.15000 29.86600
H  1.33400 40.49200 28.80100
H  3.73800 40.14000 26.84400
H  2.41700 41.17100 26.68800
H  3.55100 41.14000 25.36200
H  0.42100 35.46800 22.11000
H  -2.28500 34.53400 21.93800
H  -2.18700 36.91500 21.45300
H  -0.58400 37.09700 20.67000
H  -0.94000 37.90900 22.08300
H  -0.38500 32.57800 22.95000
H  0.24100 33.29500 21.62000
H  -2.60600 32.43600 21.02700
H  -1.55200 31.18800 21.61200
H  -1.11200 32.14100 20.14000
H  -4.44100 30.50800 24.47900
H  -5.61700 31.74700 24.41900
H  -5.78600 30.58700 25.70500
H  -4.18500 32.17700 30.62500
H  -8.21000 33.95100 31.04500
H  -6.99500 34.25700 32.32900
H  -7.99700 32.75000 32.38100

