158

Mg 0.70400 8.49000 26.18000
C  1.51300 10.23000 29.15600
C  1.18100 5.55700 27.96200
C  0.70300 6.78900 23.23400
C  1.15800 11.38000 24.39100
N  1.21400 8.00000 28.31400
C  1.40700 8.87700 29.36100
C  1.43300 8.11000 30.67200
C  1.51900 6.65600 30.29400
C  1.25900 6.72600 28.77100
C  2.87300 5.83200 30.65300
C  0.23600 8.51600 31.62300
C  0.36600 8.50800 33.26800
H  1.69100 7.95300 33.78400
N  0.83500 6.43600 25.68300
C  0.98700 5.40300 26.58600
C  0.93700 4.14500 25.87800
C  0.84100 4.52800 24.46400
C  0.74300 5.97600 24.37800
C  0.99400 2.80200 26.52700
C  0.88800 3.65500 23.20100
O  0.66300 4.14200 22.10900
C  1.39200 2.26300 23.31100
N  0.70000 8.95400 24.19800
C  0.76200 8.16100 23.17300
C  1.14300 8.89800 21.96700
C  0.49100 10.22400 22.28100
C  0.75300 10.20000 23.71800
C  2.68700 8.96700 21.71700
C  -1.04100 10.39500 22.04800
C  -1.49900 11.67800 21.46600
N  1.15800 10.46300 26.63800
C  1.41800 11.52700 25.78800
C  1.80200 12.72200 26.58200
C  1.76900 12.21300 27.93500
C  1.36700 10.86500 27.91200
C  2.09600 14.13900 26.08300
C  2.05900 12.61200 29.31700
O  2.50200 13.65300 29.75700
C  1.80500 11.27600 30.14400
C  2.88900 11.09100 31.13800
O  4.03200 10.71600 30.89600
O  2.50900 11.57200 32.35400
C  3.52800 11.41300 33.46000
H  1.28500 4.65500 28.56800
H  0.74200 6.39600 22.21600
H  1.45200 12.13200 23.65600
H  2.34800 8.24800 31.24700
H  0.64800 6.08300 30.61000
H  2.50500 4.80800 30.72100
H  3.33800 6.18800 31.57300
H  3.61300 5.97700 29.86600
H  -0.58400 7.84100 31.37600
H  -0.05800 9.53600 31.37500
H  -0.39800 7.88600 33.73500
H  0.23700 9.48000 33.74500
H  0.66800 2.71400 27.56400
H  1.95300 2.31000 26.36700
H  0.21700 2.27100 25.97700
H  1.69700 1.99800 22.29800
H  0.73600 1.53200 23.78300
H  2.24000 2.18200 23.99100
H  0.65900 8.41500 21.11800
H  0.94100 10.95000 21.60400
H  3.08900 9.97800 21.65600
H  3.04300 8.49700 20.80000
H  3.19400 8.46000 22.53800
H  -1.62600 10.23700 22.95400
H  -1.39200 9.74200 21.24900
H  -0.75000 12.45800 21.33800
H  -2.15000 12.20100 22.16700
H  -2.11800 11.58100 20.57300
H  1.21000 14.57700 25.62300
H  3.03800 14.25600 25.54600
H  2.34000 14.76000 26.94500
H  0.94600 11.44700 30.79200
H  3.68800 12.39100 33.91300
H  4.41400 10.80400 33.28200
H  2.96800 10.99500 34.29700
Mg -4.95000 25.41900 26.16100
C  -3.84100 26.86400 29.21200
C  -6.86700 23.21200 28.01200
C  -5.57900 23.90200 23.23600
C  -2.69400 27.60100 24.50500
N  -5.22300 25.02200 28.30600
C  -4.77200 25.78700 29.34200
C  -5.37500 25.34700 30.63600
C  -6.06200 24.02400 30.31100
C  -6.04200 24.05400 28.75300
C  -5.27400 22.81800 30.89800
C  -6.40200 26.40500 31.20500
C  -6.39700 26.53900 32.76800
H  -5.84500 25.43300 33.62400
N  -6.24000 23.88500 25.65100
C  -6.92200 23.09400 26.60000
C  -7.57100 21.99800 25.86700
C  -7.20600 22.16000 24.46600
C  -6.30500 23.34200 24.35400
C  -8.56400 21.02600 26.52900
C  -7.56900 21.27500 23.30700
O  -7.13400 21.40000 22.17500
C  -8.50600 20.24800 23.50700
N  -4.27700 25.69800 24.24600
C  -4.65800 24.86100 23.23400
C  -3.89900 25.22100 21.97200
C  -3.28000 26.61800 22.33000
C  -3.42600 26.63500 23.78500
C  -2.92500 24.24600 21.40900
C  -3.89200 27.91600 21.70300
C  -3.58800 28.19500 20.22100
N  -3.50500 26.87000 26.68000
C  -2.69700 27.73800 25.89900
C  -1.99700 28.55700 26.73600
C  -2.37500 28.32800 28.06900
C  -3.23600 27.26500 27.96000
C  -0.84300 29.49300 26.27200
C  -2.23600 28.70300 29.46500
O  -1.57100 29.61800 29.93900
C  -3.24900 27.77000 30.30900
C  -2.46000 27.03200 31.31500
O  -1.94900 25.93000 31.16900
O  -2.31500 27.81500 32.41800
C  -1.70600 27.27400 33.62900
H  -7.33900 22.40100 28.57000
H  -5.69000 23.36900 22.28900
H  -1.98600 28.15900 23.88900
H  -4.58800 25.27500 31.38700
H  -7.05400 24.18700 30.73300
H  -4.27500 23.13600 31.19500
H  -5.10300 22.08400 30.11000
H  -5.74800 22.41700 31.79400
H  -7.44900 26.20900 30.97800
H  -6.16400 27.33500 30.68800
H  -7.38100 26.73100 33.19700
H  -5.95700 27.51400 32.97700
H  -9.51100 21.08600 25.99300
H  -8.64600 21.11300 27.61300
H  -8.15300 20.04700 26.28500
H  -9.51200 20.61100 23.71700
H  -8.03800 19.54600 24.19700
H  -8.59400 19.66200 22.59200
H  -4.63200 25.35200 21.17600
H  -2.22600 26.56300 22.06000
H  -2.09700 24.74300 20.90500
H  -3.39000 23.55400 20.70700
H  -2.42200 23.69800 22.20600
H  -3.64900 28.80800 22.28100
H  -4.96000 27.86100 21.91300
H  -3.15700 29.19600 20.25300
H  -4.35800 28.23000 19.45000
H  -2.88600 27.44000 19.86700
H  -0.10500 29.78400 27.02000
H  -1.20400 30.28400 25.61400
H  -0.21600 28.86000 25.64300
H  -4.06500 28.34900 30.74200
H  -0.74400 27.77600 33.73300
H  -1.58100 26.19100 33.62200
H  -2.25200 27.54900 34.53200

