158

Mg 6.11200 53.25300 41.68400
C  5.78600 49.65600 41.56600
C  9.50700 52.59700 40.83200
C  6.42300 56.32200 40.74900
C  2.73200 53.40400 41.97700
N  7.39000 51.32100 40.98500
C  7.06100 50.04700 41.06500
C  8.19700 49.13200 40.78600
C  9.41600 50.05300 41.12800
C  8.72900 51.41000 41.08200
C  10.13400 49.93200 42.49900
C  8.11600 48.55000 39.30100
C  8.07000 49.52200 38.07400
H  6.91600 49.42300 37.11100
N  7.70300 54.33200 40.99300
C  9.03400 53.93500 40.76700
C  9.79800 55.05300 40.41300
C  8.93200 56.18400 40.50800
C  7.59700 55.67000 40.72000
C  11.26900 54.94400 40.14400
C  9.45700 57.63600 40.26700
O  10.60100 57.90500 39.88000
C  8.42900 58.74300 40.28500
N  4.77200 54.61700 41.10200
C  5.09000 55.90700 40.90600
C  3.91600 56.90600 41.11400
C  2.78300 55.88200 41.51000
C  3.44500 54.53900 41.49000
C  4.21500 57.98900 42.16300
C  1.40700 55.97400 40.80700
C  0.68200 57.34800 40.90800
N  4.55500 51.87600 41.93500
C  3.20500 52.10100 42.14400
C  2.56500 50.92200 42.54000
C  3.55600 49.92100 42.35900
C  4.71400 50.57300 41.89400
C  1.09400 50.72900 42.91600
C  3.78700 48.54100 42.46800
O  3.09700 47.64100 42.89200
C  5.20500 48.29000 41.78200
C  4.97300 47.60000 40.58100
O  4.34200 48.05900 39.57600
O  5.38100 46.28300 40.69500
C  5.03800 45.44300 39.51200
H  10.54800 52.30700 40.67800
H  6.38800 57.41300 40.72900
H  1.65200 53.49800 42.10600
H  8.03500 48.31300 41.48600
H  10.19400 50.04500 40.36400
H  9.94200 50.76800 43.17100
H  11.21400 49.86600 42.36800
H  9.75900 49.09400 43.08800
H  7.29600 47.83500 39.24200
H  8.91100 47.83500 39.09100
H  8.95700 49.14200 37.56700
H  8.40600 50.50400 38.40600
H  11.48300 54.07800 39.51800
H  11.81600 54.87100 41.08400
H  11.68500 55.81200 39.63300
H  7.59200 58.50300 39.62900
H  8.84500 59.74600 40.18900
H  8.26100 58.71500 41.36100
H  3.68800 57.44900 40.19600
H  2.67300 56.10800 42.57100
H  3.34600 58.28400 42.75000
H  4.41500 58.85300 41.53000
H  5.09200 57.66900 42.72700
H  0.76400 55.24500 41.30000
H  1.61600 55.69400 39.77500
H  0.92800 57.99300 41.75200
H  -0.40200 57.26900 40.99600
H  0.92700 57.84700 39.97100
H  0.54100 51.46400 42.33100
H  1.00400 50.76200 44.00200
H  0.67200 49.78000 42.58300
H  5.87300 47.78600 42.48100
H  3.95500 45.46100 39.38700
H  5.31400 44.40400 39.69000
H  5.40300 45.79600 38.54700
Mg -6.33400 25.75600 25.70800
C  -4.74700 27.36500 28.54300
C  -7.75800 23.56300 27.89700
C  -7.27600 24.11100 23.11900
C  -4.26100 27.91100 23.71300
N  -6.13700 25.45500 27.85700
C  -5.50600 26.28600 28.85400
C  -5.95700 25.82700 30.25400
C  -6.61000 24.38700 30.05700
C  -6.89300 24.48800 28.50400
C  -5.64200 23.18300 30.43200
C  -7.04100 26.81400 30.84600
C  -7.04000 27.11000 32.38000
H  -6.81800 25.82400 33.22100
N  -7.37800 23.99500 25.57900
C  -7.89100 23.23200 26.59100
C  -8.78100 22.33400 26.06800
C  -8.71300 22.47000 24.59600
C  -7.78500 23.58500 24.35200
C  -9.50000 21.36600 27.02000
C  -9.43900 21.55200 23.58400
O  -9.17000 21.75600 22.43500
C  -10.35100 20.47500 23.95400
N  -5.78600 25.99200 23.72800
C  -6.41000 25.10300 22.83500
C  -6.12100 25.53500 21.40400
C  -5.28700 26.85900 21.58700
C  -5.09400 26.97300 23.12000
C  -5.30600 24.29800 20.72100
C  -6.08700 28.13900 21.16600
C  -5.61100 28.87200 19.90400
N  -4.87900 27.44700 25.97900
C  -4.15700 28.18500 25.10100
C  -3.32300 29.14400 25.77700
C  -3.48800 28.84000 27.17400
C  -4.43900 27.78400 27.20000
C  -2.41300 30.23100 25.20100
C  -3.05100 29.14200 28.59900
O  -2.23100 29.88500 29.04600
C  -3.99100 28.25100 29.46400
C  -3.11400 27.44100 30.33700
O  -2.18700 26.69900 30.00300
O  -3.49200 27.59400 31.62000
C  -2.66200 26.91900 32.63300
H  -8.20500 23.01400 28.72900
H  -7.60700 23.52200 22.26100
H  -3.61400 28.50400 23.06300
H  -5.13300 25.71900 30.95900
H  -7.55500 24.27700 30.59000
H  -4.69200 23.57100 30.80100
H  -5.45200 22.65100 29.50000
H  -6.10900 22.45400 31.09500
H  -8.02600 26.36100 30.74000
H  -6.93900 27.78800 30.36600
H  -7.94600 27.67400 32.59900
H  -6.28100 27.88900 32.45000
H  -10.28700 21.92800 27.52200
H  -8.82600 21.04700 27.81600
H  -9.82900 20.40600 26.62300
H  -11.27300 20.79400 24.44100
H  -9.89300 19.57200 24.35800
H  -10.77900 20.21100 22.98700
H  -7.02500 25.73000 20.82500
H  -4.30500 26.77300 21.12200
H  -5.78200 24.26400 19.74100
H  -5.49200 23.36400 21.25100
H  -4.23000 24.38100 20.56700
H  -5.99900 28.95500 21.88400
H  -7.15100 27.99300 20.97700
H  -6.42000 29.49400 19.52100
H  -5.45100 28.17800 19.07900
H  -4.73000 29.49400 20.06800
H  -2.80800 30.58500 24.24900
H  -1.47300 29.74400 24.94400
H  -2.33800 31.03300 25.93600
H  -4.66800 28.85100 30.07000
H  -3.02500 27.09200 33.64600
H  -1.60600 27.18600 32.57600
H  -2.72300 25.86200 32.37400

