158

Mg 44.62600 5.16500 47.74800
C  42.68800 8.16500 47.15600
C  41.81300 3.33600 47.53300
C  46.59000 2.43000 47.85600
C  47.49300 7.23900 47.97700
N  42.53800 5.72700 47.32100
C  41.94600 6.93800 47.03100
C  40.49700 6.80100 46.66400
C  40.23600 5.45300 47.39000
C  41.60900 4.73900 47.36500
C  39.57600 5.53900 48.76800
C  40.31700 6.69400 45.12300
C  40.10200 8.04200 44.39700
H  39.08500 7.92800 43.21200
N  44.28800 3.12200 47.61900
C  43.03800 2.59700 47.55800
C  43.13100 1.09800 47.69700
C  44.50900 0.85300 47.71500
C  45.18400 2.18100 47.76700
C  41.98900 0.03100 47.53600
C  45.03400 -0.56000 47.75000
O  44.36200 -1.60700 47.70500
C  46.53700 -0.87700 47.80300
N  46.72400 4.91500 47.66600
C  47.22800 3.63700 47.86500
C  48.76300 3.65900 48.20800
C  49.05000 5.22200 48.24900
C  47.67100 5.82700 47.94500
C  49.26600 2.93600 49.39100
C  50.13900 5.64200 47.32300
C  51.04400 6.71900 47.97100
N  45.03100 7.29200 47.48600
C  46.23900 7.95400 47.76000
C  46.00700 9.35900 47.79800
C  44.56100 9.50300 47.69000
C  44.07800 8.19300 47.38100
C  47.09700 10.38500 48.03500
C  43.46600 10.46400 47.74300
O  43.37900 11.61600 48.15100
C  42.21900 9.58900 47.20600
C  41.17200 9.70900 48.30300
O  41.07000 9.15000 49.36700
O  40.20600 10.58500 47.85700
C  39.02800 10.76100 48.71200
H  40.85400 2.81900 47.59700
H  47.22300 1.57800 48.11700
H  48.40000 7.81600 48.16900
H  39.87800 7.63500 46.99600
H  39.59600 4.83000 46.76500
H  40.18400 5.04800 49.52700
H  38.64400 4.97300 48.77300
H  39.43700 6.56500 49.11000
H  39.65100 5.89400 44.79800
H  41.32000 6.43200 44.78600
H  41.06800 8.35200 43.99900
H  39.76700 8.79100 45.11300
H  41.99900 -0.70600 46.73400
H  41.08900 0.63100 47.40000
H  41.80800 -0.48900 48.47700
H  46.56600 -1.96500 47.87100
H  47.10700 -0.29600 48.52700
H  46.93900 -0.62800 46.82100
H  49.39600 3.25700 47.41700
H  49.20500 5.55300 49.27600
H  49.82600 2.04700 49.10100
H  48.43200 2.65400 50.03300
H  49.92400 3.52600 50.03000
H  49.76100 6.03700 46.38000
H  50.81800 4.82500 47.07700
H  52.08500 6.54400 47.70000
H  51.03500 6.73000 49.06100
H  50.82700 7.69800 47.54300
H  47.72600 9.93300 48.80200
H  46.62700 11.31600 48.35300
H  47.70400 10.59300 47.15400
H  41.93500 9.94500 46.21600
H  39.06600 11.73400 49.20200
H  38.84400 9.97900 49.44800
H  38.10800 10.70200 48.13000
Mg -13.77000 16.64400 42.14700
C  -10.72700 15.01200 41.34400
C  -12.42100 19.43900 40.59100
C  -16.79500 17.92400 41.96500
C  -15.06200 13.59000 42.90100
N  -11.66200 17.18700 41.17400
C  -10.64100 16.37700 40.97900
C  -9.48200 17.17200 40.38600
C  -9.93600 18.62400 40.51200
C  -11.46600 18.40500 40.73600
C  -9.18400 19.48600 41.60300
C  -9.07900 16.69600 38.94100
C  -7.62200 16.12000 38.76400
H  -6.82400 16.47700 37.46000
N  -14.50300 18.47500 41.50200
C  -13.80800 19.50800 40.90500
C  -14.64600 20.60300 40.64300
C  -15.88900 20.25200 41.14800
C  -15.77400 18.83400 41.59700
C  -14.31200 21.94800 40.03200
C  -17.15100 21.14300 41.24800
O  -17.23600 22.22700 40.71900
C  -18.22300 20.81600 42.29300
N  -15.67100 15.91900 42.43900
C  -16.77700 16.62500 42.40300
C  -17.99600 15.80800 42.63200
C  -17.36700 14.49700 43.17500
C  -15.93200 14.64800 42.82400
C  -19.09300 16.42100 43.54000
C  -17.97000 13.15400 42.70400
C  -18.34700 12.14000 43.75200
N  -13.02500 14.64700 42.27800
C  -13.69300 13.49500 42.54800
C  -12.79700 12.39000 42.51300
C  -11.56600 12.96600 42.00300
C  -11.81500 14.31700 41.89700
C  -12.94100 10.95500 42.88900
C  -10.17100 12.68600 41.74600
O  -9.66200 11.59600 41.85800
C  -9.57500 14.00300 41.15900
C  -8.51900 14.36300 42.13300
O  -8.69300 14.90400 43.22300
O  -7.30700 14.30600 41.57000
C  -6.16700 14.94400 42.28500
H  -12.07500 20.32600 40.05800
H  -17.75100 18.44500 41.89100
H  -15.49500 12.60100 43.06600
H  -8.60400 17.01900 41.01200
H  -9.79300 19.14800 39.56700
H  -8.40300 18.81200 41.95700
H  -9.96300 19.81000 42.29200
H  -8.71100 20.36300 41.16200
H  -9.29200 17.38400 38.12300
H  -9.71000 15.83000 38.74000
H  -7.79300 15.04300 38.77500
H  -7.07400 16.42000 39.65700
H  -14.36600 22.74700 40.77200
H  -15.00800 22.18100 39.22700
H  -13.25700 22.02100 39.76400
H  -18.96100 20.27700 41.69900
H  -18.57000 21.76400 42.70400
H  -17.90500 20.22900 43.15400
H  -18.46900 15.50900 41.69600
H  -17.46100 14.59300 44.25700
H  -19.36700 15.80700 44.39700
H  -19.92100 16.58700 42.85100
H  -18.81700 17.37100 43.99800
H  -17.42200 12.70300 41.87700
H  -18.80000 13.43600 42.05700
H  -18.56500 11.12800 43.41200
H  -19.28500 12.58100 44.09000
H  -17.73300 12.16700 44.65200
H  -11.92600 10.57200 42.98600
H  -13.32700 10.29400 42.11400
H  -13.47800 10.92600 43.83700
H  -9.25700 13.82000 40.13300
H  -5.47900 15.15000 41.46500
H  -5.83200 14.15700 42.96000
H  -6.56000 15.83800 42.76900

