158

Mg 35.80300 1.77100 29.03200
C  33.47200 2.90100 31.44800
C  38.24400 1.95700 31.31400
C  37.90400 1.30600 26.49100
C  33.07500 2.05500 26.66200
N  35.81000 2.52300 31.07400
C  34.78600 2.67400 31.94500
C  35.24300 2.80600 33.47300
C  36.83800 2.70600 33.33600
C  36.99000 2.29500 31.85300
C  37.65600 3.91600 33.78500
C  34.62300 1.75100 34.35600
C  34.24200 2.38400 35.76600
H  35.05800 3.58700 36.31900
N  37.75600 1.59100 28.90400
C  38.63300 1.60900 29.98800
C  40.02700 1.25200 29.49800
C  39.91100 1.03000 28.09300
C  38.48800 1.34700 27.80400
C  41.17700 0.95000 30.48800
C  41.15100 0.68700 27.15500
O  41.01600 0.56200 25.96600
C  42.50100 0.45000 27.71100
N  35.53400 1.70500 26.89100
C  36.59200 1.62200 26.07400
C  36.14100 1.79200 24.62700
C  34.55700 1.71300 24.60800
C  34.38000 1.76300 26.13800
C  36.67200 3.12900 24.04700
C  33.94300 0.49200 23.92100
C  34.04100 0.49900 22.36500
N  33.78400 2.30600 29.01000
C  32.86800 2.40500 27.99900
C  31.55900 2.87000 28.46600
C  31.79600 3.06900 29.84900
C  33.15500 2.78700 30.06600
C  30.28200 3.06800 27.77200
C  31.13400 3.46000 31.12500
O  29.93400 3.60200 31.40600
C  32.21900 3.38000 32.18800
C  32.34500 4.70200 32.85400
O  33.11000 5.62800 32.54300
O  31.53900 4.78200 33.98900
C  31.68700 5.94900 34.90100
H  39.07600 2.01700 32.01900
H  38.63500 1.03200 25.72800
H  32.25000 2.10700 25.94800
H  34.88400 3.78900 33.77500
H  37.17900 1.80900 33.85300
H  38.20300 4.46400 33.01800
H  38.46800 3.57500 34.42700
H  37.02500 4.60900 34.34100
H  35.33200 0.93100 34.47200
H  33.65000 1.50100 33.93500
H  34.27500 1.58300 36.50400
H  33.18000 2.62900 35.73400
H  40.78100 0.81200 31.49400
H  41.81900 1.82800 30.55800
H  41.72500 0.03800 30.24900
H  43.09200 0.39500 26.79800
H  42.49700 -0.54300 28.16200
H  42.82400 1.25900 28.36700
H  36.52100 0.95400 24.04200
H  34.15300 2.61200 24.14300
H  37.45600 3.63000 24.61400
H  35.92000 3.81600 23.65800
H  36.96900 2.83900 23.03900
H  32.95100 0.27900 24.32000
H  34.55400 -0.30400 24.34500
H  34.94900 -0.01000 22.04100
H  34.10200 1.50400 21.94800
H  33.20800 -0.03900 21.91200
H  29.69600 2.14900 27.74500
H  30.58800 3.43100 26.79100
H  29.67100 3.88200 28.16300
H  31.97700 2.59100 32.90000
H  30.83400 6.62300 34.81900
H  32.61900 6.48500 34.72100
H  31.59500 5.69900 35.95800
Mg 53.92200 24.98600 44.55600
C  51.27700 27.02000 43.39800
C  52.21800 22.26000 42.96200
C  56.71000 23.17500 44.83500
C  55.37000 27.69800 45.88800
N  52.11000 24.72200 43.21000
C  51.21100 25.71600 42.88700
C  49.93100 25.17100 42.10600
C  50.09500 23.61200 42.43000
C  51.60600 23.52500 42.87900
C  49.10200 22.95500 43.50100
C  49.86100 25.33400 40.61000
C  51.21300 25.40900 39.80800
H  51.25000 26.37300 38.65600
N  54.44600 23.01900 43.88800
C  53.56300 22.07900 43.33900
C  54.34600 20.87800 43.13400
C  55.60800 21.06900 43.73900
C  55.66600 22.44800 44.21200
C  53.81000 19.71600 42.35400
C  56.64000 19.99000 43.83200
O  56.31300 18.90000 43.41100
C  58.02800 20.18800 44.35100
N  55.98000 25.48600 44.87600
C  56.95300 24.56800 45.09000
C  58.18400 25.18800 45.63200
C  57.73800 26.57700 46.11600
C  56.25100 26.57200 45.67600
C  58.84900 24.45800 46.86100
C  58.44600 27.86200 45.53800
C  59.91100 28.05300 46.00800
N  53.41800 26.91600 44.83300
C  54.07500 27.91600 45.43100
C  53.24200 29.08900 45.55900
C  52.13100 28.79600 44.77400
C  52.30900 27.45700 44.27000
C  53.37600 30.24900 46.50000
C  50.82100 29.27100 44.29000
O  50.20500 30.29900 44.46900
C  50.18000 28.10400 43.45900
C  49.76300 28.60500 42.14600
O  50.50100 29.29400 41.46600
O  48.39700 28.52800 42.00300
C  47.90100 29.42800 41.01300
H  51.63600 21.39300 42.63800
H  57.55800 22.49800 44.96200
H  55.67300 28.54300 46.50800
H  49.04700 25.51500 42.64100
H  49.95200 22.98800 41.54800
H  48.48600 23.78000 43.86100
H  49.57900 22.53100 44.38400
H  48.45400 22.28300 42.93800
H  49.23800 26.19200 40.35900
H  49.46300 24.48500 40.05500
H  51.46000 24.40900 39.45100
H  52.00400 25.63700 40.52300
H  53.56400 18.88200 43.01100
H  54.33700 19.47400 41.43100
H  52.82000 19.93100 41.95200
H  58.56500 19.24800 44.21800
H  58.13100 20.44000 45.40600
H  58.39300 21.01700 43.74500
H  58.86400 25.31900 44.79000
H  57.72000 26.65700 47.20300
H  58.07200 23.72600 47.07900
H  59.00100 25.04500 47.76700
H  59.68500 23.80000 46.62200
H  57.94400 28.75200 45.91700
H  58.40900 27.86700 44.44900
H  60.52400 27.58800 45.23700
H  60.10500 27.40200 46.86000
H  60.26400 29.07800 46.11700
H  53.77300 31.17700 46.08700
H  53.91900 29.90800 47.38100
H  52.34900 30.45600 46.80000
H  49.30300 27.76400 44.00900
H  48.16600 29.12100 40.00100
H  48.26600 30.44600 41.15000
H  46.81300 29.41500 40.95000

