158

Mg 47.03000 26.04700 28.93900
C  48.26800 27.95300 31.67000
C  45.93000 23.71900 31.38300
C  46.55700 23.83200 26.46600
C  48.49400 28.30400 26.68000
N  47.03100 25.93000 31.24500
C  47.54800 26.84400 32.07200
C  47.18500 26.48400 33.49400
C  46.75900 25.02300 33.45000
C  46.62900 24.78000 31.91600
C  47.74600 24.00100 34.07600
C  45.97300 27.39500 34.04700
C  45.92100 27.92300 35.48500
H  46.51100 27.09900 36.63000
N  46.30100 24.15900 28.92700
C  45.80500 23.45600 29.98000
C  45.18600 22.26000 29.48900
C  45.36700 22.22200 28.07100
C  46.13000 23.47000 27.74400
C  44.56400 21.19800 30.38000
C  44.83300 21.18700 27.06900
O  45.06800 21.28900 25.86900
C  44.13800 19.89100 27.53600
N  47.67800 26.06500 26.85000
C  47.15100 25.07500 26.06900
C  47.43700 25.43500 24.57000
C  47.89100 26.91500 24.61400
C  48.01900 27.13000 26.12300
C  48.45400 24.47400 23.80000
C  47.12700 27.94800 23.76300
C  47.33700 27.74000 22.28600
N  47.91400 27.93600 29.10900
C  48.50600 28.71300 28.10200
C  49.10600 29.89700 28.67400
C  48.89300 29.68600 30.10200
C  48.27700 28.43200 30.28400
C  49.89200 30.99100 28.00200
C  49.16200 30.23500 31.44000
O  49.68600 31.31300 31.74000
C  48.75000 29.13700 32.47000
C  49.86900 28.70900 33.31800
O  50.92500 28.30300 32.94400
O  49.54100 29.03700 34.62200
C  50.58200 28.76400 35.70300
H  45.68700 22.99500 32.16300
H  46.58500 23.09700 25.65800
H  48.88800 28.93500 25.88100
H  47.99000 26.76400 34.17300
H  45.75000 24.97100 33.86000
H  48.22700 24.50000 34.91700
H  48.42300 23.66600 33.29000
H  47.18500 23.11800 34.38200
H  45.04500 26.85300 33.86500
H  45.89400 28.26500 33.39500
H  44.88700 28.02100 35.81800
H  46.50400 28.83000 35.64500
H  44.43800 21.60300 31.38400
H  45.25200 20.36200 30.51200
H  43.65400 20.81800 29.91500
H  44.57700 19.51800 28.46200
H  44.39300 19.01900 26.93300
H  43.06100 20.05600 27.51500
H  46.39800 25.35600 24.25200
H  48.91600 27.00400 24.25400
H  49.16600 23.99900 24.47400
H  48.85800 25.03200 22.95500
H  47.74000 23.68500 23.56400
H  47.51300 28.94300 23.98400
H  46.09200 27.81200 24.07800
H  46.38200 27.45700 21.84300
H  47.94800 26.86000 22.08900
H  47.71200 28.56600 21.68000
H  49.94300 30.67500 26.96000
H  50.87600 31.01800 28.46900
H  49.41700 31.95300 28.19400
H  47.96900 29.52300 33.12400
H  50.00600 28.59200 36.61200
H  51.14200 29.69800 35.75100
H  51.06500 27.87600 35.29600
Mg 30.13600 57.63600 40.90300
C  27.13800 56.14400 39.91200
C  31.83200 55.14000 39.26300
C  32.71500 59.67000 40.63700
C  28.20700 60.26200 42.16100
N  29.61400 55.87500 39.70000
C  28.26300 55.47600 39.36800
C  28.31100 54.26400 38.44600
C  29.83700 53.76300 38.61000
C  30.48600 54.96300 39.23100
C  30.09300 52.62000 39.59100
C  27.88200 54.68900 37.00800
C  26.70500 53.84700 36.51400
H  26.48600 53.88900 35.00300
N  32.02100 57.38400 40.09700
C  32.61600 56.24700 39.57300
C  33.99700 56.41800 39.55900
C  34.27700 57.79300 39.97900
C  32.95900 58.34300 40.33500
C  34.93200 55.45700 38.99200
C  35.66000 58.40200 39.87600
O  36.59700 57.71700 39.59300
C  35.93900 59.91100 40.12100
N  30.39500 59.76300 41.17600
C  31.52700 60.38300 41.00200
C  31.45900 61.89900 41.42600
C  30.16900 61.95400 42.22800
C  29.51600 60.61500 41.79900
C  32.63300 62.42600 42.22500
C  29.29800 63.17300 41.71000
C  28.31700 63.77900 42.66900
N  28.08100 58.10300 41.21600
C  27.43700 59.15900 41.83100
C  26.02300 58.98100 41.77600
C  25.87200 57.78400 41.08200
C  27.15400 57.32100 40.71400
C  24.98000 59.87100 42.37800
C  24.87800 56.81300 40.60300
O  23.69700 56.78300 40.87400
C  25.72500 55.67900 39.80800
C  25.34000 54.37100 40.34800
O  25.82800 53.81700 41.32300
O  24.39200 53.81500 39.52900
C  23.94800 52.47800 39.90000
H  32.36200 54.26400 38.88300
H  33.57200 60.32200 40.46100
H  27.68400 61.03100 42.73300
H  27.63600 53.47800 38.78600
H  30.25700 53.63700 37.61200
H  30.63400 51.84200 39.05200
H  29.24800 52.03100 39.94600
H  30.75500 52.83400 40.43000
H  28.71500 54.42100 36.35800
H  27.69200 55.75800 36.91400
H  25.86000 54.28700 37.04300
H  26.98500 52.82200 36.75900
H  35.49000 55.77500 38.11100
H  34.46300 54.48800 38.82000
H  35.69300 55.29600 39.75600
H  35.55700 60.24400 41.08600
H  35.34200 60.41000 39.35800
H  36.94300 60.30800 39.97200
H  31.33200 62.50600 40.53000
H  30.09300 61.88400 43.31300
H  33.47900 61.78300 41.98500
H  32.36200 62.55100 43.27300
H  32.83100 63.37100 41.71900
H  28.71900 62.89700 40.82800
H  30.01200 63.93400 41.39800
H  28.46200 63.49700 43.71200
H  27.30800 63.60300 42.29700
H  28.45900 64.85900 42.65700
H  24.90800 60.86900 41.94500
H  25.24900 59.93700 43.43200
H  24.03000 59.39800 42.13100
H  25.45800 55.42400 38.78200
H  24.34800 51.78900 39.15500
H  22.85900 52.51700 39.90100
H  24.15000 52.07300 40.89200

