158

Mg 7.87400 2.20200 27.87100
C  9.72700 0.83800 30.60200
C  6.11700 4.14300 30.05500
C  6.23300 3.44400 25.14300
C  9.40300 -0.31800 25.78900
N  7.94600 2.44400 30.04500
C  8.85000 1.94400 30.91300
C  8.70900 2.54400 32.28200
C  7.34400 3.32900 32.18800
C  7.04800 3.25700 30.62800
C  6.17700 2.68500 33.01800
C  9.89400 3.42400 32.68500
C  10.34500 3.05400 34.14300
H  10.35500 4.25200 35.09100
N  6.37000 3.66400 27.65200
C  5.80200 4.37100 28.67200
C  4.99900 5.42100 28.13100
C  4.88300 5.07100 26.75800
C  5.87500 4.04400 26.42500
C  4.18800 6.36000 28.98200
C  3.91000 5.67900 25.69100
O  3.90400 5.39800 24.51200
C  2.95800 6.71900 26.17400
N  7.75300 1.57600 25.76500
C  7.07800 2.42800 24.84000
C  7.37800 1.84100 23.48000
C  8.53000 0.81000 23.64600
C  8.54800 0.67600 25.16900
C  6.06400 1.28600 22.77300
C  9.93200 1.26700 23.23100
C  10.83400 0.18200 22.60700
N  9.20300 0.54300 28.07400
C  9.79100 -0.35800 27.17300
C  10.60400 -1.29000 27.90800
C  10.78200 -0.83400 29.23900
C  9.83200 0.25800 29.29900
C  11.22800 -2.40700 27.32000
C  11.42600 -0.92100 30.52100
O  12.39600 -1.65000 30.77900
C  10.81200 0.13500 31.47400
C  10.30000 -0.51200 32.63900
O  9.19800 -1.03900 32.58400
O  10.97100 -0.13200 33.73300
C  10.44700 -0.54800 35.08000
H  5.52500 4.71000 30.77800
H  5.82900 3.96700 24.27400
H  9.94500 -0.99000 25.11900
H  8.57100 1.84200 33.10400
H  7.47000 4.33400 32.59200
H  6.61500 1.90300 33.63900
H  5.49000 2.13600 32.37400
H  5.67200 3.43900 33.62100
H  9.76000 4.50200 32.59900
H  10.71200 3.17900 32.00700
H  11.38700 2.78800 33.96800
H  9.79700 2.26100 34.65200
H  3.15000 6.06400 29.13400
H  4.21800 7.39800 28.64900
H  4.59600 6.34700 29.99200
H  2.32700 6.97200 25.32200
H  3.55200 7.61000 26.37700
H  2.44600 6.34000 27.05800
H  7.72100 2.71800 22.93000
H  8.31900 -0.20300 23.30200
H  6.00900 0.20700 22.91600
H  5.97700 1.56900 21.72400
H  5.13400 1.62400 23.23100
H  10.40900 1.79500 24.05700
H  9.80500 1.98500 22.42100
H  11.34100 0.59900 21.73700
H  10.29700 -0.72000 22.31100
H  11.62600 -0.10500 23.29800
H  11.90100 -2.93000 27.99900
H  11.89400 -2.00200 26.55800
H  10.43000 -3.01800 26.89600
H  11.63100 0.83400 31.64100
H  11.25700 -0.95300 35.68800
H  9.74800 -1.38100 35.15800
H  10.00200 0.24200 35.68400
Mg -11.99700 37.68100 42.24900
C  -9.91200 35.02400 41.28200
C  -9.96300 39.97200 40.63500
C  -14.46400 39.97400 42.62700
C  -14.32000 35.25700 43.25000
N  -10.21500 37.45500 41.00700
C  -9.44100 36.31500 40.82600
C  -8.14400 36.57800 40.06000
C  -8.16300 38.17700 39.92200
C  -9.50700 38.62600 40.63700
C  -6.93200 38.99800 40.30500
C  -8.06000 35.79700 38.66700
C  -6.84400 34.95500 38.37200
H  -5.84600 35.52100 37.32900
N  -12.20500 39.70400 41.72200
C  -11.22900 40.49800 41.10600
C  -11.63200 41.86000 41.15800
C  -12.96700 41.91200 41.62900
C  -13.27900 40.49900 41.95500
C  -10.80800 43.04300 40.58800
C  -13.78800 43.19400 41.80500
O  -13.27300 44.23600 41.37500
C  -15.14200 43.14600 42.36400
N  -14.04000 37.59000 42.96700
C  -14.82500 38.67700 43.06300
C  -16.20100 38.37000 43.63200
C  -16.22800 36.83700 43.61600
C  -14.79800 36.51000 43.23500
C  -16.48600 38.98800 45.00200
C  -17.33900 36.33000 42.65900
C  -18.78900 36.43400 43.20800
N  -12.13700 35.54000 42.33100
C  -13.11000 34.75900 42.81300
C  -12.65900 33.36100 42.87500
C  -11.42800 33.40800 42.23500
C  -11.16000 34.77600 41.91000
C  -13.33400 32.09000 43.45500
C  -10.29700 32.63900 41.85700
O  -10.04700 31.46100 41.96700
C  -9.22000 33.72000 41.36100
C  -8.01900 33.67600 42.27000
O  -6.88600 33.29800 41.97900
O  -8.35500 34.01000 43.60800
C  -7.33900 34.08300 44.67000
H  -9.21100 40.70100 40.32500
H  -15.26500 40.70500 42.75500
H  -15.08600 34.50800 43.46100
H  -7.28400 36.39700 40.70500
H  -8.24000 38.38600 38.85500
H  -7.14000 39.82200 40.98900
H  -6.49900 39.45600 39.41600
H  -6.18400 38.29000 40.66100
H  -8.15300 36.42300 37.78000
H  -8.91400 35.12000 38.64800
H  -7.10900 33.91500 38.17900
H  -6.26800 34.95000 39.29800
H  -9.96600 42.64800 40.02100
H  -10.36300 43.75800 41.28000
H  -11.37500 43.61600 39.85400
H  -15.53900 44.14200 42.55900
H  -15.10400 42.79000 43.39300
H  -15.85800 42.60700 41.74300
H  -16.92200 38.79500 42.93400
H  -16.34700 36.46900 44.63500
H  -15.61900 39.53300 45.37400
H  -16.72300 38.25900 45.77700
H  -17.31500 39.68900 44.90500
H  -17.13400 35.31300 42.32500
H  -17.37800 36.86100 41.70800
H  -19.30400 35.47400 43.23900
H  -19.33500 37.26400 42.75900
H  -18.64400 36.56700 44.28000
H  -13.43500 31.33400 42.67700
H  -14.35000 32.31000 43.78200
H  -12.67800 31.71900 44.24300
H  -8.94000 33.44100 40.34500
H  -6.92500 35.08700 44.58600
H  -6.64800 33.24100 44.61500
H  -7.85500 33.89900 45.61200

