158

Mg 47.40400 14.37600 27.41800
C  45.41900 14.27400 30.31400
C  49.61500 16.43200 29.10100
C  49.24600 14.30600 24.64000
C  44.88200 12.54600 25.77100
N  47.50300 15.21900 29.45100
C  46.64100 14.95000 30.53100
C  47.13900 15.65000 31.77500
C  48.24700 16.57600 31.25000
C  48.45600 16.05500 29.80500
C  47.98400 18.16600 31.21100
C  47.54600 14.67300 32.90500
C  47.16200 15.21200 34.28200
H  48.03600 14.83900 35.49500
N  49.19000 15.35400 26.93400
C  49.97100 16.07200 27.79100
C  51.19100 16.43500 27.12600
C  51.14700 15.84000 25.81700
C  49.83400 15.09500 25.72000
C  52.31200 17.23800 27.76700
C  52.07000 15.84500 24.70800
O  51.91500 15.17000 23.66900
C  53.36900 16.65800 24.76000
N  46.93100 13.74600 25.38100
C  47.93500 13.75300 24.46200
C  47.52500 13.13500 23.14000
C  46.15200 12.43100 23.53400
C  45.98700 12.86200 24.99100
C  47.42800 14.08000 21.93100
C  46.21800 10.89600 23.33800
C  46.68600 10.09600 24.55800
N  45.56800 13.57800 27.88100
C  44.63100 12.90500 27.09300
C  43.47900 12.55900 27.91300
C  43.73000 13.07100 29.14900
C  45.01200 13.65600 29.13800
C  42.25400 11.85300 27.57700
C  43.19300 13.29800 30.41700
O  42.12600 13.03200 30.87800
C  44.31500 13.98400 31.34000
C  43.67900 15.15600 32.09100
O  43.06300 16.04100 31.48400
O  43.79500 15.14600 33.43600
C  42.97300 16.19100 34.09400
H  50.24900 17.17600 29.58800
H  49.76900 14.18600 23.69000
H  44.22400 11.88200 25.20800
H  46.29500 16.32700 31.91100
H  49.22900 16.32000 31.64600
H  47.20700 18.50300 31.89700
H  47.65600 18.49000 30.22400
H  48.85800 18.80700 31.32100
H  48.61600 14.48000 32.82900
H  47.00800 13.73200 32.79300
H  46.19900 14.75400 34.50800
H  47.05200 16.29300 34.37100
H  52.33200 17.25700 28.85600
H  52.12700 18.29600 27.57900
H  53.34100 17.02300 27.47700
H  54.14900 16.09700 25.27600
H  53.24500 17.65900 25.17100
H  53.69300 16.83000 23.73400
H  48.28000 12.40500 22.85000
H  45.30800 12.82500 22.96700
H  47.87500 15.03700 22.19900
H  46.38300 14.14600 21.62600
H  48.02600 13.66000 21.12200
H  46.88800 10.54800 22.55300
H  45.20500 10.58600 23.08000
H  47.16200 9.15800 24.27100
H  45.83100 9.59900 25.01600
H  47.41600 10.58200 25.20600
H  42.04000 12.10800 26.53900
H  41.47800 12.29000 28.20600
H  42.24500 10.78900 27.81200
H  44.65000 13.28500 32.10600
H  41.99600 16.17300 33.61100
H  43.56200 17.10700 34.06000
H  42.88900 15.93400 35.15000
Mg 9.29600 47.86600 27.42300
C  7.52000 47.44700 30.35100
C  12.10900 48.49700 29.28800
C  10.88200 48.53600 24.55400
C  6.18300 47.92600 25.58500
N  9.69300 48.13600 29.57700
C  8.87900 47.66100 30.58500
C  9.55900 47.98700 31.93400
C  11.07600 48.09000 31.57400
C  10.94500 48.20700 30.07100
C  11.68000 49.31700 32.26300
C  9.26800 46.92400 32.99600
C  10.33000 46.49300 34.06700
H  9.83800 45.80200 35.35300
N  11.24900 48.54300 26.96600
C  12.27000 48.68800 27.88100
C  13.46500 48.97500 27.20100
C  13.22200 48.90200 25.80400
C  11.75900 48.69500 25.73800
C  14.87500 49.08600 27.85800
C  14.16200 49.01600 24.60600
O  13.80300 48.95700 23.44800
C  15.60700 49.06500 24.89000
N  8.57400 48.14600 25.33000
C  9.52300 48.38700 24.35900
C  8.79000 48.59800 22.98100
C  7.29100 48.33800 23.29600
C  7.33800 48.06800 24.80000
C  9.14700 50.11400 22.49800
C  6.72400 47.18200 22.45600
C  6.66600 47.52600 20.95600
N  7.27400 47.51200 27.83200
C  6.18300 47.62500 26.99700
C  4.97300 47.37900 27.84000
C  5.48200 47.28700 29.13100
C  6.85300 47.38500 29.06800
C  3.51700 47.46400 27.47600
C  5.10500 47.09300 30.48200
O  3.95000 46.89700 30.90700
C  6.42100 47.19800 31.37700
C  6.48700 45.87200 32.11100
O  7.02500 44.86800 31.70300
O  5.66400 46.00500 33.24400
C  5.66500 44.85900 34.19800
H  13.10100 48.54900 29.74000
H  11.48200 48.60900 23.64400
H  5.19200 48.02800 25.13600
H  9.03000 48.90600 32.18500
H  11.56900 47.13000 31.73100
H  12.75200 49.32300 32.46300
H  11.09700 49.43100 33.17700
H  11.53500 50.14100 31.56500
H  9.03700 46.04200 32.39700
H  8.33900 47.23300 33.47500
H  10.70200 47.45900 34.40900
H  11.14100 45.96300 33.56800
H  15.45900 48.24200 27.49300
H  14.93300 49.04600 28.94500
H  15.22400 50.10400 27.68200
H  15.83500 49.88400 25.57200
H  16.09000 49.19900 23.92200
H  15.86300 48.05900 25.22100
H  9.31900 47.94600 22.28600
H  6.82500 49.31500 23.16900
H  9.88800 50.13700 21.69900
H  9.50800 50.70600 23.33900
H  8.23600 50.57800 22.12000
H  5.67500 47.04300 22.71800
H  7.12100 46.21900 22.77900
H  6.84400 46.64300 20.34200
H  7.35500 48.34500 20.74800
H  5.68200 47.81700 20.58700
H  3.11400 48.46100 27.65200
H  2.93400 46.76900 28.08100
H  3.40700 47.27900 26.40800
H  6.36700 48.02500 32.08500
H  5.62300 45.14400 35.24900
H  6.44800 44.10100 34.15800
H  4.64200 44.51100 34.05100

