158

Mg -1.65400 16.96900 27.02900
C  -2.08600 14.79100 29.85100
C  -2.48400 19.59800 29.20500
C  -1.67500 19.10200 24.48700
C  -1.98800 14.28900 24.96400
N  -2.34200 17.14500 29.24400
C  -2.30800 16.12900 30.22500
C  -2.67100 16.68100 31.71900
C  -2.89000 18.22500 31.39900
C  -2.57800 18.31900 29.86100
C  -4.30500 18.70300 31.94000
C  -1.56900 16.38300 32.73000
C  -1.50100 17.41000 33.85400
H  -1.13700 16.79100 35.23700
N  -1.86500 18.99100 26.88200
C  -2.16400 19.90300 27.93400
C  -2.12400 21.28000 27.45800
C  -1.76600 21.11100 26.04500
C  -1.75100 19.67800 25.72700
C  -2.21200 22.49900 28.35900
C  -1.43700 22.16700 25.04600
O  -1.27800 21.97900 23.82700
C  -1.10600 23.53000 25.51700
N  -1.73100 16.73800 25.00000
C  -1.81300 17.77500 24.10500
C  -1.88800 17.27600 22.61900
C  -2.16400 15.73800 22.82800
C  -1.95100 15.56100 24.38100
C  -2.94500 17.92000 21.79400
C  -1.15000 14.80700 22.06800
C  0.36000 14.93100 22.64400
N  -1.76400 14.94100 27.28600
C  -1.88700 13.95400 26.32900
C  -1.94700 12.64000 26.97000
C  -1.95200 12.92900 28.36200
C  -1.87700 14.32500 28.45500
C  -2.17500 11.22700 26.30900
C  -2.03300 12.32600 29.62800
O  -2.10900 11.16000 29.96800
C  -2.10400 13.53600 30.63900
C  -0.91500 13.42300 31.53200
O  0.18700 13.92600 31.40200
O  -1.18900 12.57300 32.57700
C  -0.26600 12.48300 33.72600
H  -2.65500 20.45200 29.86300
H  -1.66900 19.82100 23.66500
H  -2.27000 13.40400 24.39000
H  -3.52800 16.14000 32.11900
H  -2.10100 18.82100 31.85700
H  -5.07000 18.85800 31.17900
H  -4.23600 19.59500 32.56300
H  -4.74700 17.92900 32.56700
H  -0.56900 16.35200 32.29900
H  -1.84900 15.41300 33.14000
H  -2.42400 17.98900 33.89200
H  -0.69000 18.09600 33.60800
H  -1.26100 23.02600 28.43700
H  -2.70700 22.38800 29.32300
H  -2.77000 23.24400 27.79100
H  -0.70200 24.14900 24.71600
H  -0.38100 23.51100 26.33000
H  -2.05400 24.03200 25.71300
H  -0.93200 17.49700 22.14300
H  -3.15200 15.40400 22.51400
H  -3.65800 18.40500 22.46000
H  -3.53000 17.18400 21.24300
H  -2.66600 18.60400 20.99300
H  -1.07700 15.04800 21.00800
H  -1.54900 13.79300 22.10400
H  1.13300 15.00200 21.87900
H  0.45300 14.10700 23.35100
H  0.43200 15.90200 23.13400
H  -2.66400 11.27600 25.33600
H  -2.95300 10.83300 26.96300
H  -1.38000 10.48400 26.24300
H  -3.08600 13.42100 31.09700
H  -1.02500 12.46300 34.50900
H  0.21600 13.46000 33.77000
H  0.41200 11.63100 33.78400
Mg 29.25100 58.46000 40.94700
C  26.16000 56.97000 40.00200
C  30.78700 55.79900 39.70900
C  32.03300 60.32800 41.07600
C  27.28700 61.38200 41.75800
N  28.48200 56.65600 39.82200
C  27.23800 56.15300 39.68800
C  27.29000 54.75300 39.15700
C  28.76800 54.34700 39.32000
C  29.40400 55.71200 39.64100
C  29.03400 53.28400 40.40800
C  26.86900 54.63300 37.70800
C  27.77900 55.27200 36.62400
H  27.06200 56.07800 35.58800
N  31.14400 58.08800 40.58800
C  31.60700 56.89800 40.10500
C  33.08300 56.93200 40.12400
C  33.38700 58.32500 40.24800
C  32.14000 59.02400 40.59800
C  34.02500 55.77000 39.83400
C  34.79200 58.90500 40.00100
O  35.72500 58.17600 39.70800
C  35.01900 60.38300 40.00400
N  29.57500 60.53000 41.32900
C  30.86300 61.03500 41.32900
C  30.80000 62.53000 41.72200
C  29.29500 62.84000 42.08200
C  28.66500 61.51100 41.67400
C  31.75700 62.88000 42.89800
C  28.75600 64.09200 41.31100
C  27.92300 65.02700 42.12000
N  27.13100 59.01600 40.99000
C  26.56700 60.22900 41.35300
C  25.13500 60.09100 41.33000
C  24.90500 58.79900 40.84100
C  26.19000 58.25100 40.53900
C  24.12500 61.03300 41.81500
C  23.92500 57.82600 40.59800
O  22.70700 57.85700 40.77100
C  24.68800 56.61500 40.00500
C  24.37800 55.34100 40.84400
O  24.72600 55.15900 42.00700
O  23.76300 54.37900 40.13200
C  23.36600 53.16800 40.76800
H  31.30300 54.87000 39.45500
H  32.92500 60.93200 41.25500
H  26.64900 62.22400 42.03500
H  26.55100 54.20000 39.73600
H  29.24300 53.95600 38.42100
H  28.05800 52.95200 40.76200
H  29.66900 53.70900 41.18500
H  29.50800 52.35200 40.09900
H  25.88600 55.10100 37.66900
H  26.81400 53.56300 37.51000
H  28.42600 54.52400 36.16700
H  28.46800 56.03000 36.99700
H  34.98000 55.88000 40.34700
H  34.19700 55.36500 38.83600
H  33.51700 55.07600 40.50400
H  34.99000 60.79500 41.01300
H  34.28300 60.87000 39.36400
H  36.01700 60.56500 39.60500
H  31.08200 63.11500 40.84600
H  29.09800 62.81600 43.15400
H  31.27900 63.43300 43.70800
H  32.62500 63.45200 42.57100
H  32.18900 61.95900 43.28800
H  28.13400 63.82800 40.45500
H  29.53700 64.72900 40.89700
H  28.52900 65.68200 42.74600
H  27.30900 64.40600 42.77200
H  27.19700 65.60800 41.55300
H  24.52400 61.95100 42.24500
H  23.52700 60.43100 42.49800
H  23.62900 61.36400 40.90200
H  24.49400 56.51200 38.93700
H  22.96200 52.54800 39.96800
H  22.63800 53.43200 41.53400
H  24.23200 52.58000 41.07600

