158

Mg 24.00900 -4.83300 46.50500
C  26.22700 -2.54100 45.07800
C  21.63700 -3.69900 44.37500
C  22.29700 -7.59700 47.28800
C  26.93100 -6.21000 48.11100
N  23.98700 -3.29900 44.83500
C  24.96600 -2.44700 44.44300
C  24.49900 -1.61000 43.23600
C  22.91000 -1.75900 43.40400
C  22.80500 -2.96100 44.33800
C  22.14100 -0.54300 43.92000
C  25.09100 -2.12600 41.85800
C  26.15100 -1.23900 41.10300
H  26.05000 -1.43800 39.63200
N  22.12500 -5.50100 45.99700
C  21.33700 -4.92500 45.03200
C  20.15000 -5.70500 44.94400
C  20.25900 -6.86600 45.81800
C  21.59600 -6.74600 46.47800
C  18.98000 -5.36800 44.03400
C  19.26400 -7.98900 45.92700
O  18.15800 -7.93500 45.36500
C  19.65500 -9.34300 46.55900
N  24.61200 -6.55400 47.54400
C  23.66900 -7.53500 47.80100
C  24.16900 -8.76600 48.62100
C  25.66000 -8.36400 48.78500
C  25.77200 -6.94900 48.08200
C  23.38600 -9.08600 49.95100
C  26.52900 -9.47000 48.18700
C  27.69100 -9.83900 49.11200
N  26.18600 -4.36200 46.77500
C  27.13200 -4.90600 47.53100
C  28.40800 -4.22000 47.38800
C  28.08100 -3.22500 46.46200
C  26.71200 -3.36200 46.13700
C  29.74800 -4.42900 48.05300
C  28.62200 -2.16500 45.69600
O  29.72500 -1.71900 45.58500
C  27.53900 -1.69000 44.71200
C  27.44300 -0.24000 44.83100
O  26.96300 0.37800 45.75500
O  28.02900 0.36700 43.79500
C  28.04400 1.86400 43.94500
H  20.96600 -3.24700 43.64100
H  21.66900 -8.39200 47.69700
H  27.80000 -6.55800 48.67400
H  24.73100 -0.54600 43.27200
H  22.46400 -2.05800 42.45600
H  22.72200 0.24900 44.39200
H  21.38400 -0.89800 44.61900
H  21.61900 -0.00200 43.13100
H  24.33400 -2.33400 41.10300
H  25.52200 -3.10600 42.06100
H  27.17100 -1.48200 41.40300
H  26.06800 -0.21800 41.47700
H  19.12800 -4.43100 43.49600
H  18.05900 -5.30500 44.61400
H  18.80200 -6.20700 43.36200
H  20.65900 -9.52500 46.17400
H  19.01100 -10.14800 46.20700
H  19.67700 -9.23300 47.64300
H  24.09600 -9.65700 47.99800
H  25.73900 -8.04400 49.82400
H  23.08000 -10.12900 50.03300
H  22.49900 -8.45300 49.92500
H  24.07700 -8.84400 50.75900
H  26.96900 -9.12200 47.25200
H  25.89200 -10.31200 47.91700
H  27.46900 -9.35300 50.06200
H  28.60700 -9.48200 48.63900
H  27.84600 -10.90000 49.30700
H  30.10600 -5.41300 47.75200
H  29.82400 -4.20500 49.11700
H  30.43100 -3.85400 47.42800
H  27.80900 -1.96600 43.69200
H  28.35300 2.31000 43.00000
H  28.86700 2.27500 44.53000
H  27.06600 2.28400 44.18300
Mg 49.47100 34.86700 26.99300
C  47.24500 33.71900 29.52900
C  50.29000 37.46100 29.06600
C  51.04200 36.16600 24.39700
C  48.34600 32.16300 24.98300
N  48.67000 35.61100 29.06200
C  47.89100 34.93300 29.95900
C  48.03000 35.60100 31.33000
C  48.58600 37.00300 31.01000
C  49.24900 36.66700 29.63100
C  47.59000 38.17500 30.79400
C  48.98000 34.76400 32.26900
C  48.59500 34.62800 33.71700
H  49.42500 35.55100 34.69800
N  50.58600 36.57700 26.76900
C  50.86000 37.48000 27.82000
C  51.79500 38.39800 27.31500
C  51.92700 38.21900 25.88500
C  51.17700 36.95700 25.60900
C  52.44500 39.41300 28.27200
C  52.84500 38.99300 24.85500
O  52.83700 38.71500 23.62900
C  53.83900 40.06700 25.18000
N  49.75600 34.21200 25.04000
C  50.43500 34.94200 24.14100
C  50.36300 34.33100 22.68600
C  49.78300 32.94200 23.05900
C  49.23100 33.11900 24.41200
C  49.52500 35.22500 21.67700
C  50.82000 31.73900 23.08000
C  51.26200 31.16400 21.76200
N  48.05000 33.28600 27.16700
C  47.72100 32.30200 26.24900
C  46.80100 31.39400 26.85700
C  46.51000 31.96900 28.11900
C  47.27600 33.11300 28.26400
C  46.15100 30.21600 26.24900
C  45.73700 31.74900 29.36900
O  44.97500 30.87100 29.77500
C  46.18600 32.94000 30.29400
C  46.73000 32.48300 31.58900
O  47.74900 31.87800 31.73500
O  45.77400 32.73700 32.53200
C  45.90100 32.05400 33.86500
H  50.55000 38.28400 29.73500
H  51.53900 36.60200 23.52800
H  48.00700 31.38000 24.30100
H  47.04200 35.68600 31.78200
H  49.36300 37.36100 31.68600
H  47.70700 38.70400 29.84800
H  47.78000 38.93100 31.55600
H  46.56600 37.94000 31.08400
H  49.88900 35.36300 32.32100
H  49.23300 33.86000 31.71500
H  48.76600 33.58700 33.99100
H  47.53100 34.76000 33.91600
H  52.96000 38.91600 29.09400
H  51.69300 40.12700 28.61100
H  53.18600 40.05300 27.79300
H  53.99900 40.62600 24.25900
H  54.81600 39.62000 25.36800
H  53.60000 40.71300 26.02500
H  51.36700 34.29700 22.26400
H  48.87900 32.68500 22.50800
H  50.19700 35.50500 20.86700
H  49.28700 36.11000 22.26700
H  48.67700 34.69300 21.24600
H  50.39600 30.98100 23.73800
H  51.75700 32.12000 23.48700
H  51.23800 30.08900 21.93700
H  52.26200 31.38700 21.38900
H  50.42400 31.44200 21.12300
H  45.91400 30.47500 25.21700
H  45.24500 29.96400 26.80100
H  46.76300 29.31900 26.16100
H  45.29700 33.57100 30.29500
H  46.66400 32.53000 34.48200
H  46.20900 31.04000 33.61200
H  44.91100 32.05700 34.32100

