158

Mg -0.32700 7.33400 26.24500
C  0.95900 9.26000 28.96900
C  -0.64800 4.78300 28.59600
C  -1.40300 5.38600 23.85600
C  0.27900 9.99700 24.11700
N  0.04300 7.09800 28.50600
C  0.53300 8.04200 29.43700
C  0.38500 7.63000 30.88800
C  0.07500 6.09600 30.68200
C  -0.20300 5.98800 29.14100
C  1.23800 5.21500 31.19600
C  -0.68400 8.44300 31.61600
C  -0.85600 8.24600 33.16300
H  0.21000 7.64600 34.02300
N  -0.77100 5.28600 26.17300
C  -0.88400 4.41500 27.24900
C  -1.42900 3.12800 26.75500
C  -1.80500 3.34900 25.41500
C  -1.36000 4.71500 25.10200
C  -1.55000 1.88500 27.62800
C  -2.28300 2.30100 24.41600
O  -2.49000 2.65500 23.26200
C  -2.43100 0.84700 24.76300
N  -0.52600 7.62700 24.27000
C  -1.04300 6.69700 23.45300
C  -1.49300 7.26500 22.05700
C  -1.12400 8.71000 22.22800
C  -0.43000 8.84700 23.60900
C  -0.86800 6.66500 20.75500
C  -2.35900 9.71900 22.15700
C  -2.23600 10.77600 21.11900
N  0.36000 9.21900 26.45700
C  0.69800 10.12900 25.46100
C  1.21200 11.36900 26.05600
C  1.37800 11.01400 27.40900
C  0.88800 9.71100 27.57300
C  1.50400 12.71100 25.39500
C  1.75100 11.63500 28.57500
O  2.26300 12.73300 28.85600
C  1.39600 10.58900 29.72900
C  2.57000 10.26600 30.58200
O  3.55000 9.72700 30.29200
O  2.50000 10.93100 31.77900
C  3.59100 10.79700 32.77200
H  -0.72600 4.00300 29.35600
H  -1.86300 4.93600 22.97400
H  0.57800 10.76100 23.39600
H  1.32900 7.77800 31.41300
H  -0.85000 5.85500 31.20500
H  1.65700 4.75600 30.30100
H  0.80800 4.48400 31.88100
H  1.99300 5.77900 31.74500
H  -1.66600 8.22100 31.19700
H  -0.53100 9.51500 31.49000
H  -1.77900 7.71300 33.39100
H  -0.93300 9.26500 33.54200
H  -1.30800 0.92400 27.17400
H  -2.58000 1.87000 27.98300
H  -0.86500 2.03600 28.46200
H  -2.85500 0.24500 23.95900
H  -2.98900 0.69000 25.68600
H  -1.47400 0.32500 24.78700
H  -2.55800 7.04900 22.14300
H  -0.28400 9.00000 21.59600
H  -1.41700 5.87000 20.25100
H  0.17500 6.38300 20.90500
H  -0.79100 7.51300 20.07400
H  -2.48200 10.08900 23.17500
H  -3.25900 9.18400 21.85800
H  -1.26200 10.77100 20.62900
H  -2.43200 11.71300 21.64000
H  -3.05000 10.70100 20.39800
H  0.65200 13.28000 25.02400
H  2.12200 12.45200 24.53500
H  2.04300 13.38800 26.05900
H  0.67000 11.09000 30.36900
H  4.49500 10.35900 32.34700
H  3.16000 10.21300 33.58500
H  3.76800 11.83900 33.03900
Mg 47.46300 16.36800 28.66800
C  45.47000 16.55600 31.44100
C  49.94700 17.70100 30.31600
C  49.13100 16.40900 25.71900
C  44.50900 15.51900 26.79600
N  47.57100 17.20900 30.49200
C  46.72700 17.15100 31.62300
C  47.28800 17.68400 32.99300
C  48.51000 18.43200 32.35600
C  48.71800 17.67000 30.99400
C  48.42100 19.95200 32.10800
C  47.82900 16.49300 33.90100
C  48.43900 16.80500 35.27400
H  48.25700 18.27700 35.73400
N  49.35100 16.93000 28.14100
C  50.25600 17.35600 28.94200
C  51.48400 17.58500 28.25100
C  51.31400 17.03100 26.97500
C  49.90700 16.71600 26.90800
C  52.67900 18.15100 28.99600
C  52.26300 16.96900 25.83100
O  51.89700 16.63500 24.70900
C  53.75000 17.24900 26.02600
N  46.88800 16.08500 26.45500
C  47.76300 16.29900 25.51400
C  47.09000 16.09700 24.14100
C  45.54600 15.71500 24.47400
C  45.62500 15.73800 25.99500
C  47.24600 17.30600 23.29600
C  45.20900 14.19200 24.04500
C  44.06800 14.11200 22.92700
N  45.40700 15.98700 29.00700
C  44.37700 15.67800 28.17700
C  43.21900 15.33200 28.99000
C  43.50800 15.73700 30.30500
C  44.89100 16.12800 30.19200
C  41.95800 14.68800 28.47100
C  43.11800 15.87300 31.64400
O  42.03500 15.71400 32.16200
C  44.29600 16.46900 32.42800
C  43.87100 17.74400 32.84400
O  43.92500 18.75400 32.12300
O  43.40400 17.64900 34.12800
C  42.92200 18.95100 34.60900
H  50.73500 18.12600 30.94100
H  49.52900 16.30500 24.70700
H  43.59100 15.21500 26.29000
H  46.59500 18.24800 33.61700
H  49.38500 18.29900 32.99200
H  47.39200 20.16500 32.39500
H  48.54300 20.20900 31.05600
H  49.12600 20.45500 32.77100
H  48.51900 15.90900 33.29200
H  46.96100 15.88300 34.15200
H  49.51400 16.65700 35.17600
H  48.03900 16.10000 36.00300
H  52.70500 17.95100 30.06700
H  52.71000 19.22600 28.81400
H  53.59100 17.76700 28.54000
H  54.19100 16.88500 25.09800
H  54.25900 16.62700 26.76200
H  54.04300 18.29800 26.09100
H  47.61500 15.25400 23.69200
H  44.75900 16.31700 24.01900
H  46.23200 17.66200 23.11900
H  47.74700 16.92100 22.40800
H  47.83800 18.10700 23.73700
H  44.93400 13.64800 24.94900
H  46.04700 13.67300 23.57900
H  43.53300 15.04100 22.72600
H  43.39600 13.36200 23.34600
H  44.38600 13.55200 22.04800
H  41.14900 14.73800 29.20100
H  42.12000 13.66100 28.14600
H  41.71400 15.36600 27.65300
H  44.51500 15.83000 33.28300
H  43.86200 19.50200 34.65500
H  42.46100 18.81900 35.58800
H  42.25300 19.46900 33.92100

