158

Mg -0.46200 7.00800 27.20900
C  -0.16800 9.30200 29.90600
C  -0.29300 4.50500 29.62000
C  -0.95900 4.94100 24.87100
C  -0.07100 9.69900 25.02500
N  -0.23900 6.90600 29.48200
C  -0.25100 7.95100 30.35100
C  -0.15200 7.51600 31.79800
C  0.03700 5.91600 31.67700
C  -0.15200 5.82200 30.17800
C  1.39400 5.37500 32.16900
C  -1.48100 7.83900 32.54400
C  -1.41700 8.07200 34.06400
H  -0.10600 7.59300 34.76200
N  -0.48300 4.97700 27.21900
C  -0.39700 4.12100 28.25000
C  -0.47700 2.75200 27.80900
C  -0.78800 2.82000 26.40400
C  -0.79100 4.29000 26.10600
C  -0.41600 1.57400 28.75100
C  -1.13700 1.81000 25.42400
O  -1.38300 2.02600 24.28000
C  -1.17600 0.32300 25.87100
N  -0.49800 7.35700 25.26900
C  -0.77600 6.28300 24.44500
C  -0.88600 6.71600 22.94800
C  -0.89300 8.31400 23.09000
C  -0.52900 8.47900 24.54000
C  0.14100 6.16400 21.94100
C  -2.13900 9.06900 22.67700
C  -2.45100 9.00900 21.10800
N  -0.16100 9.14700 27.34900
C  -0.04900 10.10700 26.37700
C  0.12900 11.42700 26.95200
C  0.04300 11.16900 28.40200
C  -0.04800 9.80200 28.58300
C  0.34200 12.62400 26.15300
C  0.13400 11.71800 29.75500
O  0.50000 12.80200 30.03800
C  0.01900 10.46400 30.80400
C  1.21800 10.44500 31.70400
O  2.38300 10.22000 31.36700
O  0.83900 10.93000 32.99500
C  1.84800 11.16000 34.05800
H  -0.39800 3.68700 30.33500
H  -1.14700 4.25900 24.03900
H  -0.10800 10.53000 24.31700
H  0.73700 7.93300 32.27200
H  -0.70500 5.43600 32.31600
H  2.01500 6.17200 32.58000
H  2.06100 4.94100 31.42400
H  1.28200 4.62700 32.95400
H  -2.20300 7.02800 32.44700
H  -1.89600 8.70900 32.03500
H  -2.20600 7.56000 34.61600
H  -1.51700 9.15500 34.13900
H  -1.34800 1.03400 28.91800
H  0.00100 1.83800 29.72300
H  0.34600 0.93300 28.30800
H  -2.09600 0.08800 26.40600
H  -0.33800 -0.19100 26.34300
H  -1.26600 -0.28500 24.97100
H  -1.77900 6.23000 22.55200
H  -0.03800 8.64500 22.50100
H  0.17000 6.96700 21.20400
H  -0.31700 5.28600 21.48600
H  1.12700 5.83000 22.26500
H  -1.99500 10.09900 23.00300
H  -3.02400 8.67500 23.17600
H  -1.84700 8.41600 20.42000
H  -2.41900 10.06900 20.85600
H  -3.47400 8.64900 21.00100
H  1.03300 12.47000 25.32400
H  0.74300 13.41400 26.78800
H  -0.58800 12.94800 25.68600
H  -0.90500 10.59500 31.36900
H  2.67700 10.46500 34.19300
H  1.23100 11.27900 34.94900
H  2.28900 12.11200 33.76200
Mg 49.44100 35.00800 27.98800
C  47.20600 33.89400 30.62100
C  49.70200 37.92500 29.85900
C  50.89900 36.50600 25.31100
C  48.34000 32.49100 26.01400
N  48.40900 35.81900 29.97700
C  47.80800 35.09000 30.98000
C  47.68600 35.87300 32.25200
C  48.19900 37.31800 31.82300
C  48.86200 36.96700 30.48900
C  47.00900 38.38500 31.69300
C  48.29200 35.11000 33.44700
C  49.36900 35.83700 34.18000
H  49.13600 37.00400 35.12700
N  50.38400 36.81700 27.70800
C  50.30900 37.91900 28.51400
C  51.12900 38.97700 27.97100
C  51.54900 38.57100 26.66000
C  50.96900 37.23600 26.50600
C  51.61100 40.21300 28.88700
C  52.37700 39.28200 25.64000
O  52.70400 38.82600 24.53900
C  53.07500 40.70000 26.04200
N  49.71400 34.52300 25.94900
C  50.37400 35.29500 24.98500
C  50.16100 34.65900 23.57900
C  49.50800 33.28500 23.90100
C  49.12500 33.40300 25.35700
C  49.29500 35.58100 22.68100
C  50.40700 32.02400 23.73100
C  49.74000 30.68800 23.19800
N  48.17400 33.47800 28.29600
C  47.83300 32.49800 27.33100
C  47.18200 31.44300 28.04500
C  46.74700 32.00300 29.22300
C  47.42200 33.26600 29.37900
C  46.72100 30.09400 27.47900
C  45.99600 31.85700 30.41800
O  45.28200 30.90300 30.73800
C  46.06700 33.16400 31.26400
C  46.33600 32.70100 32.65400
O  47.30800 32.01300 33.01300
O  45.33600 33.21800 33.46200
C  45.38600 32.61500 34.81100
H  49.85900 38.84300 30.42900
H  51.20000 37.01700 24.39400
H  48.09700 31.61400 25.41000
H  46.65700 35.99000 32.59100
H  48.98400 37.71200 32.47000
H  46.89800 38.79000 30.68800
H  47.25100 39.26100 32.29500
H  46.09900 37.93000 32.08400
H  48.66600 34.21300 32.95500
H  47.50900 34.85000 34.15900
H  50.04700 36.14700 33.38500
H  49.92200 35.03100 34.66100
H  51.44400 40.06200 29.95300
H  51.32300 41.24800 28.70100
H  52.69800 40.21000 28.79900
H  53.78000 40.76400 26.87000
H  52.16800 41.24800 26.29900
H  53.44300 41.14100 25.11500
H  51.09900 34.50700 23.04600
H  48.56000 33.21000 23.36900
H  48.59300 34.97200 22.11300
H  49.97300 36.18200 22.07400
H  48.74500 36.27300 23.31800
H  50.96700 31.95700 24.66300
H  51.23900 32.21200 23.05200
H  50.02400 30.61300 22.14800
H  48.67300 30.59400 23.40300
H  50.22300 29.89600 23.76900
H  46.73500 29.25600 28.17700
H  47.40100 29.78200 26.68600
H  45.73800 30.13700 27.01200
H  45.11500 33.69300 31.19800
H  44.40100 32.76100 35.25500
H  46.13100 33.06400 35.46900
H  45.57800 31.55000 34.68400

