158

Mg 35.65800 1.20800 30.25700
C  33.44900 2.42700 32.71100
C  38.07200 1.31300 32.72800
C  37.78700 0.12200 27.98300
C  33.15600 1.59000 27.79000
N  35.68500 1.77500 32.43500
C  34.71200 2.20800 33.21500
C  35.11000 2.28000 34.68500
C  36.63300 1.98400 34.63200
C  36.84000 1.70900 33.15100
C  37.55700 3.16600 35.21300
C  34.39500 1.18000 35.51100
C  34.02700 1.48600 36.96900
H  34.80600 2.60300 37.62900
N  37.55200 0.68500 30.37400
C  38.39300 0.79000 31.47400
C  39.73200 0.41300 31.11900
C  39.68200 0.10000 29.68500
C  38.28200 0.24800 29.26400
C  40.89600 0.35200 32.09200
C  40.89500 -0.22000 28.76100
O  40.80800 -0.56500 27.60700
C  42.34600 -0.07700 29.27500
N  35.58100 1.05500 28.09100
C  36.55000 0.47700 27.42000
C  36.17900 0.34400 25.88900
C  34.71000 0.83400 25.86800
C  34.40100 1.24100 27.26700
C  37.09700 1.18000 24.96700
C  33.64200 -0.21500 25.23600
C  33.10800 0.24700 23.86800
N  33.69900 1.92800 30.13100
C  32.77600 1.98600 29.10600
C  31.46300 2.48500 29.61500
C  31.79100 2.71300 31.01100
C  33.09000 2.31500 31.29600
C  30.23000 2.71700 28.92600
C  31.18100 3.20300 32.21300
O  30.12300 3.74100 32.38300
C  32.14100 2.94700 33.39000
C  32.22900 4.24400 34.10500
O  32.52600 5.32000 33.66400
O  31.66800 4.01600 35.35300
C  31.26000 5.19000 36.11200
H  38.75000 1.24500 33.58100
H  38.51400 -0.08900 27.19500
H  32.30100 1.48900 27.11800
H  35.02700 3.24900 35.17600
H  36.89800 1.04000 35.10800
H  36.99500 3.79700 35.90300
H  37.87200 3.94000 34.51300
H  38.51700 2.88500 35.64500
H  34.92000 0.22600 35.47700
H  33.41700 0.96300 35.08200
H  34.26700 0.65200 37.62900
H  32.94800 1.62200 37.03500
H  41.37200 1.32300 31.95100
H  41.57500 -0.45400 31.81400
H  40.60700 0.26300 33.13900
H  43.04200 -0.01500 28.43800
H  42.60300 -0.89800 29.94500
H  42.45100 0.79400 29.92200
H  36.24800 -0.71900 25.65600
H  34.72600 1.74100 25.26400
H  37.77500 0.58100 24.36000
H  37.63100 1.89100 25.59900
H  36.60200 1.68100 24.13500
H  32.74100 -0.29700 25.84500
H  34.09400 -1.20600 25.18800
H  33.65600 1.09700 23.46100
H  32.06200 0.53900 23.96900
H  33.04800 -0.51900 23.09500
H  30.39000 3.13300 27.93100
H  29.65600 3.48200 29.44800
H  29.69800 1.79300 28.69800
H  31.70400 2.19500 34.04700
H  32.08100 5.48800 36.76400
H  30.44500 4.74800 36.68400
H  30.95300 6.05500 35.52400
Mg 47.43000 34.19900 26.65500
C  45.59400 32.93700 29.40900
C  47.78200 37.16100 28.37400
C  48.51800 35.57900 23.73900
C  46.27700 31.37300 24.75100
N  46.84800 34.87000 28.68500
C  46.19400 34.19900 29.58600
C  46.25800 34.94500 30.89700
C  46.69600 36.39000 30.51900
C  47.04500 36.17400 29.09100
C  45.76100 37.57200 30.82100
C  47.30200 34.33600 31.96000
C  46.99700 34.48100 33.39900
H  46.18000 35.65000 33.92900
N  48.21200 36.00100 26.17000
C  48.25000 37.10000 27.00000
C  49.07700 38.13100 26.41100
C  49.31100 37.71700 25.05400
C  48.64700 36.36500 24.95200
C  49.67200 39.32500 27.10300
C  50.14500 38.39400 23.93300
O  50.46800 37.78200 22.94800
C  50.57500 39.84700 24.18000
N  47.32300 33.60800 24.51400
C  47.99400 34.33400 23.58000
C  47.93700 33.62600 22.25100
C  47.39300 32.22200 22.58500
C  46.93800 32.40400 24.05600
C  47.14200 34.34800 21.08100
C  48.41000 31.01400 22.39700
C  49.47900 30.76200 23.46400
N  46.39500 32.43500 27.01700
C  46.06500 31.38400 26.15200
C  45.46500 30.39500 26.88500
C  45.11000 31.01100 28.15900
C  45.73900 32.24300 28.16000
C  45.16900 29.02200 26.37800
C  44.41700 30.80300 29.41400
O  43.75000 29.85300 29.88600
C  44.66600 32.03700 30.28900
C  45.29200 31.56900 31.47600
O  46.43500 31.14300 31.57100
O  44.39400 31.58900 32.54500
C  44.74800 30.89100 33.81400
H  47.87100 38.08700 28.94400
H  49.01700 35.99700 22.86100
H  45.87800 30.49500 24.23900
H  45.25400 34.93200 31.32100
H  47.65600 36.73300 30.90700
H  45.88500 38.31400 30.03200
H  46.08600 38.11400 31.71000
H  44.70900 37.29300 30.87700
H  48.27600 34.71800 31.65500
H  47.39600 33.30200 31.63100
H  47.91700 34.54200 33.98100
H  46.61200 33.51300 33.72100
H  50.73600 39.43300 26.89400
H  49.51100 39.20700 28.17400
H  49.18700 40.28000 26.90200
H  49.71700 40.43900 24.49800
H  50.97700 40.04000 23.18600
H  51.44300 39.95900 24.82900
H  49.00500 33.59600 22.03800
H  46.45000 31.92500 22.12600
H  47.70500 34.28300 20.15000
H  46.92300 35.37500 21.37600
H  46.18500 33.83300 20.99700
H  48.98800 31.10700 21.47700
H  47.85200 30.09300 22.22900
H  50.36300 30.48600 22.88900
H  49.10400 29.87800 23.98000
H  49.67600 31.65400 24.05900
H  44.17700 28.95900 25.92900
H  45.16600 28.40600 27.27700
H  45.99100 28.62100 25.78500
H  43.71700 32.48000 30.59100
H  45.77100 31.15000 34.08800
H  44.60100 29.82500 33.64200
H  44.01200 31.40600 34.43000

