158

Mg -2.49400 17.16700 27.40000
C  -3.32500 14.73200 29.96600
C  -3.56000 19.63200 29.37800
C  -2.61400 19.14900 24.68700
C  -2.20600 14.25000 25.12100
N  -3.18800 17.14500 29.50000
C  -3.52100 16.08900 30.36500
C  -3.98000 16.57900 31.72800
C  -4.24200 18.09200 31.39200
C  -3.61900 18.31900 29.97100
C  -5.74900 18.59000 31.39000
C  -2.99500 16.29200 32.88800
C  -3.04400 17.28500 34.10300
H  -2.33100 16.65000 35.30700
N  -2.91800 19.24700 27.09700
C  -3.26600 20.11100 28.09600
C  -3.30100 21.45400 27.52000
C  -3.01600 21.29000 26.17400
C  -2.88500 19.84100 25.92100
C  -3.58000 22.70900 28.36300
C  -2.76000 22.30100 25.19000
O  -2.41900 22.06500 24.02500
C  -2.72800 23.78300 25.57200
N  -2.42200 16.75900 25.27800
C  -2.49100 17.80300 24.38700
C  -2.36400 17.29300 22.92600
C  -1.75500 15.87700 23.08700
C  -2.18300 15.57500 24.55700
C  -3.53400 17.40700 21.98300
C  -0.22100 15.72500 22.77700
C  0.73800 16.59700 23.62600
N  -2.57800 14.99300 27.45700
C  -2.38900 13.96400 26.51700
C  -2.53700 12.69200 27.13300
C  -2.76000 12.94300 28.51100
C  -2.88900 14.36600 28.61300
C  -2.56100 11.40500 26.44300
C  -3.05200 12.27900 29.81300
O  -3.05800 11.13800 30.10200
C  -3.54800 13.43700 30.72700
C  -2.72600 13.31100 31.98800
O  -1.48700 13.56900 32.07400
O  -3.37800 12.86300 33.09500
C  -2.57600 12.64800 34.30100
H  -3.97400 20.43400 29.99200
H  -2.49600 19.64000 23.71800
H  -1.97200 13.42400 24.44500
H  -4.90700 16.05800 31.96600
H  -3.68900 18.73800 32.07400
H  -6.03200 18.75100 30.35000
H  -5.83500 19.52600 31.94200
H  -6.39700 17.86200 31.87800
H  -2.00200 16.17200 32.45400
H  -3.21300 15.31200 33.31200
H  -4.05500 17.50800 34.44400
H  -2.50600 18.19800 33.84600
H  -2.77700 23.44500 28.30900
H  -3.76000 22.51800 29.42100
H  -4.49000 23.16400 27.96900
H  -1.97400 24.09600 26.29400
H  -3.74300 23.93800 25.93900
H  -2.66700 24.31700 24.62400
H  -1.52100 17.82300 22.48300
H  -2.31700 15.13100 22.52500
H  -4.04400 16.46200 21.79000
H  -3.33000 18.01300 21.10000
H  -4.32400 17.98500 22.46300
H  0.02500 15.78100 21.71600
H  -0.05700 14.65700 22.92200
H  1.31900 17.18700 22.91600
H  1.38200 15.90700 24.17100
H  0.25400 17.27500 24.32800
H  -2.06700 11.51600 25.47800
H  -3.59100 11.19000 26.15800
H  -2.06100 10.60900 26.99400
H  -4.56200 13.23700 31.07500
H  -2.94600 11.72100 34.73900
H  -2.72400 13.46700 35.00500
H  -1.53000 12.37700 34.16200
Mg 50.44200 46.62700 41.15300
C  47.08700 47.36300 40.02600
C  49.82700 43.34400 40.16500
C  53.77400 46.18900 41.04900
C  50.85500 50.14000 41.59100
N  48.57800 45.52100 40.32100
C  47.43700 46.00100 39.83400
C  46.56300 44.93700 39.17900
C  47.34900 43.62100 39.66900
C  48.68300 44.19100 40.05200
C  46.81000 42.81200 40.79900
C  46.40000 45.15800 37.63800
C  44.94600 45.16700 37.15500
H  44.66300 43.99800 36.13000
N  51.69300 44.93600 40.71100
C  51.16900 43.65600 40.38000
C  52.34700 42.83600 40.30600
C  53.53600 43.62800 40.51300
C  53.05900 44.94900 40.80300
C  52.32200 41.35900 40.04200
C  54.94600 43.00600 40.46700
O  55.16800 41.84000 40.12500
C  56.04100 43.95200 40.76400
N  52.11700 48.05200 41.16400
C  53.33300 47.52800 41.24800
C  54.33400 48.65000 41.72700
C  53.42200 49.90600 41.98100
C  52.01800 49.38400 41.52000
C  55.20100 48.27400 42.98900
C  53.91900 51.25800 41.28300
C  54.08400 52.49700 42.21500
N  49.19200 48.42600 41.10800
C  49.51300 49.74900 41.23300
C  48.31900 50.53300 41.06700
C  47.34200 49.66200 40.51700
C  47.96400 48.37400 40.50300
C  48.34100 52.02300 41.24800
C  46.07200 49.59900 39.90800
O  45.32600 50.53500 39.62900
C  45.80400 48.06100 39.69500
C  44.71100 47.70600 40.66600
O  44.86300 47.41200 41.80000
O  43.50600 47.98200 40.11500
C  42.41700 48.13300 41.07900
H  49.55400 42.31800 39.91100
H  54.86200 46.23300 41.13000
H  50.98400 51.20400 41.79900
H  45.53700 44.94400 39.54700
H  47.61700 42.91400 38.88400
H  46.59900 41.81800 40.40700
H  45.89300 43.18200 41.25700
H  47.54300 42.69400 41.59700
H  46.91700 44.32500 37.16300
H  46.81900 46.04300 37.15800
H  44.69600 46.13400 36.71700
H  44.14300 45.04100 37.88100
H  51.34500 41.00800 39.71200
H  52.57200 40.93800 41.01600
H  53.00000 41.08200 39.23500
H  55.82800 44.41900 41.72600
H  55.98600 44.67300 39.94900
H  56.94300 43.34400 40.69600
H  55.05500 48.81900 40.92700
H  53.49600 50.09300 43.05200
H  56.21400 48.28600 42.58700
H  54.93300 47.31200 43.42600
H  55.18700 48.91800 43.86900
H  53.23300 51.36200 40.44300
H  54.93600 51.06300 40.94100
H  53.70000 53.28200 41.56500
H  55.13200 52.65900 42.46700
H  53.56500 52.50200 43.17300
H  49.22700 52.39600 40.73600
H  48.23000 52.34400 42.28400
H  47.51300 52.54300 40.76700
H  45.47900 47.95800 38.66000
H  41.50300 47.57600 40.87200
H  42.16600 49.18900 40.97800
H  42.64400 47.78500 42.08600

