158

Mg 47.94700 15.91300 28.21100
C  45.36500 15.98600 30.69400
C  50.15700 17.13500 30.49300
C  50.12700 16.31600 25.69700
C  45.46700 15.08800 25.93600
N  47.69600 16.63100 30.33200
C  46.61500 16.38200 31.16900
C  46.96800 16.75700 32.60300
C  48.36000 17.56300 32.35500
C  48.79700 17.10500 30.97000
C  48.25600 19.10100 32.48200
C  47.04800 15.45100 33.46200
C  46.98000 15.52900 35.01300
H  46.62500 16.84700 35.66500
N  49.88700 16.49700 28.13100
C  50.63300 16.91000 29.18900
C  51.98800 17.08600 28.85300
C  52.06000 16.87300 27.39000
C  50.65200 16.53300 27.02000
C  53.08200 17.55400 29.85000
C  53.28200 16.95400 26.58700
O  53.29500 16.74500 25.38500
C  54.60900 17.31800 27.16800
N  47.80600 16.12000 26.05600
C  48.88100 16.14900 25.22700
C  48.47600 15.77000 23.76700
C  47.07200 15.12700 24.00100
C  46.74300 15.48200 25.43300
C  48.63600 16.92300 22.70600
C  46.88400 13.63900 23.64000
C  47.11700 12.62200 24.83700
N  45.87600 15.56500 28.24700
C  45.07400 15.13100 27.29000
C  43.74000 14.67600 27.83400
C  43.80800 15.08800 29.14600
C  45.15000 15.53500 29.41800
C  42.63500 14.00100 27.07100
C  43.02400 15.23400 30.31600
O  41.86700 15.05200 30.41800
C  44.06500 15.74100 31.44000
C  43.52900 16.85400 32.25300
O  43.56700 18.05500 31.99800
O  42.90600 16.38100 33.41700
C  42.48300 17.40600 34.47000
H  50.83300 17.36400 31.32000
H  50.83800 16.13100 24.88900
H  44.78800 14.69000 25.17900
H  46.30600 17.43600 33.14000
H  49.09600 17.27900 33.10700
H  47.23200 19.47400 32.46600
H  48.77100 19.47700 31.59800
H  48.88700 19.45100 33.29900
H  48.04800 15.03300 33.35100
H  46.25400 14.77800 33.13700
H  47.92500 15.16000 35.41200
H  46.24400 14.83800 35.42400
H  52.75800 17.73900 30.87400
H  53.23600 18.57500 29.50000
H  53.94800 16.89800 29.77500
H  54.55600 18.33500 27.55800
H  55.45000 17.26600 26.47700
H  54.95900 16.61300 27.92200
H  49.12000 14.94400 23.46400
H  46.31100 15.62300 23.39900
H  47.64800 17.04100 22.26200
H  49.42300 16.64200 22.00600
H  48.81800 17.87300 23.20800
H  47.42000 13.30200 22.75200
H  45.86000 13.52900 23.28400
H  47.37700 13.11300 25.77500
H  47.89500 11.92400 24.52400
H  46.17700 12.08500 24.96200
H  42.93300 13.81500 26.03900
H  41.76500 14.65200 27.15100
H  42.69900 13.06900 27.63200
H  44.18700 14.95500 32.18500
H  42.80700 17.01100 35.43300
H  41.40500 17.48900 34.60900
H  43.04700 18.33800 34.41900
Mg -10.27800 17.63500 40.61300
C  -6.71400 17.21800 40.88000
C  -9.82600 20.93800 39.79300
C  -13.38400 17.72700 39.56200
C  -10.47600 14.08100 40.70300
N  -8.45600 18.83600 40.31300
C  -7.13800 18.49900 40.44100
C  -6.22400 19.59600 39.87500
C  -7.20000 20.81800 40.16300
C  -8.61700 20.16200 40.03800
C  -7.12000 21.40700 41.60800
C  -5.89000 19.36200 38.38600
C  -4.48700 18.85300 38.04000
H  -4.30200 17.45500 37.32000
N  -11.50000 19.13300 39.98500
C  -11.10900 20.45800 39.77400
C  -12.27800 21.27000 39.51500
C  -13.32700 20.30900 39.58300
C  -12.80000 18.98700 39.79000
C  -12.04900 22.77200 39.30100
C  -14.75100 20.74500 39.31700
O  -15.09000 21.88400 39.04800
C  -15.80200 19.84200 39.50500
N  -11.64800 16.06200 39.83900
C  -12.88000 16.43200 39.58900
C  -13.77200 15.18700 39.39800
C  -12.76400 14.01500 39.68800
C  -11.52500 14.75000 40.11200
C  -15.06700 15.11800 40.32900
C  -12.59400 13.14400 38.29900
C  -12.70600 11.61800 38.44900
N  -8.96200 15.99400 40.96300
C  -9.22600 14.61600 41.03500
C  -7.96400 13.93100 41.19300
C  -6.96700 14.89200 41.17200
C  -7.60700 16.20900 40.99300
C  -7.67100 12.43700 41.30400
C  -5.52400 15.07500 41.23600
O  -4.60000 14.20100 41.23400
C  -5.27400 16.61900 41.09500
C  -4.60000 17.03700 42.33500
O  -4.77200 16.63400 43.46000
O  -3.82600 18.18900 42.01400
C  -3.31300 19.02700 43.09000
H  -9.58400 21.98600 39.60300
H  -14.41900 17.74700 39.21600
H  -10.47600 12.99300 40.61400
H  -5.31600 19.63400 40.47800
H  -6.97000 21.62800 39.47000
H  -6.45100 22.25700 41.47700
H  -6.52200 20.77000 42.26000
H  -8.10100 21.55000 42.06300
H  -5.98100 20.31800 37.87100
H  -6.68600 18.74300 37.97200
H  -3.93000 18.82900 38.97700
H  -3.98200 19.64300 37.48500
H  -11.22300 22.91500 38.60300
H  -11.68400 23.11000 40.27100
H  -12.95700 23.28700 38.98600
H  -16.79700 20.27400 39.61400
H  -15.52000 19.35000 40.43600
H  -15.65200 19.21000 38.63000
H  -14.15400 15.16600 38.37800
H  -13.18000 13.40500 40.48900
H  -15.89800 14.86300 39.67200
H  -15.45100 16.07500 40.68100
H  -15.06400 14.35000 41.10300
H  -11.59100 13.37900 37.94300
H  -13.36300 13.41500 37.57600
H  -11.75600 11.14200 38.20700
H  -13.48900 11.25300 37.78500
H  -12.82900 11.32300 39.49100
H  -8.11300 11.82900 40.51400
H  -8.35400 12.08800 42.07800
H  -6.64200 12.21500 41.58500
H  -4.72400 16.94100 40.21000
H  -2.86000 19.90500 42.62900
H  -2.44800 18.51400 43.51200
H  -4.13900 19.32700 43.73500

