158

Mg 40.81700 9.90700 30.07500
C  42.38300 10.95200 32.94500
C  38.04600 8.90300 31.87900
C  39.52000 8.66700 27.15800
C  43.49900 11.23900 28.21200
N  40.35900 9.71800 32.21000
C  41.09300 10.34200 33.14600
C  40.31800 10.51200 34.45000
C  39.09900 9.63700 34.19400
C  39.09000 9.45500 32.63000
C  38.90700 8.28300 34.98300
C  40.05600 11.99900 34.76200
C  39.56300 12.20500 36.15500
H  40.44600 13.02100 37.09700
N  39.02700 8.94900 29.59300
C  38.00200 8.56800 30.45900
C  37.04700 7.69300 29.67500
C  37.46000 7.66700 28.33500
C  38.69400 8.48700 28.28400
C  35.86300 7.06900 30.28700
C  36.82200 6.96900 27.15500
O  37.24100 7.15600 26.06600
C  35.61200 6.26300 27.30400
N  41.47300 9.89200 27.95100
C  40.67000 9.37600 26.98900
C  41.27100 9.69200 25.64400
C  42.40600 10.77900 25.99200
C  42.48000 10.69400 27.45200
C  41.73000 8.47900 24.72800
C  42.13000 12.21400 25.43600
C  41.01600 12.97500 26.14100
N  42.68500 10.69900 30.44900
C  43.63500 11.20400 29.59500
C  44.74400 11.67700 30.40300
C  44.30100 11.64400 31.71200
C  43.02800 11.09600 31.71600
C  45.98500 12.26600 29.85300
C  44.57600 12.03200 33.05200
O  45.58400 12.57600 33.56000
C  43.33500 11.60000 33.91600
C  43.80400 10.66300 34.94300
O  44.49600 9.64800 34.65500
O  43.40800 11.13800 36.21800
C  43.66700 10.21100 37.31900
H  37.10100 8.63200 32.35400
H  39.29200 8.16400 26.21500
H  44.27600 11.63700 27.55700
H  40.80100 10.02200 35.29500
H  38.22800 10.17500 34.56900
H  39.84600 8.16000 35.52200
H  38.76500 7.42300 34.32800
H  38.09100 8.44500 35.68800
H  39.31200 12.40800 34.07800
H  40.96800 12.58000 34.62800
H  39.44800 11.31900 36.78000
H  38.59800 12.70600 36.07400
H  35.09700 7.83500 30.17600
H  35.99300 6.88900 31.35500
H  35.66700 6.06600 29.90600
H  35.42100 5.98400 26.26700
H  34.85400 7.02200 27.49400
H  35.62300 5.34100 27.88400
H  40.56300 10.30300 25.08400
H  43.38500 10.42800 25.66500
H  41.30700 7.54400 25.09600
H  42.80600 8.31600 24.66000
H  41.31700 8.73100 23.75100
H  41.92500 12.01500 24.38400
H  43.03400 12.81300 25.54100
H  41.31900 13.99300 26.38800
H  40.55200 12.48100 26.99500
H  40.23600 13.07100 25.38700
H  46.66400 12.44500 30.68700
H  45.64800 13.05400 29.18000
H  46.51600 11.54800 29.22900
H  43.03100 12.53300 34.39100
H  44.46600 9.49200 37.13900
H  42.74000 9.74900 37.65800
H  43.99600 10.86100 38.13000
Mg 17.09400 51.95900 26.45000
C  19.10500 50.41000 28.87500
C  14.83300 52.67800 29.07300
C  14.99400 53.40200 24.23900
C  19.06300 50.70800 23.87200
N  16.95200 51.64300 28.63200
C  17.98200 51.01000 29.39000
C  17.60600 51.17800 30.92400
C  16.03400 51.47000 30.88100
C  15.96000 51.96700 29.44300
C  15.16700 50.22500 31.19100
C  18.49200 52.25400 31.60400
C  18.82800 52.03100 33.06800
H  17.82800 51.21900 33.85200
N  15.15300 52.83800 26.62500
C  14.47900 53.17800 27.83700
C  13.16300 53.77400 27.49900
C  13.13500 53.77000 26.06600
C  14.40100 53.32300 25.54300
C  12.02300 53.98100 28.56800
C  12.01500 54.29100 25.15100
O  12.21500 54.38100 23.94100
C  10.68700 54.74300 25.69800
N  17.06900 52.07600 24.44900
C  16.14200 52.79100 23.72400
C  16.48700 52.85700 22.22500
C  17.82800 52.00100 22.14200
C  18.07300 51.60600 23.58600
C  15.34400 52.23300 21.32500
C  19.09200 52.63700 21.50400
C  19.71600 53.83400 22.35200
N  18.77800 50.93300 26.38300
C  19.40600 50.43200 25.21700
C  20.56900 49.61700 25.69200
C  20.53900 49.68200 27.15000
C  19.42900 50.39100 27.46700
C  21.39000 48.81000 24.90200
C  21.09100 49.17800 28.46600
O  22.05200 48.44400 28.66500
C  20.29300 49.77300 29.64400
C  19.82000 48.75800 30.61200
O  19.03900 47.85100 30.53600
O  20.58900 48.97600 31.77500
C  20.59400 47.92700 32.87900
H  14.25500 52.85000 29.98400
H  14.33600 53.78400 23.45600
H  19.80800 50.37300 23.14800
H  17.83100 50.19900 31.34800
H  15.76400 52.22700 31.61700
H  15.78600 49.33500 31.30400
H  14.42400 50.05200 30.41200
H  14.64300 50.42000 32.12700
H  18.10600 53.26300 31.46100
H  19.44700 52.17700 31.08400
H  19.11400 53.01800 33.43100
H  19.66300 51.33400 33.00400
H  12.10400 53.47000 29.52800
H  11.04300 53.59800 28.28300
H  11.98300 55.06300 28.69700
H  10.14600 53.89200 26.11100
H  10.01900 55.07600 24.90300
H  10.99000 55.50100 26.42100
H  16.69800 53.89000 21.94900
H  17.67600 51.07000 21.59600
H  14.45700 52.02400 21.92300
H  15.63000 51.31200 20.81600
H  15.13800 52.95300 20.53300
H  18.85800 53.16400 20.57900
H  19.84200 51.87400 21.29700
H  19.34000 53.97200 23.36600
H  19.58900 54.77000 21.80800
H  20.77900 53.59300 22.37700
H  21.91800 48.15100 25.59100
H  22.15400 49.32200 24.31700
H  20.89200 48.13400 24.20800
H  20.97300 50.46300 30.14400
H  20.45700 46.93600 32.44600
H  19.78100 48.20300 33.55000
H  21.48800 47.91600 33.50400

