158

Mg 44.78200 5.38600 46.19600
C  42.89100 8.38000 46.43100
C  41.90600 3.79000 45.21700
C  46.75000 2.61200 45.45600
C  47.70300 7.35700 46.19600
N  42.62400 6.08400 45.68200
C  42.10800 7.30100 45.99700
C  40.53900 7.28200 45.90300
C  40.28300 5.78300 45.45000
C  41.68900 5.15700 45.41000
C  39.26700 5.04000 46.35900
C  39.86900 8.36500 44.94500
C  40.62300 8.64800 43.63800
H  39.96800 8.37800 42.38300
N  44.39900 3.43000 45.46800
C  43.11300 2.98300 45.23200
C  43.28900 1.48400 45.06400
C  44.69500 1.18000 44.90800
C  45.34600 2.43100 45.26200
C  42.15000 0.58300 44.96300
C  45.22900 -0.15100 44.59500
O  44.49200 -1.13700 44.61900
C  46.63300 -0.46000 44.29000
N  46.93600 4.95000 46.05700
C  47.47300 3.71900 45.77400
C  49.00700 3.83800 45.59000
C  49.36800 5.34800 45.59200
C  47.90200 5.96400 45.94600
C  49.79800 3.00400 46.64400
C  49.97800 5.79300 44.21300
C  48.96500 6.02300 43.02200
N  45.25200 7.40000 46.53800
C  46.44500 8.03400 46.42900
C  46.20600 9.40200 46.85600
C  44.86300 9.62200 46.84700
C  44.28800 8.36500 46.60800
C  47.30200 10.38800 47.08100
C  43.81400 10.63400 46.96600
O  43.80900 11.79300 47.15500
C  42.47200 9.76500 46.78900
C  41.49700 9.89400 47.84300
O  41.46200 9.14500 48.84900
O  40.47100 10.80100 47.57100
C  39.49700 10.85700 48.64800
H  41.00800 3.16800 45.23000
H  47.43500 1.77500 45.30500
H  48.61200 7.96100 46.25400
H  40.17200 7.41900 46.92000
H  39.86500 5.72200 44.44500
H  38.41300 4.63600 45.81500
H  38.90900 5.81300 47.03900
H  39.71600 4.21200 46.90600
H  39.59900 9.20700 45.58200
H  38.87800 7.97700 44.70700
H  41.55600 8.08600 43.61300
H  40.94300 9.69000 43.65700
H  42.14100 0.12000 43.97700
H  41.22100 1.15300 44.93700
H  42.07400 -0.13100 45.78200
H  46.73200 -1.46000 43.86800
H  47.29000 -0.43800 45.16000
H  46.89200 0.21100 43.47100
H  49.29200 3.55500 44.57700
H  49.93100 5.63800 46.47900
H  50.47500 2.30300 46.15600
H  49.04800 2.51300 47.26300
H  50.34800 3.58400 47.38500
H  50.69300 5.09700 43.77400
H  50.49500 6.74500 44.33000
H  47.96000 6.20200 43.40500
H  48.82500 5.16200 42.36800
H  49.29800 6.78600 42.31800
H  48.28000 9.94200 47.25900
H  47.10400 11.06900 47.90800
H  47.35700 10.92000 46.13100
H  41.96700 10.13000 45.89500
H  38.95000 9.91500 48.69700
H  38.67600 11.50100 48.33500
H  39.88100 11.11000 49.63600
Mg 27.68700 49.86100 26.48700
C  25.64000 50.86300 29.14200
C  30.07200 49.01800 28.86100
C  29.80700 49.40300 23.98900
C  25.08300 50.61100 24.25800
N  27.77200 49.98700 28.81300
C  26.80500 50.33700 29.62400
C  27.22200 50.24900 31.07200
C  28.73600 49.74900 30.98600
C  28.90700 49.59700 29.50100
C  29.75800 50.78100 31.60200
C  26.34900 49.18300 31.87500
C  25.58400 49.75000 33.14400
H  26.42600 49.67200 34.38700
N  29.54200 49.07700 26.42000
C  30.36600 48.81900 27.52700
C  31.64900 48.40200 26.97900
C  31.59600 48.51300 25.56500
C  30.27400 49.03600 25.28200
C  32.72500 47.79400 27.96700
C  32.68500 48.23400 24.52000
O  32.53000 48.50500 23.29300
C  33.97100 47.64400 24.99500
N  27.54900 50.18200 24.34300
C  28.53200 49.74300 23.54800
C  28.14000 49.93100 22.01700
C  26.55800 50.21600 22.16600
C  26.33600 50.33500 23.69100
C  28.79700 51.13100 21.32300
C  25.69000 49.04200 21.55700
C  25.48500 47.69600 22.36400
N  25.76400 50.67900 26.68300
C  24.81300 50.87400 25.65600
C  23.61800 51.42000 26.26200
C  23.86800 51.46700 27.64000
C  25.22300 51.03200 27.82800
C  22.41200 51.84600 25.50700
C  23.32400 51.71700 28.93700
O  22.33300 52.31100 29.26200
C  24.34500 51.34600 29.94000
C  24.65900 52.52800 30.83600
O  25.61800 53.30900 30.77800
O  23.64400 52.54900 31.81600
C  23.90700 53.39600 33.00300
H  30.80100 48.61400 29.56500
H  30.43200 49.14000 23.13400
H  24.18100 50.66100 23.64500
H  27.18800 51.20900 31.58800
H  28.86000 48.78400 31.47800
H  30.55200 51.07300 30.91500
H  30.18300 50.26000 32.46000
H  29.21500 51.68900 31.86600
H  26.95200 48.32500 32.17300
H  25.59300 48.75600 31.21700
H  24.59700 49.29400 33.20700
H  25.36500 50.81000 33.01200
H  32.64300 46.71400 27.84200
H  32.65500 48.01900 29.03100
H  33.72200 48.17100 27.73900
H  34.55900 47.35100 24.12600
H  33.62800 46.75900 25.53100
H  34.51300 48.44100 25.50300
H  28.37500 49.00200 21.49700
H  26.24600 51.16100 21.72300
H  29.43300 50.75600 20.52200
H  29.48200 51.65000 21.99400
H  28.08500 51.79300 20.83000
H  26.10200 48.77200 20.58500
H  24.66500 49.41000 21.51400
H  24.50400 47.67800 22.84000
H  26.25500 47.74100 23.13500
H  25.67200 46.74400 21.86800
H  21.65100 51.58800 26.24300
H  22.28700 51.24300 24.60800
H  22.53300 52.91000 25.30100
H  23.95300 50.60300 30.63400
H  24.93100 53.75800 33.09500
H  23.63900 52.74600 33.83600
H  23.32700 54.31900 33.03700

