158

Mg 47.92200 34.19400 26.80600
C  46.14800 32.93000 29.60900
C  48.68600 37.00000 28.58200
C  48.91000 35.76600 23.92600
C  46.89100 31.50700 24.98300
N  47.49800 34.76100 28.85200
C  46.85000 34.08600 29.88200
C  46.97600 34.78400 31.18900
C  47.36700 36.22100 30.68300
C  47.94700 36.02700 29.26400
C  46.21600 37.27800 30.77800
C  48.02700 34.16800 32.19500
C  47.69700 34.36400 33.62400
H  46.71900 35.45300 34.08900
N  48.65800 36.13800 26.36900
C  48.99400 37.05400 27.27200
C  49.60100 38.21000 26.59900
C  49.60900 37.92900 25.17800
C  48.93900 36.57400 25.09100
C  50.09500 39.38400 27.31600
C  50.22500 38.71100 24.11100
O  50.24000 38.25200 22.95800
C  51.01500 39.98700 24.32500
N  47.80800 33.71200 24.73800
C  48.37900 34.46700 23.74600
C  48.40700 33.73000 22.45900
C  47.65000 32.37900 22.64800
C  47.47900 32.49500 24.19000
C  47.90500 34.52500 21.25200
C  48.49100 31.12300 22.30100
C  49.60600 30.67100 23.22500
N  46.84100 32.45000 27.21400
C  46.50500 31.42100 26.35700
C  45.80000 30.40900 27.08800
C  45.53300 31.02600 28.35500
C  46.23200 32.23900 28.41000
C  45.23800 29.16500 26.63200
C  44.78000 30.82600 29.53700
O  44.06600 29.84800 29.85500
C  45.03500 32.13700 30.40000
C  45.32300 31.74700 31.78700
O  46.33900 31.19200 32.15300
O  44.22600 32.19800 32.59600
C  44.38000 31.85300 34.03100
H  48.87900 37.85700 29.23100
H  49.56400 36.10400 23.11900
H  46.67100 30.58300 24.44400
H  45.96000 34.72600 31.57900
H  48.08900 36.58000 31.41700
H  45.28900 36.92000 31.22500
H  45.90000 37.48400 29.75500
H  46.50600 38.23100 31.22000
H  49.06500 34.47000 32.05000
H  48.12300 33.08300 32.17100
H  48.63200 34.60800 34.12900
H  47.22000 33.47300 34.03100
H  49.68800 40.27900 26.84700
H  51.18300 39.33600 27.26500
H  49.89000 39.43500 28.38600
H  51.29700 40.46500 23.38700
H  51.90300 39.70600 24.89200
H  50.53600 40.68500 25.01200
H  49.45900 33.51400 22.27100
H  46.77000 32.54900 22.02900
H  46.95200 34.11500 20.91900
H  48.75800 34.64700 20.58400
H  47.65100 35.53300 21.58000
H  48.90800 31.29800 21.31000
H  47.73500 30.35500 22.46300
H  49.92200 31.46600 23.90100
H  50.53800 30.39200 22.73300
H  49.30200 29.79100 23.79100
H  45.46100 28.44000 27.41500
H  45.64800 28.87200 25.66500
H  44.15800 29.26900 26.52600
H  44.08400 32.66900 30.41600
H  43.72400 31.01000 34.25000
H  44.01700 32.70900 34.60000
H  45.37100 31.59900 34.40700
Mg 0.54700 43.28400 25.89900
C  2.56300 43.73200 28.71700
C  -1.92500 42.06200 27.95300
C  -1.15100 42.38100 23.19600
C  3.26000 44.29600 23.92800
N  0.41600 43.03800 28.07400
C  1.26700 43.37800 29.03900
C  0.62600 43.32600 30.42800
C  -0.85200 42.79000 30.10900
C  -0.82200 42.63600 28.59200
C  -1.37700 41.57000 30.84800
C  0.67900 44.65100 31.16900
C  0.95100 44.52700 32.69400
H  0.84400 43.21500 33.34900
N  -1.30100 42.39300 25.63000
C  -2.14500 42.00800 26.59200
C  -3.26100 41.23100 26.00500
C  -3.02900 41.31400 24.59200
C  -1.78700 42.09100 24.42400
C  -4.38100 40.58600 26.84500
C  -3.86500 40.78000 23.50600
O  -3.47100 40.96400 22.35000
C  -5.16600 40.03000 23.76000
N  0.92100 43.42000 23.83300
C  0.10500 42.91100 22.89300
C  0.75100 43.09100 21.48300
C  2.05400 43.86900 21.70000
C  2.11800 43.89100 23.24200
C  1.03200 41.71800 20.75300
C  2.13700 45.25000 20.97900
C  1.86800 46.52500 21.86700
N  2.50700 43.92000 26.23800
C  3.50800 44.23500 25.30900
C  4.77200 44.31100 26.03000
C  4.39700 44.11800 27.38600
C  3.00600 43.93400 27.45200
C  6.13400 44.62800 25.43000
C  4.96300 43.98100 28.63900
O  6.15300 43.88900 28.88200
C  3.80900 43.82200 29.58300
C  3.93700 42.57000 30.38800
O  3.50800 41.48200 29.95400
O  4.34100 42.80100 31.70800
C  4.58000 41.58300 32.53700
H  -2.73600 41.86500 28.65600
H  -1.56700 42.15700 22.21100
H  4.17200 44.47200 23.35300
H  1.24400 42.62300 30.98700
H  -1.56800 43.60000 30.24700
H  -0.59200 41.05900 31.40500
H  -1.67100 40.85200 30.08200
H  -2.26800 41.81800 31.42500
H  -0.25200 45.19600 31.00800
H  1.48400 45.24600 30.73900
H  0.23700 45.22100 33.13700
H  1.93500 44.97600 32.83300
H  -4.77400 41.12100 27.71000
H  -4.17700 39.52800 27.00800
H  -5.28100 40.59500 26.23000
H  -5.45000 39.52000 22.84000
H  -5.91800 40.72000 24.14400
H  -5.25200 39.24400 24.51000
H  0.00700 43.59200 20.86500
H  2.94700 43.30400 21.43500
H  1.06300 40.92500 21.50100
H  2.01600 41.73200 20.28500
H  0.33100 41.33200 20.01300
H  1.37000 45.14200 20.21100
H  3.10000 45.41100 20.49500
H  1.67400 47.30000 21.12600
H  2.71900 46.79200 22.49300
H  0.95900 46.43500 22.46200
H  6.09300 44.62700 24.34100
H  6.75100 43.78600 25.74400
H  6.59200 45.52800 25.84100
H  3.82000 44.69600 30.23400
H  5.65700 41.41700 32.51000
H  4.08600 40.63400 32.33100
H  4.37900 41.82000 33.58200

