158

Mg 41.17700 40.27900 27.25600
C  40.31100 42.94900 29.37900
C  42.20200 38.59100 29.92500
C  42.32900 38.00800 25.04500
C  40.83500 42.44400 24.44200
N  40.98700 40.55600 29.39400
C  40.60300 41.71200 30.03300
C  40.35100 41.51600 31.51900
C  41.05200 40.08800 31.73700
C  41.58700 39.76600 30.22600
C  42.36600 40.18500 32.66500
C  38.79500 41.65600 31.84200
C  38.51400 42.62400 32.98700
H  37.88400 42.04800 34.30200
N  42.10900 38.53000 27.45800
C  42.47500 37.99500 28.66400
C  43.10100 36.72000 28.44500
C  43.08300 36.47000 26.98600
C  42.49900 37.69100 26.43600
C  43.73100 35.94200 29.64500
C  43.59400 35.21100 26.20200
O  43.50400 34.89400 25.04300
C  44.20300 34.13900 26.96800
N  41.61600 40.29400 25.07700
C  41.99600 39.15900 24.34600
C  42.04600 39.40500 22.84300
C  41.46900 40.85300 22.74700
C  41.29600 41.23700 24.17200
C  43.49200 39.10400 22.23900
C  40.11700 40.88100 22.00300
C  38.84800 40.06600 22.47000
N  40.68800 42.29600 26.89700
C  40.58200 43.01600 25.72700
C  40.13800 44.35500 26.06400
C  40.03200 44.38100 27.50700
C  40.36800 43.05900 27.95800
C  39.90200 45.43400 25.04600
C  39.81900 45.17800 28.66800
O  39.57600 46.38100 28.78900
C  39.94500 44.29800 29.91700
C  41.08100 44.79600 30.77400
O  42.26800 44.78000 30.57100
O  40.57800 45.18300 31.99600
C  41.49700 45.56200 33.08800
H  42.49700 37.98300 30.78300
H  42.62300 37.11300 24.49200
H  40.60200 43.08000 23.58500
H  40.88300 42.28600 32.07800
H  40.35600 39.35900 32.15200
H  42.51500 41.22700 32.94900
H  43.22900 39.70100 32.20800
H  42.14800 39.52400 33.50400
H  38.48200 40.61500 31.92100
H  38.34100 42.03500 30.92700
H  37.72600 43.30800 32.67300
H  39.43200 43.05200 33.39100
H  44.04800 36.68100 30.38000
H  44.59700 35.34300 29.36200
H  43.00900 35.27600 30.11900
H  43.35300 33.94300 27.62100
H  45.02800 34.57800 27.52900
H  44.52500 33.24800 26.42900
H  41.37700 38.65700 22.41700
H  42.24700 41.43300 22.25100
H  44.16800 38.84500 23.05400
H  43.92800 39.88700 21.61900
H  43.41900 38.21600 21.61100
H  40.40000 40.47000 21.03300
H  39.75100 41.90400 21.92400
H  38.58200 39.36800 21.67600
H  37.93900 40.66200 22.55800
H  39.00800 39.42900 23.34000
H  40.63500 45.34500 24.24400
H  40.13900 46.40100 25.49000
H  38.87500 45.57900 24.70900
H  39.06900 44.26600 30.56500
H  42.54200 45.26100 33.00900
H  41.00500 45.08300 33.93500
H  41.41400 46.64700 33.15600
Mg -10.34200 39.88500 39.53600
C  -9.53900 36.53200 38.69800
C  -7.29000 40.80100 38.52900
C  -11.44500 43.07400 39.50400
C  -13.60000 38.84600 40.31800
N  -8.57800 38.68900 38.82100
C  -8.45200 37.34200 38.53300
C  -7.02000 37.04800 37.96100
C  -6.26600 38.41500 38.31100
C  -7.42600 39.37200 38.57300
C  -5.27300 38.37700 39.55500
C  -7.08500 36.60300 36.43900
C  -7.52800 37.66700 35.45800
H  -8.80000 37.52500 34.67500
N  -9.47700 41.71200 39.05400
C  -8.20900 41.90300 38.63200
C  -7.93700 43.28200 38.45400
C  -9.18800 43.98800 38.69900
C  -10.13300 42.90200 39.16400
C  -6.67400 43.83800 37.90900
C  -9.46200 45.48100 38.38100
O  -8.57700 46.15500 37.80000
C  -10.69700 46.30800 38.67400
N  -12.36200 40.83700 39.76600
C  -12.49000 42.17900 39.77400
C  -13.85800 42.50900 40.24700
C  -14.34400 41.20100 40.96000
C  -13.43500 40.26300 40.25200
C  -14.13300 43.87000 41.12100
C  -15.88900 40.99000 40.89000
C  -16.45200 40.42900 39.67800
N  -11.40400 38.10700 39.53100
C  -12.72800 37.83100 39.79400
C  -13.04900 36.40600 39.62700
C  -11.84400 35.90500 39.19700
C  -10.88500 36.93100 39.14300
C  -14.33100 35.75200 39.93500
C  -11.18400 34.61700 38.78200
O  -11.65600 33.49100 38.59700
C  -9.66300 35.03100 38.57000
C  -8.87000 34.34300 39.59300
O  -9.04600 34.31700 40.79500
O  -7.96100 33.50100 38.92400
C  -6.89100 32.81700 39.70600
H  -6.32300 41.21400 38.23300
H  -11.72700 44.12800 39.55400
H  -14.61000 38.47300 40.50500
H  -6.68100 36.23500 38.60300
H  -5.64900 38.63300 37.44000
H  -5.58200 38.96700 40.41800
H  -4.32300 38.64800 39.09400
H  -5.31600 37.38200 39.99700
H  -7.68000 35.69100 36.49900
H  -6.04800 36.29700 36.30600
H  -6.82900 37.66100 34.62200
H  -7.47500 38.70300 35.79100
H  -6.77200 44.30000 36.92600
H  -5.92900 43.07000 37.70200
H  -6.34300 44.63200 38.57800
H  -10.77900 46.36600 39.76000
H  -11.59900 45.83300 38.28600
H  -10.57200 47.32100 38.29300
H  -14.38200 42.55100 39.29200
H  -14.09600 41.15100 42.02000
H  -13.18800 44.37300 41.32200
H  -14.70200 43.55000 41.99400
H  -14.87000 44.52400 40.65500
H  -16.17700 42.03800 40.96600
H  -16.18500 40.45300 41.79200
H  -17.13500 41.15400 39.23400
H  -17.03300 39.58800 40.05800
H  -15.69600 40.14800 38.94500
H  -14.82500 36.41900 40.64100
H  -14.21500 34.75800 40.36500
H  -14.84500 35.64300 38.98000
H  -9.50800 34.67200 37.55200
H  -7.32500 32.11200 40.41500
H  -6.30100 33.57600 40.22100
H  -6.36100 32.23400 38.95300

