158

Mg 45.75800 4.82500 48.31300
C  43.80000 7.59800 47.68000
C  43.03300 2.80700 47.77900
C  47.82300 2.10300 48.17300
C  48.61000 6.79900 48.52500
N  43.55300 5.22300 47.85200
C  42.98500 6.43100 47.57800
C  41.54400 6.22400 47.13100
C  41.26800 4.72600 47.54700
C  42.72100 4.15300 47.75800
C  40.20700 4.42800 48.67000
C  41.38200 6.54600 45.64400
C  40.16200 7.40300 45.27900
H  39.51600 7.09800 43.96300
N  45.41800 2.78400 48.05900
C  44.24200 2.13000 47.92200
C  44.41300 0.70200 47.78600
C  45.78300 0.47400 47.99400
C  46.41600 1.79700 48.08600
C  43.33800 -0.28000 47.45100
C  46.42000 -0.96600 48.14400
O  45.77000 -2.00400 48.17600
C  47.88300 -1.16000 48.32900
N  47.95300 4.50400 48.02200
C  48.51100 3.29600 48.18600
C  50.02500 3.31600 48.21100
C  50.35900 4.83700 48.39300
C  48.87500 5.44900 48.25700
C  50.64400 2.32800 49.25500
C  51.32600 5.33900 47.28300
C  52.10700 6.67500 47.64800
N  46.12000 6.76000 48.21600
C  47.27900 7.42100 48.40900
C  47.02300 8.81600 48.48200
C  45.70400 8.94200 48.23300
C  45.17300 7.64200 48.03500
C  48.08000 9.86000 48.59000
C  44.68000 9.85200 47.92000
O  44.71800 11.05800 47.91800
C  43.35300 9.01300 47.62000
C  42.33300 9.36700 48.65700
O  42.51600 9.10500 49.84000
O  41.24700 9.97500 48.08700
C  40.14300 10.21200 49.14500
H  42.20900 2.11300 47.59900
H  48.49400 1.24500 48.09500
H  49.50000 7.38200 48.77300
H  40.86700 6.91100 47.63900
H  40.83900 4.11000 46.75700
H  39.44200 3.87800 48.12000
H  39.82600 5.31100 49.18200
H  40.62100 3.80400 49.46200
H  41.35300 5.63200 45.05100
H  42.23200 7.07900 45.22000
H  40.54600 8.41400 45.41900
H  39.34700 7.27500 45.99100
H  42.81400 -0.83000 48.23300
H  43.72700 -0.90200 46.64500
H  42.60300 0.31800 46.91300
H  48.33700 -0.69700 47.45300
H  48.16200 -2.16300 48.65200
H  48.15700 -0.68000 49.26900
H  50.39300 2.96500 47.24700
H  50.77400 5.05000 49.37800
H  49.99800 2.06000 50.09200
H  51.48600 2.87000 49.68500
H  51.12000 1.46300 48.79400
H  50.81100 5.47500 46.33200
H  52.09200 4.57200 47.16000
H  53.13900 6.62900 47.30000
H  52.15800 6.78200 48.73100
H  51.56700 7.54500 47.27400
H  48.40900 9.71200 49.61900
H  47.55600 10.78700 48.35800
H  48.92200 9.69000 47.91800
H  42.97200 9.24000 46.62500
H  40.39500 10.81800 50.01500
H  39.73000 9.28000 49.53100
H  39.27300 10.75800 48.77900
Mg 4.89400 54.71200 39.69600
C  5.32700 51.27900 39.00200
C  7.92100 55.27600 38.26000
C  4.06700 57.92600 39.69400
C  1.76700 53.86600 41.02700
N  6.28400 53.45900 38.62800
C  6.26600 52.06800 38.42200
C  7.47000 51.71300 37.54800
C  8.53000 52.71900 38.07100
C  7.56900 53.90800 38.31000
C  9.21300 52.36100 39.43400
C  7.17000 51.93100 36.03700
C  7.40400 50.69200 35.13100
H  6.37200 50.48300 34.01400
N  5.86200 56.45200 39.05100
C  7.09800 56.41400 38.44500
C  7.41800 57.74900 38.08500
C  6.32800 58.58100 38.52300
C  5.32900 57.70400 39.11200
C  8.61000 58.17200 37.26900
C  6.18600 60.14000 38.22000
O  7.10200 60.75500 37.62300
C  4.84600 60.89000 38.37800
N  3.09500 55.67300 40.12600
C  3.03200 57.04700 40.07700
C  1.71600 57.57800 40.74600
C  0.83200 56.27100 40.99000
C  1.94900 55.15300 40.72800
C  1.88500 58.46500 41.95500
C  -0.41500 56.14900 40.11500
C  -1.74900 55.97300 40.80800
N  3.66800 52.90100 40.06100
C  2.49100 52.71900 40.71000
C  2.30900 51.27600 40.95600
C  3.40400 50.63300 40.25800
C  4.15800 51.65300 39.70900
C  1.23000 50.58900 41.82700
C  4.12200 49.40200 39.95800
O  3.79500 48.23200 40.26500
C  5.42400 49.72200 39.15400
C  5.38500 48.98200 37.85800
O  4.51900 49.08700 36.98000
O  6.48000 48.12700 37.84000
C  6.44800 47.16700 36.65300
H  8.95900 55.52600 38.02800
H  3.69500 58.95200 39.64600
H  0.95900 53.62900 41.72200
H  7.79800 50.71700 37.84500
H  9.29700 53.02900 37.36100
H  9.19700 51.29900 39.67800
H  8.72200 53.02000 40.15100
H  10.22900 52.75100 39.37700
H  7.88800 52.64500 35.63400
H  6.11200 52.17500 35.94300
H  7.43200 49.78100 35.72800
H  8.40400 50.83300 34.72100
H  8.19200 58.81900 36.49700
H  9.02200 57.32000 36.72900
H  9.42800 58.50000 37.91100
H  4.93900 61.77600 37.75000
H  4.74700 61.14100 39.43400
H  3.93100 60.36700 38.10000
H  1.20200 58.13600 39.96300
H  0.58600 56.25300 42.05200
H  1.56400 59.44000 41.58900
H  2.92700 58.49500 42.27400
H  1.25200 58.18700 42.79800
H  -0.11600 55.25800 39.56200
H  -0.52800 56.93100 39.36400
H  -2.60600 56.33100 40.23800
H  -1.81500 56.40800 41.80500
H  -1.80300 54.89200 40.93900
H  1.28900 50.48100 42.91000
H  1.09000 49.54900 41.53100
H  0.26500 51.05200 41.61900
H  6.33600 49.41500 39.66600
H  6.79600 46.31100 37.23100
H  7.17300 47.38000 35.86900
H  5.46700 46.89500 36.26300

