158

Mg 2.31000 -0.58500 44.25900
C  5.53300 0.34900 43.74900
C  1.27300 2.18400 42.50900
C  -0.87200 -1.95400 44.20200
C  3.52100 -3.72600 45.46500
N  3.29200 1.08400 43.15500
C  4.67100 1.20300 43.03100
C  4.95700 2.55400 42.25400
C  3.59700 3.21700 42.08100
C  2.63100 2.09800 42.56100
C  3.40100 4.57400 42.76900
C  5.62200 2.30400 40.79100
C  6.57000 3.35600 40.20200
H  6.08200 4.01700 38.90300
N  0.49700 0.11600 43.66400
C  0.27100 1.32200 42.98100
C  -1.16000 1.55600 42.92300
C  -1.82400 0.37000 43.29600
C  -0.74000 -0.58600 43.73100
C  -1.67300 2.92300 42.45500
C  -3.32100 0.19000 43.23400
O  -4.11400 1.06600 42.83500
C  -3.90500 -1.15600 43.63100
N  1.47600 -2.61700 44.61700
C  0.14800 -2.83600 44.65100
C  -0.19200 -4.16400 45.39500
C  1.23300 -4.74400 45.63600
C  2.16600 -3.72400 45.09800
C  -1.14800 -4.15500 46.67800
C  1.49000 -6.15500 44.93900
C  0.91500 -7.32800 45.72100
N  4.15800 -1.50600 44.64800
C  4.48900 -2.74200 45.15000
C  5.86800 -2.81400 45.29900
C  6.37600 -1.60100 44.80900
C  5.28700 -0.88800 44.33300
C  6.64000 -3.97300 45.80900
C  7.58100 -0.84200 44.50400
O  8.76600 -1.08200 44.79200
C  7.08700 0.44300 43.76900
C  7.52800 1.71500 44.47700
O  7.15300 2.16400 45.56900
O  8.48700 2.40000 43.76000
C  9.17000 3.58300 44.39900
H  0.96600 3.12000 42.03800
H  -1.84700 -2.24500 44.60100
H  3.99300 -4.59900 45.92100
H  5.65100 3.17900 42.81600
H  3.53100 3.37900 41.00500
H  3.59800 5.46700 42.17600
H  4.06900 4.55600 43.63100
H  2.52800 4.80800 43.37800
H  4.82900 2.02700 40.09600
H  6.20800 1.38600 40.76000
H  7.56500 2.93800 40.04700
H  6.66500 4.07700 41.01400
H  -0.98800 3.74700 42.65800
H  -2.72400 3.12700 42.66300
H  -1.71100 2.92500 41.36500
H  -4.97400 -1.17000 43.41900
H  -3.84100 -1.22900 44.71700
H  -3.45400 -2.03600 43.17300
H  -0.74800 -4.77900 44.68800
H  1.38000 -4.93500 46.69900
H  -1.42900 -3.12300 46.88900
H  -0.79800 -4.60700 47.60600
H  -2.10100 -4.63500 46.45200
H  2.56100 -6.22800 44.75100
H  0.94000 -6.19700 43.99900
H  1.60400 -8.06800 46.12800
H  0.21000 -7.82100 45.05100
H  0.29500 -7.02000 46.56200
H  7.08000 -4.50400 44.96500
H  5.97500 -4.70900 46.26100
H  7.35900 -3.72500 46.58900
H  7.49300 0.38500 42.75900
H  9.35700 3.34100 45.44500
H  8.53700 4.47000 44.37500
H  10.17600 3.63200 43.98300
Mg 47.37100 34.56200 27.12100
C  45.81800 32.84600 29.79800
C  47.58400 37.27300 29.34300
C  48.59100 36.42400 24.55100
C  46.83900 31.96300 25.03300
N  47.07300 34.96000 29.44500
C  46.38000 34.08600 30.25000
C  46.34500 34.55900 31.72900
C  46.49400 36.13400 31.49600
C  47.14500 36.15800 30.01200
C  45.25500 37.04900 31.66800
C  47.59300 33.92600 32.56500
C  47.34900 33.35100 33.87000
H  48.13800 34.04900 34.97800
N  48.12300 36.56100 27.02600
C  48.10500 37.48700 28.04200
C  48.66700 38.72800 27.49100
C  48.95100 38.54600 26.15200
C  48.60800 37.14000 25.81800
C  49.10300 39.90700 28.44500
C  49.56000 39.56100 25.22600
O  50.05200 39.27800 24.11600
C  49.91000 41.03200 25.76300
N  47.67300 34.27800 25.07400
C  48.13600 35.15000 24.17800
C  48.15000 34.69500 22.72400
C  47.62000 33.20700 22.97900
C  47.41800 33.10300 24.49300
C  47.15700 35.60000 21.90500
C  48.57400 32.16400 22.43600
C  49.65500 31.72000 23.39100
N  46.52600 32.77800 27.31300
C  46.41200 31.81400 26.35300
C  45.68500 30.67300 26.95200
C  45.40800 31.05500 28.30000
C  46.01400 32.33300 28.44900
C  45.34200 29.39000 26.29300
C  44.68900 30.66500 29.49600
O  44.12900 29.56600 29.74700
C  44.78200 31.92600 30.45200
C  45.13000 31.28600 31.74900
O  46.18800 30.87600 32.12400
O  43.98900 31.27500 32.42700
C  44.07900 30.57900 33.75000
H  47.60200 38.17800 29.95500
H  49.09800 37.00300 23.77600
H  46.66100 31.02900 24.49500
H  45.43100 34.30200 32.26500
H  47.26900 36.60600 32.10000
H  45.20000 37.70600 32.53600
H  44.37200 36.41200 31.61400
H  45.23600 37.73100 30.81800
H  48.36200 34.69800 32.57400
H  47.98600 33.15600 31.90000
H  47.67500 32.31600 33.96600
H  46.28200 33.36600 34.09400
H  49.25000 39.58400 29.47600
H  48.50000 40.80100 28.28800
H  50.11600 40.16200 28.13600
H  49.02500 41.48000 26.21500
H  50.22900 41.52500 24.84400
H  50.75800 41.05500 26.44700
H  49.14700 34.75500 22.28800
H  46.59600 33.12600 22.61500
H  46.86800 36.42000 22.56200
H  46.31300 35.07400 21.46100
H  47.78800 36.11500 21.18000
H  49.00000 32.58900 21.52700
H  48.00900 31.26900 22.17400
H  50.52600 31.54200 22.76100
H  49.44500 30.79600 23.92900
H  49.90400 32.58100 24.01300
H  44.75600 28.68700 26.88500
H  46.22100 28.87200 25.90700
H  44.69900 29.59300 25.43700
H  43.83300 32.46100 30.43500
H  44.51900 29.59800 33.57100
H  43.11300 30.56300 34.25700
H  44.73000 31.10900 34.44500

