158

Mg 2.56600 8.68500 26.39100
C  2.97400 10.97900 29.16300
C  3.03200 6.17300 28.71600
C  2.86200 6.67100 23.79700
C  2.83400 11.41300 24.25000
N  3.06200 8.61800 28.62400
C  3.07800 9.66800 29.55500
C  3.10800 9.11500 30.98400
C  3.07500 7.64100 30.77100
C  3.07600 7.43400 29.28200
C  4.15100 6.87000 31.50800
C  1.85700 9.63000 31.64400
C  1.42700 9.07100 32.99900
H  2.48800 8.43900 33.85100
N  2.78600 6.65200 26.28800
C  2.92900 5.78900 27.37400
C  2.92200 4.45900 26.77800
C  2.88200 4.51100 25.30700
C  2.81800 6.02400 25.06800
C  3.10700 3.17500 27.51700
C  2.84000 3.34800 24.27900
O  2.61700 3.55200 23.05200
C  3.14000 1.94100 24.66600
N  2.60100 9.01500 24.22900
C  2.79200 7.96800 23.42000
C  2.64500 8.40800 21.98100
C  2.84900 9.98700 22.06200
C  2.83100 10.19500 23.59100
C  3.48100 7.63700 20.90900
C  1.74800 10.87000 21.39100
C  0.33800 10.78100 21.81100
N  2.70200 10.79400 26.55300
C  2.81600 11.75600 25.60900
C  2.96600 13.08100 26.22300
C  2.96400 12.79700 27.62200
C  2.87500 11.40900 27.76500
C  3.16700 14.23400 25.45400
C  3.17500 13.43300 28.90100
O  3.36000 14.65100 29.12100
C  3.23500 12.28200 29.97700
C  4.54800 12.37100 30.55300
O  5.63700 12.51700 29.98500
O  4.44000 12.26200 31.91000
C  5.63600 12.16900 32.71700
H  2.94500 5.36500 29.44500
H  2.99100 5.99100 22.95200
H  3.01400 12.26400 23.59000
H  3.99700 9.48700 31.49500
H  2.08900 7.32200 31.10700
H  4.67400 6.40400 30.67200
H  3.51500 6.29500 32.18100
H  4.89900 7.46700 32.02800
H  1.04800 9.35900 30.96700
H  2.01500 10.70700 31.70000
H  0.64700 8.31500 32.90500
H  0.99900 9.89400 33.57200
H  4.03400 2.65200 27.28000
H  2.29600 2.47600 27.31400
H  3.29000 3.33300 28.58000
H  2.90200 1.30600 23.81300
H  2.38500 1.61900 25.38300
H  4.18000 1.81800 24.96900
H  1.58600 8.25600 21.77200
H  3.85700 10.23300 21.72900
H  4.34200 7.08200 21.28200
H  3.83100 8.32800 20.14200
H  2.87800 6.91800 20.35300
H  1.73800 10.61500 20.33100
H  2.01300 11.92700 21.42500
H  -0.34300 11.02100 20.99500
H  0.15400 11.53100 22.58100
H  0.01100 9.84900 22.27100
H  2.28700 14.68000 24.99100
H  3.90500 14.00100 24.68700
H  3.71300 14.97800 26.03500
H  2.39600 12.40800 30.66100
H  6.06400 13.17000 32.66100
H  6.32500 11.38700 32.39900
H  5.28500 11.98700 33.73300
Mg 45.62700 44.49700 43.17000
C  42.19600 44.14800 42.95800
C  46.00700 41.23200 42.48200
C  48.84600 45.12000 42.81700
C  45.05400 48.00600 43.42500
N  44.22300 42.92700 42.83300
C  42.90400 42.93500 42.95800
C  42.33600 41.48800 42.79000
C  43.59500 40.59200 42.89600
C  44.69100 41.66600 42.83200
C  43.65000 39.81200 44.23700
C  41.47800 41.33900 41.58700
C  41.86700 42.07800 40.28500
H  41.75300 41.36200 38.97300
N  47.24300 43.30000 42.69000
C  47.18000 41.96800 42.52000
C  48.52300 41.46100 42.32200
C  49.43400 42.55100 42.39000
C  48.51900 43.73300 42.62600
C  48.89600 40.04400 42.04500
C  50.87600 42.51100 42.18000
O  51.52200 41.45900 42.11400
C  51.69300 43.75200 42.22500
N  46.82700 46.33100 43.19300
C  48.13400 46.31600 43.02300
C  48.68800 47.78700 42.95100
C  47.43700 48.58700 43.36800
C  46.37000 47.58000 43.37300
C  49.97700 47.99000 43.84000
C  47.28300 49.69200 42.30000
C  46.73900 50.97700 42.74400
N  43.99900 45.89600 43.23400
C  43.90400 47.24500 43.33500
C  42.52200 47.68600 43.35400
C  41.80300 46.46900 43.27500
C  42.70700 45.42400 43.20200
C  42.03700 49.10400 43.56100
C  40.39400 45.92500 43.18100
O  39.31500 46.47200 43.27400
C  40.65400 44.35300 42.90100
C  39.82100 43.56600 43.82800
O  38.92800 42.80100 43.53800
O  40.26300 43.83900 45.11600
C  39.90300 42.74200 45.95400
H  46.02600 40.16200 42.26300
H  49.87300 45.46800 42.69300
H  44.80700 49.04100 43.67000
H  41.69000 41.25400 43.63600
H  43.71400 39.88900 42.07200
H  42.89600 39.91700 45.01700
H  44.40100 40.29900 44.85800
H  43.90500 38.77900 44.00100
H  40.48200 41.70300 41.84000
H  41.44900 40.25600 41.47100
H  42.89900 42.40000 40.42200
H  41.26500 42.96900 40.10400
H  48.03400 39.43100 42.30600
H  49.70700 39.62500 42.64100
H  49.09400 39.98100 40.97500
H  51.69100 44.15100 43.23900
H  51.22700 44.46000 41.53900
H  52.72300 43.46600 42.01300
H  48.99000 47.81400 41.90400
H  47.63900 49.00800 44.35300
H  49.85900 48.85500 44.49100
H  50.80400 48.19000 43.15800
H  50.21300 47.13700 44.47700
H  46.65800 49.29500 41.50000
H  48.27000 49.93000 41.90300
H  47.56200 51.51300 43.21800
H  45.88900 50.87100 43.41700
H  46.43300 51.63300 41.92800
H  42.75900 49.82100 43.95000
H  41.22100 49.00900 44.27800
H  41.77900 49.48000 42.57100
H  40.29600 44.21500 41.88100
H  40.39600 42.70100 46.92600
H  40.24700 41.81500 45.49500
H  38.83100 42.79100 46.14400

