158

Mg 25.47400 -0.20400 28.59500
C  27.53100 -0.22200 31.47900
C  22.79100 0.18600 30.74400
C  23.54000 -0.09700 25.92100
C  28.30500 -0.54900 26.60700
N  25.18400 -0.15000 30.85700
C  26.21400 -0.06800 31.82000
C  25.68200 0.08700 33.26000
C  24.14100 0.15600 33.00300
C  24.00100 0.07800 31.44200
C  23.34200 -0.93900 33.66900
C  26.20900 1.35600 34.06200
C  25.55500 1.60000 35.44400
H  26.45200 1.96500 36.61400
N  23.36900 -0.13800 28.42200
C  22.43400 -0.00300 29.42700
C  21.11900 0.08200 28.75900
C  21.32800 0.01800 27.37000
C  22.76900 -0.09800 27.19200
C  19.82100 0.33600 29.53400
C  20.35800 0.02600 26.19300
O  20.75600 -0.07800 25.05100
C  18.86700 0.24300 26.37400
N  25.83500 -0.46700 26.52400
C  24.86500 -0.26300 25.62500
C  25.53400 -0.06800 24.21100
C  27.05300 -0.11100 24.47700
C  27.07400 -0.50800 25.91900
C  24.98500 -1.09200 23.20300
C  27.76900 1.20400 24.28200
C  29.12200 1.33000 23.56700
N  27.50600 -0.45200 28.94900
C  28.57100 -0.58100 28.05400
C  29.78700 -0.75000 28.84300
C  29.42200 -0.60600 30.15100
C  27.98800 -0.42400 30.19000
C  31.18600 -0.90700 28.34200
C  29.95300 -0.54700 31.46100
O  31.09200 -0.61700 31.85700
C  28.73500 -0.27500 32.43900
C  28.61800 -1.14300 33.63300
O  28.46700 -2.35300 33.59600
O  28.97100 -0.51800 34.80900
C  28.81200 -1.28600 36.04400
H  21.91800 0.38800 31.36900
H  23.08900 0.02300 24.93400
H  29.29300 -0.45000 26.15500
H  25.93400 -0.86900 33.71800
H  23.78000 1.16400 33.20600
H  23.84500 -1.30200 34.56500
H  23.10800 -1.75100 32.98100
H  22.37900 -0.48300 33.90200
H  25.94600 2.21400 33.44400
H  27.29800 1.36400 34.10000
H  24.98400 0.72400 35.75300
H  24.78200 2.35700 35.31400
H  19.53100 1.38300 29.45300
H  19.72600 -0.02500 30.55800
H  19.03700 -0.22300 29.02200
H  18.42100 -0.42900 27.10700
H  18.42200 0.02700 25.40200
H  18.72200 1.24800 26.76900
H  25.25400 0.90700 23.81300
H  27.49600 -0.80400 23.76200
H  24.49800 -1.84600 23.82200
H  25.72900 -1.55300 22.55300
H  24.26900 -0.63100 22.52300
H  27.83600 1.74700 25.22500
H  27.11900 1.89100 23.74100
H  28.92100 1.66300 22.54900
H  29.57600 0.34500 23.46600
H  29.80700 2.00400 24.08200
H  31.21000 -0.57100 27.30500
H  31.59700 -1.91400 28.40100
H  31.75000 -0.27300 29.02700
H  28.91500 0.71400 32.86000
H  28.13000 -2.12900 35.93900
H  28.30500 -0.61100 36.73300
H  29.72800 -1.58000 36.55600
Mg -1.87200 34.17400 26.82500
C  -2.92300 32.42700 29.67000
C  -0.01200 36.17600 28.92900
C  -0.70500 35.83200 24.14900
C  -3.67500 31.93900 24.92600
N  -1.61300 34.36500 29.08700
C  -2.08300 33.45900 29.99600
C  -1.62500 33.88700 31.45500
C  -0.72800 35.12300 31.14400
C  -0.82100 35.27100 29.63900
C  -1.10900 36.47500 31.87300
C  -0.92400 32.74100 32.24500
C  -1.51400 32.56500 33.67800
H  -0.56800 32.65100 34.85500
N  -0.65900 35.95100 26.63600
C  0.06400 36.59800 27.59600
C  1.01600 37.51400 26.92900
C  0.75900 37.43400 25.53100
C  -0.28500 36.37900 25.40500
C  1.85200 38.50500 27.66900
C  1.29900 38.27000 24.45100
O  0.97000 38.27400 23.27300
C  2.46600 39.12600 24.74400
N  -2.34900 34.05300 24.84400
C  -1.64800 34.81400 23.81900
C  -2.03600 34.29300 22.43800
C  -2.87900 33.00600 22.75900
C  -2.93900 32.93500 24.26400
C  -2.68600 35.42600 21.50600
C  -2.36200 31.65900 22.02800
C  -0.91100 31.20200 22.38300
N  -3.17100 32.59800 27.17600
C  -3.80600 31.74800 26.32100
C  -4.69200 30.79400 27.10400
C  -4.24600 30.99200 28.42500
C  -3.37900 32.10300 28.42000
C  -5.55300 29.82400 26.42500
C  -4.37100 30.51300 29.83900
O  -5.07200 29.64400 30.37200
C  -3.66100 31.51700 30.59400
C  -4.63800 32.21000 31.44500
O  -5.26600 33.21600 31.15700
O  -4.61900 31.69600 32.71400
C  -5.50600 32.19800 33.76800
H  0.57200 36.85100 29.55800
H  -0.29200 36.19300 23.20400
H  -4.25200 31.23200 24.32500
H  -2.59200 34.19300 31.85500
H  0.29000 34.85400 31.42800
H  -0.24600 36.91800 32.36900
H  -1.76600 36.27100 32.71900
H  -1.63000 37.15700 31.20000
H  0.15900 32.84700 32.29600
H  -1.14700 31.81900 31.70800
H  -2.00800 31.59500 33.63600
H  -2.40800 33.17900 33.78700
H  1.59900 39.50300 27.31200
H  2.90700 38.29600 27.49100
H  1.46300 38.60500 28.68200
H  2.98800 39.40400 23.82900
H  3.16700 38.58100 25.37700
H  2.12600 40.02700 25.25400
H  -1.15500 33.90000 21.93100
H  -3.82100 33.22000 22.25400
H  -2.60200 36.44500 21.88300
H  -3.75500 35.23000 21.43000
H  -2.15000 35.18800 20.58700
H  -2.32300 31.75400 20.94300
H  -3.00400 30.83000 22.32300
H  -0.40000 31.93300 23.00900
H  -0.36800 30.94200 21.47400
H  -0.98700 30.38400 23.09900
H  -5.07000 28.91900 26.05600
H  -5.97500 30.28600 25.53300
H  -6.41300 29.54200 27.03100
H  -3.04000 31.03400 31.34800
H  -6.38000 31.56000 33.89500
H  -5.82000 33.22500 33.58000
H  -5.08700 32.16800 34.77400

