158

Mg 6.98100 54.88100 40.99900
C  6.42400 51.36200 41.24100
C  10.28100 54.09900 40.67700
C  7.42900 58.07400 40.18500
C  3.52600 55.23000 41.19100
N  8.19200 52.99000 40.76700
C  7.75900 51.68600 40.90100
C  8.92200 50.72800 40.70300
C  10.04100 51.68400 41.02700
C  9.49800 53.01800 40.85600
C  10.87700 51.46900 42.39400
C  8.88500 49.98200 39.32300
C  8.57900 50.91700 38.12900
H  7.34100 50.78700 37.34900
N  8.60000 55.96800 40.49900
C  9.91400 55.49600 40.47000
C  10.80400 56.55700 40.12900
C  10.01000 57.77200 40.06100
C  8.61900 57.33300 40.21000
C  12.29600 56.38900 39.78500
C  10.50400 59.19800 39.84600
O  11.73600 59.44600 39.89800
C  9.57000 60.43600 39.84600
N  5.71100 56.30200 40.55300
C  6.14500 57.59800 40.32500
C  4.98100 58.55700 40.32100
C  3.66000 57.64300 40.42600
C  4.31000 56.28500 40.77700
C  4.94900 59.67800 41.36700
C  2.74000 57.70700 39.20600
C  2.24100 59.15000 38.66200
N  5.29800 53.55900 41.15300
C  3.94200 53.90400 41.32400
C  3.20300 52.76200 41.79900
C  4.14200 51.71100 41.70400
C  5.41400 52.26700 41.38000
C  1.72200 52.65300 42.04100
C  4.33600 50.33200 41.98900
O  3.59300 49.48900 42.47000
C  5.82600 49.97900 41.57200
C  5.63500 49.02700 40.47300
O  5.21600 49.40800 39.35700
O  5.83100 47.73900 40.79200
C  5.87600 46.75500 39.69300
H  11.31300 53.78600 40.50500
H  7.50500 59.11700 39.87000
H  2.47300 55.43500 41.39400
H  8.75500 50.00100 41.49800
H  10.82300 51.79000 40.27500
H  11.93500 51.45500 42.13100
H  10.78100 50.44300 42.75000
H  10.61500 52.15300 43.20000
H  8.14100 49.18800 39.39000
H  9.85900 49.54000 39.11500
H  9.40800 50.84000 37.42500
H  8.60300 51.92200 38.55100
H  12.82800 55.94700 40.62800
H  12.71500 57.35700 39.50900
H  12.27000 55.77500 38.88400
H  8.96300 60.38600 38.94300
H  10.10100 61.38500 39.92900
H  8.94900 60.25200 40.72300
H  5.01900 59.05100 39.35000
H  3.01800 57.83500 41.28600
H  4.82200 60.67000 40.93400
H  5.94900 59.63800 41.80000
H  4.20300 59.61800 42.15900
H  1.84300 57.13300 39.43600
H  3.30600 57.22800 38.40700
H  2.64800 59.91800 39.32000
H  1.16000 59.26900 38.73500
H  2.45300 59.22300 37.59500
H  1.25000 52.13500 41.20700
H  1.32200 53.66300 42.13300
H  1.64800 52.04500 42.94300
H  6.21300 49.48200 42.46100
H  6.26200 45.85600 40.17500
H  6.44800 46.98100 38.79300
H  4.85400 46.48700 39.42400
Mg -11.05800 17.17500 43.02100
C  -7.67000 17.88900 43.35900
C  -11.58000 20.45000 42.44600
C  -14.07300 16.26000 41.85100
C  -10.15800 13.67700 42.87300
N  -9.73200 18.89300 42.87900
C  -8.39900 19.02400 43.18900
C  -7.89900 20.43400 42.98800
C  -9.27000 21.24000 43.21800
C  -10.28600 20.15300 42.89800
C  -9.46200 21.76100 44.64600
C  -7.18100 20.69100 41.65700
C  -5.63200 20.98300 41.75100
H  -5.15900 21.57100 40.44900
N  -12.69500 18.21800 42.35500
C  -12.68100 19.55100 42.17200
C  -13.97500 19.92800 41.69700
C  -14.77300 18.72800 41.63700
C  -13.82900 17.67600 41.92000
C  -14.45500 21.37700 41.49600
C  -16.30900 18.60600 41.14400
O  -16.92100 19.61800 40.76400
C  -16.85700 17.27500 40.81600
N  -11.95800 15.22400 42.34400
C  -13.29000 15.17600 42.14300
C  -13.74900 13.68200 42.09200
C  -12.42000 12.96000 41.95500
C  -11.40700 14.03500 42.44300
C  -14.60700 13.28300 43.37700
C  -12.03600 12.50500 40.45400
C  -12.30500 11.05800 39.94200
N  -9.36500 15.99400 43.28100
C  -9.14700 14.60700 43.28200
C  -7.73000 14.30200 43.65900
C  -7.13100 15.56300 43.63600
C  -8.14600 16.59300 43.47100
C  -7.04200 12.99100 43.83000
C  -5.83400 16.18400 43.72900
O  -4.66500 15.80500 43.82800
C  -6.21000 17.77000 43.76900
C  -5.90800 18.40900 45.06900
O  -6.50900 18.24500 46.15400
O  -4.92800 19.27600 44.87000
C  -4.56200 19.96700 46.05100
H  -11.71100 21.51800 42.26100
H  -15.10200 15.89600 41.80700
H  -9.94100 12.60800 42.84000
H  -7.23700 20.67200 43.82000
H  -9.28700 22.08400 42.52900
H  -9.94200 22.74000 44.63400
H  -8.54000 21.99200 45.18000
H  -10.02200 21.16100 45.36200
H  -7.64700 21.55300 41.18000
H  -7.31900 19.79600 41.05000
H  -5.05900 20.06000 41.84200
H  -5.27900 21.61900 42.56200
H  -13.62500 22.02900 41.76600
H  -15.36500 21.62800 42.04100
H  -14.67900 21.46600 40.43300
H  -16.31500 16.69300 40.07000
H  -17.88300 17.37900 40.46100
H  -16.95900 16.61300 41.67600
H  -14.29900 13.47200 41.17500
H  -12.27100 12.10900 42.62000
H  -13.99100 12.62500 43.99000
H  -15.47600 12.66800 43.14300
H  -14.84100 14.22800 43.86800
H  -11.03500 12.84000 40.18500
H  -12.73700 13.03200 39.80700
H  -11.44000 10.67400 39.40300
H  -13.16900 11.06400 39.27700
H  -12.50300 10.43400 40.81400
H  -7.61000 12.14600 43.43900
H  -6.96000 12.84200 44.90600
H  -6.06100 12.89000 43.36500
H  -5.62900 18.21500 42.96100
H  -3.51500 20.24200 45.92500
H  -4.60600 19.43900 47.00400
H  -5.27100 20.79200 46.12500

