158

Mg 46.94900 24.56800 27.71200
C  47.58300 26.79300 30.33800
C  45.69200 22.31000 30.10300
C  46.41800 22.40600 25.28100
C  48.47300 26.73100 25.47700
N  46.55000 24.58400 29.98200
C  46.89600 25.62500 30.78700
C  46.59800 25.30100 32.25000
C  46.05900 23.83400 32.12800
C  46.11300 23.53400 30.64400
C  46.91800 22.74900 32.86200
C  45.64300 26.31800 32.91500
C  46.13700 26.99800 34.23400
H  45.28000 26.87800 35.52600
N  46.08600 22.66300 27.67600
C  45.59300 21.94500 28.72400
C  45.07200 20.71400 28.25300
C  45.27800 20.64000 26.86500
C  45.91300 21.93400 26.51900
C  44.35400 19.60600 29.19000
C  45.00200 19.49100 25.82900
O  45.32200 19.48200 24.69700
C  44.30600 18.21600 26.34200
N  47.58900 24.50000 25.71000
C  47.00800 23.58800 24.86100
C  47.47700 23.84600 23.41800
C  47.86800 25.32900 23.48800
C  47.99300 25.52400 24.95400
C  48.64100 22.87100 23.06200
C  46.85800 26.30400 22.86800
C  45.45600 26.39900 23.46100
N  47.87200 26.42600 27.80200
C  48.44600 27.19300 26.79400
C  49.10900 28.31100 27.43300
C  48.80400 28.17500 28.85600
C  48.00100 27.04900 28.97000
C  50.06800 29.30300 26.92700
C  48.98200 28.78500 30.09400
O  49.63800 29.80200 30.41100
C  48.19100 27.91800 31.11500
C  49.10500 27.43900 32.13800
O  49.94800 26.60500 31.91400
O  48.96100 28.11500 33.30700
C  50.03300 28.10400 34.32200
H  45.48200 21.58400 30.89100
H  46.00300 21.71600 24.54400
H  48.97900 27.40700 24.78600
H  47.56100 25.18500 32.74800
H  45.07100 23.77200 32.58400
H  46.35700 22.11400 33.54800
H  47.78500 23.15600 33.38200
H  47.36400 22.06600 32.13800
H  44.65100 25.87000 32.98600
H  45.47800 27.19100 32.28500
H  46.26500 28.06000 34.02000
H  47.09600 26.51400 34.41700
H  44.58600 19.72100 30.24800
H  44.56900 18.54900 29.03400
H  43.27000 19.70900 29.13100
H  44.87100 17.68800 27.11000
H  44.11800 17.47700 25.56300
H  43.41000 18.56900 26.85200
H  46.66500 23.81500 22.69100
H  48.80000 25.52800 22.95900
H  48.39200 21.81100 23.10700
H  49.56800 23.10400 23.58500
H  48.88300 23.12300 22.03000
H  46.77400 26.13400 21.79500
H  47.29300 27.28800 23.04600
H  45.40000 27.19800 24.20000
H  45.31300 25.44400 23.96600
H  44.71500 26.52400 22.67200
H  50.56700 29.74600 27.78800
H  49.55000 30.06400 26.34400
H  50.87100 28.92800 26.29300
H  47.45100 28.55800 31.59700
H  50.25900 27.07800 34.61400
H  49.56900 28.65700 35.13800
H  50.95600 28.58800 34.00500
Mg -11.65800 38.40600 42.85300
C  -9.61900 35.80300 41.73900
C  -9.46100 40.60400 41.43600
C  -13.82000 40.99600 43.56300
C  -14.28700 36.11500 43.41300
N  -9.82800 38.11800 41.46900
C  -9.14100 36.96800 41.24800
C  -7.88500 37.18900 40.49100
C  -7.78400 38.77100 40.64700
C  -9.09500 39.20600 41.20300
C  -6.55600 39.31600 41.33400
C  -8.01300 36.80100 38.92900
C  -7.11600 35.65100 38.48600
H  -6.03000 35.82100 37.39400
N  -11.67500 40.53500 42.60400
C  -10.63600 41.21800 42.01500
C  -10.89200 42.64600 42.23200
C  -12.13000 42.84300 42.84900
C  -12.56800 41.43500 43.03200
C  -10.10100 43.74800 41.67100
C  -12.78600 44.15800 43.27000
O  -12.24500 45.25700 43.09400
C  -14.00300 44.13300 44.01200
N  -13.85200 38.49600 43.38000
C  -14.43800 39.74300 43.62300
C  -15.91700 39.57800 44.03600
C  -16.09400 37.95100 43.99200
C  -14.68000 37.45800 43.50800
C  -16.32200 40.04800 45.44200
C  -17.22500 37.57900 42.98800
C  -18.43600 36.92100 43.56900
N  -11.91200 36.34200 42.65700
C  -13.02000 35.55700 42.98300
C  -12.67500 34.20500 42.64200
C  -11.31100 34.27000 42.35100
C  -10.93800 35.59600 42.24900
C  -13.56700 33.05200 42.77100
C  -10.14900 33.44000 41.85500
O  -10.08400 32.27600 41.67400
C  -9.03700 34.44700 41.39800
C  -7.86600 34.17400 42.23400
O  -7.72800 34.42300 43.42400
O  -7.04000 33.33700 41.58900
C  -5.99000 32.60300 42.30500
H  -8.64200 41.27000 41.15700
H  -14.61400 41.69700 43.82800
H  -15.12900 35.45200 43.62200
H  -7.04900 36.71600 41.00500
H  -7.72300 39.19800 39.64600
H  -5.88900 39.91700 40.71600
H  -6.08300 38.47400 41.83900
H  -6.86800 39.95100 42.16400
H  -7.72800 37.69300 38.37000
H  -9.05800 36.58100 38.71500
H  -7.87800 34.95300 38.14000
H  -6.57200 35.33400 39.37600
H  -10.85900 44.20700 41.03600
H  -9.31300 43.46600 40.97200
H  -9.75100 44.51700 42.35900
H  -13.96400 43.46700 44.87400
H  -14.72300 43.82700 43.25400
H  -14.32500 45.14200 44.27100
H  -16.53200 40.16500 43.35300
H  -16.26800 37.47400 44.95600
H  -16.81800 39.41000 46.17400
H  -16.94500 40.93700 45.33900
H  -15.41200 40.33700 45.96700
H  -16.90000 36.89400 42.20600
H  -17.62500 38.50800 42.58300
H  -18.34200 35.83900 43.66000
H  -19.26600 37.15400 42.90200
H  -18.61100 37.34700 44.55700
H  -13.34400 32.54900 43.71200
H  -13.45700 32.30500 41.98500
H  -14.60300 33.38400 42.69600
H  -8.87600 34.33100 40.32600
H  -5.26100 33.25400 42.78700
H  -5.36200 32.24100 41.49100
H  -6.40600 31.91300 43.03900

