158

Mg 47.33600 44.54500 44.11300
C  43.91400 44.20000 43.59600
C  47.65900 41.16400 43.05900
C  50.69000 44.94400 43.88600
C  46.85800 48.03300 44.41100
N  45.87700 42.94800 43.49400
C  44.56900 42.98000 43.43300
C  43.92300 41.73700 42.91800
C  45.09100 40.76800 43.26000
C  46.32100 41.69300 43.27000
C  45.04800 39.95100 44.63100
C  43.65400 41.78800 41.36700
C  42.28500 41.38400 40.87900
H  42.18500 40.93600 39.36500
N  48.95800 43.20500 43.53400
C  48.88000 41.89600 43.16900
C  50.20200 41.35400 42.92100
C  51.06000 42.46600 43.09700
C  50.26600 43.57400 43.59900
C  50.39800 39.88200 42.58400
C  52.58400 42.44900 42.77100
O  53.07000 41.48000 42.15900
C  53.46700 43.56700 43.10400
N  48.58700 46.27000 44.07300
C  49.90100 46.14000 44.05100
C  50.61600 47.47900 44.05400
C  49.39800 48.40400 44.41000
C  48.19000 47.54400 44.25500
C  51.87800 47.62800 44.87600
C  49.28900 49.77900 43.67400
C  49.21800 51.01000 44.67200
N  45.74800 45.92600 44.12000
C  45.68600 47.25900 44.35000
C  44.29000 47.72900 44.29400
C  43.57300 46.52800 44.02500
C  44.50400 45.48300 43.93200
C  43.83400 49.02600 44.66600
C  42.25600 45.99100 43.91200
O  41.17000 46.56000 43.98800
C  42.43200 44.47100 43.43400
C  41.48800 43.62300 44.18100
O  40.33000 43.49200 43.90400
O  42.02400 43.11200 45.34900
C  41.02900 42.43500 46.19500
H  47.61200 40.09300 42.85000
H  51.75800 45.05200 44.09200
H  46.60000 49.06900 44.63900
H  43.06800 41.56500 43.57300
H  45.15600 40.08200 42.41500
H  45.47300 40.60600 45.39200
H  45.56000 38.99600 44.51600
H  43.99200 39.74000 44.80100
H  44.42200 41.28600 40.77700
H  43.69200 42.85300 41.13800
H  41.61800 42.23600 41.01000
H  41.89300 40.56200 41.47800
H  50.57200 39.91100 41.50800
H  49.52800 39.23900 42.71400
H  51.22400 39.43300 43.13500
H  52.96500 44.36100 42.55100
H  54.44100 43.37900 42.65200
H  53.49100 43.63300 44.19200
H  50.84300 47.66500 43.00400
H  49.49500 48.50000 45.49100
H  52.32000 46.67100 45.15600
H  51.64300 48.34800 45.65900
H  52.60000 48.01100 44.15400
H  48.39000 49.75700 43.05800
H  50.13300 49.81700 42.98600
H  49.30300 50.62400 45.68700
H  48.23900 51.44000 44.45800
H  49.90200 51.83000 44.45200
H  44.30400 49.69000 43.94000
H  44.08800 49.24200 45.70400
H  42.75100 49.07200 44.55100
H  42.07400 44.41600 42.40600
H  40.46000 41.67300 45.66200
H  40.28000 43.09700 46.63000
H  41.57900 41.99500 47.02600
Mg -9.97000 18.28300 42.62200
C  -6.64200 17.29500 42.52700
C  -9.05400 21.42400 41.64700
C  -13.22500 19.04000 41.81400
C  -10.82600 14.95100 42.93600
N  -8.12900 19.20200 42.04500
C  -6.86500 18.67400 42.15400
C  -5.75400 19.62500 41.75900
C  -6.54200 20.95100 41.95300
C  -8.02300 20.50400 41.81900
C  -6.27300 21.82000 43.26900
C  -5.09400 19.32600 40.43700
C  -6.02900 18.65700 39.46400
H  -5.41600 18.51500 38.07100
N  -11.00000 20.09800 42.03000
C  -10.42200 21.27600 41.74500
C  -11.46400 22.30300 41.48800
C  -12.73300 21.56900 41.61600
C  -12.37600 20.19100 41.87000
C  -11.15300 23.79900 41.17300
C  -14.05300 22.20600 41.48300
O  -14.06800 23.44700 41.36200
C  -15.26600 21.43900 41.58400
N  -11.85500 17.15700 42.49500
C  -13.02300 17.68800 42.10600
C  -14.11200 16.55600 41.90900
C  -13.41200 15.35100 42.70500
C  -11.89700 15.80700 42.59500
C  -15.48000 16.87800 42.52400
C  -13.79300 13.96300 42.05800
C  -13.75600 12.87800 43.04400
N  -8.91100 16.43600 42.82500
C  -9.42500 15.14800 43.04700
C  -8.38600 14.17100 43.19600
C  -7.22500 14.99800 43.07300
C  -7.62000 16.33800 42.83500
C  -8.52200 12.65000 43.13800
C  -5.77200 14.98300 42.94200
O  -4.96200 14.10000 42.88600
C  -5.30000 16.49700 42.73000
C  -4.59800 17.07800 43.85700
O  -3.47100 17.59400 43.75900
O  -5.33700 17.07100 45.02400
C  -4.74300 17.69200 46.19600
H  -8.76400 22.45500 41.43500
H  -14.15600 19.33500 41.32500
H  -11.16900 13.91700 43.02300
H  -4.95800 19.62400 42.50300
H  -6.40700 21.57100 41.06600
H  -7.14200 21.90200 43.92200
H  -5.89400 22.79200 42.95400
H  -5.52000 21.30400 43.86400
H  -4.28600 18.60500 40.56100
H  -4.73800 20.21100 39.91100
H  -6.93000 19.24000 39.27300
H  -6.16000 17.62700 39.79800
H  -11.87800 24.27800 40.51500
H  -10.27900 23.79300 40.52300
H  -11.00600 24.35800 42.09700
H  -15.23500 20.82400 42.48400
H  -15.40000 20.85400 40.67400
H  -16.06900 22.14700 41.78900
H  -14.26900 16.36100 40.84800
H  -13.73900 15.29900 43.74300
H  -15.57500 17.77300 43.13900
H  -15.77800 16.08700 43.21200
H  -16.18800 17.03800 41.71100
H  -13.06400 13.75500 41.27500
H  -14.79000 14.04700 41.62600
H  -13.32800 13.19800 43.99400
H  -13.17600 12.02300 42.69600
H  -14.73900 12.42900 43.19100
H  -9.30300 12.42300 42.41300
H  -8.92800 12.17400 44.03100
H  -7.65300 12.12500 42.74200
H  -4.59400 16.71300 41.92800
H  -3.69500 17.47700 46.40600
H  -5.35500 17.37400 47.04100
H  -5.00800 18.74500 46.10300

