158

Mg 46.46000 24.20800 28.50400
C  46.89900 26.47500 31.03600
C  45.16400 21.94800 30.79400
C  46.61900 21.69700 26.11600
C  48.02400 26.37500 26.28900
N  46.06600 24.26800 30.64200
C  46.27300 25.33300 31.43200
C  45.71900 25.08600 32.80900
C  45.40400 23.53100 32.80200
C  45.54700 23.24800 31.31900
C  46.30700 22.63800 33.73200
C  44.49300 25.99000 33.29100
C  44.71500 26.76100 34.66600
H  43.88600 26.39600 35.91600
N  45.84400 22.20100 28.41600
C  45.36100 21.46100 29.50600
C  44.96800 20.10600 29.06100
C  45.45000 20.04800 27.73300
C  46.02100 21.39600 27.32600
C  44.21400 19.14100 29.88600
C  45.27400 18.83800 26.73700
O  45.55100 18.96700 25.53500
C  44.71500 17.47300 27.20800
N  47.24200 23.97200 26.50700
C  47.15000 22.87600 25.70300
C  47.90100 23.04000 24.35700
C  48.13400 24.63200 24.37000
C  47.69500 25.07600 25.77000
C  49.26700 22.11900 24.30700
C  47.48100 25.39500 23.28500
C  45.94100 25.63900 23.33400
N  47.30000 26.09900 28.56200
C  47.77800 26.91900 27.56500
C  48.15400 28.25300 28.12900
C  47.84800 28.07000 29.51100
C  47.33800 26.77200 29.70700
C  48.67000 29.44900 27.43000
C  47.84300 28.67600 30.75400
O  48.27000 29.79900 31.05300
C  47.20300 27.67200 31.79800
C  48.37600 27.45400 32.76700
O  49.54000 27.19300 32.40600
O  47.95600 27.38300 34.01700
C  48.99000 27.12900 35.05600
H  44.75500 21.23600 31.51300
H  46.89500 20.90800 25.41300
H  48.57300 27.04900 25.62800
H  46.48300 25.31300 33.55400
H  44.40000 23.28200 33.14600
H  46.88700 23.30200 34.37200
H  46.88600 21.92800 33.14100
H  45.68700 21.98900 34.35000
H  43.63900 25.33400 33.45600
H  44.30300 26.77600 32.56000
H  44.62500 27.84300 34.57600
H  45.76800 26.66400 34.93000
H  44.84200 18.25400 29.97400
H  43.28900 18.88900 29.36700
H  43.85600 19.52000 30.84300
H  44.95300 16.77800 26.40200
H  43.63400 17.57200 27.10700
H  44.87500 17.12200 28.22700
H  47.28600 22.68100 23.53200
H  49.20500 24.76000 24.20900
H  49.21600 21.36100 25.08800
H  50.14200 22.75100 24.46300
H  49.21400 21.61000 23.34500
H  47.68500 24.81900 22.38200
H  48.03400 26.33200 23.22000
H  45.82300 26.69900 23.56100
H  45.39500 25.18800 24.16300
H  45.38600 25.37700 22.43400
H  47.90900 30.22000 27.31000
H  49.20400 29.20700 26.51100
H  49.29500 29.94800 28.17100
H  46.34400 28.14800 32.27100
H  49.47600 26.17700 34.84000
H  48.36300 27.12100 35.94700
H  49.73900 27.91800 35.13000
Mg -0.15700 43.85300 24.71100
C  2.06400 43.70000 27.43000
C  -2.69600 42.78300 26.82900
C  -2.16900 44.06800 22.18800
C  2.72500 44.27700 22.66700
N  -0.30400 43.29300 26.93500
C  0.69500 43.43600 27.84000
C  0.24900 43.01900 29.26400
C  -1.23600 42.50400 28.95600
C  -1.47600 42.95400 27.46300
C  -1.51400 41.02100 29.24200
C  0.26000 44.15400 30.25100
C  0.14000 43.76900 31.75900
H  0.11800 42.32200 32.14800
N  -2.22400 43.59600 24.54300
C  -3.02300 43.11200 25.52800
C  -4.35000 43.13000 24.94100
C  -4.24200 43.46200 23.57300
C  -2.87300 43.78400 23.35200
C  -5.53300 42.67900 25.66400
C  -5.28700 43.51200 22.44300
O  -5.11400 43.98200 21.34500
C  -6.66700 42.88800 22.69900
N  0.29400 44.09700 22.74900
C  -0.79200 44.19000 21.91800
C  -0.24400 44.13700 20.42200
C  1.20300 44.46700 20.65300
C  1.49800 44.30900 22.08800
C  -0.55800 42.66700 19.74100
C  1.61000 45.90100 20.06800
C  1.44100 47.05300 21.05200
N  1.99200 43.86500 24.88000
C  3.02000 44.08100 24.02700
C  4.21600 44.18200 24.64300
C  3.94500 44.00800 26.02300
C  2.55500 43.80900 26.14000
C  5.59100 44.45000 23.98300
C  4.49000 44.00500 27.36300
O  5.60900 44.14400 27.68900
C  3.30500 43.79400 28.35900
C  3.58700 42.50400 29.16500
O  3.80900 41.37600 28.68300
O  3.85100 42.84300 30.43000
C  4.43200 41.77000 31.20200
H  -3.58900 42.38200 27.31300
H  -2.78700 44.18500 21.29500
H  3.58900 44.53800 22.05300
H  0.84900 42.15800 29.55800
H  -1.98800 43.02700 29.54700
H  -2.08200 40.58800 28.41900
H  -2.20200 41.00700 30.08700
H  -0.62500 40.51200 29.61500
H  -0.52800 44.84900 29.96400
H  1.16500 44.71500 30.01800
H  -0.66200 44.41000 32.12600
H  1.03500 44.13600 32.26200
H  -5.52400 42.87500 26.73600
H  -5.71400 41.63800 25.39800
H  -6.38000 43.19400 25.20900
H  -6.50700 41.98700 23.29100
H  -7.00800 42.70300 21.68000
H  -7.38800 43.47800 23.26400
H  -0.82600 44.79700 19.77800
H  1.69700 43.63200 20.15600
H  -1.19100 42.05600 20.38500
H  0.29500 41.99600 19.64300
H  -1.19200 42.77800 18.86200
H  0.98200 46.00300 19.18300
H  2.64400 45.95200 19.72600
H  1.10100 46.68000 22.01800
H  0.59700 47.60500 20.64000
H  2.37200 47.61700 20.99700
H  5.75900 43.63000 23.28400
H  6.40200 44.43900 24.71100
H  5.65400 45.42200 23.49400
H  3.16400 44.65500 29.01200
H  4.57000 42.20000 32.19300
H  5.43500 41.59600 30.81200
H  3.78200 40.89600 31.17100

