158

Mg 41.02600 9.50900 29.33900
C  43.00500 10.72900 32.09900
C  39.07900 7.94700 31.54300
C  39.57100 7.97600 26.80200
C  43.70300 10.45800 27.20300
N  41.11500 9.24400 31.57900
C  41.87700 9.94500 32.50100
C  41.38900 9.63800 33.96000
C  40.29000 8.60700 33.74500
C  40.12100 8.58700 32.18200
C  40.33400 7.26600 34.55300
C  40.89600 10.93600 34.70800
C  40.09100 10.79200 35.99800
H  40.47700 11.69300 37.22700
N  39.33600 8.28600 29.15700
C  38.66600 7.75500 30.22400
C  37.49200 7.04700 29.79600
C  37.53400 7.12500 28.36400
C  38.81200 7.82500 28.01200
C  36.55900 6.17200 30.63000
C  36.49900 6.75800 27.22200
O  36.81700 6.91700 26.04300
C  35.11700 6.29600 27.68500
N  41.59200 9.16700 27.32900
C  40.74600 8.58400 26.41900
C  41.22900 8.64100 24.93200
C  42.54200 9.50300 25.12200
C  42.62900 9.73700 26.67900
C  41.53200 7.20500 24.27900
C  42.49400 10.84300 24.31300
C  43.59700 11.05400 23.23900
N  42.93400 10.52500 29.53000
C  43.88700 10.76200 28.56500
C  44.87900 11.48000 29.18500
C  44.58700 11.54800 30.54500
C  43.44500 10.87300 30.71300
C  46.17400 11.98200 28.52900
C  45.07000 11.99200 31.85500
O  46.04300 12.67600 32.13800
C  44.04200 11.38700 32.96900
C  44.70000 10.32600 33.78700
O  44.92600 9.20600 33.37000
O  44.89700 10.72800 35.10100
C  45.49600 9.75200 35.96000
H  38.38000 7.43700 32.20900
H  39.17700 7.40200 25.96100
H  44.47400 10.76600 26.49500
H  42.19600 9.26500 34.59000
H  39.35500 9.08600 34.03600
H  41.36700 7.04300 34.81800
H  39.92800 6.46800 33.93200
H  39.74100 7.30500 35.46700
H  40.29000 11.39500 33.92700
H  41.75400 11.54400 34.99400
H  40.15600 9.74800 36.30500
H  39.06600 11.08800 35.77800
H  36.81600 6.36400 31.67200
H  36.65400 5.14300 30.28300
H  35.51800 6.46500 30.49500
H  34.62400 7.08600 28.25100
H  35.16600 5.44700 28.36600
H  34.46700 6.03300 26.85000
H  40.48200 9.08400 24.27400
H  43.43400 9.01900 24.72400
H  41.26800 7.37800 23.23600
H  40.96200 6.42900 24.79000
H  42.61400 7.08300 24.33100
H  42.77400 11.61300 25.03100
H  41.59200 11.05200 23.73800
H  44.31300 11.76800 23.64800
H  43.03300 11.44800 22.39300
H  43.99900 10.07700 22.97100
H  46.16200 12.81200 27.82300
H  46.40700 11.05900 27.99700
H  46.90800 12.15200 29.31700
H  43.69900 12.17600 33.63800
H  44.61500 9.37600 36.47900
H  46.20200 10.14500 36.69100
H  46.01500 8.94700 35.43900
Mg 46.85700 25.74900 28.28000
C  47.71500 27.97200 30.80000
C  46.09500 23.40500 30.73700
C  46.30200 23.63100 25.86000
C  48.23400 28.04700 25.96400
N  46.85100 25.76600 30.50600
C  47.24600 26.79300 31.34000
C  47.14500 26.37700 32.86000
C  46.64600 24.85900 32.79600
C  46.54000 24.66600 31.21200
C  47.50600 23.79200 33.57000
C  46.14900 27.29600 33.73000
C  45.68400 26.62800 35.06900
H  45.64600 27.58900 36.25300
N  46.27300 23.77300 28.25700
C  46.01200 22.96800 29.41000
C  45.59400 21.68400 28.92700
C  45.52700 21.76000 27.51600
C  46.06700 23.08900 27.13000
C  45.53800 20.46300 29.78200
C  45.14100 20.74700 26.49900
O  45.17100 20.93200 25.27800
C  44.57900 19.42900 26.90000
N  47.45800 25.73000 26.20500
C  46.94700 24.78800 25.41000
C  46.89300 25.16500 23.94300
C  47.44500 26.60300 23.96700
C  47.77200 26.83000 25.42000
C  47.70100 24.13000 22.96900
C  46.45600 27.62500 23.35800
C  46.99500 28.94900 22.70500
N  47.77000 27.64000 28.36400
C  48.26000 28.41600 27.31400
C  48.72200 29.64700 27.87200
C  48.56800 29.47800 29.25500
C  47.90600 28.28200 29.52000
C  49.22300 30.82500 27.07300
C  48.66900 30.24700 30.50200
O  49.13900 31.34900 30.62300
C  48.04800 29.22600 31.59200
C  49.09600 29.01600 32.54600
O  50.06300 28.27300 32.40600
O  48.97000 29.77000 33.70100
C  49.90500 29.65900 34.83100
H  45.69500 22.78400 31.54100
H  46.01700 23.03900 24.98700
H  48.50000 28.74600 25.16800
H  48.13900 26.39200 33.30700
H  45.66300 24.65000 33.21800
H  48.22800 23.23600 32.97200
H  46.79000 23.12000 34.04300
H  48.19800 24.25000 34.27600
H  45.20500 27.67400 33.33600
H  46.66500 28.21300 34.01500
H  46.40000 25.82800 35.25800
H  44.65200 26.29000 34.96800
H  46.21600 19.67800 29.44600
H  44.51700 20.08600 29.71800
H  45.69100 20.71600 30.83000
H  45.18900 18.90600 27.63700
H  44.42100 18.61700 26.19000
H  43.65100 19.76500 27.36100
H  45.85600 25.09100 23.61400
H  48.41600 26.62700 23.47200
H  46.94900 23.92900 22.20700
H  48.01100 23.21600 23.47600
H  48.52600 24.60100 22.43400
H  45.71400 27.91900 24.10000
H  45.86200 27.17300 22.56300
H  46.77900 29.77400 23.38500
H  46.55200 29.16000 21.73200
H  48.07800 28.87000 22.61400
H  48.90000 31.78200 27.48400
H  48.88900 30.82700 26.03500
H  50.31000 30.90000 27.08600
H  47.26000 29.66800 32.20300
H  50.57200 30.51600 34.73400
H  50.55300 28.78500 34.89400
H  49.35000 29.76000 35.76300

