158

Mg 24.68100 -4.80800 45.91900
C  26.34300 -2.34300 43.80700
C  21.87500 -4.04700 44.03100
C  23.47600 -7.73300 46.87400
C  27.84500 -5.71600 47.07100
N  24.18500 -3.31100 44.14900
C  25.00000 -2.44800 43.55800
C  24.23400 -1.68600 42.44900
C  22.71200 -2.06300 42.75800
C  22.95200 -3.24300 43.69800
C  21.98900 -0.92700 43.50500
C  24.79100 -2.17600 41.06800
C  25.37100 -1.17100 40.10300
H  25.58400 -1.59100 38.60200
N  22.96100 -5.66500 45.61400
C  21.90300 -5.24500 44.83800
C  20.80400 -6.13000 44.99000
C  21.20000 -7.20300 45.87200
C  22.62000 -6.91100 46.15600
C  19.50700 -5.97500 44.17900
C  20.38800 -8.46700 46.18000
O  19.29000 -8.63300 45.75000
C  20.83000 -9.46700 47.18900
N  25.50800 -6.36600 46.96100
C  24.80800 -7.54000 47.20600
C  25.67800 -8.57000 47.84600
C  27.00200 -7.91400 48.07800
C  26.77800 -6.53000 47.43100
C  25.05500 -9.50100 48.92300
C  28.25400 -8.68800 47.72000
C  29.32000 -8.67800 48.82600
N  26.65200 -4.15600 45.71000
C  27.80300 -4.61300 46.25900
C  28.94500 -3.79600 45.77800
C  28.34800 -2.92200 44.91600
C  27.01100 -3.22400 44.80300
C  30.35200 -3.75800 46.17800
C  28.77300 -1.85700 43.98000
O  29.88500 -1.44000 43.75800
C  27.46400 -1.46900 43.22300
C  27.24100 -0.06000 43.62700
O  26.58300 0.27500 44.57700
O  27.79100 0.83400 42.73700
C  27.63200 2.28200 42.99900
H  20.91700 -3.78700 43.57400
H  23.11100 -8.74500 47.05900
H  28.86600 -6.03900 47.28300
H  24.32500 -0.60900 42.58600
H  22.07400 -2.43200 41.95500
H  22.34200 0.07900 43.27900
H  22.12000 -0.94400 44.58700
H  20.91300 -1.06500 43.40000
H  23.95800 -2.64800 40.54700
H  25.56300 -2.94300 41.13800
H  26.24200 -0.71200 40.57200
H  24.58100 -0.42800 40.20900
H  19.76400 -6.16700 43.13700
H  19.08100 -4.97300 44.22900
H  18.73100 -6.68200 44.47400
H  19.87800 -9.92800 47.45400
H  21.22900 -8.86100 48.00300
H  21.54200 -10.19500 46.80000
H  25.66200 -9.30400 47.04100
H  27.08600 -7.71700 49.14700
H  24.10600 -9.12500 49.30400
H  25.78900 -9.40300 49.72400
H  24.98700 -10.55600 48.65500
H  28.78300 -8.31700 46.84300
H  27.90900 -9.70400 47.52800
H  30.29500 -8.24700 48.59800
H  29.53200 -9.70800 49.11500
H  28.93700 -8.22800 49.74100
H  31.04800 -4.08000 45.40400
H  30.41100 -4.29100 47.12700
H  30.60800 -2.73800 46.46500
H  27.65200 -1.58600 42.15600
H  28.40100 2.62100 43.69300
H  26.69900 2.60100 43.46400
H  27.92400 2.94600 42.18600
Mg -2.50100 33.87200 27.88700
C  -4.13200 31.98400 30.23600
C  -1.54300 35.96600 30.45800
C  -1.16000 35.81400 25.56700
C  -4.03700 31.89100 25.38300
N  -2.73000 33.86000 30.18400
C  -3.47600 33.04200 30.96300
C  -3.46900 33.42100 32.38000
C  -2.89600 34.92800 32.31700
C  -2.36900 34.91300 30.91600
C  -3.89100 36.08600 32.55600
C  -2.82200 32.50800 33.46500
C  -3.58500 32.27600 34.82300
H  -2.76900 32.22800 36.14100
N  -1.41400 35.67800 27.95200
C  -1.05600 36.29200 29.18300
C  -0.11600 37.34500 28.80900
C  0.03200 37.32400 27.39300
C  -0.88200 36.28200 26.87200
C  0.44400 38.39800 29.75200
C  1.01400 38.08800 26.56800
O  1.18100 37.88700 25.37300
C  1.94700 39.03700 27.24900
N  -2.63400 33.87800 25.70300
C  -1.92800 34.82400 25.00700
C  -2.12400 34.66200 23.48100
C  -2.85700 33.29700 23.42300
C  -3.18900 32.94700 24.89800
C  -2.94100 35.80500 22.78100
C  -2.00500 32.20500 22.71500
C  -0.99000 31.40400 23.61100
N  -3.86600 32.33900 27.77800
C  -4.28000 31.54200 26.73900
C  -5.14800 30.48300 27.21200
C  -5.10300 30.65300 28.57300
C  -4.19700 31.68900 28.85100
C  -5.99200 29.49600 26.40900
C  -5.69400 30.04300 29.74400
O  -6.56500 29.21800 29.84400
C  -5.07000 30.98100 30.83300
C  -6.10400 31.73300 31.68000
O  -6.70600 32.75100 31.30900
O  -6.27400 31.21700 32.95200
C  -7.11400 32.04600 33.86600
H  -1.11000 36.57000 31.25800
H  -0.64200 36.37100 24.78300
H  -4.44700 31.34000 24.53400
H  -4.52700 33.52600 32.62000
H  -2.04300 35.15500 32.95600
H  -3.55000 36.82300 33.28300
H  -4.86100 35.75500 32.92500
H  -3.96800 36.75100 31.69600
H  -1.90900 32.97700 33.83200
H  -2.54900 31.53400 33.05900
H  -3.86000 31.24500 34.60300
H  -4.50700 32.83400 34.98900
H  -0.12400 38.32800 30.68000
H  0.35400 39.42800 29.40900
H  1.50400 38.28500 29.98100
H  2.76000 39.34700 26.59300
H  2.50500 38.61800 28.08600
H  1.43000 39.93800 27.58000
H  -1.12100 34.56600 23.06500
H  -3.85900 33.38000 23.00300
H  -3.78100 35.41300 22.20800
H  -2.32800 36.45300 22.15500
H  -3.29600 36.51600 23.52700
H  -1.40900 32.53000 21.86300
H  -2.72200 31.54500 22.22700
H  -1.24100 30.34300 23.59000
H  -1.04700 31.80000 24.62500
H  0.03700 31.51600 23.26100
H  -5.58400 29.31200 25.41500
H  -6.97400 29.94100 26.24800
H  -6.00300 28.56300 26.97300
H  -4.47700 30.38100 31.52300
H  -7.97600 32.38000 33.28800
H  -6.64100 32.94300 34.26600
H  -7.50300 31.45100 34.69300

