158

Mg 6.57800 54.28300 42.18700
C  6.00300 50.81000 41.58700
C  9.57000 53.86200 40.57500
C  6.52800 57.55300 41.71500
C  3.25200 54.42000 43.24500
N  7.51000 52.54600 41.07300
C  7.18000 51.22200 40.99600
C  8.29100 50.37100 40.45200
C  9.56500 51.32000 40.64800
C  8.85000 52.69800 40.86500
C  10.60400 50.97400 41.62800
C  8.04700 49.86100 39.04700
C  7.30400 50.70900 38.06600
H  6.82200 50.19800 36.79500
N  7.95900 55.58100 41.38600
C  9.17900 55.21300 40.87900
C  9.95500 56.42600 40.76000
C  9.08100 57.52400 40.95100
C  7.74700 56.95100 41.30600
C  11.45600 56.46800 40.57800
C  9.38900 58.96200 40.73500
O  10.54700 59.30400 40.36100
C  8.43700 60.02600 40.81300
N  5.09000 55.73900 42.47500
C  5.30500 57.00500 42.19000
C  4.05900 57.91900 42.55500
C  2.98300 56.91300 42.77700
C  3.79600 55.58100 42.89100
C  4.38500 58.94600 43.69400
C  1.81200 56.76700 41.73800
C  0.49400 57.06000 42.34000
N  5.02600 52.92500 42.52500
C  3.80500 53.11300 43.16400
C  3.17400 51.90100 43.58700
C  3.99500 50.95400 42.87700
C  5.02400 51.61300 42.21400
C  2.02400 51.69000 44.53400
C  4.20500 49.57500 42.70500
O  3.56700 48.65800 43.13500
C  5.47400 49.37800 41.76700
C  5.11500 48.63200 40.48600
O  4.30800 48.99500 39.67700
O  5.79700 47.48800 40.32200
C  5.27300 46.53100 39.35700
H  10.61400 53.69500 40.30300
H  6.46200 58.64300 41.74600
H  2.24600 54.36700 43.66700
H  8.35300 49.51000 41.11700
H  10.06200 51.49700 39.69500
H  10.40400 49.99900 42.07300
H  10.56800 51.73800 42.40500
H  11.60600 50.92600 41.20100
H  7.78500 48.80300 39.07700
H  9.05600 49.77800 38.64300
H  7.95000 51.57800 37.93600
H  6.41200 51.10600 38.55000
H  11.65000 57.05500 39.68100
H  11.95200 55.51600 40.38700
H  11.97100 57.00000 41.37700
H  7.55600 59.83500 40.20200
H  8.87600 60.98200 40.52900
H  8.08800 60.04300 41.84600
H  3.71100 58.53200 41.72400
H  2.63200 57.14600 43.78200
H  5.44100 59.02600 43.95200
H  3.83100 58.59300 44.56400
H  3.99400 59.94200 43.48500
H  1.82100 55.80300 41.22900
H  2.10100 57.48800 40.97200
H  0.27500 56.41600 43.19200
H  -0.22600 56.79000 41.56700
H  0.49300 58.08900 42.70000
H  1.87600 52.53900 45.20100
H  2.17200 50.77100 45.10200
H  1.13300 51.67700 43.90600
H  6.19500 48.78000 42.32500
H  5.76000 45.57200 39.53200
H  5.38900 46.90000 38.33800
H  4.23500 46.31500 39.61000
Mg -11.10400 38.40200 41.11300
C  -8.99500 35.73500 39.95800
C  -8.95900 40.52600 39.56200
C  -13.41300 40.64500 41.49600
C  -13.15800 35.85100 42.49400
N  -9.28300 38.03000 39.67300
C  -8.63500 36.92400 39.41900
C  -7.27900 37.34200 38.61700
C  -7.18500 38.85600 38.90800
C  -8.57900 39.20600 39.41700
C  -6.16300 39.19200 40.04800
C  -7.38800 36.97000 37.10500
C  -6.56500 35.78000 36.64000
H  -5.83800 36.05100 35.28600
N  -11.18400 40.34000 40.59600
C  -10.14600 41.12900 40.05800
C  -10.49900 42.49200 40.18900
C  -11.82400 42.53000 40.54800
C  -12.21600 41.16800 40.93400
C  -9.55200 43.61000 39.74200
C  -12.63000 43.82100 40.65800
O  -12.04000 44.92100 40.47100
C  -14.04600 43.87500 40.75100
N  -13.06600 38.20000 41.76000
C  -13.81100 39.33300 41.87800
C  -15.20000 39.09700 42.49400
C  -15.12800 37.57600 42.81600
C  -13.66300 37.20300 42.40900
C  -15.71900 40.04800 43.61700
C  -16.18200 36.61300 42.10400
C  -16.77300 35.44800 42.97700
N  -11.03700 36.25300 41.32600
C  -11.92300 35.43500 42.00000
C  -11.36800 34.16000 42.10000
C  -10.26100 34.22500 41.22100
C  -10.18700 35.50700 40.68800
C  -11.82100 33.10900 42.94900
C  -9.16500 33.47700 40.61000
O  -8.80500 32.31700 40.81300
C  -8.41300 34.37500 39.56900
C  -6.90700 34.25800 39.81400
O  -6.26500 34.89800 40.66500
O  -6.49400 33.28500 38.95000
C  -5.12200 32.82200 39.03100
H  -8.26900 41.24900 39.12200
H  -14.21000 41.33700 41.77800
H  -13.72200 35.12900 43.08800
H  -6.38900 36.81300 38.95500
H  -6.79700 39.39500 38.04400
H  -5.25700 39.67900 39.68600
H  -5.91200 38.31700 40.64700
H  -6.70600 39.86700 40.70900
H  -7.20000 37.85500 36.49800
H  -8.43300 36.72900 36.91200
H  -7.16200 34.87200 36.55100
H  -5.77500 35.54600 37.35300
H  -9.96000 43.88500 38.76900
H  -8.48500 43.41400 39.63100
H  -9.63500 44.38400 40.50500
H  -14.36300 43.02900 40.14000
H  -14.44200 44.80500 40.34400
H  -14.31500 43.55100 41.75600
H  -15.90900 39.22600 41.67600
H  -15.19900 37.39500 43.88900
H  -14.97300 40.80600 43.85600
H  -15.96900 39.43600 44.48400
H  -16.68800 40.45300 43.32500
H  -15.93300 36.21700 41.12000
H  -17.08700 37.20600 41.97000
H  -17.86000 35.38300 43.02100
H  -16.24600 35.45200 43.93100
H  -16.54100 34.43500 42.64600
H  -11.95100 32.24000 42.30400
H  -12.79300 33.25100 43.42000
H  -11.13700 32.93500 43.77900
H  -8.55400 34.09400 38.52600
H  -4.43900 33.34300 38.36000
H  -4.96800 31.74900 38.90900
H  -4.70300 33.04900 40.01100

