158

Mg 36.59000 49.28800 24.95900
C  36.49000 47.45300 28.05400
C  35.09600 51.94300 26.67000
C  36.45700 50.84400 21.99500
C  37.73200 46.40600 23.28500
N  35.84400 49.61400 27.07300
C  36.01300 48.76400 28.15200
C  35.57600 49.50300 29.41300
C  34.83400 50.81300 28.91400
C  35.33300 50.86100 27.48500
C  33.29100 50.98900 29.01200
C  36.60300 49.69100 30.48100
C  35.97500 49.43300 31.85900
H  34.54000 49.84000 32.16800
N  35.97200 51.10200 24.51200
C  35.38700 52.07400 25.30400
C  35.11900 53.29700 24.44400
C  35.53400 52.90300 23.10300
C  36.02100 51.54500 23.12400
C  34.64800 54.67300 25.04200
C  35.33400 53.78600 21.78300
O  35.77800 53.39900 20.70600
C  34.81400 55.21000 21.85900
N  36.96000 48.68800 22.94000
C  36.81100 49.53000 21.88700
C  37.22000 48.90400 20.51500
C  37.79000 47.53600 21.08000
C  37.53300 47.59100 22.53800
C  36.07300 48.77500 19.45700
C  39.33700 47.22400 20.73200
C  40.43500 47.93100 21.59300
N  36.97800 47.31000 25.44100
C  37.50200 46.23400 24.67600
C  37.64800 45.07500 25.54800
C  37.32600 45.56400 26.81000
C  36.89900 46.87300 26.75000
C  38.04200 43.73000 25.07700
C  37.22300 45.17400 28.21600
O  37.47000 44.10500 28.82100
C  36.64900 46.38100 29.10200
C  35.38700 45.90600 29.78800
O  34.27100 45.84300 29.22400
O  35.61800 45.66600 31.11900
C  34.47700 45.32000 32.00900
H  34.89400 52.89200 27.17000
H  36.60900 51.28500 21.00800
H  38.25400 45.65500 22.68900
H  34.79600 48.86000 29.81800
H  35.17300 51.58600 29.60400
H  32.76700 50.15700 29.48300
H  32.95300 51.03800 27.97700
H  32.90700 51.85700 29.54800
H  36.81300 50.75800 30.55400
H  37.50200 49.07800 30.40600
H  36.60400 49.93900 32.59200
H  36.08700 48.37000 32.07500
H  35.41500 55.42900 25.21300
H  34.19400 54.48200 26.01400
H  33.84900 54.93000 24.34600
H  33.72800 55.12900 21.88900
H  35.21100 55.57000 20.91000
H  35.25700 55.87500 22.60200
H  38.04400 49.51100 20.14300
H  37.26000 46.65000 20.73100
H  35.97700 47.78900 19.00300
H  36.36200 49.38900 18.60400
H  35.11200 49.11400 19.84400
H  39.47600 47.56800 19.70700
H  39.57900 46.16900 20.85500
H  40.04700 48.79500 22.13300
H  41.40900 48.02400 21.11300
H  40.62100 47.16400 22.34400
H  38.75800 43.95700 24.28700
H  37.19300 43.12100 24.76900
H  38.61900 43.21700 25.84700
H  37.43500 46.71200 29.78100
H  34.81700 45.10000 33.02100
H  34.03700 44.37800 31.68100
H  33.90900 46.25000 31.97600
Mg 9.80100 47.96100 26.32400
C  7.86500 47.75900 29.37700
C  12.48100 48.90700 28.08000
C  11.42400 48.44500 23.42800
C  6.83300 47.16100 24.57800
N  10.11200 48.25500 28.56300
C  9.23300 48.16000 29.63100
C  9.96000 48.46200 30.95500
C  11.36200 49.08200 30.49100
C  11.37800 48.68000 28.96100
C  11.47800 50.62500 30.51700
C  10.10400 47.20800 31.91800
C  9.88200 47.38600 33.41100
H  10.17200 46.19400 34.38600
N  11.68300 48.42800 25.82400
C  12.69600 48.77100 26.71400
C  13.93100 48.97700 26.01000
C  13.66200 48.75700 24.61800
C  12.18200 48.54400 24.52100
C  15.21600 49.43600 26.68900
C  14.67500 48.70400 23.43300
O  14.35800 48.57700 22.29000
C  16.06600 48.65900 23.80500
N  9.14800 47.80000 24.25600
C  10.04900 48.07500 23.20900
C  9.36200 47.88300 21.84400
C  7.91900 47.27400 22.27600
C  7.94000 47.38100 23.77400
C  9.15600 49.19600 21.09400
C  7.63900 45.92000 21.66300
C  7.95900 44.86000 22.69100
N  7.89500 47.53100 26.82600
C  6.76100 47.18700 25.96300
C  5.60700 47.06900 26.75300
C  5.97900 47.26900 28.07900
C  7.34800 47.52600 28.06800
C  4.26200 46.57900 26.21800
C  5.42300 47.31200 29.40600
O  4.24500 47.08700 29.85600
C  6.71000 47.42200 30.32500
C  6.80600 46.08000 30.90300
O  7.19300 45.05800 30.29600
O  6.55200 46.05800 32.26000
C  6.95700 44.80500 32.97000
H  13.34600 49.05900 28.73000
H  11.98000 48.71700 22.52800
H  5.94300 46.87300 24.01500
H  9.33300 49.13700 31.53700
H  12.21700 48.68200 31.03500
H  11.44900 51.06900 29.52200
H  12.40300 51.00100 30.95500
H  10.67100 51.12500 31.05300
H  10.97200 46.56700 31.76600
H  9.37700 46.48500 31.54800
H  8.86000 47.69900 33.62400
H  10.43800 48.27600 33.70700
H  14.99700 49.74500 27.71100
H  15.61000 50.28000 26.12400
H  15.98300 48.66400 26.75300
H  16.18200 49.68700 24.14800
H  16.66200 48.48600 22.90800
H  16.10800 47.89900 24.58500
H  9.92500 47.11400 21.31600
H  7.13900 47.94600 21.91800
H  9.48100 50.04800 21.69100
H  8.11000 49.36800 20.83800
H  9.82200 49.12000 20.23500
H  8.19300 45.81100 20.73100
H  6.57600 46.02600 21.44900
H  7.07300 44.66200 23.29600
H  8.80000 45.10200 23.34000
H  8.04700 43.89000 22.20200
H  4.50800 45.69300 25.63200
H  3.73800 47.31700 25.61200
H  3.65800 46.29600 27.08000
H  6.63200 48.26300 31.01400
H  7.94300 44.51500 32.60500
H  6.25600 43.97600 32.87700
H  6.97200 45.05600 34.03100

