158

Mg 17.64100 -1.20800 26.89100
C  16.63300 0.77100 29.59200
C  19.23700 -3.37900 29.07300
C  18.90300 -2.82900 24.24500
C  16.16100 1.06300 24.63300
N  17.90900 -1.23900 29.10600
C  17.31800 -0.37800 29.99900
C  17.65700 -0.70900 31.41400
C  18.51100 -2.07500 31.28600
C  18.52300 -2.30900 29.75400
C  19.93300 -2.07300 31.90500
C  16.43900 -0.98800 32.43000
C  16.66300 -0.50400 33.85100
H  18.00200 0.04100 34.32100
N  18.89300 -2.89700 26.65900
C  19.36900 -3.66600 27.69700
C  20.24600 -4.65700 27.05300
C  20.07100 -4.61700 25.63800
C  19.23700 -3.44200 25.45000
C  20.99600 -5.77200 27.90800
C  20.66400 -5.54000 24.60300
O  20.51200 -5.35600 23.38400
C  21.66600 -6.60700 25.02100
N  17.67200 -0.81600 24.77700
C  18.28200 -1.63700 23.96900
C  18.27000 -1.22700 22.52600
C  17.20200 -0.00900 22.59200
C  17.05200 0.11600 24.06700
C  19.63400 -0.84800 21.89400
C  15.87000 -0.14800 21.76300
C  14.86600 -1.11200 22.46700
N  16.66400 0.58700 27.09900
C  15.98400 1.30400 26.06100
C  15.05000 2.19700 26.71400
C  15.42900 2.10600 28.12100
C  16.37500 1.11400 28.27300
C  14.04400 3.06700 26.01500
C  15.11900 2.60600 29.34700
O  14.35600 3.54900 29.59400
C  15.91100 1.83800 30.41000
C  16.76300 2.80200 31.13700
O  17.79300 3.31700 30.73700
O  16.11200 3.15500 32.28300
C  16.73100 4.13300 33.23400
H  19.64300 -4.10200 29.78300
H  19.19800 -3.35900 23.33700
H  15.56600 1.56000 23.86300
H  18.23900 0.12200 31.81200
H  18.02900 -2.95700 31.70800
H  20.64800 -2.14100 31.08500
H  19.98400 -2.94400 32.55900
H  20.16300 -1.16300 32.45900
H  16.31800 -2.06700 32.52400
H  15.56700 -0.54400 31.94900
H  16.46100 -1.35100 34.50700
H  15.93700 0.28400 34.04900
H  20.21200 -6.51100 28.07000
H  21.10700 -5.25700 28.86200
H  22.01000 -5.97600 27.56300
H  21.10800 -7.27600 25.67600
H  22.53700 -6.07900 25.41100
H  21.88200 -7.18500 24.12200
H  17.87300 -2.00200 21.86900
H  17.74500 0.85900 22.21600
H  20.04600 -1.70800 21.36700
H  20.42800 -0.43800 22.51800
H  19.46300 -0.05000 21.17200
H  16.03600 -0.66000 20.81500
H  15.59900 0.90100 21.64000
H  15.35500 -1.63100 23.29100
H  14.49600 -1.90800 21.82000
H  13.92600 -0.61200 22.70100
H  13.25600 2.44700 25.58500
H  14.50000 3.75200 25.30100
H  13.55900 3.71300 26.74700
H  15.11300 1.32200 30.94500
H  16.11100 5.02900 33.24900
H  17.74700 4.43700 32.98500
H  16.75900 3.61100 34.19100
Mg -0.16300 44.35900 26.18400
C  2.00300 44.19400 28.97000
C  -2.78400 43.94500 28.30200
C  -2.03500 43.72100 23.40300
C  2.71500 44.46100 24.15300
N  -0.29900 44.03600 28.39100
C  0.63900 44.21800 29.32500
C  0.02900 44.00300 30.72800
C  -1.46700 43.90800 30.43600
C  -1.50900 43.94900 28.90500
C  -2.20000 42.67800 31.02700
C  0.45900 45.17900 31.68200
C  1.28600 44.94000 32.97300
H  0.67900 43.79500 33.91400
N  -2.20700 44.06700 25.90500
C  -3.09300 43.93800 26.90900
C  -4.42600 43.73300 26.34600
C  -4.24500 43.62000 24.94500
C  -2.76700 43.80100 24.66700
C  -5.65800 43.78100 27.26200
C  -5.29700 43.33500 23.88400
O  -4.96500 43.27000 22.68300
C  -6.65900 43.06400 24.22300
N  0.27100 44.10900 24.11000
C  -0.64900 43.80300 23.16100
C  -0.03600 43.58600 21.67200
C  1.39400 43.95500 22.04200
C  1.49100 44.30100 23.51000
C  -0.21200 42.09200 21.33000
C  1.93600 45.19800 21.20400
C  1.59500 46.50500 21.75400
N  1.90700 44.45500 26.43300
C  2.94100 44.42300 25.50100
C  4.21700 44.28900 26.21800
C  3.88300 44.24100 27.59300
C  2.47400 44.31300 27.66100
C  5.63900 44.27400 25.68400
C  4.49700 44.02400 28.86700
O  5.63100 43.79200 29.20200
C  3.28900 43.99000 29.87100
C  3.32400 42.69900 30.60900
O  2.97100 41.63700 30.19300
O  3.90900 42.88900 31.85600
C  4.13900 41.71800 32.76500
H  -3.55600 43.80900 29.06200
H  -2.68000 43.59700 22.53000
H  3.56400 44.61700 23.48400
H  0.54000 43.16100 31.19600
H  -2.05800 44.78200 30.71200
H  -3.23200 42.96000 31.23100
H  -1.68400 42.45600 31.96200
H  -2.28600 41.78800 30.40400
H  -0.40800 45.79700 31.91800
H  1.09400 45.83100 31.08200
H  1.40600 45.79900 33.63400
H  2.33100 44.69700 32.78200
H  -5.66100 42.82100 27.77700
H  -6.58300 43.98000 26.72000
H  -5.56600 44.64300 27.92300
H  -7.20300 42.78300 23.32200
H  -7.18300 43.86000 24.75200
H  -6.70500 42.24800 24.94500
H  -0.54500 44.31300 21.03900
H  2.07000 43.14100 21.78300
H  -0.60300 41.52200 22.17300
H  0.76100 41.64200 21.13600
H  -0.97100 41.99800 20.55400
H  1.51900 45.23600 20.19700
H  3.02200 45.20700 21.10800
H  2.47800 46.94600 22.21600
H  0.75000 46.45400 22.44100
H  1.28200 47.21000 20.98400
H  5.73500 44.03500 24.62500
H  6.27400 43.53000 26.16600
H  5.95800 45.27600 25.97000
H  3.43700 44.78500 30.60200
H  3.74700 41.92600 33.76100
H  5.21800 41.70200 32.92000
H  3.84700 40.74100 32.38000

