158

Mg 43.13400 42.21600 26.23100
C  42.11500 44.43300 28.64500
C  44.24300 40.05000 28.55600
C  44.19100 40.20700 23.72000
C  42.04200 44.44500 23.83000
N  43.26200 42.24800 28.30900
C  42.65500 43.22800 29.15000
C  42.64500 42.75800 30.61700
C  43.46400 41.43100 30.60300
C  43.65200 41.20700 29.02000
C  44.86300 41.42900 31.35900
C  41.13800 42.54300 31.09900
C  41.02200 41.78000 32.42300
H  40.22400 42.55200 33.45600
N  44.18900 40.46600 26.14600
C  44.52000 39.69100 27.24900
C  44.99400 38.35700 26.80400
C  44.87900 38.33600 25.36800
C  44.52100 39.70500 24.98700
C  45.62300 37.31800 27.67900
C  45.20000 37.23000 24.30600
O  45.29800 37.43600 23.10300
C  45.11800 35.84400 24.81300
N  43.16100 42.35900 24.09900
C  43.63600 41.38000 23.28700
C  43.53800 41.69900 21.72800
C  42.64800 42.93400 21.79100
C  42.59300 43.29600 23.34500
C  44.96500 41.96700 21.25200
C  41.24800 42.71500 21.21600
C  40.52100 41.55100 21.88300
N  42.25400 44.14200 26.18500
C  41.91700 44.98200 25.14400
C  41.47300 46.23700 25.66800
C  41.42500 46.04800 27.06100
C  41.90300 44.74100 27.34500
C  41.01300 47.48600 24.83700
C  41.04600 46.57000 28.28600
O  40.69000 47.72900 28.51100
C  41.48900 45.50800 29.43700
C  42.55100 46.09100 30.29300
O  43.63900 46.44800 29.90600
O  42.07200 46.20400 31.62400
C  42.78900 47.08900 32.55300
H  44.48500 39.28000 29.29100
H  44.44900 39.53600 22.89800
H  41.61700 45.07100 23.04300
H  43.10500 43.55700 31.19800
H  42.91800 40.59900 31.04700
H  45.02900 42.41400 31.79500
H  45.66700 41.27000 30.64000
H  44.87600 40.58500 32.04900
H  40.63800 41.97400 30.31400
H  40.58200 43.46700 31.25600
H  42.02300 41.55900 32.79500
H  40.59800 40.80100 32.20200
H  45.94200 37.79400 28.60600
H  46.49400 36.88000 27.19100
H  44.83800 36.58700 27.87200
H  44.45700 35.68800 25.66500
H  46.14500 35.57300 25.06000
H  44.73000 35.24100 23.99200
H  42.97900 40.94100 21.17800
H  43.07700 43.83600 21.35400
H  45.10300 41.65000 20.21900
H  45.69700 41.34300 21.76500
H  45.15400 43.03100 21.39100
H  41.31300 42.46100 20.15800
H  40.72900 43.66900 21.31600
H  40.24300 40.84300 21.10200
H  39.63100 41.87400 22.42300
H  41.22700 40.96300 22.46900
H  41.90200 48.03700 24.53000
H  40.40300 48.15200 25.44700
H  40.41100 47.09700 24.01600
H  40.61000 45.19200 29.99800
H  42.63000 46.79600 33.59100
H  42.41900 48.08900 32.32700
H  43.84700 47.08100 32.29000
Mg 30.40500 58.08100 40.27900
C  28.11800 56.25400 38.35300
C  32.89100 56.03700 39.06900
C  32.66100 60.38600 41.27900
C  27.87600 60.55300 40.78000
N  30.49900 56.52600 38.75100
C  29.43000 55.79700 38.23600
C  29.87300 54.47900 37.35100
C  31.35700 54.37400 37.88100
C  31.62200 55.77300 38.56100
C  31.68700 53.06300 38.71000
C  29.79100 54.65500 35.79100
C  28.76800 53.72600 35.16900
H  27.70800 54.45600 34.36800
N  32.52600 58.09100 40.28500
C  33.36600 57.12400 39.78700
C  34.77100 57.50400 40.04500
C  34.70500 58.80500 40.70900
C  33.25000 59.15200 40.79200
C  35.96100 56.69400 39.53600
C  35.88600 59.56200 41.25000
O  37.01500 58.99300 41.19500
C  35.83100 60.93000 41.88800
N  30.26400 60.18600 40.96100
C  31.33300 60.86800 41.25700
C  31.02300 62.35100 41.59000
C  29.45200 62.31400 41.64300
C  29.17000 60.95700 41.10100
C  31.76400 62.93200 42.82800
C  28.67900 63.43500 40.82300
C  27.51400 64.10600 41.47100
N  28.34600 58.31500 39.89800
C  27.41500 59.33500 40.23200
C  26.13300 59.00900 39.63300
C  26.29300 57.75100 39.03400
C  27.68300 57.46500 39.09500
C  24.99300 59.85900 39.75400
C  25.62300 56.65200 38.27200
O  24.46500 56.59700 37.92300
C  26.77800 55.66000 37.88300
C  26.46800 54.38500 38.47800
O  26.65800 54.01900 39.61600
O  25.76000 53.62600 37.56500
C  25.09400 52.40900 38.01300
H  33.67500 55.29700 38.89400
H  33.30000 61.23100 41.54300
H  27.11600 61.31500 40.96600
H  29.25800 53.67100 37.74700
H  31.96800 54.25100 36.98700
H  32.30300 52.36600 38.14100
H  30.80800 52.51000 39.04200
H  32.16500 53.43200 39.61700
H  30.76100 54.40900 35.35900
H  29.66400 55.71400 35.56300
H  28.32400 53.04300 35.89300
H  29.30500 52.94500 34.63100
H  36.33000 56.16000 40.41200
H  36.61200 57.38300 38.99900
H  35.68200 55.93500 38.80600
H  35.76100 61.72800 41.14900
H  36.74500 60.99000 42.47900
H  35.03400 60.88300 42.63100
H  31.30900 62.88700 40.68600
H  29.07600 62.33100 42.66600
H  30.99700 62.99600 43.60000
H  32.02800 63.93900 42.50200
H  32.65400 62.43800 43.21700
H  28.46700 62.98400 39.85300
H  29.44300 64.20500 40.71800
H  27.33200 63.82200 42.50800
H  26.55100 63.82300 41.04600
H  27.61300 65.19100 41.50400
H  25.42000 60.83600 39.97900
H  24.34200 59.45900 40.53100
H  24.54200 60.04700 38.77900
H  26.92500 55.48400 36.81800
H  25.81900 51.84000 38.59500
H  24.76200 51.81800 37.15900
H  24.20000 52.61100 38.60300

