158

Mg 0.54900 7.67600 26.07300
C  1.09700 9.64800 28.93800
C  0.09800 5.00000 28.17300
C  0.28900 5.90500 23.35300
C  0.60300 10.56300 24.26700
N  0.57300 7.37700 28.29600
C  0.78600 8.35500 29.20700
C  0.45900 7.77500 30.57300
C  0.61800 6.26600 30.34400
C  0.34500 6.18600 28.89800
C  1.98000 5.56800 30.74800
C  -0.87500 8.25000 31.23600
C  -1.00000 7.98100 32.74600
H  0.29300 7.91100 33.67300
N  0.37600 5.68900 25.78400
C  0.23500 4.76100 26.83700
C  0.13100 3.38700 26.18600
C  0.12700 3.61900 24.72100
C  0.33400 5.10400 24.54000
C  -0.18100 2.13100 27.02500
C  0.05900 2.63000 23.52500
O  -0.03100 2.88500 22.36700
C  -0.05600 1.07600 23.80800
N  0.53600 8.12400 24.09300
C  0.32700 7.25700 23.14500
C  0.34000 7.91800 21.68300
C  -0.02200 9.36900 22.10700
C  0.38500 9.34000 23.59500
C  1.67600 7.82300 20.89500
C  -1.52600 9.68500 21.89500
C  -1.79300 10.84400 20.93300
N  0.83700 9.73600 26.46100
C  0.83900 10.81700 25.60500
C  1.16400 12.06400 26.31000
C  1.15700 11.59300 27.67100
C  1.11800 10.19800 27.66200
C  1.37100 13.43300 25.78100
C  1.31500 12.07700 28.93300
O  1.50500 13.23900 29.31500
C  1.19900 10.85600 29.85800
C  2.47400 10.81400 30.63700
O  3.57100 10.48700 30.19600
O  2.25200 11.29800 31.88100
C  3.41500 11.24200 32.74900
H  -0.05700 4.12400 28.80600
H  0.21600 5.23100 22.49700
H  0.48500 11.36800 23.53900
H  1.20000 8.17300 31.26700
H  -0.21400 5.83000 30.89700
H  2.31200 6.25600 31.52600
H  2.60700 5.47000 29.86200
H  1.81000 4.60700 31.23300
H  -1.67900 7.69200 30.75600
H  -1.15900 9.28300 31.03600
H  -1.64400 7.11000 32.87000
H  -1.59700 8.75600 33.22600
H  -1.23400 2.10300 27.30500
H  0.40800 2.14700 27.94200
H  -0.03700 1.16000 26.55200
H  0.24100 0.55100 22.90000
H  -1.06900 0.72900 24.01100
H  0.55500 0.72200 24.63900
H  -0.46600 7.44200 21.12400
H  0.49600 10.09800 21.48400
H  1.95200 8.73300 20.36200
H  1.58000 6.90400 20.31800
H  2.48100 7.81300 21.63000
H  -1.94200 9.90100 22.87900
H  -2.00300 8.80900 21.45400
H  -0.94500 11.34100 20.46100
H  -2.25000 11.64400 21.51600
H  -2.45200 10.55300 20.11500
H  0.51600 13.86300 25.25900
H  2.26600 13.55300 25.17000
H  1.57500 14.06900 26.64300
H  0.38500 10.94000 30.57800
H  3.08000 11.66000 33.69900
H  4.33500 11.69700 32.38500
H  3.59300 10.18900 32.97100
Mg -2.48800 34.07700 27.29800
C  -4.14500 32.01900 29.53500
C  -0.91900 35.61400 29.87000
C  -1.10700 36.07500 25.00000
C  -4.28400 32.34600 24.69100
N  -2.59900 33.88200 29.46200
C  -3.36200 32.95600 30.17200
C  -3.15800 33.19100 31.70000
C  -2.27900 34.51800 31.86500
C  -1.82500 34.63500 30.34300
C  -2.87000 35.75000 32.46000
C  -2.45600 32.05200 32.43200
C  -3.31900 31.55700 33.63900
H  -2.54300 31.19500 34.91800
N  -1.08000 35.54700 27.41300
C  -0.52800 36.01500 28.53500
C  0.45500 36.99300 28.17200
C  0.35800 37.16200 26.77400
C  -0.68200 36.32000 26.29500
C  1.34500 37.78500 29.09700
C  1.13600 38.12500 25.81400
O  0.87800 38.20200 24.64400
C  2.34400 38.98300 26.41500
N  -2.65200 34.13700 25.11200
C  -2.08300 35.22900 24.46600
C  -2.43500 35.14700 22.96800
C  -3.11700 33.75000 22.81600
C  -3.46000 33.39400 24.29800
C  -3.14500 36.43800 22.55100
C  -2.34600 32.76000 22.02600
C  -1.40000 31.85000 22.70400
N  -3.83900 32.51300 27.05000
C  -4.39600 31.82600 25.98900
C  -5.24600 30.76200 26.49200
C  -5.07200 30.71400 27.89700
C  -4.31800 31.90300 28.16400
C  -6.14800 29.95000 25.68000
C  -5.54600 30.09100 29.15500
O  -6.28900 29.13300 29.35300
C  -4.93700 30.92500 30.31100
C  -6.01400 31.59000 31.13700
O  -6.68000 32.54100 30.81000
O  -6.16500 30.96900 32.33800
C  -7.27700 31.51700 33.11400
H  -0.31300 35.94100 30.71800
H  -0.79200 36.65200 24.12800
H  -4.83100 31.88800 23.86500
H  -4.19700 33.33500 31.99600
H  -1.45500 34.36400 32.56200
H  -3.87900 35.86400 32.06300
H  -2.22000 36.59000 32.21400
H  -2.98200 35.48400 33.51100
H  -1.41100 32.31200 32.60400
H  -2.40800 31.26000 31.68500
H  -3.66700 30.53800 33.47300
H  -4.16800 32.17600 33.92700
H  2.36000 37.44700 28.88900
H  1.09000 37.51000 30.12000
H  1.42900 38.87100 29.09000
H  2.06200 39.73500 27.15200
H  2.82000 39.44900 25.55200
H  3.03700 38.23000 26.79200
H  -1.44800 35.07800 22.51000
H  -4.09600 33.89700 22.36100
H  -2.79600 37.23300 23.21000
H  -4.18300 36.36800 22.22400
H  -2.71900 36.77300 21.60600
H  -1.89300 33.29500 21.19100
H  -3.12400 32.17300 21.53800
H  -1.63000 30.85100 22.33500
H  -1.65700 31.78300 23.76100
H  -0.36900 32.12700 22.48400
H  -5.89500 28.91400 25.45600
H  -6.37200 30.37800 24.70300
H  -7.08300 29.97800 26.23900
H  -4.29700 30.29700 30.93100
H  -7.79800 30.56600 33.22800
H  -7.94800 32.31000 32.78400
H  -6.76500 31.79800 34.03400

