158

Mg 17.51900 -0.42800 28.31100
C  16.70600 1.35700 31.16200
C  19.55400 -2.55700 30.27500
C  18.88200 -1.81700 25.38900
C  15.78800 1.87600 26.32600
N  18.19600 -0.43500 30.37200
C  17.66500 0.30200 31.37400
C  18.04900 -0.25600 32.79900
C  19.27800 -1.13500 32.48000
C  19.05600 -1.38600 30.92300
C  20.68300 -0.65500 32.71600
C  16.81100 -0.88100 33.51000
C  16.76900 -0.93200 35.07000
H  17.83200 -0.25600 35.85100
N  18.80100 -2.04500 27.90700
C  19.43900 -2.83700 28.86700
C  20.03100 -4.01700 28.19800
C  19.94300 -3.73600 26.81700
C  19.14600 -2.48300 26.63200
C  20.49000 -5.17000 29.06200
C  20.27500 -4.62100 25.75700
O  20.02800 -4.44800 24.57800
C  21.10700 -5.79500 26.02900
N  17.32800 0.04000 26.18800
C  18.01600 -0.68200 25.16700
C  17.59300 -0.15900 23.76900
C  16.54500 0.97600 24.06100
C  16.47000 0.88400 25.63600
C  18.89000 0.31000 22.88200
C  15.20900 0.91400 23.28700
C  14.79400 2.12700 22.45400
N  16.41700 1.26600 28.62400
C  15.72900 2.05100 27.74400
C  15.01800 3.03900 28.52600
C  15.36500 2.74300 29.83600
C  16.25500 1.68500 29.81500
C  14.20400 4.18300 28.09600
C  15.15100 3.22200 31.23300
O  14.46900 4.11500 31.69300
C  16.05400 2.33300 32.10200
C  16.94900 3.13600 33.03800
O  18.09000 3.51400 32.82600
O  16.23000 3.44500 34.13300
C  16.87600 4.32400 35.10400
H  20.16700 -3.31300 30.77100
H  19.20700 -2.24500 24.43800
H  15.19500 2.63000 25.80500
H  18.40000 0.59000 33.39000
H  19.10200 -2.07800 32.99700
H  21.23900 -0.73300 31.78200
H  21.19400 -1.25500 33.46900
H  20.58100 0.39700 32.98100
H  16.72000 -1.90700 33.15300
H  15.88900 -0.44700 33.12200
H  16.70600 -1.94600 35.46600
H  15.88300 -0.30900 35.19300
H  20.17600 -6.12600 28.64300
H  20.05000 -5.01300 30.04700
H  21.56700 -5.05600 29.18700
H  21.84200 -5.42500 26.74400
H  21.58200 -6.26700 25.16900
H  20.34600 -6.47600 26.41000
H  17.16100 -1.04200 23.30000
H  16.96900 1.97000 23.91500
H  19.21400 -0.42200 22.14200
H  19.72600 0.67700 23.47700
H  18.60200 1.17500 22.28500
H  14.43300 0.65500 24.00800
H  15.28600 0.04200 22.63700
H  14.87600 1.83000 21.40800
H  15.38100 3.02500 22.64200
H  13.76200 2.34800 22.72600
H  13.68300 3.98700 27.15800
H  14.79100 5.10100 28.07500
H  13.38700 4.31500 28.80600
H  15.34300 1.82700 32.75400
H  16.45700 4.02700 36.06500
H  16.74000 5.40000 34.98800
H  17.95900 4.23300 35.18400
Mg 49.89100 44.61400 41.46600
C  46.66700 45.09500 40.17200
C  49.92700 41.48200 40.01400
C  53.26000 44.40800 41.82100
C  50.06900 48.05500 42.14300
N  48.44800 43.42800 40.31600
C  47.20000 43.78900 39.96500
C  46.50000 42.72500 39.07000
C  47.49500 41.44200 39.35500
C  48.68600 42.13600 39.88700
C  46.91600 40.39000 40.32900
C  46.47200 43.14900 37.57000
C  45.16200 43.15500 36.69900
H  45.34000 42.55500 35.34600
N  51.38400 43.04500 41.17700
C  51.20000 41.87100 40.54000
C  52.42500 41.09800 40.66500
C  53.44400 42.00000 41.09100
C  52.67600 43.22600 41.39600
C  52.40600 39.66100 40.15700
C  54.87800 41.64100 41.28300
O  55.22400 40.49100 41.03400
C  55.93000 42.56400 41.77800
N  51.38000 46.08000 41.94900
C  52.65200 45.66100 42.08000
C  53.54400 46.83300 42.55000
C  52.60700 48.08500 42.40000
C  51.27800 47.38100 42.21700
C  54.30000 46.62400 43.87600
C  52.95400 49.05700 41.17400
C  53.17800 50.53600 41.53600
N  48.56900 46.20500 41.42800
C  48.77200 47.57000 41.74400
C  47.57300 48.35400 41.41100
C  46.77100 47.37100 40.73900
C  47.38200 46.16500 40.80600
C  47.39600 49.86200 41.50800
C  45.54800 47.24400 39.94700
O  44.79600 48.11100 39.51200
C  45.39300 45.75500 39.52700
C  44.19600 45.23700 40.08600
O  44.10500 44.59500 41.13200
O  43.18600 45.51800 39.19600
C  41.90800 45.00900 39.51300
H  49.93600 40.44000 39.69000
H  54.33800 44.48900 41.97900
H  50.15000 49.12800 42.32800
H  45.50200 42.61100 39.49500
H  47.68600 40.88300 38.43900
H  47.31300 39.40500 40.08100
H  45.84200 40.56800 40.28400
H  47.21400 40.54400 41.36600
H  47.29000 42.60700 37.09500
H  46.93700 44.13300 37.51800
H  44.84500 44.17400 36.47900
H  44.33500 42.67500 37.22300
H  53.30500 39.12800 40.46800
H  52.61000 39.63600 39.08600
H  51.45700 39.17000 40.37200
H  55.62700 43.13300 42.65700
H  56.00800 43.21600 40.90900
H  56.89400 42.08100 41.93900
H  54.36200 46.73800 41.83600
H  52.51800 48.61800 43.34600
H  55.34800 46.78400 43.62200
H  54.00300 45.65800 44.28300
H  53.86500 47.32800 44.58500
H  52.12100 48.93900 40.48000
H  53.86300 48.62400 40.75500
H  54.11200 50.93700 41.14100
H  53.12900 50.69500 42.61300
H  52.33100 51.11700 41.17000
H  47.03300 49.99800 42.52600
H  46.76900 50.32000 40.74200
H  48.35400 50.37300 41.40600
H  45.42400 45.65000 38.44300
H  41.83700 44.77600 40.57600
H  41.59600 44.04400 39.11600
H  41.22100 45.80500 39.22800

