158

Mg 25.23600 1.33900 29.96700
C  27.62700 1.37900 32.59600
C  22.73500 1.62700 32.30900
C  23.08800 1.30100 27.41200
C  27.87800 0.63000 27.83500
N  25.18300 1.60000 32.15500
C  26.30000 1.53500 33.10800
C  25.76600 1.90200 34.53300
C  24.20800 2.04700 34.39300
C  23.98500 1.68900 32.85300
C  23.36500 1.06700 35.34400
C  26.42600 3.20900 35.07000
C  27.41900 3.04100 36.29400
H  27.16000 4.03000 37.38900
N  23.14900 1.38100 29.85300
C  22.32600 1.43500 30.93300
C  20.94400 1.49000 30.39200
C  21.04400 1.44700 28.96200
C  22.46700 1.34700 28.68700
C  19.65700 1.58200 31.20800
C  19.90800 1.28800 27.98000
O  20.04600 1.12100 26.78800
C  18.53100 1.46900 28.50300
N  25.41900 0.86900 27.97900
C  24.41700 1.03700 27.06400
C  24.94400 1.05700 25.65000
C  26.44700 0.87600 25.75600
C  26.61600 0.76900 27.25900
C  24.26700 -0.08700 24.76700
C  27.29600 1.91600 24.98600
C  27.42900 3.33200 25.74100
N  27.31900 0.94000 30.14000
C  28.21400 0.62300 29.19500
C  29.48200 0.36600 29.78200
C  29.35100 0.70800 31.13000
C  27.97200 1.08800 31.28700
C  30.74900 0.18300 28.95800
C  30.02900 0.79000 32.38700
O  31.19400 0.58400 32.70100
C  28.94800 1.23600 33.38800
C  28.89000 0.16600 34.44500
O  28.20000 -0.78600 34.39000
O  29.67900 0.56200 35.51100
C  29.60600 -0.26500 36.73800
H  21.93400 1.70100 33.04700
H  22.38100 1.46700 26.59700
H  28.72300 0.57300 27.14600
H  26.12300 1.13400 35.21900
H  23.78000 3.04500 34.48200
H  22.67400 1.55200 36.03400
H  24.04300 0.59800 36.05700
H  22.87000 0.31700 34.72700
H  25.71000 4.01100 35.24500
H  27.05500 3.65000 34.29700
H  28.43100 3.21900 35.92900
H  27.44400 2.04400 36.73200
H  20.00700 1.64300 32.23900
H  19.02900 0.69200 31.17100
H  19.03500 2.45800 31.02600
H  18.22600 0.68800 29.19900
H  17.78800 1.32300 27.71800
H  18.55300 2.49000 28.88500
H  24.70000 2.05000 25.27300
H  26.76000 -0.09700 25.37700
H  23.38700 -0.42600 25.31500
H  25.02500 -0.80600 24.46000
H  24.01600 0.39600 23.82300
H  26.75500 2.01300 24.04500
H  28.27700 1.51900 24.72300
H  28.46800 3.66000 25.76100
H  27.10100 3.25300 26.77800
H  26.77800 3.94500 25.11700
H  31.68300 0.38500 29.48100
H  30.56600 0.87000 28.13200
H  30.88900 -0.84300 28.61900
H  29.18000 2.17200 33.89800
H  29.67100 -1.33700 36.55400
H  28.58100 -0.10700 37.07500
H  30.28600 0.09400 37.51000
Mg 44.31100 4.73700 46.89600
C  42.28500 7.60800 46.37700
C  41.42500 2.76400 46.54700
C  46.39500 2.10200 46.53100
C  47.10200 6.95400 46.95800
N  42.10900 5.15000 46.43600
C  41.52300 6.39400 46.30900
C  39.95800 6.23000 46.17300
C  39.78700 4.69500 46.68700
C  41.22500 4.16700 46.48400
C  39.19300 4.52100 48.12600
C  39.44500 6.57200 44.77200
C  38.49800 7.75500 44.52200
H  38.94100 8.77000 43.47300
N  43.96600 2.73300 46.43500
C  42.71600 2.13400 46.42900
C  42.86200 0.69300 46.31900
C  44.25500 0.47100 46.21100
C  44.98800 1.77900 46.28000
C  41.66500 -0.24700 46.28200
C  44.89000 -0.95000 45.96700
O  44.30800 -2.03500 46.17900
C  46.31900 -1.02300 45.47500
N  46.40300 4.55500 46.72900
C  47.00700 3.32200 46.76600
C  48.47300 3.40400 47.02700
C  48.68800 4.97500 47.05400
C  47.23600 5.61700 46.90400
C  48.75700 2.73300 48.40800
C  49.70300 5.46300 45.90100
C  50.85700 6.36400 46.27200
N  44.67600 6.85900 46.84500
C  45.90300 7.59400 46.81000
C  45.62800 8.98000 46.77300
C  44.20800 9.06300 46.65400
C  43.68000 7.70300 46.57900
C  46.59000 10.07700 46.88900
C  43.11100 9.94100 46.51600
O  43.17000 11.16200 46.37800
C  41.85300 9.01900 46.33200
C  40.88600 9.39100 47.46100
O  41.03100 9.02900 48.63100
O  40.12400 10.50900 47.17000
C  39.40700 11.17100 48.24500
H  40.47400 2.22800 46.57600
H  46.96800 1.17800 46.64200
H  47.99100 7.57500 47.08000
H  39.61700 7.02400 46.83800
H  39.24100 4.00900 46.04000
H  38.32500 3.86400 48.06500
H  38.85200 5.51400 48.41900
H  39.91600 4.25800 48.89800
H  38.79600 5.75400 44.45800
H  40.31500 6.53300 44.11600
H  38.35600 8.40900 45.38300
H  37.49800 7.45000 44.21300
H  41.64300 -0.90900 47.14800
H  41.60400 -0.83500 45.36700
H  40.69100 0.23900 46.22300
H  47.10200 -0.91800 46.22500
H  46.44700 -0.08500 44.93400
H  46.43300 -1.94300 44.90200
H  48.93600 2.80000 46.24700
H  49.07600 5.15900 48.05600
H  49.76000 2.93700 48.78200
H  48.59200 1.66300 48.28400
H  48.18000 3.18900 49.21200
H  49.14500 6.05400 45.17400
H  50.03600 4.51400 45.48200
H  51.07600 7.14400 45.54300
H  51.77000 5.76900 46.26800
H  50.68400 6.80400 47.25400
H  47.15700 10.30100 45.98500
H  47.18700 9.82300 47.76400
H  45.93400 10.92000 47.11000
H  41.38400 9.21300 45.36700
H  40.00900 12.04800 48.48100
H  39.18600 10.63500 49.16800
H  38.48300 11.59900 47.85500

