158

Mg 26.16800 -0.76700 29.43100
C  28.14500 -1.14700 32.43400
C  23.53600 -0.37200 31.44700
C  24.44800 -0.24400 26.57900
C  29.02100 -1.66500 27.50800
N  25.89800 -0.92000 31.71800
C  26.86400 -0.82100 32.72800
C  26.22000 -0.64900 34.16300
C  24.64300 -0.72900 33.82600
C  24.68000 -0.66300 32.25400
C  23.91100 -1.96600 34.36000
C  26.80100 0.57600 34.95100
C  27.37200 0.38200 36.30100
H  26.48900 -0.30400 37.35000
N  24.27900 -0.30900 29.05600
C  23.26300 -0.25900 29.99900
C  22.02900 -0.06200 29.35200
C  22.25000 0.06400 27.99700
C  23.71100 -0.12600 27.82200
C  20.64300 0.00500 30.07400
C  21.27800 0.09200 26.79600
O  21.59600 0.23000 25.61100
C  19.78600 0.10600 26.98900
N  26.63800 -1.07800 27.27000
C  25.80100 -0.65300 26.31200
C  26.44400 -0.60500 24.90500
C  27.87200 -1.17200 25.20200
C  27.85300 -1.42700 26.73800
C  25.63600 -1.30200 23.82300
C  28.98800 -0.14200 24.71900
C  30.31600 -0.89600 24.49900
N  28.16400 -1.24400 29.83300
C  29.20000 -1.64600 28.93000
C  30.43000 -1.69000 29.73300
C  30.05600 -1.57200 31.05900
C  28.66400 -1.35500 31.09100
C  31.81200 -1.99200 29.18900
C  30.55200 -1.58800 32.43600
O  31.71300 -1.85300 32.83000
C  29.39700 -1.32200 33.32400
C  29.28100 -2.50900 34.18800
O  28.54900 -3.45400 33.87400
O  30.04100 -2.39300 35.33700
C  29.76400 -3.43800 36.36100
H  22.59100 -0.27200 31.98400
H  23.96500 0.05100 25.64500
H  29.94300 -1.80900 26.94200
H  26.56300 -1.53900 34.69000
H  24.18600 0.21800 34.11200
H  23.46000 -2.59300 33.59100
H  23.16700 -1.55600 35.04200
H  24.61200 -2.57000 34.93700
H  25.90700 1.19900 34.97500
H  27.48900 1.11800 34.30100
H  27.42900 1.34400 36.80900
H  28.29300 -0.20000 36.33100
H  20.22200 0.99300 29.88700
H  20.74300 -0.18400 31.14300
H  20.02400 -0.78200 29.64200
H  19.63900 1.04100 27.52900
H  19.41100 -0.77200 27.51400
H  19.29100 0.20500 26.02400
H  26.57000 0.41800 24.55000
H  28.04800 -2.10100 24.66100
H  26.13100 -2.22000 23.50500
H  25.50200 -0.61000 22.99100
H  24.63500 -1.54000 24.18200
H  29.19800 0.60500 25.48400
H  28.62900 0.35700 23.81900
H  30.91500 -0.67500 25.38200
H  30.70800 -0.71900 23.49800
H  30.28100 -1.98400 24.43900
H  31.98800 -1.40600 28.28600
H  31.87100 -3.01700 28.82500
H  32.52100 -1.82300 29.99900
H  29.57400 -0.43600 33.93400
H  29.60300 -4.45100 35.99000
H  28.94500 -3.21600 37.04500
H  30.58200 -3.36800 37.07800
Mg 39.88100 41.48200 26.86700
C  39.05300 43.69100 29.47900
C  40.36000 38.94900 29.17500
C  40.81600 39.45000 24.27000
C  39.20700 43.99100 24.56100
N  39.90100 41.42800 29.21200
C  39.40500 42.39700 30.03400
C  39.29800 41.86100 31.44900
C  39.76600 40.34600 31.26200
C  40.04400 40.24200 29.76300
C  41.00300 39.97900 32.23500
C  37.88900 42.05400 32.09000
C  37.58700 41.34900 33.44500
H  37.06400 42.37000 34.51600
N  40.59500 39.44300 26.79600
C  40.74500 38.60100 27.88600
C  41.14300 37.24500 27.37500
C  41.23800 37.39500 25.95100
C  40.88700 38.79900 25.60800
C  41.46100 36.02700 28.24100
C  41.68500 36.40300 24.87700
O  41.83600 36.65600 23.69600
C  41.83800 34.91300 25.21300
N  40.06800 41.71400 24.69900
C  40.47300 40.72000 23.90900
C  40.29500 41.05200 22.43900
C  39.52900 42.39700 22.54100
C  39.64500 42.76100 23.96700
C  41.51300 41.13000 21.52300
C  38.11000 42.41200 21.82100
C  37.15300 41.46900 22.31500
N  39.31700 43.41000 26.95600
C  39.10800 44.33700 25.92500
C  38.72900 45.60600 26.43300
C  38.67500 45.34900 27.84600
C  39.09200 44.04200 28.10000
C  38.45500 46.94100 25.63700
C  38.14600 45.97600 29.08600
O  37.54000 47.05200 29.27700
C  38.45200 44.90500 30.21900
C  39.34100 45.55500 31.22500
O  40.50000 45.91600 30.97500
O  38.73100 45.83500 32.42200
C  39.36300 46.72300 33.40100
H  40.48800 38.17800 29.93700
H  40.96300 38.74500 23.44900
H  38.97100 44.74900 23.81200
H  39.98700 42.43900 32.06500
H  38.95000 39.67800 31.53700
H  40.95000 38.94600 32.57900
H  41.13500 40.69100 33.05000
H  41.86800 39.93600 31.57300
H  37.07600 41.93300 31.37400
H  37.94200 43.12700 32.27000
H  38.45900 40.86700 33.88900
H  36.84300 40.62500 33.11500
H  42.54100 36.02400 28.38700
H  41.12200 35.12200 27.73700
H  40.90200 36.01200 29.17700
H  42.01500 34.27600 24.34600
H  40.91900 34.66200 25.74100
H  42.70100 34.71700 25.84900
H  39.63800 40.28900 22.02100
H  39.98900 43.23400 22.01700
H  42.42000 40.80600 22.03400
H  41.51800 42.17200 21.20200
H  41.33500 40.55600 20.61300
H  38.40800 42.04800 20.83800
H  37.59300 43.37200 21.82600
H  36.50600 42.01700 23.00000
H  37.72800 40.73600 22.88200
H  36.66300 41.02300 21.45000
H  37.41600 46.97500 25.30700
H  39.23700 47.03300 24.88400
H  38.55400 47.71200 26.40100
H  37.49700 44.63800 30.66900
H  40.22500 46.36600 33.96500
H  38.56700 47.15800 34.00500
H  39.69100 47.58000 32.81300

