158

Mg 40.14100 10.00300 29.55500
C  42.16300 11.20800 32.01100
C  38.08800 8.63000 31.81700
C  38.29800 8.60600 26.94700
C  42.51800 11.01300 27.12000
N  40.15100 9.89600 31.69800
C  41.02500 10.60100 32.54000
C  40.54400 10.45400 33.98600
C  39.29900 9.49500 33.92200
C  39.22300 9.28700 32.38400
C  39.48900 8.22500 34.74500
C  40.23900 11.85900 34.46400
C  39.65100 12.10700 35.93400
H  40.31600 13.10300 36.93900
N  38.50300 8.75800 29.45000
C  37.71600 8.33400 30.49700
C  36.56800 7.59700 30.02600
C  36.56600 7.69800 28.65000
C  37.86700 8.38500 28.30900
C  35.65800 6.84600 30.99000
C  35.53900 7.19100 27.69100
O  35.62800 7.34800 26.50300
C  34.39700 6.51100 28.31000
N  40.36200 9.75800 27.38600
C  39.48700 9.16500 26.53600
C  39.88800 9.18100 25.10100
C  41.25600 9.99800 25.10800
C  41.39900 10.26700 26.66800
C  39.93700 7.76800 24.45000
C  41.13900 11.25900 24.14200
C  40.67500 12.60400 24.81000
N  41.95300 10.94700 29.51900
C  42.78800 11.35100 28.46100
C  43.89300 12.04600 29.00500
C  43.66800 12.03100 30.40800
C  42.48600 11.31800 30.61100
C  45.10100 12.42700 28.31900
C  44.22200 12.52200 31.63900
O  45.17300 13.29200 31.86300
C  43.07900 12.12200 32.75400
C  43.73500 11.48000 33.86800
O  44.26500 10.37900 33.83100
O  43.68400 12.28100 35.04600
C  44.16000 11.72600 36.33700
H  37.52200 8.32000 32.69800
H  37.72600 8.14300 26.14000
H  43.19500 11.28200 26.30700
H  41.30300 10.09200 34.68000
H  38.41500 10.08800 34.15500
H  38.67600 8.05200 35.45000
H  40.43800 8.23900 35.28000
H  39.59800 7.35600 34.09600
H  39.69400 12.27300 33.61600
H  41.15300 12.45200 34.51500
H  39.58100 11.14300 36.43900
H  38.56900 12.20500 35.84500
H  36.24600 6.79200 31.90700
H  35.41500 5.82900 30.68200
H  34.82500 7.51800 31.19700
H  34.76300 5.55000 28.67300
H  33.70400 6.28900 27.49800
H  33.95100 7.09600 29.11400
H  39.06100 9.68400 24.60100
H  42.07700 9.39500 24.72000
H  39.09900 7.55000 23.78900
H  40.08300 6.93600 25.13900
H  40.69400 7.65100 23.67500
H  40.43200 10.96900 23.36500
H  42.12700 11.49800 23.74800
H  40.28500 12.39800 25.80700
H  39.87500 13.04600 24.21600
H  41.40700 13.41200 24.82000
H  45.55700 11.62200 27.74200
H  45.79700 12.87100 29.03000
H  44.87700 13.23200 27.61900
H  42.71500 13.06600 33.16100
H  45.04400 12.28000 36.64900
H  44.49600 10.69300 36.24900
H  43.36700 11.84200 37.07500
Mg 30.15100 57.37800 39.94700
C  27.65200 55.29300 38.35400
C  32.43700 55.26700 39.17600
C  32.44500 59.88400 40.32600
C  27.52700 59.76500 40.29700
N  30.01500 55.53900 38.73100
C  28.94800 54.73800 38.35700
C  29.39400 53.32000 38.06900
C  30.82600 53.23500 38.70100
C  31.14500 54.74600 38.98200
C  31.07500 52.32600 39.88400
C  29.17500 52.62600 36.74100
C  29.62700 53.41200 35.47800
H  28.69000 53.87600 34.39400
N  32.18800 57.49200 39.89300
C  32.99300 56.52000 39.52800
C  34.41100 56.96300 39.46800
C  34.34400 58.25000 39.86300
C  32.94400 58.61600 39.97000
C  35.49700 55.97300 39.05400
C  35.60900 59.17300 39.89000
O  36.65600 58.67300 39.50800
C  35.58700 60.58800 40.29200
N  29.96400 59.53500 40.32700
C  31.04300 60.30500 40.50200
C  30.60800 61.77400 40.73700
C  29.15000 61.59600 41.31300
C  28.80200 60.19500 40.70500
C  31.46300 62.64800 41.73300
C  28.07800 62.67500 40.94200
C  26.82500 62.80200 41.89300
N  28.10000 57.53800 39.58600
C  27.17500 58.59200 39.81600
C  25.85200 58.15300 39.46500
C  26.01100 56.91300 38.81100
C  27.39100 56.55400 38.92500
C  24.62900 59.02600 39.52900
C  25.28400 55.84200 38.20100
O  24.09600 55.81100 38.00400
C  26.36900 54.74000 37.87100
C  25.86600 53.49700 38.55200
O  25.94200 53.24200 39.72800
O  25.29100 52.68000 37.69000
C  24.76600 51.37800 38.20500
H  33.24100 54.52900 39.13900
H  33.21700 60.65200 40.40300
H  26.71200 60.49200 40.31500
H  28.91500 52.59600 38.72800
H  31.44200 52.85900 37.88400
H  30.36800 51.49800 39.92600
H  31.18300 52.95900 40.76600
H  31.99900 51.78500 39.67900
H  28.11700 52.40100 36.60600
H  29.70900 51.67600 36.72000
H  30.27700 52.74400 34.91400
H  30.06900 54.34400 35.83100
H  35.95300 55.40800 39.86800
H  36.40100 56.44200 38.66600
H  35.15400 55.23100 38.33300
H  36.61000 60.94200 40.16600
H  35.24700 60.57600 41.32800
H  35.00400 61.24200 39.64300
H  30.73200 62.23200 39.75600
H  29.20500 61.51300 42.39900
H  31.92400 63.53800 41.30400
H  32.20700 61.99500 42.19100
H  30.85300 63.08400 42.52400
H  27.72200 62.46300 39.93300
H  28.53100 63.65800 40.81400
H  25.90200 62.72800 41.31700
H  26.79800 63.79800 42.33500
H  26.74700 62.03300 42.66200
H  24.56700 59.42800 40.54000
H  23.66500 58.59100 39.26500
H  24.72800 59.85300 38.82700
H  26.47500 54.48000 36.81800
H  23.87800 51.53500 38.81800
H  25.54100 50.92500 38.82200
H  24.38700 50.69900 37.44100

