158

Mg 47.95900 34.91300 27.41200
C  46.51900 33.23500 30.19100
C  48.39600 37.60100 29.30900
C  49.00900 36.51800 24.71700
C  47.21400 32.07000 25.51700
N  47.35600 35.41200 29.49100
C  47.01200 34.51200 30.47500
C  47.21400 35.19500 31.84100
C  47.40700 36.71100 31.44400
C  47.76300 36.58100 29.96400
C  46.14300 37.55000 31.75800
C  48.49500 34.54300 32.44300
C  48.52300 34.47100 33.91500
H  47.66000 35.34100 34.90400
N  48.66900 36.80100 27.05400
C  48.76900 37.76800 27.99400
C  49.30100 38.93000 27.44800
C  49.59000 38.68400 26.08400
C  49.08300 37.28700 25.91800
C  49.49000 40.16200 28.22000
C  50.20000 39.53500 25.00600
O  50.32400 39.20600 23.78500
C  50.65900 40.90700 25.36700
N  48.05700 34.35200 25.34400
C  48.56100 35.22000 24.46100
C  48.65400 34.55000 23.07000
C  48.05500 33.17600 23.34100
C  47.82800 33.11900 24.85600
C  48.10300 35.28400 21.86100
C  48.86600 31.96700 22.76800
C  48.21600 30.89900 21.91100
N  47.04300 33.14700 27.70200
C  46.74800 32.08800 26.83000
C  46.14300 30.95800 27.50400
C  46.00600 31.45500 28.81200
C  46.57000 32.71100 28.86600
C  45.73600 29.61700 27.00600
C  45.41600 31.04100 30.11100
O  44.88700 30.03500 30.44800
C  45.80800 32.21400 31.08800
C  46.53400 31.65100 32.24100
O  47.69900 31.34800 32.24300
O  45.67800 31.50700 33.31100
C  46.11800 31.02200 34.59500
H  48.57000 38.49100 29.91600
H  49.57400 37.02900 23.93400
H  47.10700 31.18000 24.89400
H  46.35200 34.99900 32.47800
H  48.26300 37.16600 31.94300
H  46.36100 38.22400 32.58700
H  45.21000 37.04300 32.00600
H  45.97000 38.17600 30.88300
H  49.39400 35.09600 32.16900
H  48.75100 33.53900 32.10600
H  49.54900 34.69700 34.20400
H  48.37200 33.41500 34.13900
H  50.23600 39.93900 28.98400
H  48.54300 40.45000 28.67600
H  49.83500 41.05300 27.69600
H  51.41200 40.97300 26.15300
H  49.73400 41.40800 25.65400
H  51.14500 41.33200 24.48900
H  49.68800 34.35900 22.78300
H  47.05800 33.05300 22.92000
H  48.87600 35.44500 21.11000
H  47.59300 36.19800 22.16400
H  47.42500 34.59600 21.35700
H  49.10600 31.56000 23.75100
H  49.74400 32.36000 22.25400
H  48.01300 29.96400 22.43300
H  48.78700 30.77600 20.99100
H  47.21100 31.22000 21.63600
H  46.10100 29.44500 25.99400
H  44.67000 29.48900 27.19500
H  46.11500 28.82300 27.65000
H  44.90700 32.65500 31.51400
H  45.41700 30.27100 34.96000
H  46.18500 31.77200 35.38200
H  47.12400 30.61300 34.50300
Mg 9.12800 47.35600 28.17300
C  7.25800 46.98500 31.15300
C  11.96400 47.99700 30.19400
C  10.87300 48.19200 25.45000
C  6.03600 47.92400 26.36000
N  9.51000 47.49300 30.35700
C  8.64200 47.13100 31.40600
C  9.31300 47.29800 32.78000
C  10.69400 47.88800 32.38600
C  10.73200 47.74400 30.85600
C  10.75900 49.42600 32.72300
C  9.49800 46.01400 33.65800
C  9.23400 46.19300 35.11400
H  9.63300 45.13300 36.11100
N  11.21400 47.78200 27.85000
C  12.20400 47.93000 28.78400
C  13.41900 48.06200 28.06000
C  13.14200 48.10000 26.67900
C  11.67100 48.02200 26.56600
C  14.73600 48.19600 28.71400
C  14.12000 48.05000 25.42600
O  13.69700 47.78500 24.29300
C  15.66900 48.24800 25.61200
N  8.54500 48.01500 26.29700
C  9.46900 48.32400 25.38700
C  8.87600 48.56500 24.00800
C  7.30000 48.22800 24.20000
C  7.25800 48.09300 25.71400
C  9.18700 49.90500 23.28900
C  6.70700 47.01500 23.35700
C  6.10400 47.32800 21.96600
N  7.09000 47.37700 28.60400
C  5.96100 47.57700 27.76000
C  4.73900 47.36600 28.54300
C  5.21700 47.10200 29.86700
C  6.59200 47.13200 29.85400
C  3.42600 47.38500 28.01300
C  4.81300 46.79200 31.25800
O  3.65000 46.55700 31.66900
C  6.13100 46.63100 32.13400
C  6.08000 45.29700 32.63200
O  6.56600 44.31800 32.06600
O  5.49500 45.19000 33.88700
C  5.78100 43.94000 34.54700
H  12.88100 48.04200 30.78500
H  11.31900 48.40900 24.47700
H  5.14200 48.05500 25.74600
H  8.71600 48.03100 33.32200
H  11.54100 47.36600 32.83200
H  9.90900 49.95300 33.15700
H  10.99800 49.96800 31.80900
H  11.61000 49.73200 33.33200
H  10.52400 45.66800 33.53500
H  8.96900 45.23800 33.10400
H  8.14800 46.28300 35.10700
H  9.59600 47.21500 35.22400
H  15.22600 49.01700 28.19100
H  15.42800 47.37200 28.54000
H  14.61000 48.34600 29.78600
H  15.87800 49.22500 26.04700
H  16.05400 48.35300 24.59700
H  16.09200 47.41100 26.16700
H  9.27500 47.85300 23.28600
H  6.74500 49.11000 23.88100
H  10.19300 50.19400 23.59500
H  8.48700 50.70500 23.52900
H  9.17400 49.96000 22.20100
H  6.01600 46.40600 23.94000
H  7.54500 46.39500 23.04100
H  6.31400 48.30100 21.52400
H  5.02200 47.26400 21.85100
H  6.56600 46.58700 21.31300
H  2.97800 46.51300 28.49000
H  3.36900 47.19800 26.94100
H  2.96900 48.32400 28.32600
H  6.19200 47.30500 32.98800
H  6.75300 43.89600 35.03900
H  5.72300 43.08500 33.87300
H  4.93100 43.77500 35.20900

