158

Mg 49.41100 36.19600 27.46800
C  47.78800 34.18300 29.75700
C  49.58900 38.66000 29.83800
C  50.96500 38.01600 25.16500
C  48.78400 33.66400 25.09000
N  48.77000 36.34500 29.60500
C  48.15800 35.38600 30.36000
C  48.16300 35.83300 31.83300
C  48.15200 37.36600 31.61700
C  48.90200 37.48600 30.26700
C  46.78700 37.98000 31.63500
C  49.48600 35.39800 32.63800
C  49.35400 35.21200 34.14800
H  48.45300 36.15200 35.06200
N  50.20100 38.05200 27.53400
C  50.11700 38.99400 28.51800
C  50.69500 40.21200 28.07600
C  51.14200 40.06000 26.76000
C  50.81800 38.65900 26.44900
C  50.73600 41.48300 29.03800
C  51.82800 40.98400 25.78200
O  52.13800 40.64800 24.63300
C  52.10000 42.38500 26.21600
N  49.79900 35.81100 25.42800
C  50.43100 36.76200 24.75400
C  50.78900 36.33300 23.32000
C  50.31400 34.80100 23.37800
C  49.58900 34.74400 24.63300
C  50.19900 37.18200 22.17000
C  51.46500 33.76600 23.39800
C  51.20900 32.51400 22.64800
N  48.48500 34.29300 27.38200
C  48.35300 33.31600 26.36900
C  47.82500 32.10300 26.94600
C  47.56800 32.39900 28.29800
C  47.92400 33.75600 28.49200
C  47.39400 30.87400 26.15600
C  47.06400 31.83100 29.55400
O  46.60500 30.70700 29.79300
C  46.98800 33.09400 30.48000
C  47.31800 32.75800 31.88100
O  48.29400 32.12000 32.27000
O  46.36600 33.21900 32.67900
C  46.32200 32.89800 34.15000
H  49.46300 39.51900 30.50000
H  51.37800 38.58000 24.32600
H  48.61000 32.87200 24.35900
H  47.26700 35.51900 32.36900
H  48.72700 37.76700 32.45200
H  46.01300 37.30200 31.99600
H  46.52600 38.20400 30.60100
H  46.87000 38.92400 32.17300
H  50.30700 36.06800 32.38400
H  49.78100 34.51700 32.06700
H  50.34100 35.31700 34.59900
H  49.13000 34.14600 34.19400
H  51.51400 42.20700 28.79600
H  50.95400 41.15100 30.05300
H  49.73300 41.90100 29.11500
H  52.35600 43.13700 25.46900
H  52.84800 42.44300 27.00700
H  51.28800 42.99800 26.60700
H  51.86500 36.44500 23.18800
H  49.54000 34.63100 22.63000
H  49.77400 38.03600 22.69700
H  49.39200 36.66300 21.65400
H  50.92100 37.44500 21.39700
H  51.62100 33.46900 24.43500
H  52.39300 34.12400 22.95300
H  52.01000 32.31300 21.93600
H  50.44100 32.59500 21.87800
H  50.90500 31.65200 23.24200
H  48.26000 30.21500 26.08900
H  47.07400 31.18400 25.16100
H  46.57600 30.39600 26.69500
H  45.95200 33.42800 30.41800
H  45.67700 32.05100 34.38500
H  45.79500 33.75900 34.56000
H  47.28400 32.82000 34.65600
Mg 30.45800 57.72700 39.68600
C  27.82300 55.68600 38.58000
C  32.61900 55.13400 38.73000
C  33.19300 59.76800 40.15000
C  28.28600 60.31500 40.10000
N  30.22700 55.69200 38.70600
C  29.06700 55.05400 38.51500
C  29.13500 53.55400 38.10300
C  30.74600 53.39200 38.21200
C  31.26700 54.81000 38.60700
C  31.22600 52.25100 39.26500
C  28.66500 53.18700 36.71500
C  29.26000 53.86800 35.52100
H  28.28800 54.52000 34.54300
N  32.57300 57.49500 39.52500
C  33.22100 56.33800 39.08100
C  34.66700 56.62300 38.94200
C  34.88200 57.88500 39.51700
C  33.50700 58.42800 39.79300
C  35.63700 55.69900 38.35200
C  36.27000 58.60800 39.67700
O  37.30800 58.08100 39.32600
C  36.37600 59.81200 40.56800
N  30.65200 59.78400 39.96100
C  31.86500 60.31500 40.29300
C  31.65800 61.73800 40.76800
C  30.17200 62.04400 40.63300
C  29.65400 60.64700 40.27800
C  32.37600 62.14300 42.05600
C  29.79800 63.11800 39.56900
C  28.80000 64.20500 40.06500
N  28.45200 58.01200 39.33600
C  27.68500 59.18400 39.59000
C  26.26400 58.77400 39.31000
C  26.31900 57.42400 38.98100
C  27.61500 56.98300 38.94600
C  25.09700 59.76800 39.33800
C  25.49800 56.27900 38.64000
O  24.29800 56.13500 38.44600
C  26.42600 55.12000 38.34400
C  26.06800 53.88900 39.07900
O  26.36000 53.67400 40.21000
O  25.37200 53.01400 38.36200
C  24.60300 51.95000 39.07700
H  33.24800 54.28800 38.44400
H  33.92400 60.57200 40.25900
H  27.61700 61.17400 40.18800
H  28.62300 52.95800 38.85800
H  31.36000 53.27200 37.32000
H  31.98500 51.71600 38.69300
H  30.43000 51.54300 39.49700
H  31.47600 52.60400 40.26500
H  27.57900 53.28700 36.72500
H  28.98200 52.14800 36.63700
H  29.64100 53.02200 34.94900
H  29.99800 54.62600 35.78300
H  36.48100 56.29000 37.99600
H  35.11000 55.07400 37.63100
H  35.91500 55.06000 39.19000
H  37.43700 60.00300 40.72600
H  35.92800 59.55000 41.52600
H  36.02400 60.72900 40.09500
H  32.22400 62.21300 39.96600
H  29.72000 62.26700 41.60000
H  33.03400 61.31700 42.32400
H  31.69300 62.41900 42.86000
H  33.07000 62.92500 41.75100
H  29.21200 62.70200 38.74900
H  30.66300 63.60700 39.12100
H  28.62600 63.97800 41.11600
H  27.95600 64.00700 39.40400
H  29.08400 65.24400 39.89200
H  25.46100 60.78900 39.45200
H  24.36900 59.38000 40.05100
H  24.59600 59.76100 38.37100
H  26.35000 54.96400 37.26800
H  25.20900 51.42800 39.81800
H  24.18600 51.19300 38.41300
H  23.77800 52.49900 39.53100

