158

Mg 25.98300 1.18000 29.50900
C  28.30400 0.69300 32.31500
C  23.51100 1.27900 31.80100
C  23.96200 1.23300 26.91900
C  28.74600 0.53100 27.34100
N  25.98700 1.04200 31.84400
C  26.98500 0.91800 32.74000
C  26.42700 1.26400 34.20000
C  24.85100 1.23100 33.98700
C  24.77200 1.22000 32.47100
C  24.13600 0.03200 34.63400
C  27.02200 2.50400 34.92600
C  27.94000 2.23100 36.14000
H  27.93900 3.21800 37.34600
N  24.02900 1.26900 29.40800
C  23.12400 1.26400 30.43000
C  21.76500 1.41300 29.89800
C  21.88200 1.30700 28.48200
C  23.32600 1.28200 28.20500
C  20.59600 1.47400 30.79300
C  20.77400 1.29500 27.39500
O  20.91200 1.02400 26.20300
C  19.37900 1.53700 27.75800
N  26.36200 0.95000 27.45700
C  25.33500 1.10100 26.57500
C  25.78100 1.00000 25.13400
C  27.27300 0.73300 25.25200
C  27.51500 0.74500 26.76700
C  25.08000 -0.04900 24.21000
C  28.24100 1.64500 24.37600
C  29.07200 2.67300 25.18200
N  28.05400 0.65800 29.70000
C  29.02400 0.49800 28.74600
C  30.26200 0.23900 29.34600
C  30.06800 0.32900 30.72500
C  28.70100 0.55500 30.92000
C  31.64700 0.11700 28.72600
C  30.68500 0.26900 32.00000
O  31.88300 0.11300 32.35400
C  29.60800 0.49600 33.10400
C  29.52600 -0.67600 34.05300
O  29.04600 -1.76200 33.74900
O  29.82600 -0.30600 35.38500
C  29.36600 -1.19000 36.46000
H  22.68300 1.46000 32.49000
H  23.32200 1.10500 26.04300
H  29.47900 0.30600 26.56400
H  26.57800 0.31600 34.71600
H  24.36000 2.12800 34.36300
H  24.72600 -0.61800 35.28200
H  23.65700 -0.58900 33.87600
H  23.32700 0.41800 35.25400
H  26.18600 3.08800 35.31000
H  27.41300 3.23100 34.21400
H  28.98400 2.19100 35.82700
H  27.68300 1.26000 36.56300
H  19.97100 0.58100 30.77400
H  19.91100 2.24300 30.43500
H  20.77500 1.76500 31.82800
H  19.25400 2.55600 28.12600
H  19.08800 0.87100 28.57000
H  18.73100 1.51800 26.88200
H  25.56700 1.93500 24.61600
H  27.58100 -0.27500 24.97500
H  25.83800 -0.72100 23.80800
H  24.48500 0.31100 23.37000
H  24.33300 -0.61800 24.76400
H  27.72700 2.00700 23.48500
H  29.06000 1.00200 24.05400
H  28.35200 3.10800 25.87500
H  29.37400 3.49800 24.53800
H  29.94600 2.34600 25.74700
H  32.41000 0.66300 29.28000
H  31.66800 0.46400 27.69300
H  31.86000 -0.95000 28.79400
H  29.85900 1.32200 33.77000
H  28.80900 -2.09600 36.22100
H  28.63300 -0.54700 36.94700
H  30.17100 -1.33600 37.18000
Mg 17.01000 51.72800 25.63200
C  18.74500 50.57800 28.51800
C  14.44800 52.63600 27.71800
C  15.43600 52.77000 22.95600
C  19.44300 50.18800 23.61600
N  16.70000 51.67300 27.91800
C  17.56600 51.23500 28.90500
C  16.99400 51.52100 30.31600
C  15.46500 51.86500 29.97300
C  15.53200 52.03300 28.41300
C  14.41200 50.79200 30.35400
C  17.81200 52.62000 31.01500
C  18.00200 52.38300 32.50100
H  16.86000 52.93000 33.34600
N  15.21300 52.74500 25.38500
C  14.30200 53.00600 26.34400
C  13.21000 53.76300 25.72200
C  13.39400 53.74600 24.29600
C  14.71100 53.09200 24.12800
C  12.12000 54.34600 26.61600
C  12.49000 54.26000 23.16900
O  12.96900 54.37700 22.05000
C  11.03900 54.64000 23.37500
N  17.32200 51.38600 23.52400
C  16.60500 52.03600 22.64300
C  17.11600 51.87200 21.20800
C  18.59800 51.37900 21.49300
C  18.40400 50.87600 22.93900
C  16.26100 50.93300 20.35700
C  19.75000 52.46000 21.40700
C  20.91400 52.06700 20.47700
N  18.62600 50.52700 25.92100
C  19.52600 49.95800 25.01100
C  20.66200 49.35100 25.69900
C  20.40400 49.55200 27.07700
C  19.17400 50.36200 27.17000
C  21.76500 48.64300 24.92500
C  20.94200 49.35200 28.38600
O  21.90700 48.73300 28.72500
C  19.76500 49.93700 29.38600
C  19.28800 48.79000 30.21600
O  18.81600 47.70300 29.78200
O  19.36300 49.13800 31.58200
C  18.93600 48.14400 32.59800
H  13.52500 52.90200 28.23800
H  14.98200 53.20800 22.06500
H  20.30800 49.96000 22.99000
H  17.12800 50.59600 30.87700
H  15.24000 52.88700 30.27800
H  14.68400 50.44500 31.35100
H  14.35500 49.93400 29.68400
H  13.48500 51.36600 30.37200
H  17.46500 53.65000 30.92700
H  18.83600 52.55800 30.64600
H  19.01900 52.56500 32.84800
H  17.95500 51.29800 32.59400
H  11.20400 53.79200 26.41000
H  12.03800 55.36600 26.24100
H  12.22500 54.24200 27.69600
H  10.63000 53.82900 23.97700
H  10.48100 54.94300 22.48800
H  10.89800 55.53600 23.98000
H  17.23700 52.82200 20.68800
H  18.90900 50.66500 20.73000
H  15.68000 51.53900 19.66100
H  15.66000 50.29300 21.00300
H  16.94600 50.36000 19.73100
H  20.13700 52.72800 22.39000
H  19.40800 53.37700 20.92700
H  20.81200 51.02200 20.18700
H  21.79900 52.17700 21.10300
H  20.96400 52.68100 19.57800
H  22.29600 47.98800 25.61500
H  22.43900 49.34400 24.43300
H  21.33100 47.92300 24.23100
H  20.17200 50.71900 30.02600
H  17.86300 48.33800 32.60600
H  19.39100 48.44100 33.54300
H  19.15000 47.13900 32.23500

