158

Mg 46.77200 25.66700 28.07100
C  47.90000 27.58900 30.66500
C  46.33400 23.01200 30.30600
C  46.36100 23.63600 25.36700
C  48.03900 28.06400 25.82000
N  47.09800 25.26700 30.25600
C  47.39600 26.29400 31.10000
C  47.15000 25.95800 32.58500
C  46.87800 24.44200 32.46200
C  46.76600 24.23200 30.92900
C  47.99300 23.53600 33.10200
C  45.97800 26.68700 33.31200
C  46.38700 27.58900 34.56300
H  45.39300 27.58100 35.70900
N  46.27300 23.65600 27.87400
C  46.24100 22.69100 28.91700
C  45.80500 21.45400 28.36100
C  45.81200 21.62300 26.90400
C  46.20100 23.03200 26.62300
C  45.52000 20.18000 29.16000
C  45.48000 20.62900 25.77800
O  45.73700 20.83400 24.59400
C  44.96700 19.25500 26.07500
N  47.13400 25.74900 25.89300
C  46.80800 24.86200 24.97200
C  46.92700 25.31300 23.56600
C  47.36800 26.82200 23.73600
C  47.55600 26.90200 25.28800
C  47.82100 24.36800 22.65500
C  46.45900 27.92000 23.11900
C  47.27000 29.06800 22.30600
N  47.85900 27.38700 28.12200
C  48.27900 28.28900 27.16400
C  48.99900 29.40900 27.80100
C  48.81900 29.20800 29.16800
C  48.10800 27.97400 29.30100
C  49.65200 30.56400 27.03100
C  48.98500 29.86200 30.41900
O  49.44600 30.94200 30.67800
C  48.33700 28.82700 31.49200
C  49.38800 28.53600 32.45700
O  50.45300 28.03700 32.21100
O  49.07900 29.12500 33.63800
C  50.02900 29.06000 34.68100
H  46.21900 22.19900 31.02600
H  46.06400 23.03000 24.50800
H  48.39200 28.80500 25.09900
H  48.10700 26.10900 33.08500
H  45.90300 24.19300 32.88100
H  47.55100 22.84900 33.82300
H  48.71600 24.12500 33.66500
H  48.44400 22.94900 32.30200
H  45.23500 25.96600 33.65100
H  45.55300 27.31400 32.52800
H  46.56700 28.63300 34.30500
H  47.36500 27.16300 34.78800
H  45.70800 20.21800 30.23300
H  46.07100 19.36500 28.69100
H  44.46300 19.97400 28.98900
H  45.81700 18.80000 26.58300
H  44.61000 18.73100 25.18800
H  44.07600 19.28000 26.70300
H  45.90500 25.36900 23.19100
H  48.40700 26.84900 23.40600
H  48.80700 24.36100 23.11800
H  47.97800 24.85900 21.69500
H  47.51200 23.33000 22.53000
H  45.99100 28.38000 23.98900
H  45.66700 27.57700 22.45400
H  46.80700 29.39000 21.37300
H  48.32400 28.80100 22.22800
H  47.13700 29.88200 23.01800
H  49.01500 31.40400 26.75600
H  50.34100 30.17100 26.28300
H  50.34900 30.87000 27.81100
H  47.51400 29.39300 31.92900
H  49.62400 28.33200 35.38500
H  50.12200 30.03800 35.15300
H  51.03300 28.67800 34.49500
Mg 6.57200 54.24300 41.36800
C  5.89000 50.89100 40.60200
C  9.58100 53.89800 39.79500
C  6.68700 57.65500 41.33900
C  3.24100 54.50200 42.67600
N  7.59200 52.59600 40.29300
C  7.10400 51.35800 40.04200
C  8.19900 50.61300 39.25200
C  9.50500 51.37000 39.48500
C  8.87600 52.72300 39.93000
C  10.40400 50.86300 40.68500
C  7.79900 50.59900 37.73700
C  8.09300 49.25700 37.02700
H  7.36400 49.20100 35.68900
N  8.02400 55.61100 40.83600
C  9.20600 55.22200 40.18600
C  9.95600 56.47400 40.09900
C  9.04500 57.56200 40.36200
C  7.87100 56.95400 40.87000
C  11.40600 56.49000 39.55700
C  9.40700 59.03800 40.11700
O  10.54600 59.37200 39.78900
C  8.41000 60.10900 40.17200
N  5.12000 55.85400 42.12100
C  5.46900 57.12400 41.89400
C  4.34600 58.05500 42.26400
C  3.28400 57.10500 42.81200
C  3.84700 55.73100 42.46700
C  4.83600 59.13400 43.26900
C  1.87800 57.31900 42.27300
C  0.73700 56.97600 43.18300
N  4.93500 53.01300 41.57100
C  3.69700 53.23100 42.20200
C  3.02500 51.97500 42.43200
C  3.85900 51.02800 41.74800
C  4.97100 51.65800 41.27900
C  1.84900 51.72800 43.25600
C  4.05600 49.60100 41.47200
O  3.30700 48.68100 41.78400
C  5.37800 49.43300 40.52900
C  4.90900 48.93400 39.13600
O  4.25700 49.65100 38.36800
O  5.20800 47.58800 39.03800
C  4.55600 46.98500 37.86700
H  10.60900 53.84300 39.43000
H  6.53900 58.72600 41.18700
H  2.25500 54.49700 43.14600
H  8.34000 49.57200 39.54000
H  10.10400 51.38100 38.57500
H  10.12500 49.86800 41.03200
H  10.37000 51.40300 41.63100
H  11.42700 50.89200 40.31100
H  8.42400 51.31700 37.20700
H  6.76700 50.92000 37.60000
H  7.71500 48.57000 37.78400
H  9.14000 49.07400 36.78500
H  12.05500 57.14700 40.13700
H  11.58900 56.99800 38.61000
H  11.81500 55.48000 39.56900
H  8.88000 61.05500 39.90300
H  7.98800 60.23500 41.16900
H  7.53400 59.99300 39.53400
H  3.98100 58.60800 41.39800
H  3.33200 57.22100 43.89500
H  4.25800 59.21900 44.18900
H  4.70200 60.12100 42.82700
H  5.88600 59.14000 43.55900
H  1.60600 56.72800 41.39800
H  1.81900 58.36600 41.97400
H  1.05700 56.58700 44.15000
H  0.18600 56.16900 42.70000
H  0.00500 57.77200 43.04500
H  0.95500 52.20700 42.85700
H  2.01200 52.04000 44.28800
H  1.50600 50.69500 43.31500
H  6.10600 48.71100 40.89700
H  3.60800 47.44900 37.59400
H  4.49100 45.90600 38.01200
H  5.26900 47.19300 37.06900

