158

Mg -1.80000 17.40600 26.20800
C  -2.29900 15.16000 28.93600
C  -2.30800 19.99600 28.37800
C  -1.68500 19.49000 23.59400
C  -1.86200 14.51300 24.02900
N  -2.33100 17.54400 28.35000
C  -2.39200 16.54500 29.26000
C  -2.85300 17.03200 30.65300
C  -2.99800 18.56000 30.40100
C  -2.54100 18.75100 28.90800
C  -4.39500 19.07000 30.88600
C  -1.82700 16.79700 31.78900
C  -2.41200 16.30800 33.12600
H  -1.48200 15.72200 34.10800
N  -1.83400 19.53400 26.01300
C  -2.02600 20.36800 27.07700
C  -2.11300 21.72500 26.54800
C  -1.97100 21.65100 25.15500
C  -1.84700 20.20700 24.84800
C  -2.45100 22.95100 27.39100
C  -1.96300 22.84800 24.04200
O  -1.86200 22.62000 22.83300
C  -2.11100 24.25800 24.44700
N  -1.83900 16.99700 24.09900
C  -1.76300 18.06500 23.27400
C  -1.88100 17.64400 21.82300
C  -1.69200 16.07600 21.95500
C  -1.78600 15.81100 23.44700
C  -3.23700 18.11400 21.30700
C  -0.49200 15.56900 21.15100
C  0.78800 15.25000 21.95800
N  -2.06700 15.26700 26.37000
C  -1.98600 14.24300 25.42400
C  -2.07200 12.96800 26.08300
C  -2.07800 13.28800 27.47800
C  -2.08100 14.68400 27.57600
C  -2.02500 11.67300 25.40500
C  -2.18000 12.72400 28.78900
O  -2.16500 11.50600 29.10200
C  -2.43900 13.90700 29.75000
C  -1.62100 13.60600 30.88100
O  -0.40300 13.79100 30.95200
O  -2.39700 12.98800 31.84200
C  -1.55700 12.41500 32.90500
H  -2.51200 20.69100 29.19500
H  -1.62300 20.08400 22.67900
H  -1.84800 13.65700 23.35000
H  -3.76900 16.46300 30.80900
H  -2.26500 19.21800 30.86600
H  -4.26400 20.08400 31.26400
H  -4.67200 18.36200 31.66700
H  -5.00100 19.03400 29.98100
H  -1.32900 17.72000 32.08300
H  -0.99700 16.18300 31.43900
H  -3.18100 15.58100 32.86500
H  -2.93600 17.17800 33.52000
H  -1.67200 23.71300 27.44200
H  -2.84200 22.63400 28.35700
H  -3.35400 23.37100 26.94700
H  -2.12600 25.04400 23.69300
H  -1.26200 24.48100 25.09400
H  -2.97200 24.32700 25.11300
H  -1.09000 18.07600 21.21000
H  -2.55100 15.52400 21.57300
H  -3.04700 18.79500 20.47700
H  -3.84300 18.69700 22.00100
H  -3.79100 17.24700 20.94900
H  -0.21600 16.29900 20.39000
H  -0.63800 14.57000 20.74000
H  1.59500 15.75200 21.42600
H  0.99200 14.18200 22.02700
H  0.66200 15.56500 22.99400
H  -3.06800 11.38200 25.27700
H  -1.60100 10.91000 26.05700
H  -1.51800 11.71400 24.44100
H  -3.51500 13.91600 29.92100
H  -1.51300 13.08700 33.76200
H  -0.56600 12.16600 32.52400
H  -1.96000 11.46200 33.24600
Mg 46.72000 25.06300 28.27600
C  47.42100 27.26400 30.83400
C  45.77900 22.68000 30.73500
C  46.14000 22.87100 25.87600
C  48.30400 27.23000 26.00200
N  46.81800 24.89000 30.49800
C  46.98000 26.06500 31.32800
C  46.63000 25.71000 32.78300
C  46.35500 24.14100 32.77200
C  46.31900 23.85000 31.21500
C  47.37000 23.20200 33.48400
C  45.59800 26.64500 33.35700
C  45.96300 27.40100 34.61200
H  46.62300 26.61300 35.76500
N  46.03700 22.97200 28.27900
C  45.72400 22.21100 29.36900
C  45.37900 20.90000 28.92400
C  45.34300 20.93000 27.48900
C  45.78900 22.28200 27.10700
C  44.97500 19.83800 29.86300
C  44.96200 19.95600 26.49900
O  44.92300 20.19000 25.29100
C  44.57300 18.59600 27.00400
N  47.12300 25.02100 26.20300
C  46.71500 24.03400 25.43200
C  47.22100 24.16700 23.99300
C  47.76400 25.60300 23.95400
C  47.83300 25.96800 25.49800
C  48.25300 23.08100 23.52800
C  46.86700 26.68900 23.26500
C  47.47400 27.93900 22.59900
N  47.65600 26.87200 28.30100
C  48.23600 27.66600 27.31700
C  48.62700 28.96100 27.86700
C  48.27500 28.85900 29.25200
C  47.69900 27.56200 29.47200
C  49.30100 30.07300 27.10500
C  48.31200 29.62000 30.48100
O  48.84500 30.65700 30.83200
C  47.88000 28.57700 31.54300
C  48.95800 28.31400 32.52800
O  49.90800 27.56600 32.28500
O  48.79800 29.15500 33.58400
C  49.85000 28.97400 34.57700
H  45.54700 22.01300 31.56800
H  46.09600 22.15800 25.05000
H  48.89300 27.86400 25.33600
H  47.54700 25.88400 33.34600
H  45.38300 24.06100 33.25900
H  46.74400 22.55100 34.09600
H  48.00300 23.77600 34.16000
H  47.91500 22.54000 32.81100
H  44.65800 26.13800 33.57400
H  45.35700 27.44600 32.65900
H  44.95800 27.61000 34.97900
H  46.49700 28.33800 34.45500
H  45.02500 19.91400 30.94900
H  45.55500 18.93100 29.69300
H  43.92800 19.68300 29.59900
H  43.57600 18.48200 27.43000
H  45.35900 18.28700 27.69300
H  44.60400 17.91700 26.15200
H  46.37200 24.05500 23.31800
H  48.73400 25.69300 23.46400
H  48.52300 22.46700 24.38700
H  49.20100 23.44800 23.13400
H  47.75900 22.52200 22.73300
H  46.10800 26.92800 24.01000
H  46.27600 26.21400 22.48300
H  47.10500 27.84300 21.57800
H  48.56100 27.87100 22.65900
H  47.15600 28.82900 23.14200
H  50.34600 29.98900 27.40100
H  48.91900 31.07800 27.28800
H  49.23100 29.89700 26.03200
H  47.00800 29.04900 31.99600
H  50.83800 28.77000 34.16400
H  49.55400 28.08500 35.13400
H  49.78700 29.68600 35.40000

