158

Mg 24.91500 -4.88600 45.11700
C  26.96200 -2.36500 43.85600
C  22.30800 -3.63300 43.13200
C  23.21100 -7.65900 45.63400
C  27.64000 -6.15700 46.96400
N  24.69500 -3.30300 43.62000
C  25.71300 -2.38000 43.31100
C  25.20200 -1.40600 42.21300
C  23.68300 -1.62200 42.28700
C  23.51800 -2.91900 43.04500
C  22.91900 -0.30900 42.76800
C  25.60700 -1.83800 40.72300
C  25.78000 -0.71100 39.77500
H  25.18900 -0.81000 38.34800
N  22.99000 -5.50200 44.55900
C  22.11000 -4.85600 43.79400
C  20.93200 -5.65600 43.59500
C  21.06900 -6.80700 44.35000
C  22.46100 -6.69700 44.90500
C  19.75400 -5.11100 42.87900
C  19.94800 -7.78300 44.65100
O  18.84000 -7.71100 44.16400
C  20.20700 -8.83500 45.60200
N  25.43100 -6.69700 46.11500
C  24.47100 -7.71400 46.26000
C  24.95100 -8.82600 47.25100
C  26.42100 -8.29600 47.65500
C  26.53900 -7.01300 46.85500
C  24.12500 -9.15800 48.50400
C  27.51700 -9.23900 47.06100
C  28.22300 -10.26200 47.97400
N  26.88000 -4.37200 45.46400
C  27.88600 -4.97400 46.23900
C  29.08400 -4.12300 46.15300
C  28.74500 -3.13500 45.24000
C  27.41900 -3.34200 44.83700
C  30.40300 -4.27600 46.84200
C  29.24100 -1.95300 44.64600
O  30.34800 -1.43100 44.80500
C  28.15900 -1.49100 43.61900
C  27.96200 -0.05200 43.65500
O  27.18100 0.58300 44.34900
O  28.78300 0.53400 42.75000
C  29.03700 1.88400 42.93000
H  21.43300 -3.16600 42.67500
H  22.70700 -8.61900 45.76900
H  28.53800 -6.50700 47.47600
H  25.44800 -0.36500 42.42100
H  23.21000 -1.74300 41.31300
H  22.42300 0.23800 41.96600
H  23.61400 0.43400 43.15900
H  22.24000 -0.50800 43.59600
H  24.91100 -2.56600 40.30600
H  26.50100 -2.45200 40.83900
H  26.80800 -0.35000 39.74100
H  25.25700 0.09300 40.29300
H  20.13600 -4.97300 41.86700
H  19.44000 -4.13600 43.25000
H  18.98600 -5.88100 42.81400
H  20.47600 -8.36600 46.54900
H  20.93500 -9.48200 45.11400
H  19.28500 -9.39400 45.75900
H  24.98600 -9.70200 46.60300
H  26.58300 -8.05200 48.70500
H  23.70500 -10.15800 48.60500
H  23.29900 -8.47700 48.29900
H  24.51800 -8.79700 49.45500
H  28.33900 -8.68900 46.60300
H  27.12200 -9.80000 46.21500
H  27.87400 -10.20700 49.00500
H  29.28000 -10.00300 47.91900
H  27.99100 -11.29200 47.69900
H  30.73000 -5.27200 46.54300
H  30.29200 -4.24500 47.92600
H  31.11000 -3.56900 46.40900
H  28.48800 -1.81600 42.63200
H  30.08700 2.02300 43.18600
H  28.40500 2.43100 43.63000
H  28.90100 2.25100 41.91300
Mg 16.33400 52.32000 26.49500
C  17.99300 50.96000 29.17400
C  13.71400 53.20800 28.51000
C  14.76500 53.52100 23.77500
C  18.69200 50.83100 24.34200
N  15.86600 51.95600 28.61000
C  16.83900 51.62000 29.53300
C  16.37800 51.99400 30.96400
C  14.90300 52.52000 30.75800
C  14.77900 52.54900 29.22900
C  13.71200 51.59100 31.26800
C  17.31900 53.05800 31.62000
C  17.33900 53.18200 33.20400
H  16.43000 52.31000 34.03500
N  14.51500 53.28100 26.23800
C  13.55700 53.50700 27.13800
C  12.39500 54.17100 26.49300
C  12.77000 54.37200 25.10500
C  14.04000 53.74100 24.97700
C  11.22600 54.56200 27.31300
C  12.03800 55.03900 24.02200
O  12.46800 55.20400 22.86600
C  10.82800 55.67000 24.33300
N  16.64100 52.15400 24.42000
C  15.82000 52.80000 23.48700
C  16.33700 52.60200 22.04300
C  17.66200 51.76400 22.27400
C  17.65600 51.55700 23.77000
C  15.34900 52.02500 20.94100
C  18.93400 52.61700 21.84500
C  20.05400 51.87100 21.20000
N  18.03800 51.12400 26.65900
C  18.93400 50.64900 25.73300
C  20.06100 49.98900 26.33100
C  19.72900 50.14000 27.69200
C  18.46900 50.77900 27.85800
C  21.17700 49.19900 25.70100
C  20.12000 49.80200 29.08500
O  21.12900 49.27400 29.52600
C  19.04700 50.33900 30.01700
C  18.46200 49.39000 31.04500
O  17.64800 48.50200 30.88000
O  18.95200 49.65700 32.31500
C  18.50200 48.71900 33.35700
H  13.04500 53.63400 29.26000
H  14.31200 53.80500 22.82300
H  19.39200 50.35600 23.65300
H  16.37900 51.12400 31.62000
H  14.77600 53.47400 31.27000
H  14.13800 50.69000 31.70900
H  13.06200 51.32100 30.43600
H  13.12600 52.08700 32.04200
H  17.05800 54.00000 31.13900
H  18.32700 52.77600 31.31600
H  17.17800 54.24500 33.37900
H  18.35800 52.87700 33.44400
H  11.09700 55.63400 27.16300
H  11.31200 54.39400 28.38700
H  10.29300 54.08600 27.01200
H  10.25700 54.91300 24.87000
H  10.34700 55.96400 23.40000
H  11.07200 56.58400 24.87400
H  16.54000 53.60800 21.67400
H  17.66300 50.80600 21.75500
H  14.54500 51.48900 21.44400
H  15.96500 51.52500 20.19300
H  14.92600 52.86500 20.38900
H  19.32000 53.14700 22.71600
H  18.62200 53.41200 21.16900
H  20.12900 52.11500 20.14000
H  19.89000 50.79700 21.29700
H  20.94500 52.23500 21.71100
H  21.15100 49.31500 24.61800
H  21.04200 48.15900 25.99800
H  22.16000 49.56100 26.00300
H  19.53600 51.16000 30.54300
H  19.25800 48.77300 34.14100
H  18.60100 47.69300 33.00300
H  17.48200 48.84700 33.72000

