158

Mg 24.66200 -6.79400 46.93000
C  27.05200 -4.60400 45.78000
C  22.38800 -5.27600 44.81000
C  22.53200 -9.39100 47.31100
C  27.22000 -8.70800 48.41200
N  24.79900 -5.20900 45.31700
C  25.83500 -4.40300 45.19000
C  25.55100 -3.29600 44.27200
C  24.03500 -3.29000 44.17000
C  23.70200 -4.67500 44.80900
C  23.23200 -2.19700 44.87900
C  26.27700 -3.24800 42.88200
C  26.55000 -1.79100 42.24200
H  26.00000 -1.57600 40.82300
N  22.60300 -7.15000 46.33100
C  21.86800 -6.35000 45.51600
C  20.52600 -6.83000 45.55900
C  20.49900 -8.06100 46.29100
C  21.89700 -8.24200 46.71500
C  19.46400 -6.03900 44.82700
C  19.30200 -8.83200 46.63400
O  18.20000 -8.42200 46.21100
C  19.41800 -10.09000 47.50900
N  24.89300 -8.75700 47.73900
C  23.86000 -9.63800 47.72900
C  24.25000 -10.91400 48.44400
C  25.69200 -10.73900 48.97500
C  25.98400 -9.30000 48.34900
C  23.21200 -11.39400 49.54200
C  26.73700 -11.80400 48.53000
C  27.77900 -12.19300 49.63800
N  26.69800 -6.69200 47.22300
C  27.60400 -7.45500 47.95800
C  28.87200 -6.73900 48.07300
C  28.73500 -5.66500 47.17300
C  27.40200 -5.64900 46.68700
C  30.00600 -7.12100 48.90000
C  29.46900 -4.49200 46.69400
O  30.58100 -4.07300 47.01200
C  28.38200 -3.77700 45.66100
C  28.44900 -2.27200 45.75000
O  28.76400 -1.49500 44.83400
O  28.03800 -1.78000 46.98400
C  28.16400 -0.33100 47.23900
H  21.62100 -4.70500 44.28400
H  21.91200 -10.27800 47.45700
H  28.05300 -9.17900 48.93800
H  25.79400 -2.33700 44.73000
H  23.68600 -3.29600 43.13800
H  23.39500 -1.18100 44.52000
H  23.26000 -2.20200 45.96800
H  22.20000 -2.45900 44.64800
H  25.75000 -3.79800 42.10300
H  27.25100 -3.73200 42.82200
H  27.63000 -1.66900 42.31800
H  26.16800 -0.99300 42.87800
H  19.60200 -6.22100 43.76100
H  19.63500 -4.99500 45.09100
H  18.40800 -6.24000 45.00700
H  20.07100 -10.73100 46.91600
H  18.36600 -10.37200 47.53000
H  19.92400 -9.83200 48.43900
H  24.28100 -11.70600 47.69500
H  25.65400 -10.70100 50.06300
H  22.68500 -12.27200 49.16900
H  22.48000 -10.61600 49.76100
H  23.73800 -11.72900 50.43600
H  27.35100 -11.29200 47.79000
H  26.39700 -12.75700 48.12600
H  28.77600 -11.98300 49.24900
H  27.69400 -13.24200 49.92000
H  27.61100 -11.58000 50.52300
H  30.43100 -6.23600 49.37200
H  30.78200 -7.71200 48.41300
H  29.67100 -7.84700 49.64100
H  28.71800 -4.07400 44.66800
H  28.43800 0.26300 46.36700
H  28.90800 -0.03200 47.97700
H  27.23700 0.00100 47.70700
Mg 45.01800 4.10900 48.59500
C  43.11900 6.89100 48.01300
C  42.25700 2.11800 47.96500
C  47.06700 1.43000 48.09000
C  47.89000 6.16000 48.37300
N  42.99300 4.51900 47.91200
C  42.36200 5.71700 47.74300
C  40.92800 5.56900 47.29400
C  40.62300 4.04600 47.66800
C  42.07600 3.50900 47.90400
C  39.56400 3.85900 48.88600
C  40.72900 5.95100 45.76300
C  39.53000 6.94700 45.43000
H  38.85800 6.71700 44.23700
N  44.68700 2.04800 48.37300
C  43.44600 1.44000 48.11800
C  43.68500 0.03200 47.95900
C  45.12600 -0.24600 47.99600
C  45.65900 1.12600 48.04100
C  42.58500 -0.91600 47.61800
C  45.80900 -1.58400 47.75800
O  45.05300 -2.55600 47.62000
C  47.33500 -1.81000 47.85100
N  47.19200 3.85900 48.44000
C  47.75500 2.60800 48.28600
C  49.27900 2.68100 48.13500
C  49.58200 4.20600 48.18400
C  48.14400 4.82100 48.33000
C  50.11100 1.98300 49.22500
C  50.32800 4.79300 46.99600
C  51.45000 4.03100 46.22400
N  45.43500 6.10400 48.40000
C  46.64200 6.78400 48.40100
C  46.36200 8.21700 48.35000
C  44.95000 8.27000 48.33900
C  44.50100 6.99200 48.31500
C  47.27700 9.42900 48.34100
C  43.81300 9.23000 48.22800
O  43.84700 10.46900 48.12400
C  42.54700 8.35800 47.94700
C  41.53700 8.63900 49.06700
O  41.32400 7.98200 50.09200
O  40.78600 9.71300 48.62500
C  39.45100 9.88400 49.23500
H  41.34700 1.51600 47.91400
H  47.77900 0.69300 47.71100
H  48.75600 6.81300 48.49900
H  40.39700 6.25100 47.95900
H  40.28300 3.45300 46.81900
H  39.19700 4.80100 49.29400
H  40.15900 3.28400 49.59500
H  38.72100 3.20800 48.65600
H  40.66500 5.12200 45.05900
H  41.53300 6.63400 45.48800
H  39.92200 7.95900 45.53200
H  38.75300 6.77500 46.17500
H  42.74000 -1.14800 46.56400
H  41.55100 -0.60700 47.76700
H  42.61900 -1.77400 48.28900
H  47.68400 -1.67000 46.82800
H  47.56100 -2.85900 48.04400
H  47.79100 -1.12700 48.56800
H  49.49800 2.15000 47.20900
H  50.06500 4.54800 49.09900
H  50.59400 1.06400 48.89200
H  49.43300 1.60900 49.99300
H  50.90200 2.59900 49.65300
H  50.65000 5.77800 47.33500
H  49.55900 4.97300 46.24400
H  51.69300 3.07800 46.69300
H  52.33800 4.66300 46.26600
H  51.11500 3.93200 45.19200
H  46.70200 10.19900 48.85600
H  47.39100 9.54700 47.26300
H  48.25200 9.36900 48.82300
H  42.14700 8.72500 47.00100
H  38.68000 9.58100 48.52600
H  39.14800 10.90100 49.48200
H  39.36400 9.37600 50.19500

