158

Mg 1.72600 8.86900 26.51400
C  2.43100 10.59100 29.53500
C  1.90500 5.90400 28.45300
C  1.41800 7.06700 23.69600
C  2.11900 11.78800 24.74400
N  2.24600 8.34500 28.68900
C  2.28800 9.26000 29.73100
C  2.18600 8.50700 31.12000
C  2.25800 7.01300 30.73200
C  2.14100 7.04900 29.17800
C  3.56800 6.18500 31.11200
C  0.90600 8.95100 31.94800
C  1.28400 8.96600 33.40600
H  2.42500 8.13600 33.93200
N  1.64000 6.76100 26.15300
C  1.57000 5.70600 27.04900
C  1.50500 4.45800 26.34300
C  1.25200 4.77000 24.98100
C  1.42600 6.25600 24.85100
C  1.65700 3.07500 27.14000
C  1.04100 3.87800 23.79400
O  0.85400 4.27200 22.63100
C  1.01600 2.41300 23.95800
N  1.84700 9.33400 24.54000
C  1.65800 8.44000 23.53600
C  1.77800 9.19600 22.08800
C  1.61200 10.72400 22.47400
C  1.81500 10.63000 24.01100
C  3.06600 8.93800 21.22100
C  0.22500 11.41100 22.25100
C  0.02900 12.31300 21.00800
N  2.13500 10.78400 26.96300
C  2.32500 11.88000 26.10100
C  2.82600 12.99300 26.87000
C  2.75300 12.55900 28.23500
C  2.46400 11.18400 28.23100
C  2.88600 14.38100 26.26900
C  2.82300 12.98800 29.55200
O  3.12900 14.07200 30.00800
C  2.60400 11.72700 30.40500
C  3.67200 11.57900 31.36300
O  4.80100 11.13200 31.16400
O  3.28800 12.01000 32.60900
C  4.25700 11.92200 33.72000
H  1.87700 4.98900 29.04800
H  1.17100 6.58700 22.74700
H  2.21700 12.65800 24.09000
H  3.20000 8.76000 31.42800
H  1.39700 6.51200 31.17400
H  4.09300 5.86200 30.21300
H  3.24700 5.31800 31.68800
H  4.22400 6.80600 31.72200
H  0.05100 8.28600 31.83100
H  0.55100 9.90700 31.56500
H  0.50200 8.80100 34.14700
H  1.65400 9.98000 33.55900
H  0.97800 3.05400 27.99200
H  2.64100 3.15900 27.60000
H  1.64400 2.17200 26.52900
H  0.25200 2.09200 24.66600
H  1.96000 2.11100 24.41200
H  0.90400 1.89200 23.00800
H  0.86100 8.89500 21.58300
H  2.39200 11.37900 22.08500
H  3.40800 7.91900 21.40200
H  3.87900 9.54800 21.61400
H  2.92100 8.98200 20.14100
H  -0.02500 11.75100 23.25600
H  -0.43600 10.57400 22.03100
H  -0.88900 12.00800 20.50400
H  0.86200 12.22500 20.31200
H  -0.01300 13.37600 21.24300
H  3.29200 14.20700 25.27300
H  3.57600 14.90400 26.93200
H  1.96400 14.96000 26.32300
H  1.68600 11.91200 30.96200
H  4.45500 12.83500 34.28100
H  5.22200 11.55300 33.37100
H  3.89000 11.10900 34.34700
Mg 41.22600 40.92400 26.39600
C  40.78300 43.42800 28.85100
C  42.26400 38.74900 28.86500
C  41.69200 38.73900 24.11600
C  40.44300 43.32000 23.98400
N  41.41500 41.07700 28.63000
C  41.26700 42.20600 29.38200
C  41.33500 41.79800 30.83100
C  42.18900 40.50100 30.82300
C  42.01000 40.02300 29.36300
C  43.77700 40.67100 31.06600
C  39.94000 41.63500 31.61600
C  39.56300 42.70400 32.69800
H  39.05000 42.25400 34.05900
N  41.80300 39.00900 26.50700
C  42.18500 38.26300 27.52900
C  42.52000 36.91300 27.12600
C  42.34200 36.85000 25.71400
C  41.98100 38.19200 25.35400
C  42.99000 35.77300 28.05800
C  42.56500 35.67700 24.73100
O  42.48900 35.82900 23.48200
C  42.92900 34.35300 25.23900
N  41.19000 41.05800 24.34900
C  41.37100 39.95100 23.61900
C  41.34400 40.21400 22.14800
C  40.79600 41.67600 22.06600
C  40.81200 42.08900 23.57100
C  42.68800 40.02600 21.42700
C  39.32800 41.74300 21.53700
C  38.33700 40.84900 22.33000
N  40.63800 42.96500 26.34100
C  40.32300 43.84800 25.28300
C  39.83400 45.06300 25.80200
C  39.93700 44.94900 27.19300
C  40.53800 43.72800 27.48400
C  39.24300 46.17400 24.97300
C  39.71900 45.60700 28.44700
O  39.27600 46.70300 28.66800
C  40.31800 44.66800 29.58500
C  41.38800 45.43900 30.31300
O  42.60500 45.29200 30.10500
O  40.85800 46.25900 31.28000
C  41.72000 46.79400 32.33000
H  42.52200 38.06300 29.67500
H  41.75000 38.02500 23.29200
H  40.12600 43.95800 23.15700
H  41.82300 42.55600 31.44200
H  41.82700 39.77500 31.55100
H  44.02800 41.72900 31.13800
H  44.35600 40.39600 30.18500
H  43.91800 40.12300 31.99800
H  39.95300 40.73200 32.22600
H  39.11800 41.58600 30.90200
H  38.68000 43.22100 32.32300
H  40.40200 43.37700 32.87100
H  42.33600 34.90700 27.95800
H  43.17100 36.05100 29.09600
H  43.95200 35.47700 27.63900
H  43.94700 34.50600 25.59800
H  42.89400 33.52100 24.53600
H  42.21500 34.06100 26.00900
H  40.61100 39.44400 21.91000
H  41.44000 42.30600 21.45200
H  43.44000 40.26100 22.18000
H  42.82700 40.75200 20.62700
H  42.77700 39.05300 20.94300
H  39.00700 41.54000 20.51600
H  39.15800 42.81700 21.61300
H  38.92900 40.21500 22.99100
H  37.87600 40.10000 21.68500
H  37.57500 41.44200 22.83600
H  38.71200 45.77400 24.11000
H  40.07300 46.86500 24.82900
H  38.46800 46.62800 25.59200
H  39.53200 44.39600 30.28900
H  42.08100 45.91400 32.86300
H  41.11200 47.52200 32.86700
H  42.53500 47.31200 31.82300

