158

Mg 47.64000 26.43800 28.15800
C  48.87700 28.50700 30.82100
C  46.42000 24.27300 30.52300
C  47.08900 24.21100 25.74000
C  49.41700 28.52100 25.93600
N  47.72300 26.41600 30.46000
C  48.15700 27.36500 31.35200
C  47.70600 27.08500 32.80700
C  47.08400 25.65600 32.64400
C  47.02900 25.42400 31.10100
C  47.84600 24.54500 33.52500
C  46.64400 28.11700 33.25500
C  45.68200 27.64400 34.44300
H  45.50700 28.52100 35.64200
N  46.89000 24.46000 28.11900
C  46.45900 23.77700 29.23500
C  46.09800 22.44600 28.82200
C  46.30500 22.36200 27.39100
C  46.78200 23.68800 27.00500
C  45.61800 21.41100 29.84000
C  46.22300 21.13700 26.44400
O  46.55400 21.26400 25.26500
C  45.78700 19.79900 26.91800
N  48.07400 26.44300 26.11800
C  47.58600 25.46500 25.34500
C  47.83700 25.88400 23.83800
C  48.65700 27.24300 23.90500
C  48.71200 27.48000 25.37800
C  48.56300 24.91800 22.82500
C  47.99000 28.36500 23.14900
C  48.91600 29.44500 22.54800
N  48.85100 28.21200 28.30300
C  49.51500 28.87400 27.29300
C  50.30600 29.90500 27.84000
C  50.02400 29.89200 29.23000
C  49.16700 28.76200 29.48300
C  51.26500 30.81300 27.08900
C  50.29400 30.55900 30.42000
O  51.06900 31.50600 30.66700
C  49.40000 29.77300 31.48400
C  50.33300 29.35200 32.57900
O  51.23600 28.58500 32.42000
O  50.06500 30.06800 33.69000
C  51.13600 29.93200 34.73100
H  45.98200 23.64800 31.30500
H  46.91100 23.51500 24.91800
H  50.18900 28.95700 25.30000
H  48.61700 27.08400 33.40500
H  46.06300 25.72100 33.02100
H  48.58400 25.08600 34.11600
H  48.36500 23.82400 32.89400
H  47.12200 24.06000 34.18000
H  46.12900 28.41800 32.34300
H  47.20200 29.01700 33.51400
H  46.04000 26.72700 34.91000
H  44.65500 27.55500 34.08600
H  44.54000 21.29300 29.73700
H  45.81000 21.59600 30.89700
H  46.02500 20.42900 29.59600
H  46.60900 19.47000 27.55400
H  45.68900 19.23200 25.99200
H  44.87100 19.79400 27.50900
H  46.82000 26.16400 23.56100
H  49.68600 27.14400 23.55900
H  47.81600 24.56900 22.11200
H  48.95600 24.14300 23.48200
H  49.28500 25.44700 22.20300
H  47.36500 28.87700 23.88100
H  47.31500 27.95800 22.39600
H  48.70900 30.47400 22.84100
H  48.84800 29.38500 21.46200
H  49.96000 29.23000 22.77700
H  51.56500 31.51400 27.86900
H  50.83700 31.25000 26.18700
H  52.14400 30.21000 26.86200
H  48.61400 30.48000 31.75000
H  52.11800 29.89200 34.26000
H  51.00100 29.06800 35.38200
H  51.07500 30.75700 35.44100
Mg 1.97800 41.61800 25.18500
C  2.52500 42.15600 28.52500
C  -0.95000 40.01000 25.92700
C  1.46100 41.30000 21.88400
C  5.19600 42.73400 24.56900
N  0.75100 41.30200 27.05300
C  1.26300 41.56000 28.26200
C  0.26000 41.17400 29.32700
C  -0.74000 40.17200 28.58000
C  -0.36600 40.54000 27.11300
C  -0.72100 38.68900 28.98200
C  -0.49100 42.32400 29.97500
C  -0.32600 42.64700 31.46400
H  -0.86800 41.64500 32.47400
N  0.34700 40.84100 24.08400
C  -0.72300 40.18600 24.54400
C  -1.57200 39.79800 23.42900
C  -0.94200 40.26300 22.20000
C  0.32300 40.86600 22.65100
C  -2.95000 39.27600 23.69100
C  -1.57200 40.33500 20.83300
O  -1.01100 40.81400 19.83900
C  -2.88900 39.72500 20.62300
N  3.25100 41.72700 23.50300
C  2.72200 41.73100 22.28000
C  3.77200 42.17300 21.24300
C  4.92400 42.78300 22.09600
C  4.40800 42.44600 23.45800
C  4.14500 41.05800 20.28200
C  5.04400 44.34100 21.73000
C  3.72600 45.24900 21.89900
N  3.63300 42.19500 26.29600
C  4.85600 42.67000 25.86600
C  5.68400 43.00600 27.09100
C  4.73300 42.88100 28.10600
C  3.50700 42.47400 27.58500
C  7.10300 43.52900 27.08800
C  4.57900 43.09400 29.53200
O  5.32100 43.56500 30.38900
C  3.13100 42.56700 29.86000
C  3.34900 41.27500 30.61000
O  4.05400 40.39300 30.27400
O  2.66500 41.29900 31.82000
C  2.83500 40.13000 32.71400
H  -1.87200 39.47400 26.16100
H  1.27200 41.29800 20.80800
H  6.14200 43.21200 24.30400
H  0.76700 40.61900 30.11600
H  -1.75200 40.56900 28.66500
H  0.00900 38.52200 29.77400
H  -0.46800 38.02700 28.15400
H  -1.67700 38.27200 29.29900
H  -1.56600 42.25800 29.80700
H  -0.24400 43.18400 29.35300
H  -0.77800 43.62600 31.62700
H  0.74500 42.64100 31.66300
H  -3.68100 40.03500 23.40900
H  -3.10300 38.98300 24.72900
H  -3.09200 38.40900 23.04600
H  -3.64100 40.08500 21.32500
H  -2.70600 38.65300 20.69900
H  -3.17000 39.88000 19.58200
H  3.27500 42.96900 20.68800
H  5.87600 42.32000 21.83500
H  5.08500 41.08800 19.73100
H  3.35000 40.91300 19.55000
H  4.22900 40.12900 20.84500
H  5.57100 44.50300 20.79000
H  5.77200 44.70200 22.45600
H  3.88000 45.98200 22.69100
H  2.85800 44.60700 22.05000
H  3.58000 45.83100 20.98900
H  7.82800 42.71600 27.12800
H  7.10400 44.16800 27.97100
H  7.30300 44.13400 26.20400
H  2.68700 43.33400 30.49500
H  2.88000 39.14800 32.24200
H  1.95000 40.06000 33.34700
H  3.70400 40.24100 33.36300

