158

Mg 34.90500 47.84100 25.95800
C  35.03200 45.78700 28.83100
C  33.63700 50.28000 27.90300
C  34.22900 49.38300 23.11900
C  35.62000 44.90000 24.10400
N  34.22000 47.95800 28.16300
C  34.54400 47.07100 29.11000
C  34.53100 47.70600 30.48600
C  33.74500 49.03800 30.19000
C  33.83900 49.13000 28.63600
C  32.22300 49.00500 30.68100
C  35.90000 47.79600 31.15700
C  36.02700 47.24600 32.61500
H  36.37000 48.23600 33.68400
N  33.94000 49.65900 25.52700
C  33.60500 50.53900 26.49900
C  33.17400 51.72300 25.81400
C  33.42700 51.57900 24.39900
C  33.92000 50.20500 24.22500
C  32.66000 52.94000 26.51200
C  33.17300 52.53200 23.23700
O  33.26100 52.15600 22.09400
C  32.99000 54.09000 23.44400
N  35.05400 47.27500 23.93800
C  34.64400 48.06300 22.95200
C  34.76400 47.44500 21.60500
C  35.41700 46.06400 21.87500
C  35.33200 46.02500 23.41300
C  33.42500 47.48200 20.73100
C  36.82700 45.86400 21.22200
C  36.96100 44.82200 20.05600
N  35.36600 45.72700 26.36000
C  35.65300 44.67300 25.52300
C  36.03300 43.48800 26.24400
C  35.78000 43.91800 27.59000
C  35.29900 45.24600 27.56700
C  36.43900 42.25800 25.67700
C  35.85900 43.47800 28.97800
O  36.28900 42.48300 29.51600
C  35.46600 44.70600 29.87200
C  34.34300 44.23900 30.76700
O  33.23200 43.85100 30.44400
O  34.73500 44.37500 32.03100
C  33.68300 44.40400 32.99800
H  33.47400 51.11600 28.58700
H  33.98800 49.80600 22.14200
H  35.70700 44.00800 23.47900
H  33.92800 47.11400 31.17500
H  34.26800 49.92800 30.53900
H  31.45600 48.90000 29.91400
H  32.02800 49.93900 31.20800
H  32.06800 48.14400 31.33200
H  36.29900 48.80200 31.28600
H  36.61300 47.31000 30.49100
H  36.80200 46.48500 32.52900
H  35.08000 46.75900 32.84400
H  32.28500 53.72200 25.85100
H  33.60300 53.29800 26.92500
H  31.92700 52.71100 27.28600
H  31.92000 54.24900 23.57500
H  33.28300 54.64600 22.55300
H  33.47700 54.37100 24.37700
H  35.44800 48.07300 21.03400
H  34.76600 45.26600 21.52000
H  32.66300 48.00500 21.30800
H  33.18800 46.51500 20.28900
H  33.52400 48.23800 19.95100
H  37.57200 45.62300 21.98000
H  37.14700 46.78100 20.72800
H  35.97800 44.49500 19.71800
H  37.62800 44.02900 20.39500
H  37.43200 45.37200 19.24100
H  35.66300 41.50100 25.78200
H  37.25800 41.99400 26.34700
H  36.75400 42.31100 24.63500
H  36.31800 44.98600 30.49100
H  33.05300 45.28900 32.91900
H  34.21200 44.47900 33.94900
H  33.05300 43.51500 32.98900
Mg -5.14500 26.30600 26.37600
C  -3.54800 27.45700 29.22900
C  -6.77200 24.04000 28.38700
C  -6.28000 24.81900 23.57900
C  -3.28700 28.40400 24.51100
N  -5.13900 25.86900 28.56900
C  -4.48700 26.50800 29.52800
C  -4.98800 26.07500 30.95100
C  -5.76000 24.78700 30.62700
C  -5.92000 24.87700 29.10800
C  -4.98400 23.52100 31.08200
C  -5.92400 27.19300 31.52100
C  -5.81600 27.26700 33.08400
H  -5.33700 26.18600 34.07000
N  -6.47400 24.77200 26.05900
C  -7.07700 23.94900 27.00400
C  -7.99400 23.03700 26.31300
C  -7.75000 23.16100 24.91800
C  -6.80300 24.34100 24.79800
C  -8.95100 22.14100 27.10800
C  -8.33100 22.44000 23.68300
O  -8.13600 22.73600 22.52300
C  -9.21700 21.28100 23.85000
N  -4.92700 26.65500 24.35700
C  -5.38700 25.89700 23.37400
C  -4.82300 26.30000 21.98200
C  -4.02100 27.59800 22.27100
C  -4.09900 27.55500 23.84700
C  -4.00400 25.27300 21.22600
C  -4.72000 28.91600 21.61400
C  -4.27900 29.06900 20.11200
N  -3.76200 27.73800 26.76000
C  -3.11400 28.49800 25.87900
C  -2.17000 29.27300 26.59300
C  -2.35400 28.93700 27.91800
C  -3.27700 27.97400 27.94800
C  -1.22900 30.24400 25.97900
C  -2.00000 29.29900 29.29700
O  -1.26000 30.18400 29.67500
C  -2.71500 28.31500 30.17200
C  -1.72900 27.53900 30.89900
O  -1.48800 26.39500 30.61000
O  -1.26000 28.17700 32.03400
C  -0.57500 27.29800 33.05900
H  -7.26600 23.35800 29.08200
H  -6.60800 24.43900 22.60900
H  -2.66100 28.98600 23.83100
H  -4.10100 25.94900 31.57200
H  -6.76200 24.80400 31.05500
H  -4.16200 23.76800 31.75300
H  -4.53600 22.99900 30.23600
H  -5.63800 22.87100 31.66300
H  -6.98900 27.04900 31.33600
H  -5.60100 28.15700 31.12800
H  -6.79500 27.64200 33.38400
H  -5.15700 28.13400 33.13500
H  -9.89600 22.00300 26.58200
H  -9.09600 22.41800 28.15200
H  -8.47200 21.16300 27.15000
H  -9.40700 20.67600 22.96300
H  -10.17600 21.65300 24.21000
H  -8.84600 20.68900 24.68700
H  -5.68800 26.62300 21.40300
H  -3.03100 27.45300 21.84000
H  -4.00500 25.56000 20.17400
H  -4.42800 24.27800 21.35700
H  -2.96800 25.25600 21.56200
H  -4.45700 29.85100 22.10900
H  -5.77500 28.64600 21.67400
H  -5.16300 28.96800 19.48200
H  -3.62000 28.23600 19.86700
H  -3.76900 30.03000 20.06300
H  -0.89900 30.95400 26.73800
H  -1.70000 30.71800 25.11800
H  -0.34800 29.68600 25.66000
H  -3.34700 28.83000 30.89600
H  -1.30700 27.18200 33.85800
H  0.28900 27.91300 33.30800
H  -0.25100 26.30700 32.73900

