158

Mg 8.07400 2.51200 28.01500
C  9.87700 1.04100 30.63900
C  6.49900 4.57000 30.02500
C  6.38500 3.64600 25.28200
C  9.44600 -0.07800 25.90700
N  8.17200 2.66600 30.07500
C  8.99900 2.10500 30.98600
C  8.84000 2.74500 32.39300
C  7.67700 3.81300 32.11600
C  7.44600 3.64000 30.59300
C  6.41400 3.70300 32.99000
C  10.13100 3.23200 33.06600
C  10.24400 2.82700 34.54600
H  11.09800 3.66400 35.48400
N  6.82300 4.10100 27.65800
C  6.26900 4.81900 28.68400
C  5.29800 5.72300 28.07000
C  5.36600 5.56500 26.62600
C  6.22500 4.38500 26.43700
C  4.23000 6.51000 28.87100
C  4.58400 6.26200 25.50200
O  4.70100 5.91700 24.32800
C  3.89300 7.53600 25.85000
N  7.87600 1.77500 25.94300
C  7.14200 2.49900 25.02300
C  7.36900 2.03900 23.55200
C  8.20500 0.76500 23.84200
C  8.52700 0.79700 25.30800
C  6.12000 1.72600 22.64500
C  9.38500 0.50200 22.87000
C  9.36700 -0.84100 22.11900
N  9.51700 0.87400 28.21400
C  9.93600 -0.01900 27.24000
C  10.87500 -1.01300 27.92100
C  10.90600 -0.54900 29.27800
C  10.05300 0.51500 29.38200
C  11.53700 -2.23400 27.29500
C  11.40600 -0.80800 30.54600
O  12.01000 -1.81900 31.01600
C  10.82000 0.27000 31.55500
C  10.05700 -0.39600 32.66600
O  8.84300 -0.63300 32.67700
O  10.84100 -0.61000 33.78700
C  10.22000 -0.82700 35.07000
H  5.93900 5.23600 30.68500
H  5.88200 4.04300 24.39700
H  9.63100 -0.91100 25.22600
H  8.26900 1.97500 32.91100
H  8.09900 4.80700 32.26700
H  6.44000 4.69100 33.44800
H  6.39800 2.92300 33.75100
H  5.59700 3.57100 32.28000
H  10.15800 4.31800 32.97100
H  10.98400 2.84500 32.50900
H  10.51600 1.77200 34.58200
H  9.21000 2.84300 34.89200
H  4.01700 6.00700 29.81400
H  3.28000 6.61000 28.34600
H  4.69500 7.48900 28.98600
H  4.49600 7.98300 26.64000
H  2.96200 7.40700 26.40300
H  3.87100 8.15600 24.95400
H  7.98700 2.79500 23.06800
H  7.56600 -0.08300 23.59200
H  5.21700 1.89700 23.23200
H  6.14500 0.74700 22.16700
H  6.11900 2.53200 21.91100
H  10.27100 0.70100 23.47400
H  9.32200 1.33600 22.17000
H  8.69600 -0.63100 21.28500
H  9.02400 -1.58500 22.83800
H  10.34000 -1.10200 21.70300
H  12.32500 -1.83400 26.65600
H  10.72800 -2.77200 26.80200
H  12.00600 -2.85700 28.05700
H  11.63300 0.84200 32.00000
H  10.92500 -0.68300 35.88800
H  9.88800 -1.85500 35.21600
H  9.35800 -0.17500 35.20900
Mg 45.85900 17.21000 27.98900
C  44.22200 16.97900 31.05800
C  48.18700 19.14500 29.54200
C  47.26600 17.50100 25.13600
C  43.21900 15.25500 26.62500
N  46.09300 18.04800 30.08100
C  45.35700 17.73900 31.12500
C  46.06000 18.18300 32.46800
C  47.20000 19.11000 31.94100
C  47.19200 18.73600 30.44600
C  47.01200 20.65600 32.26600
C  46.63100 16.99300 33.33900
C  46.94400 17.33300 34.88100
H  46.52100 18.67400 35.49400
N  47.51800 18.20800 27.40700
C  48.29900 18.99200 28.20900
C  49.31800 19.63500 27.35700
C  49.07500 19.14700 26.06000
C  47.96500 18.22400 26.15900
C  50.34900 20.52800 27.93100
C  49.75400 19.46400 24.72100
O  49.51900 18.99700 23.66900
C  50.85500 20.51700 24.74500
N  45.36100 16.30200 26.19800
C  46.15400 16.64400 25.10000
C  45.54800 16.16100 23.80200
C  44.44900 15.10100 24.27500
C  44.35000 15.50700 25.79700
C  44.83200 17.22800 22.93200
C  44.84200 13.57100 24.13500
C  44.35200 12.89600 22.83000
N  44.01200 16.35000 28.62300
C  43.05500 15.60600 27.95100
C  41.97000 15.14900 28.78000
C  42.37100 15.65900 30.08000
C  43.62400 16.32600 29.89100
C  40.80200 14.33000 28.43700
C  42.02500 15.83600 31.49600
O  41.01000 15.50400 32.15000
C  43.23500 16.63900 32.16500
C  42.79700 17.79600 33.01000
O  42.26200 18.83700 32.63400
O  42.98400 17.48300 34.34300
C  42.26000 18.33400 35.34400
H  48.94100 19.70600 30.09800
H  47.59300 17.75600 24.12600
H  42.43800 14.58900 26.25000
H  45.30600 18.74100 33.02300
H  48.10200 18.76000 32.44300
H  46.74100 21.21100 31.36800
H  47.93800 21.09700 32.63400
H  46.18800 20.70000 32.97800
H  47.52800 16.61700 32.84700
H  45.89300 16.20800 33.18000
H  48.01800 17.18500 35.00000
H  46.43800 16.65600 35.56900
H  51.18500 20.81200 27.29100
H  50.86000 20.22000 28.84300
H  49.91500 21.50600 28.13900
H  50.43300 21.32200 25.34600
H  51.08700 21.05000 23.82400
H  51.83100 20.23900 25.14300
H  46.30900 15.72700 23.15300
H  43.46000 15.25400 23.84400
H  45.13800 18.25000 23.15800
H  43.75000 17.10100 22.98400
H  45.14200 17.01100 21.91000
H  44.30300 13.03400 24.91600
H  45.91600 13.49800 24.30300
H  43.55300 13.52000 22.43000
H  43.92200 11.91600 23.03700
H  45.09800 12.88300 22.03500
H  40.47900 14.63100 27.44100
H  39.94800 14.40100 29.11000
H  41.13400 13.30200 28.29500
H  43.64500 15.81800 32.75300
H  41.20900 18.49800 35.10600
H  42.74700 19.30900 35.32100
H  42.33100 18.02300 36.38600

