158

Mg 24.33000 -4.96500 45.22100
C  26.85600 -3.02100 43.84100
C  22.12400 -3.54600 43.12100
C  22.29000 -7.57000 45.83300
C  26.91500 -6.76200 46.96300
N  24.47600 -3.39500 43.88000
C  25.56000 -2.72700 43.39100
C  25.22500 -1.59500 42.31700
C  23.66600 -1.65800 42.43400
C  23.35200 -2.90700 43.23000
C  22.93900 -0.34900 43.01100
C  25.66800 -2.09900 40.91700
C  26.23800 -0.94900 40.07700
H  26.02000 -0.94200 38.53600
N  22.43600 -5.50600 44.53000
C  21.68300 -4.78900 43.63300
C  20.45100 -5.47500 43.42600
C  20.49300 -6.64500 44.24500
C  21.72400 -6.57600 44.98700
C  19.35800 -4.99200 42.49200
C  19.41500 -7.67900 44.33200
O  18.37800 -7.57700 43.61400
C  19.37000 -8.79500 45.31800
N  24.69600 -7.00100 46.11600
C  23.54400 -7.72500 46.44100
C  23.89100 -8.96500 47.31100
C  25.30200 -8.58100 47.83500
C  25.68600 -7.39900 46.93000
C  22.86400 -9.23700 48.51300
C  26.28700 -9.79100 47.93700
C  26.81100 -10.40900 46.60800
N  26.42800 -4.85700 45.53400
C  27.31800 -5.63000 46.22500
C  28.68800 -5.11900 46.04800
C  28.54300 -4.09300 45.10300
C  27.17900 -3.99700 44.81900
C  29.93400 -5.69200 46.63700
C  29.25700 -3.12500 44.35100
O  30.48600 -2.89600 44.37000
C  28.20400 -2.45000 43.37800
C  28.36200 -1.03300 43.57200
O  27.87700 -0.25300 44.36600
O  29.07000 -0.60500 42.43800
C  28.99100 0.85000 42.06900
H  21.49400 -3.05800 42.37400
H  21.61300 -8.38800 46.08800
H  27.69700 -7.32300 47.47800
H  25.60800 -0.65700 42.72000
H  23.01600 -1.83700 41.57800
H  22.43600 0.21500 42.22600
H  23.62800 0.44000 43.31500
H  22.32600 -0.58500 43.88100
H  24.90300 -2.71000 40.43700
H  26.49700 -2.80600 40.95500
H  27.30800 -0.94600 40.28300
H  25.84300 0.00400 40.43000
H  19.87600 -5.03700 41.53400
H  19.14000 -3.95100 42.72900
H  18.42700 -5.55900 42.46300
H  19.61600 -8.47100 46.33000
H  19.98900 -9.61400 44.95300
H  18.34500 -9.16400 45.33700
H  23.82700 -9.86400 46.69900
H  25.16200 -8.07200 48.78900
H  22.08000 -8.48600 48.61000
H  23.25300 -9.50700 49.49400
H  22.30000 -10.10300 48.16500
H  25.70700 -10.59300 48.39300
H  27.06600 -9.70100 48.69500
H  27.88900 -10.53900 46.69900
H  26.71900 -9.67500 45.80700
H  26.38100 -11.35200 46.27100
H  30.51200 -6.09200 45.80400
H  29.64700 -6.54300 47.25600
H  30.55400 -4.96400 47.16000
H  28.55000 -2.82300 42.41400
H  28.83300 1.44700 42.96800
H  28.27800 0.99200 41.25800
H  29.92700 1.16800 41.61000
Mg -10.27900 40.22700 39.35600
C  -9.53100 36.90500 38.46500
C  -7.20300 41.12000 37.95500
C  -11.31000 43.35300 39.17500
C  -13.62500 39.18000 39.88200
N  -8.62400 39.08100 38.41400
C  -8.50700 37.76000 38.04700
C  -7.15500 37.32800 37.50700
C  -6.40400 38.67000 37.50500
C  -7.44200 39.72800 38.07000
C  -5.09200 38.66000 38.25600
C  -7.21400 36.58800 36.09200
C  -7.87200 37.45600 34.98200
H  -8.99400 36.85400 34.15400
N  -9.32800 42.00900 38.87400
C  -8.06400 42.15900 38.36800
C  -7.81100 43.62000 38.11200
C  -8.98900 44.26900 38.53300
C  -9.95100 43.26400 38.85100
C  -6.50300 44.16900 37.51500
C  -9.09900 45.78400 38.52600
O  -8.18400 46.53500 38.23600
C  -10.30500 46.48400 39.13200
N  -12.19500 41.11800 39.39100
C  -12.35400 42.44400 39.33900
C  -13.86400 42.83600 39.43400
C  -14.58600 41.54700 39.62800
C  -13.46500 40.52200 39.66400
C  -14.23200 43.95100 40.44000
C  -15.71500 41.11100 38.61800
C  -17.15800 40.94100 39.26000
N  -11.34000 38.39200 39.47300
C  -12.67300 38.14800 39.70400
C  -12.91900 36.73000 39.66700
C  -11.70100 36.13300 39.20800
C  -10.80200 37.27100 39.00900
C  -14.22600 36.03100 39.99100
C  -11.01300 34.95700 38.77100
O  -11.38000 33.78700 38.80300
C  -9.64300 35.44300 38.25000
C  -8.64300 34.64900 38.98900
O  -8.56000 34.69900 40.22300
O  -7.83200 33.84800 38.15400
C  -6.66700 33.27300 38.80800
H  -6.19500 41.36000 37.61100
H  -11.75900 44.34100 39.05000
H  -14.67400 38.95200 40.08000
H  -6.87100 36.58300 38.25000
H  -6.16600 39.06800 36.51800
H  -4.84800 37.73000 38.76800
H  -5.13600 39.38500 39.06900
H  -4.27400 39.02400 37.63400
H  -7.69300 35.61000 36.13100
H  -6.18200 36.42400 35.78100
H  -7.12900 37.85700 34.29300
H  -8.42300 38.29800 35.40200
H  -6.07900 44.95300 38.14200
H  -6.84700 44.59800 36.57400
H  -5.77800 43.38100 37.31300
H  -10.67100 45.84300 39.93400
H  -10.94600 46.57400 38.25500
H  -10.12300 47.46000 39.58200
H  -14.06700 43.17400 38.41800
H  -15.00500 41.42400 40.62700
H  -14.89400 43.73200 41.27800
H  -14.55300 44.77800 39.80600
H  -13.29800 44.13900 40.96900
H  -15.45400 40.20400 38.07300
H  -15.79200 41.86500 37.83400
H  -17.88300 41.29900 38.52900
H  -17.18800 41.38600 40.25500
H  -17.33500 39.86900 39.34500
H  -14.81400 35.88700 39.08500
H  -14.74700 36.56400 40.78600
H  -14.19400 35.02200 40.40100
H  -9.66300 35.12900 37.20700
H  -6.90200 33.02700 39.84300
H  -5.76900 33.89100 38.80300
H  -6.31000 32.35700 38.33700

