158

Mg 3.01000 -0.62000 43.66400
C  5.92200 1.38600 43.46500
C  1.30400 2.03000 42.16900
C  0.28700 -2.54100 43.67700
C  5.00700 -3.17100 44.98300
N  3.56300 1.42100 42.85400
C  4.79300 2.13100 43.07300
C  4.65900 3.63000 42.61400
C  3.13900 3.79100 42.48300
C  2.63000 2.32600 42.48800
C  2.46800 4.57900 43.57200
C  5.36500 4.06900 41.30500
C  5.26800 3.17000 40.08600
H  5.28000 3.87700 38.71900
N  1.03700 -0.29400 43.00100
C  0.58200 0.76800 42.32100
C  -0.76300 0.54300 41.95500
C  -1.21700 -0.65600 42.53500
C  0.02900 -1.20500 43.11900
C  -1.55200 1.56700 41.08200
C  -2.56700 -1.30900 42.40300
O  -3.54600 -0.68500 41.95200
C  -2.78500 -2.63200 42.97500
N  2.73500 -2.55000 44.23000
C  1.47900 -3.13800 44.13500
C  1.49200 -4.60100 44.66500
C  2.95100 -4.74100 45.16000
C  3.59900 -3.41000 44.76300
C  0.38200 -4.93000 45.67200
C  3.82100 -6.02300 44.58800
C  4.23600 -6.98200 45.62900
N  5.07700 -1.00900 43.95100
C  5.71400 -2.04000 44.63200
C  7.15500 -1.72900 44.84500
C  7.27400 -0.42300 44.30600
C  5.96300 -0.02300 43.82500
C  8.18100 -2.58900 45.48500
C  8.16400 0.71200 44.00500
O  9.34000 0.88300 44.26000
C  7.34500 1.84700 43.42300
C  7.48200 2.98800 44.26300
O  7.76300 4.14300 43.93200
O  7.22200 2.65800 45.61700
C  7.37100 3.69600 46.61300
H  0.85100 2.85100 41.60900
H  -0.50300 -3.29500 43.72100
H  5.49900 -4.03600 45.43200
H  5.16200 4.14200 43.43500
H  2.85600 4.35200 41.59300
H  2.21600 3.94500 44.42200
H  1.53700 4.92500 43.12400
H  3.14900 5.40000 43.80100
H  6.38700 4.35700 41.55100
H  4.89400 4.99000 40.96200
H  4.30800 2.66900 40.20800
H  6.12000 2.49100 40.09000
H  -2.11100 0.95800 40.37200
H  -0.94200 2.22800 40.46700
H  -2.28500 2.16300 41.62600
H  -3.79300 -3.03600 42.87600
H  -2.49000 -2.78100 44.01300
H  -2.22400 -3.35000 42.37700
H  1.38400 -5.33300 43.86500
H  2.97900 -4.75100 46.25000
H  0.73400 -5.04900 46.69700
H  0.13700 -5.90900 45.26200
H  -0.45100 -4.22800 45.63600
H  4.70900 -5.65700 44.07100
H  3.16900 -6.49300 43.85200
H  4.07200 -6.59500 46.63500
H  5.29000 -7.09100 45.37300
H  3.88400 -7.99900 45.45400
H  9.00600 -1.99000 45.86800
H  8.66900 -3.39600 44.93800
H  7.67000 -3.02700 46.34200
H  7.59900 2.05500 42.38400
H  8.03300 4.46400 46.21300
H  7.78800 3.36700 47.56500
H  6.41900 4.21800 46.70300
Mg -5.27000 24.59100 26.55900
C  -3.64600 26.29900 29.22500
C  -6.39900 22.33300 28.84000
C  -6.58000 23.34900 23.97500
C  -3.32200 27.03200 24.40700
N  -5.10900 24.27100 28.74700
C  -4.49500 25.22800 29.61400
C  -4.82100 24.91700 31.07600
C  -5.37300 23.46000 30.93300
C  -5.69400 23.33300 29.43800
C  -4.41400 22.25600 31.36000
C  -5.76000 25.89600 31.72800
C  -5.48600 26.25000 33.19600
H  -5.53300 25.00600 34.03400
N  -6.41500 23.00500 26.43800
C  -6.81200 22.17600 27.43700
C  -7.55500 21.11100 26.76500
C  -7.62300 21.44600 25.41100
C  -6.87000 22.70100 25.21300
C  -7.94500 19.84900 27.54500
C  -8.29400 20.69900 24.25600
O  -8.34400 21.03100 23.02300
C  -9.18600 19.54900 24.64100
N  -4.87100 25.07400 24.51900
C  -5.64800 24.32600 23.65100
C  -5.45300 24.81000 22.22700
C  -4.51500 26.06500 22.37400
C  -4.22100 26.07200 23.87100
C  -4.94100 23.75200 21.21800
C  -5.14900 27.34100 21.77600
C  -4.30400 28.17500 20.83900
N  -3.66500 26.17600 26.76600
C  -3.08300 27.05400 25.80600
C  -2.26100 28.10100 26.42600
C  -2.51100 27.81700 27.79300
C  -3.27800 26.67200 27.92400
C  -1.58000 29.20600 25.78300
C  -2.20200 28.31600 29.05100
O  -1.51600 29.32100 29.33600
C  -2.83500 27.27600 30.05300
C  -1.74200 26.63300 30.72700
O  -0.96700 25.87900 30.21500
O  -1.80000 26.93900 32.03600
C  -0.80600 26.34800 33.03300
H  -6.86100 21.56800 29.46900
H  -7.06700 22.92900 23.09300
H  -2.90300 27.78000 23.73000
H  -3.85800 24.93900 31.58600
H  -6.25800 23.30400 31.55000
H  -4.50800 22.16400 32.44200
H  -3.36500 22.47200 31.15700
H  -4.66900 21.39600 30.74000
H  -6.77000 25.48900 31.74500
H  -5.86900 26.68500 30.98500
H  -6.22100 26.93700 33.61600
H  -4.48800 26.68300 33.25100
H  -9.02000 19.88200 27.72400
H  -7.42700 19.88500 28.50300
H  -7.57300 18.94800 27.05800
H  -8.53100 18.74300 24.97100
H  -9.71100 19.20800 23.74800
H  -9.83800 19.76700 25.48600
H  -6.41000 25.10400 21.79700
H  -3.57000 25.85700 21.87100
H  -3.94400 24.01800 20.86700
H  -5.70000 23.51400 20.47300
H  -4.81500 22.79300 21.72000
H  -5.37500 28.04200 22.58000
H  -6.12800 27.08600 21.36900
H  -3.28700 27.79800 20.95600
H  -4.34100 29.22000 21.14700
H  -4.69500 28.04500 19.83000
H  -2.10800 29.39600 24.84900
H  -0.55400 28.89500 25.58100
H  -1.48000 30.16700 26.28700
H  -3.50600 27.81600 30.72100
H  -0.13500 27.06200 33.51100
H  -0.24500 25.53000 32.58200
H  -1.43200 25.98900 33.85000

