158

Mg 0.98700 8.06600 26.80800
C  1.46700 9.89600 29.83800
C  0.30700 5.31900 28.64100
C  0.42700 6.64900 23.95000
C  1.82500 11.17900 25.05600
N  0.91800 7.67100 28.98000
C  0.99800 8.51400 30.01300
C  0.59100 7.85800 31.32300
C  0.86700 6.35600 30.98700
C  0.75700 6.40900 29.43300
C  2.23600 5.82200 31.42600
C  -0.84600 8.11700 31.77600
C  -1.20500 8.49100 33.31800
H  -0.03500 8.48200 34.28600
N  0.47400 6.24900 26.39700
C  0.11600 5.25500 27.23800
C  -0.46500 4.14000 26.52200
C  -0.43500 4.50100 25.21000
C  0.12300 5.84200 25.15300
C  -0.92600 2.79200 27.05000
C  -0.89600 3.70100 23.95000
O  -0.70600 4.19800 22.89600
C  -1.61400 2.36800 24.04400
N  1.25200 8.79300 24.77800
C  0.95500 7.95900 23.78800
C  1.44400 8.50300 22.43200
C  1.45100 10.02300 22.78400
C  1.57700 10.00500 24.31300
C  2.90300 7.83700 22.09000
C  0.14600 10.69200 22.45400
C  0.20100 12.23100 22.10900
N  1.75500 10.06600 27.23000
C  2.06200 11.12500 26.47700
C  2.47700 12.29300 27.28200
C  2.17400 11.84300 28.62200
C  1.82800 10.50600 28.52400
C  2.86900 13.69000 26.68600
C  2.21500 12.27200 29.96400
O  2.53400 13.36000 30.35500
C  1.61300 11.01400 30.83200
C  2.63600 10.81300 31.92800
O  3.68400 10.20400 31.85000
O  2.17400 11.41900 33.07300
C  3.19600 11.52800 34.12600
H  0.20500 4.42600 29.26100
H  0.48600 6.17300 22.96900
H  1.96300 12.12800 24.53300
H  1.20000 8.28000 32.12200
H  0.04100 5.78300 31.40900
H  2.96900 6.58100 31.70000
H  2.57500 5.35400 30.50200
H  2.19600 5.14100 32.27600
H  -1.43300 7.22300 31.56200
H  -1.22500 8.82000 31.03400
H  -2.05400 7.85400 33.56600
H  -1.49800 9.52900 33.16200
H  -1.86600 2.42000 26.64100
H  -0.98100 2.74800 28.13700
H  -0.23900 1.98100 26.80500
H  -1.09100 1.74100 24.76500
H  -1.73400 1.87100 23.08100
H  -2.53300 2.66800 24.54800
H  0.81100 8.19700 21.59800
H  2.28200 10.44700 22.21900
H  3.51600 8.12700 22.94300
H  3.27200 8.46800 21.28100
H  2.66700 6.80200 21.84200
H  -0.50200 10.54400 23.31800
H  -0.25000 10.23500 21.54700
H  1.16500 12.60200 21.76200
H  0.01500 12.83300 22.99800
H  -0.49100 12.53000 21.32100
H  2.11000 14.05300 25.99300
H  3.77800 13.63200 26.08700
H  3.09700 14.39100 27.48900
H  0.62300 11.19200 31.25000
H  3.45600 12.58700 34.14800
H  4.13100 11.03700 33.85800
H  2.84000 11.09500 35.06100
Mg 6.40600 53.82000 40.03100
C  5.50500 50.46900 40.02800
C  9.65200 52.86000 39.42500
C  7.11300 56.91800 39.18400
C  2.96900 54.57200 40.30400
N  7.43400 51.84500 39.54500
C  6.89900 50.64400 39.77400
C  7.99500 49.51000 39.65000
C  9.22600 50.39700 40.03800
C  8.77800 51.80200 39.50700
C  9.62300 50.33900 41.56600
C  8.10000 48.88300 38.23800
C  7.29100 49.44800 37.05300
H  8.11700 49.80400 35.75700
N  8.14800 54.76000 39.29800
C  9.39600 54.22400 39.21600
C  10.35900 55.20000 38.75900
C  9.64700 56.46100 38.71300
C  8.21500 56.10800 39.04000
C  11.78100 54.90300 38.41700
C  10.32700 57.81200 38.49900
O  11.47600 57.94600 38.22400
C  9.43200 59.04900 38.50700
N  5.19300 55.50800 39.84400
C  5.76800 56.62700 39.38400
C  4.73300 57.76300 39.50100
C  3.41000 57.02600 39.80500
C  3.83000 55.61200 39.99200
C  5.15500 58.96700 40.42100
C  2.22700 57.33300 38.77400
C  0.95000 57.81100 39.41200
N  4.57800 52.78100 40.18900
C  3.27800 53.23500 40.39500
C  2.35000 52.10700 40.72000
C  3.19200 51.00900 40.53100
C  4.49500 51.44100 40.23800
C  0.98900 52.17100 41.21300
C  3.17300 49.58500 40.61200
O  2.33300 48.76700 40.96300
C  4.73000 49.17400 40.24700
C  4.70700 48.33000 39.11100
O  4.13300 48.49800 38.00700
O  5.41100 47.18200 39.46800
C  5.57500 46.16400 38.39700
H  10.70600 52.57600 39.46300
H  7.16000 57.99500 39.00800
H  1.95600 54.90800 40.53400
H  7.92300 48.68300 40.35600
H  10.06600 49.94300 39.51200
H  10.71300 50.34600 41.53300
H  9.32500 49.50000 42.19500
H  9.21000 51.20600 42.08100
H  7.76200 47.86400 38.42800
H  9.15800 48.82600 37.98200
H  6.81600 50.38400 37.34800
H  6.59700 48.65000 36.78900
H  11.93100 55.06400 37.34900
H  12.06400 53.93300 38.82600
H  12.33100 55.65300 38.98500
H  10.07400 59.92000 38.64200
H  8.90700 59.09800 39.46000
H  8.78200 59.07200 37.63100
H  4.69900 58.09800 38.46400
H  3.22800 57.25500 40.85600
H  4.26700 59.37900 40.90200
H  5.59600 59.71600 39.76300
H  5.88900 58.66100 41.16600
H  1.98800 56.36100 38.34300
H  2.53400 58.09100 38.05200
H  0.12700 57.70800 38.70500
H  0.91700 58.82200 39.81800
H  0.76100 57.10600 40.22100
H  0.73500 53.20800 40.99700
H  0.97900 52.03200 42.29400
H  0.31200 51.52100 40.65800
H  5.28200 48.69000 41.05300
H  4.55600 45.81600 38.22500
H  6.25600 45.35600 38.66400
H  5.99100 46.69700 37.54300

