158

Mg 40.78000 8.41500 28.30900
C  42.34600 9.85900 31.03700
C  38.64500 6.91600 30.55800
C  39.03900 7.24700 25.59300
C  43.07900 9.63700 26.22500
N  40.46800 8.56900 30.62700
C  41.16700 9.24100 31.46400
C  40.74100 8.95000 32.91600
C  39.69200 7.84700 32.72000
C  39.61000 7.69300 31.19200
C  39.82000 6.52200 33.50400
C  40.31600 10.27500 33.66800
C  41.17500 10.71800 34.91400
H  40.51600 11.74700 35.85600
N  39.20100 7.22600 28.11100
C  38.41600 6.75600 29.17400
C  37.27900 5.96600 28.67500
C  37.33600 5.99100 27.25600
C  38.58200 6.85400 26.91500
C  36.17100 5.37600 29.56300
C  36.42200 5.48600 26.09400
O  36.69700 5.50400 24.89600
C  35.09300 4.84000 26.45400
N  41.14600 8.24100 26.11200
C  40.15800 7.97500 25.26200
C  40.49400 8.25500 23.82700
C  41.89400 8.91700 23.97200
C  42.04700 8.99400 25.50100
C  40.45500 7.04300 22.85400
C  42.08300 10.26000 23.14200
C  41.57400 11.57100 23.73900
N  42.47900 9.39300 28.52500
C  43.33200 9.82700 27.60500
C  44.48400 10.51100 28.20400
C  44.06500 10.62000 29.57800
C  42.85200 9.91600 29.69800
C  45.55300 11.10400 27.50000
C  44.43000 11.13100 30.89000
O  45.36500 11.78400 31.16500
C  43.31800 10.54600 31.88600
C  44.03900 9.66800 32.88700
O  44.08800 8.43600 32.78800
O  44.40500 10.43600 33.96500
C  44.87600 9.67400 35.09900
H  37.95600 6.53600 31.31500
H  38.35900 6.96100 24.78800
H  43.89000 10.04500 25.62000
H  41.56700 8.59900 33.53500
H  38.71800 8.19700 33.06000
H  38.85200 6.34900 33.97400
H  40.67400 6.56900 34.18000
H  39.94800 5.67200 32.83300
H  39.27000 10.26900 33.97300
H  40.44400 11.09800 32.96500
H  42.08900 11.16900 34.52600
H  41.50600 9.81400 35.42600
H  36.15800 5.48800 30.64700
H  35.90600 4.33900 29.35800
H  35.37500 6.02300 29.19300
H  35.05000 4.32700 27.41400
H  34.72700 4.15500 25.68900
H  34.33700 5.62500 26.50400
H  39.73800 8.88100 23.35300
H  42.57100 8.17300 23.55200
H  41.40200 7.08600 22.31500
H  39.72300 7.08400 22.04700
H  40.30300 6.06300 23.30800
H  41.63900 10.17900 22.15000
H  43.14900 10.38200 22.94900
H  42.42000 12.24700 23.85900
H  41.00100 11.51100 24.66500
H  40.80000 12.07400 23.15900
H  45.14600 11.87900 26.85100
H  45.98300 10.37500 26.81400
H  46.26300 11.41100 28.26800
H  42.75400 11.34200 32.37300
H  45.79700 9.20200 34.75600
H  44.14400 8.91800 35.38500
H  45.21600 10.16500 36.01200
Mg 16.33600 51.28800 27.08200
C  18.42400 50.32100 29.70000
C  13.99900 52.25600 29.40500
C  14.49200 52.49800 24.62300
C  18.85200 50.27000 24.78600
N  16.32200 51.42600 29.33800
C  17.23200 50.89000 30.16000
C  16.80400 51.14400 31.60400
C  15.25100 51.18900 31.55100
C  15.14100 51.60000 29.98500
C  14.62200 49.80200 31.89000
C  17.55100 52.37900 32.24400
C  17.77500 52.46600 33.70400
H  16.93000 51.60400 34.61800
N  14.45900 52.26800 27.00900
C  13.71300 52.66500 28.07700
C  12.65200 53.50200 27.57300
C  12.68800 53.50500 26.10900
C  13.86700 52.69400 25.88900
C  11.63400 54.14100 28.43900
C  11.77900 54.02400 25.03500
O  11.99200 53.93300 23.83900
C  10.53100 54.87800 25.38100
N  16.56100 51.14800 24.93100
C  15.68500 51.79000 24.15600
C  16.13100 51.76300 22.65300
C  17.67600 51.49000 22.88000
C  17.72100 50.89700 24.26900
C  15.39800 50.67900 21.70400
C  18.71800 52.66700 22.81700
C  19.93900 52.36400 21.92400
N  18.26000 50.41000 27.14600
C  19.18900 50.06800 26.14400
C  20.34800 49.38300 26.82000
C  20.12400 49.58300 28.21300
C  18.83300 50.15500 28.33300
C  21.57800 48.73200 26.25100
C  20.72000 49.37000 29.53000
O  21.79000 48.79900 29.78400
C  19.62600 49.77400 30.55300
C  19.29000 48.65100 31.41500
O  18.87600 47.53100 30.95600
O  19.33400 48.90600 32.69500
C  18.94600 47.80700 33.55200
H  13.13800 52.47100 30.04100
H  13.94300 52.75700 23.71500
H  19.70900 49.97800 24.17500
H  17.12400 50.22400 32.09300
H  14.83100 51.97300 32.18000
H  15.37300 49.02400 32.02800
H  14.13800 49.47900 30.96800
H  13.99400 49.82800 32.78000
H  16.90800 53.21500 31.97200
H  18.49100 52.56500 31.72500
H  17.73500 53.49800 34.05300
H  18.80800 52.12900 33.79700
H  12.02200 55.13400 28.66600
H  11.65700 53.72400 29.44600
H  10.61600 54.11000 28.05100
H  10.75100 55.52500 26.22900
H  9.81000 54.10200 25.64200
H  10.15200 55.54900 24.61000
H  16.08100 52.75500 22.20300
H  18.07400 50.61000 22.37500
H  15.85100 49.68800 21.69900
H  15.31600 51.20100 20.75100
H  14.37700 50.39200 21.95600
H  19.10800 52.82000 23.82300
H  18.28200 53.57400 22.39900
H  19.89600 51.36500 21.49100
H  20.84000 52.34300 22.53700
H  20.04400 53.15600 21.18200
H  21.34500 48.55300 25.20200
H  21.83200 47.87600 26.87600
H  22.24900 49.58800 26.31900
H  20.00800 50.58500 31.17300
H  17.86000 47.78700 33.64300
H  19.32400 48.19800 34.49800
H  19.46100 46.89100 33.26500

