158

Mg 7.39100 2.89800 27.37600
C  8.83400 1.56900 30.21200
C  5.40900 4.83600 29.51000
C  5.73500 3.94700 24.78800
C  9.10200 0.49700 25.50900
N  7.15400 3.21900 29.70100
C  7.99200 2.66100 30.56500
C  7.77100 3.26800 31.95000
C  6.46600 4.24100 31.78800
C  6.30900 4.10500 30.22100
C  5.26300 3.86000 32.63900
C  8.98300 3.94500 32.56900
C  8.72900 4.29400 34.10800
H  9.99700 3.97700 34.92600
N  5.95000 4.35900 27.19000
C  5.14800 4.94800 28.11700
C  4.23300 5.88100 27.47900
C  4.31500 5.65100 26.06200
C  5.39500 4.66800 26.00700
C  3.24200 6.76100 28.26700
C  3.41400 6.27700 24.90200
O  3.68000 5.98200 23.73300
C  2.29900 7.30000 25.23200
N  7.60000 2.41000 25.45900
C  6.70800 2.98900 24.60200
C  6.90700 2.35300 23.19900
C  7.89800 1.22700 23.34200
C  8.17200 1.36300 24.84600
C  5.58600 1.86000 22.49000
C  9.24100 1.34400 22.47700
C  9.65000 0.01100 21.74400
N  8.65600 1.25200 27.72000
C  9.35700 0.44100 26.85600
C  10.28500 -0.40300 27.52600
C  10.11900 -0.03500 28.89500
C  9.04800 0.94200 28.93000
C  11.36200 -1.25400 27.00600
C  10.60300 -0.21100 30.19300
O  11.41500 -0.99600 30.66800
C  9.72700 0.80400 31.09700
C  9.25000 0.06100 32.24600
O  8.25900 -0.65700 32.24100
O  10.01500 0.28800 33.36900
C  9.43900 0.08000 34.68900
H  4.90500 5.65400 30.02900
H  5.21700 4.30500 23.89600
H  9.73000 -0.21300 24.96700
H  7.44700 2.44900 32.59200
H  6.68900 5.28100 32.02600
H  4.94300 4.69900 33.25700
H  5.57400 3.04200 33.28900
H  4.44300 3.58700 31.97400
H  9.05600 4.95900 32.17700
H  9.94900 3.49900 32.33200
H  7.82500 3.82600 34.49900
H  8.55000 5.36500 34.19700
H  2.27800 6.62400 27.77800
H  3.59500 7.76600 28.03500
H  3.14300 6.64000 29.34600
H  2.65700 8.15000 25.81400
H  1.46300 6.81200 25.73300
H  1.88700 7.65800 24.28900
H  7.24600 3.18500 22.58200
H  7.52600 0.20800 23.22800
H  4.72900 1.86900 23.16300
H  5.63500 0.90500 21.96700
H  5.47600 2.68800 21.79100
H  10.04100 1.66400 23.14500
H  9.12100 2.13000 21.73200
H  8.79000 -0.54500 21.37000
H  10.25700 -0.48900 22.49900
H  10.34000 0.23000 20.92900
H  11.60000 -0.70600 26.09400
H  11.07600 -2.26500 26.71800
H  12.25100 -1.37100 27.62500
H  10.45700 1.49200 31.52100
H  8.93300 0.99300 35.00300
H  10.20400 -0.34800 35.33700
H  8.61500 -0.62800 34.76200
Mg 54.25000 24.50900 44.93100
C  51.62300 26.78700 44.23300
C  52.05100 21.93600 44.23800
C  56.93400 22.42800 44.85400
C  56.24300 27.05500 45.88400
N  52.03600 24.40900 44.33600
C  51.22000 25.47000 44.02400
C  49.85900 24.92500 43.52500
C  49.91600 23.42300 43.98300
C  51.39900 23.20000 44.20300
C  48.90600 23.14200 45.13700
C  49.50900 25.17100 42.03900
C  50.70400 25.25800 41.07700
H  51.54500 23.91800 40.95200
N  54.47700 22.43000 44.48400
C  53.41700 21.56100 44.30600
C  53.99100 20.23300 44.12500
C  55.38900 20.35900 44.19100
C  55.71300 21.77700 44.49300
C  53.05200 19.12800 43.79900
C  56.45000 19.18100 44.00400
O  56.07200 18.04200 43.86900
C  58.00500 19.43300 43.93700
N  56.42400 24.85200 45.08400
C  57.21200 23.77500 45.19500
C  58.68000 24.29900 45.55500
C  58.42400 25.79500 45.90000
C  56.92400 25.91700 45.62900
C  59.45800 23.53300 46.66300
C  59.28200 26.81800 45.13700
C  60.17600 27.83500 45.85100
N  54.03800 26.59300 44.92600
C  54.93300 27.46000 45.47700
C  54.25700 28.75200 45.56000
C  52.93200 28.56200 45.11900
C  52.85600 27.18600 44.77300
C  54.81000 30.01400 46.21000
C  51.63800 29.18100 44.79400
O  51.21500 30.34800 45.01200
C  50.78900 28.00600 44.17400
C  50.55800 28.48600 42.79800
O  51.41000 28.87000 42.03400
O  49.25900 28.42300 42.42500
C  48.96000 28.57700 40.98900
H  51.34600 21.10200 44.19300
H  57.74000 21.71600 45.04100
H  56.82100 27.85900 46.34500
H  49.15800 25.59100 44.02900
H  49.44600 22.81200 43.21200
H  48.83400 24.14000 45.56900
H  49.24000 22.40600 45.86800
H  47.96200 22.84800 44.67900
H  48.92700 26.09200 42.06900
H  48.77600 24.44600 41.68400
H  51.25900 26.19000 41.18900
H  50.26800 25.42000 40.09100
H  52.71300 19.41400 42.80300
H  52.15500 19.09000 44.41700
H  53.55800 18.16300 43.75400
H  58.11100 20.18900 43.15800
H  58.49400 18.51700 43.60600
H  58.46000 19.70800 44.88900
H  59.24400 24.26600 44.62200
H  58.54100 25.91900 46.97600
H  60.32000 23.05700 46.19500
H  58.85400 22.71700 47.06000
H  59.72500 24.04800 47.58600
H  58.55100 27.44700 44.62800
H  59.97200 26.46100 44.37300
H  60.21200 28.75200 45.26400
H  61.20700 27.53600 46.04100
H  59.84000 28.05200 46.86500
H  55.85000 29.80200 46.45700
H  54.11500 30.21000 47.02700
H  54.84200 30.88400 45.55500
H  49.84500 27.87000 44.70300
H  48.24000 27.76700 40.87700
H  49.79200 28.53700 40.28500
H  48.42900 29.52900 40.97100

