158

Mg 40.95000 7.82700 29.50800
C  42.68500 9.28200 32.20100
C  38.72000 6.56600 31.70000
C  39.66700 6.20900 26.98000
C  43.62000 8.84200 27.49400
N  40.70900 7.99800 31.71100
C  41.54900 8.60900 32.59600
C  41.05000 8.49800 33.99800
C  39.99300 7.36300 33.87300
C  39.74300 7.36900 32.28600
C  40.35900 5.91800 34.33300
C  40.45700 9.84900 34.54100
C  40.00200 9.92700 36.03700
H  40.80000 10.50600 37.15500
N  39.45900 6.56100 29.38200
C  38.54600 6.26900 30.36500
C  37.38300 5.57800 29.90500
C  37.58200 5.49700 28.47800
C  39.00200 6.09600 28.21600
C  36.25900 4.91000 30.72800
C  36.58200 5.00400 27.35200
O  36.88300 4.93500 26.21800
C  35.21000 4.62000 27.77400
N  41.63900 7.34700 27.58500
C  40.76500 6.86500 26.68700
C  41.30900 6.92900 25.30900
C  42.39000 8.07100 25.45300
C  42.58700 8.07800 26.90700
C  41.86700 5.55300 24.79500
C  41.89700 9.39000 24.69200
C  40.83800 10.25500 25.37200
N  42.73100 8.89400 29.69700
C  43.77100 9.22200 28.79700
C  44.83000 9.99200 29.42600
C  44.39400 10.12600 30.77200
C  43.20700 9.38300 30.89200
C  46.10000 10.51900 28.80000
C  44.76800 10.62600 32.03100
O  45.85200 11.19100 32.36900
C  43.66400 10.20500 33.04200
C  44.38100 9.41000 34.07600
O  45.18600 8.53600 33.93600
O  44.01300 9.87200 35.31900
C  44.55600 9.11800 36.44600
H  37.96500 6.19800 32.39800
H  39.12600 5.76900 26.14000
H  44.42100 9.07600 26.79000
H  41.91600 8.15500 34.56500
H  39.01100 7.59400 34.28600
H  40.26500 5.28000 33.45400
H  39.69600 5.57300 35.12700
H  41.39700 5.92900 34.66500
H  39.50600 10.04100 34.04500
H  41.03500 10.76100 34.38800
H  39.69000 8.94400 36.38900
H  39.12800 10.56200 36.18700
H  35.34400 5.45500 30.49500
H  36.44300 4.84100 31.80000
H  36.10700 3.88600 30.38600
H  35.14000 3.57100 28.05900
H  34.64400 4.63500 26.84200
H  34.68500 5.33300 28.40900
H  40.50200 7.33200 24.69700
H  43.30400 7.88600 24.89000
H  42.95500 5.56900 24.73400
H  41.28000 5.40800 23.88800
H  41.52200 4.83500 25.54000
H  41.39900 9.02700 23.79300
H  42.74900 10.03300 24.47000
H  40.19900 9.70400 26.06200
H  40.12800 10.49700 24.58200
H  41.27600 11.14500 25.82500
H  46.83300 9.72200 28.92600
H  46.55900 11.24300 29.47400
H  45.87800 10.79400 27.76900
H  43.23700 11.08400 33.52600
H  43.99100 8.19600 36.31100
H  44.47100 9.60000 37.42000
H  45.63000 8.93000 36.42900
Mg 0.17700 43.47400 25.51700
C  2.37400 43.05500 28.22600
C  -2.51400 42.91100 27.70300
C  -2.01600 43.36100 22.98800
C  2.81900 43.92900 23.40300
N  0.03500 43.09300 27.64400
C  0.98500 43.10000 28.56900
C  0.43700 42.97700 30.00700
C  -0.99500 42.54900 29.76700
C  -1.19100 42.94000 28.30900
C  -1.31800 41.02800 30.01300
C  0.44600 44.29500 30.87500
C  -0.14100 44.22800 32.32000
H  -0.14500 42.74900 32.93300
N  -1.98300 43.07800 25.35700
C  -2.88400 42.87600 26.37900
C  -4.25500 42.78600 25.86300
C  -4.12900 42.87000 24.44600
C  -2.69300 43.09600 24.18400
C  -5.43200 42.47900 26.72100
C  -5.22100 42.75600 23.43800
O  -5.00400 43.00600 22.26600
C  -6.63500 42.41600 23.86000
N  0.37500 43.54500 23.50300
C  -0.70000 43.52200 22.66400
C  -0.12500 43.55600 21.26400
C  1.31300 43.97500 21.38200
C  1.53800 43.73500 22.83900
C  -0.36400 42.12100 20.64800
C  1.63100 45.42000 20.93900
C  1.01800 46.58800 21.71700
N  2.21300 43.44800 25.72900
C  3.20400 43.70200 24.78200
C  4.55700 43.46200 25.40300
C  4.21800 43.29400 26.76300
C  2.79300 43.36100 26.90200
C  5.89900 43.31400 24.79200
C  4.76400 42.99300 28.02800
O  5.94100 42.71300 28.37700
C  3.66100 43.04300 29.05200
C  3.65600 41.86900 29.89300
O  3.59600 40.71200 29.51900
O  3.93300 42.34500 31.15700
C  4.23700 41.27400 32.09900
H  -3.26700 42.74900 28.47700
H  -2.61800 43.23400 22.08600
H  3.64900 44.13200 22.72300
H  0.97000 42.20200 30.55800
H  -1.71600 43.20300 30.25800
H  -1.53600 40.50500 29.08200
H  -2.14700 40.89700 30.70800
H  -0.38300 40.59700 30.37200
H  -0.03100 45.10700 30.32600
H  1.44400 44.72300 30.96200
H  -1.09800 44.74400 32.39700
H  0.42500 44.85500 33.00900
H  -5.92400 43.35000 27.15400
H  -4.97200 41.90700 27.52600
H  -6.03600 41.67100 26.30700
H  -7.04400 43.01900 24.67100
H  -6.60600 41.38200 24.20500
H  -7.30000 42.52200 23.00300
H  -0.73500 44.27100 20.71300
H  1.99800 43.28000 20.89700
H  0.57500 41.57200 20.57700
H  -0.82000 42.24100 19.66500
H  -0.97800 41.59100 21.37600
H  1.27500 45.39700 19.90900
H  2.71400 45.53300 20.98800
H  1.83200 47.30900 21.78300
H  0.50900 46.39700 22.66200
H  0.35300 47.12800 21.04400
H  5.80800 42.81100 23.82900
H  6.56600 42.81800 25.49700
H  6.28200 44.31800 24.61000
H  3.70100 44.00300 29.56600
H  4.64200 41.73000 33.00200
H  4.94600 40.61200 31.60300
H  3.31000 40.74200 32.31500

