158

Mg 35.52800 49.58700 26.03400
C  35.39800 47.78300 29.08000
C  35.00500 52.50000 27.97200
C  35.65700 51.53300 23.25200
C  36.15700 46.82300 24.33700
N  35.11200 50.05800 28.28000
C  35.14400 49.10500 29.31800
C  35.11600 49.83200 30.67700
C  34.74600 51.32700 30.31200
C  35.00000 51.32200 28.78000
C  33.34100 51.79500 30.80900
C  36.50300 49.68700 31.45200
C  36.55500 49.09200 32.88400
H  35.35100 49.25800 33.83900
N  35.24500 51.76200 25.67800
C  35.13300 52.72400 26.56300
C  35.17600 53.93500 25.91400
C  35.25600 53.69800 24.53900
C  35.29800 52.27700 24.37400
C  35.19500 55.31000 26.61100
C  35.32700 54.82100 23.44100
O  35.60300 54.47900 22.28600
C  35.05200 56.34400 23.60200
N  35.79100 49.27800 24.10700
C  35.92200 50.15300 23.10000
C  36.24000 49.49700 21.79800
C  36.64300 48.06700 22.28500
C  36.17300 48.05900 23.69500
C  35.07900 49.49800 20.70800
C  38.17900 47.67400 22.09600
C  38.51500 46.22900 21.59900
N  35.53300 47.55600 26.44000
C  35.88500 46.54700 25.66600
C  35.92100 45.31200 26.41300
C  35.71100 45.72200 27.80000
C  35.49800 47.10500 27.75300
C  36.28900 43.95700 25.87400
C  35.68700 45.30600 29.18500
O  35.96700 44.21900 29.73800
C  35.45200 46.59900 30.05100
C  34.21300 46.35500 31.00600
O  33.06900 46.59000 30.68900
O  34.60700 45.75900 32.20400
C  33.65800 45.47900 33.37600
H  34.90400 53.36900 28.62600
H  35.75900 52.07800 22.31000
H  36.52800 45.94500 23.80500
H  34.33400 49.40300 31.30500
H  35.38400 52.02900 30.85000
H  32.80400 50.96600 31.27100
H  32.82500 52.00300 29.87100
H  33.42000 52.68000 31.43900
H  37.09100 50.60500 31.45300
H  37.17600 49.16400 30.77200
H  37.33200 49.57500 33.47700
H  36.74100 48.02400 32.77000
H  36.05700 55.90400 26.31000
H  35.33300 55.14500 27.68000
H  34.23900 55.83400 26.62500
H  34.54400 56.73700 22.72200
H  35.99300 56.81800 23.88300
H  34.29400 56.42700 24.38100
H  37.02000 50.16900 21.44100
H  35.97500 47.39400 21.74800
H  35.42000 49.82600 19.72600
H  34.19000 50.04900 21.01600
H  34.86400 48.43300 20.62100
H  38.76900 47.92400 22.97800
H  38.55200 48.33000 21.30900
H  37.64600 45.58300 21.72300
H  39.38300 45.76300 22.06500
H  38.81300 46.13000 20.55600
H  36.35700 43.96300 24.78600
H  35.43200 43.35100 26.16800
H  37.21400 43.57800 26.30900
H  36.32200 46.68400 30.70300
H  33.43800 44.41400 33.30800
H  32.74600 46.06600 33.48200
H  34.25400 45.68200 34.26700
Mg 0.01300 43.08800 25.84900
C  2.49700 42.98900 28.42700
C  -2.32500 42.39500 28.34500
C  -2.15100 42.92000 23.40100
C  2.66500 43.22600 23.51100
N  0.13800 42.60700 28.06600
C  1.23300 42.73000 28.93000
C  0.74000 42.61200 30.41000
C  -0.79400 42.19300 30.28700
C  -0.98500 42.36500 28.75500
C  -1.12000 40.78900 30.95400
C  1.08600 43.94000 31.20800
C  1.35000 43.75900 32.76300
H  0.88600 42.42800 33.42700
N  -2.04900 42.82300 25.85500
C  -2.82200 42.55100 26.95000
C  -4.17000 42.49600 26.49400
C  -4.19300 42.67200 25.05700
C  -2.78500 42.85100 24.69200
C  -5.28700 42.36600 27.47000
C  -5.39700 42.60000 24.09400
O  -5.23700 42.73400 22.89300
C  -6.79200 42.14400 24.50400
N  0.19500 43.24500 23.75300
C  -0.86300 43.05100 22.91600
C  -0.58100 43.11900 21.41700
C  1.00500 43.19500 21.42600
C  1.35300 43.24800 22.95100
C  -1.09700 41.94600 20.62700
C  1.78000 44.37900 20.62700
C  1.24100 45.84100 20.80300
N  2.13700 43.15000 25.88900
C  3.02200 43.23900 24.87800
C  4.32600 43.16800 25.39900
C  4.17300 43.12400 26.76500
C  2.84400 43.11900 27.05900
C  5.71300 43.24200 24.63100
C  4.88500 43.00800 28.04100
O  6.04200 42.80500 28.31600
C  3.77400 43.09200 29.19500
C  4.05800 41.91100 30.09100
O  3.85200 40.73000 29.88000
O  4.57700 42.42800 31.20600
C  4.61300 41.43000 32.35400
H  -3.05400 42.34300 29.15600
H  -2.93900 42.83100 22.65100
H  3.51300 43.07700 22.83800
H  1.36800 41.96100 31.01900
H  -1.41600 42.92700 30.79900
H  -0.30500 40.54400 31.63600
H  -1.29500 40.02100 30.20000
H  -2.07000 40.93800 31.46800
H  0.35600 44.73000 31.03200
H  2.02400 44.41700 30.92300
H  0.92800 44.61500 33.28800
H  2.43500 43.78600 32.85900
H  -6.23900 42.75900 27.11400
H  -5.10900 42.98100 28.35200
H  -5.52400 41.33600 27.74000
H  -7.07100 42.91000 25.22800
H  -6.74800 41.13300 24.90900
H  -7.48400 42.12900 23.66200
H  -0.91800 44.04200 20.94600
H  1.45400 42.21900 21.24500
H  -1.74600 41.41800 21.32600
H  -0.28600 41.33900 20.22400
H  -1.67300 42.29600 19.77000
H  1.77700 44.08700 19.57700
H  2.78000 44.54600 21.02800
H  0.58000 46.07900 19.97000
H  2.03500 46.56700 20.98000
H  0.74200 46.00000 21.75900
H  6.49100 43.53300 25.33700
H  5.72100 43.92300 23.78000
H  5.99200 42.27000 24.22400
H  3.93200 44.03200 29.72200
H  5.67800 41.31600 32.55700
H  4.21600 40.43100 32.17200
H  4.16000 41.90500 33.22400

