158

Mg -2.03300 16.91100 26.45400
C  -2.37000 14.56000 29.07300
C  -2.96800 19.31700 28.74000
C  -2.34200 19.05900 23.87700
C  -1.92900 14.25700 24.16900
N  -2.71900 16.90600 28.73400
C  -2.56700 15.86200 29.59000
C  -2.73400 16.24300 31.06300
C  -2.86300 17.80500 30.91200
C  -2.96300 18.03600 29.37600
C  -4.08600 18.42900 31.73600
C  -1.73900 15.74200 32.23700
C  -1.67000 16.59100 33.47800
H  -1.24900 15.98500 34.76400
N  -2.32000 18.90600 26.36400
C  -2.72000 19.72400 27.40400
C  -2.71400 21.06400 26.88600
C  -2.61500 21.02800 25.53500
C  -2.35700 19.64500 25.17800
C  -2.98700 22.26600 27.78900
C  -2.84600 22.20300 24.54400
O  -2.98000 22.03500 23.34800
C  -3.13800 23.64600 24.94900
N  -2.26800 16.67000 24.33100
C  -2.32300 17.73900 23.53400
C  -2.30700 17.27700 22.06000
C  -1.78700 15.84300 22.16900
C  -1.95900 15.55800 23.63100
C  -3.68100 17.45900 21.33700
C  -0.36800 15.57400 21.75700
C  0.87600 16.08800 22.50100
N  -2.15500 14.82500 26.49100
C  -2.03000 13.85700 25.48000
C  -2.10800 12.53800 26.03800
C  -2.18500 12.75400 27.40200
C  -2.23700 14.13700 27.65000
C  -2.11500 11.27000 25.15700
C  -2.34200 12.08600 28.68800
O  -2.41400 10.90200 28.98000
C  -2.49000 13.26700 29.79900
C  -1.39500 12.97200 30.80200
O  -0.24500 13.44200 30.81000
O  -1.87800 12.05300 31.72400
C  -1.10900 11.57000 32.85600
H  -3.12800 20.13600 29.44400
H  -2.35600 19.69400 22.98900
H  -1.69900 13.54400 23.37500
H  -3.68700 15.89800 31.46500
H  -1.94700 18.33400 31.17300
H  -4.46300 17.69200 32.44500
H  -4.89900 18.66500 31.04900
H  -3.76100 19.31600 32.27900
H  -0.71700 15.67200 31.86400
H  -2.15000 14.77400 32.52300
H  -2.69700 16.90700 33.65800
H  -1.03400 17.46300 33.32600
H  -2.74400 22.15200 28.84600
H  -4.03600 22.55700 27.73000
H  -2.33700 23.09800 27.51900
H  -2.41300 23.91900 25.71700
H  -4.08500 23.54000 25.47800
H  -3.17600 24.32300 24.09600
H  -1.52900 17.89000 21.60600
H  -2.37300 15.06600 21.68000
H  -4.20800 18.14100 22.00400
H  -4.32500 16.58200 21.39200
H  -3.61500 17.78100 20.29700
H  -0.15200 15.69700 20.69600
H  -0.23900 14.49200 21.77000
H  1.44200 16.73500 21.83100
H  1.59000 15.30100 22.74700
H  0.57300 16.58000 23.42400
H  -1.43400 11.34100 24.30800
H  -3.12700 10.91400 24.96200
H  -1.62400 10.49100 25.74000
H  -3.51300 13.17000 30.16300
H  -0.14800 12.05500 33.02400
H  -0.84200 10.52300 32.71300
H  -1.68600 11.66200 33.77600
Mg 25.58300 0.32100 29.64500
C  27.60200 0.18800 32.47800
C  22.86600 0.80500 31.67400
C  23.69100 0.23800 26.83600
C  28.35800 -0.54000 27.66100
N  25.28000 0.43100 31.87000
C  26.26500 0.38900 32.82700
C  25.81700 0.90200 34.23600
C  24.22500 0.81300 34.00200
C  24.10900 0.73300 32.43300
C  23.67000 -0.41100 34.81500
C  26.29200 2.39500 34.69300
C  27.16500 2.45300 35.96800
H  26.78000 3.31000 37.24600
N  23.53800 0.43300 29.33500
C  22.57500 0.67900 30.33300
C  21.24400 0.80300 29.66900
C  21.52200 0.69100 28.26500
C  22.95200 0.39900 28.06500
C  19.97700 1.11700 30.46700
C  20.57200 0.77800 27.16500
O  20.85100 0.63000 25.99700
C  19.13100 1.20400 27.50900
N  26.00100 -0.02600 27.50500
C  25.07200 0.09100 26.54900
C  25.64200 0.07400 25.17300
C  27.15700 -0.24300 25.44200
C  27.17800 -0.24800 26.98700
C  24.91300 -0.90300 24.12900
C  28.07400 0.86600 24.96000
C  29.42800 0.37500 24.30500
N  27.54200 -0.23100 29.93500
C  28.51800 -0.58600 29.06600
C  29.72900 -0.75200 29.70600
C  29.47400 -0.50900 31.03400
C  28.08600 -0.16000 31.20400
C  31.07200 -1.07800 29.02000
C  30.11500 -0.36800 32.28800
O  31.23900 -0.46800 32.68900
C  28.88400 0.05800 33.32500
C  28.82400 -0.94700 34.52400
O  28.11400 -1.92700 34.53800
O  29.54300 -0.44800 35.62100
C  29.24800 -1.09700 36.92800
H  21.95700 1.10300 32.20000
H  23.09600 0.35600 25.92800
H  29.24100 -0.79600 27.07300
H  26.15800 0.15000 34.94800
H  23.76500 1.76200 34.27500
H  24.40500 -1.15700 35.11900
H  22.98100 -0.92300 34.14400
H  23.22200 -0.00100 35.72000
H  25.43300 3.04400 34.86600
H  26.87600 2.86600 33.90200
H  28.14600 2.87300 35.74700
H  27.41500 1.43500 36.26500
H  19.54100 1.93600 29.89400
H  20.01600 1.36200 31.52800
H  19.31100 0.28000 30.25300
H  18.50600 1.04400 26.63100
H  19.27000 2.27400 27.66600
H  18.58400 0.55300 28.19100
H  25.47500 1.07900 24.78500
H  27.48600 -1.24700 25.17300
H  24.18000 -1.52200 24.64700
H  25.59100 -1.56900 23.59600
H  24.21700 -0.43700 23.43200
H  28.34900 1.53700 25.77300
H  27.62500 1.43900 24.14800
H  29.30500 -0.67100 24.02400
H  30.23300 0.63900 24.99200
H  29.63700 0.92600 23.38800
H  31.95100 -0.75600 29.57900
H  31.12500 -0.59700 28.04400
H  31.13800 -2.16500 28.98300
H  29.25400 1.03400 33.63900
H  28.53100 -0.50200 37.49400
H  30.20800 -1.02300 37.43800
H  28.85100 -2.11200 36.88300

