158

Mg 8.60500 4.23400 27.47600
C  9.74900 2.44700 30.57800
C  6.66500 6.16300 29.61600
C  7.62300 5.63900 24.81000
C  10.29600 1.89500 25.60900
N  8.21800 4.10700 29.88100
C  8.78300 3.39100 30.90900
C  8.25600 3.92400 32.27500
C  7.31600 5.09100 31.89300
C  7.38700 5.14200 30.33100
C  5.87800 4.91700 32.42300
C  9.43300 4.35100 33.28000
C  8.94100 5.04700 34.55600
H  10.08700 5.27100 35.52700
N  7.39800 5.79300 27.25300
C  6.62800 6.38200 28.21300
C  5.89000 7.44300 27.54000
C  6.22100 7.38700 26.15700
C  7.03700 6.18900 25.96500
C  5.00500 8.46900 28.29000
C  5.70200 8.34900 24.96000
O  6.04700 8.14600 23.79800
C  4.95400 9.52200 25.32400
N  8.75000 3.73900 25.50800
C  8.31900 4.50400 24.55700
C  8.44800 3.89700 23.11400
C  9.57300 2.82000 23.38800
C  9.56300 2.79400 24.96200
C  7.13900 3.38900 22.45200
C  10.94200 3.15300 22.74800
C  11.90000 2.11600 22.26000
N  9.81100 2.52700 27.90800
C  10.50300 1.76300 26.95900
C  11.30600 0.84700 27.69000
C  11.05700 1.07700 29.08300
C  10.12000 2.11500 29.16100
C  12.30300 -0.22000 27.20400
C  11.43100 0.64900 30.43800
O  12.29200 -0.12700 30.82900
C  10.52800 1.61600 31.45300
C  9.67800 0.79500 32.33700
O  8.94400 -0.07100 32.00100
O  10.20500 0.93000 33.60100
C  9.63800 -0.00900 34.69300
H  6.07500 6.79000 30.28900
H  7.26300 6.23200 23.96700
H  10.86200 1.11100 25.10200
H  7.70800 3.02800 32.56900
H  7.62000 6.06300 32.28200
H  5.14800 4.73800 31.63300
H  5.61300 5.91400 32.77500
H  5.90000 4.13900 33.18500
H  9.95500 5.08200 32.66400
H  10.10600 3.53000 33.53000
H  8.22600 4.37200 35.02600
H  8.57500 6.04900 34.33300
H  4.00200 8.51100 27.86600
H  5.48400 9.44600 28.34600
H  4.65900 8.13500 29.26800
H  5.59000 9.95000 26.09900
H  4.06100 9.16800 25.83900
H  4.82000 10.24700 24.52200
H  8.82300 4.65300 22.42400
H  9.28300 1.78900 23.18700
H  7.23200 2.34900 22.13900
H  6.94200 3.93300 21.52900
H  6.21900 3.52600 23.02000
H  11.48900 3.76600 23.46400
H  10.70600 3.77900 21.88700
H  12.00800 2.19500 21.17800
H  11.63000 1.07800 22.45500
H  12.87500 2.39900 22.65700
H  12.71200 -0.75400 28.06200
H  13.08800 0.26700 26.62500
H  11.81200 -0.95200 26.56300
H  11.19300 2.21100 32.07800
H  9.32100 -0.98700 34.33100
H  8.74700 0.45600 35.11400
H  10.37000 -0.20800 35.47500
Mg 0.20300 43.47100 26.94400
C  2.75400 43.69500 29.34400
C  -2.05800 42.89000 29.36200
C  -2.04000 42.54800 24.61600
C  2.74200 43.74600 24.44200
N  0.35200 43.37000 29.08900
C  1.45800 43.52500 29.85900
C  1.07900 43.45100 31.33700
C  -0.38800 42.94200 31.31600
C  -0.75200 43.10300 29.81900
C  -0.75300 41.56000 31.89500
C  1.29200 44.78100 32.08500
C  1.52100 44.70300 33.64000
H  1.26500 43.31900 34.41800
N  -1.90200 43.14300 27.02400
C  -2.63900 42.96200 28.14400
C  -3.99100 42.64800 27.75900
C  -3.99700 42.50900 26.30300
C  -2.58100 42.68700 25.89800
C  -5.02600 42.34900 28.77400
C  -5.12100 42.18500 25.33700
O  -5.02700 42.10200 24.11000
C  -6.58600 41.96300 25.92200
N  0.31500 43.26700 24.84400
C  -0.72900 42.77000 24.13100
C  -0.28400 42.40000 22.70900
C  0.99700 43.29200 22.58300
C  1.45000 43.40000 24.06100
C  -0.07100 40.85800 22.56200
C  0.77600 44.80300 22.16200
C  1.13300 45.20400 20.70900
N  2.31200 43.74000 26.79300
C  3.20800 43.93600 25.76600
C  4.56800 44.06400 26.22400
C  4.43500 44.00400 27.66300
C  3.06900 43.83700 27.93100
C  5.78500 44.11700 25.34900
C  5.17000 43.98800 28.91600
O  6.41400 43.98400 29.03600
C  4.05500 44.04600 30.06400
C  4.52700 42.97000 31.03300
O  4.75900 41.78100 30.78600
O  4.67200 43.55100 32.26300
C  5.24900 42.78900 33.32400
H  -2.81200 42.66900 30.12000
H  -2.85600 42.24900 23.95400
H  3.49800 43.81200 23.65700
H  1.75000 42.69800 31.75000
H  -1.05100 43.68600 31.75900
H  -1.49400 41.66000 32.68800
H  0.15900 41.12300 32.30000
H  -1.09300 40.79900 31.19200
H  0.39300 45.39600 32.07000
H  2.01900 45.45600 31.63400
H  0.89000 45.46300 34.10000
H  2.52700 45.08500 33.81900
H  -5.81600 43.09900 28.81200
H  -4.68300 42.33900 29.80900
H  -5.38500 41.32500 28.67100
H  -6.61200 41.17800 26.67800
H  -7.15500 41.65800 25.04400
H  -7.06000 42.90800 26.18700
H  -1.09000 42.69500 22.03800
H  1.72700 42.80200 21.93800
H  -0.65400 40.40500 21.76000
H  -0.40800 40.44600 23.51300
H  0.98600 40.62100 22.43500
H  1.34400 45.39100 22.88300
H  -0.24700 45.07000 22.42600
H  0.29800 44.88200 20.08700
H  2.08500 44.73800 20.45300
H  1.30900 46.27900 20.74900
H  5.69000 43.41200 24.52300
H  6.63000 43.96100 26.02000
H  5.83100 45.12100 24.92900
H  4.22500 45.08100 30.36200
H  6.30800 42.55000 33.22900
H  4.57600 41.93400 33.39600
H  5.25300 43.40500 34.22300

