158

Mg 35.95800 49.08500 25.32100
C  36.13500 47.37100 28.41400
C  34.70300 51.77700 26.94300
C  35.27100 50.48800 22.40000
C  37.23900 46.29300 23.77600
N  35.41400 49.45500 27.50700
C  35.70400 48.72700 28.59800
C  35.50800 49.58400 29.88900
C  34.77700 50.88000 29.33800
C  34.99300 50.70300 27.82900
C  33.22400 50.99900 29.68700
C  36.74400 49.83100 30.74300
C  36.69500 49.18600 32.20200
H  35.44600 49.22000 33.05400
N  35.15700 50.99100 24.75600
C  34.61800 51.95500 25.54600
C  34.27600 53.08500 24.70700
C  34.42700 52.62900 23.34600
C  34.98800 51.34100 23.42900
C  33.82800 54.45700 25.14600
C  34.17300 53.36900 21.99700
O  34.57800 53.10500 20.91800
C  33.47100 54.70200 22.08400
N  36.28300 48.56200 23.46700
C  35.98600 49.32700 22.33400
C  36.42600 48.62400 21.01000
C  37.39000 47.56900 21.65500
C  36.94200 47.36300 23.06700
C  35.22300 47.98100 20.27500
C  38.89900 47.77900 21.58000
C  39.70800 47.05900 20.43200
N  36.39800 47.15800 25.89800
C  36.84500 46.07700 25.14900
C  37.19300 44.91200 26.01600
C  36.94000 45.43700 27.31000
C  36.39200 46.72200 27.17400
C  37.72600 43.55200 25.61600
C  36.97000 45.01700 28.72500
O  37.18900 43.90400 29.25200
C  36.39800 46.28400 29.53000
C  35.29500 45.82400 30.40000
O  34.11400 45.90100 30.16400
O  35.80500 45.31400 31.53800
C  34.85700 45.04000 32.60300
H  34.23900 52.63300 27.43700
H  34.91300 50.77000 21.40800
H  37.74200 45.57300 23.12800
H  34.87200 48.95800 30.51400
H  35.35100 51.63400 29.87700
H  32.87600 50.39600 30.52600
H  32.61600 50.68200 28.83900
H  32.96300 52.02200 29.95600
H  36.90700 50.89200 30.93100
H  37.54800 49.35900 30.17800
H  37.52100 49.66600 32.72800
H  36.96200 48.15100 31.98800
H  32.87700 54.80100 24.73800
H  34.69200 55.10700 25.00800
H  33.68800 54.38400 26.22400
H  32.48100 54.44400 22.46200
H  33.31300 55.11500 21.08800
H  33.94400 55.55900 22.56500
H  36.96700 49.20600 20.26300
H  37.22300 46.61700 21.15100
H  34.26600 48.28400 20.69900
H  35.27100 46.89500 20.19800
H  35.32300 48.39000 19.26900
H  39.30000 47.71600 22.59200
H  39.00500 48.81500 21.26000
H  40.41400 47.76900 20.00100
H  38.99200 46.73300 19.67800
H  40.17400 46.22000 20.94900
H  38.31200 43.77300 24.72400
H  36.93900 42.86400 25.30700
H  38.28200 43.15600 26.46600
H  37.22200 46.69900 30.11100
H  34.43100 44.04400 32.47500
H  34.09300 45.80600 32.73400
H  35.42300 45.12600 33.53100
Mg -2.20300 35.18000 26.58400
C  -3.71500 33.33600 29.21600
C  -0.67400 37.14500 28.72200
C  -1.39200 36.94200 23.92200
C  -4.06800 32.96400 24.42100
N  -2.27100 35.24900 28.74700
C  -2.94500 34.43600 29.62500
C  -2.53800 34.80300 31.04500
C  -1.59000 36.05000 30.84300
C  -1.40100 36.11200 29.30500
C  -2.10900 37.39600 31.51000
C  -1.81700 33.59100 31.74600
C  -2.46300 32.86400 32.93500
H  -1.70700 32.89100 34.30700
N  -1.09200 36.77700 26.30700
C  -0.50600 37.48700 27.33500
C  0.21000 38.58100 26.73400
C  0.05900 38.49800 25.36300
C  -0.79200 37.32300 25.13300
C  0.89200 39.59600 27.60800
C  0.65800 39.36200 24.28300
O  0.55400 39.08100 23.09500
C  1.45900 40.58900 24.54400
N  -2.62400 34.96200 24.50500
C  -2.22900 35.89300 23.59400
C  -2.67800 35.60300 22.12900
C  -3.40400 34.21700 22.36400
C  -3.30600 34.00400 23.83800
C  -3.54200 36.70500 21.53900
C  -2.89500 32.96600 21.63000
C  -1.54300 32.35300 22.12000
N  -3.71200 33.51600 26.79400
C  -4.30600 32.74000 25.78400
C  -5.13300 31.69500 26.39100
C  -4.92500 31.93800 27.76000
C  -4.02400 32.98400 27.95100
C  -5.82800 30.65200 25.66100
C  -5.17100 31.38100 29.08800
O  -5.74300 30.36500 29.51000
C  -4.48200 32.37200 30.03400
C  -5.59300 33.02700 30.81300
O  -6.10300 34.10200 30.55600
O  -5.84200 32.29800 31.95100
C  -6.79500 32.93000 32.91200
H  -0.14100 37.71200 29.48800
H  -1.17400 37.57400 23.05800
H  -4.55100 32.24600 23.75600
H  -3.40700 35.13300 31.61500
H  -0.58500 35.82200 31.19900
H  -3.12100 37.27600 31.89900
H  -2.17400 38.13600 30.71300
H  -1.54300 37.73500 32.37700
H  -0.87000 33.93200 32.16300
H  -1.71700 32.68400 31.14900
H  -2.76900 31.84600 32.69300
H  -3.37400 33.45900 33.00600
H  1.17800 39.13800 28.55500
H  0.24900 40.46200 27.76300
H  1.84600 39.95700 27.22300
H  1.50600 41.21100 23.65000
H  2.49700 40.39000 24.80900
H  1.01700 41.20100 25.33000
H  -1.86600 35.55300 21.40300
H  -4.44100 34.34000 22.05300
H  -3.09200 37.10400 20.63000
H  -3.65600 37.45600 22.32100
H  -4.49700 36.26800 21.24800
H  -2.74900 33.32800 20.61200
H  -3.69000 32.22400 21.55800
H  -1.68400 31.27700 22.02000
H  -1.25200 32.62700 23.13400
H  -0.77300 32.68600 21.42400
H  -5.17900 30.14500 24.94700
H  -6.63500 31.16700 25.13800
H  -6.25200 29.93500 26.36300
H  -3.77300 31.80100 30.63400
H  -7.29900 32.17600 33.51700
H  -7.56900 33.49000 32.38600
H  -6.22200 33.54900 33.60200

