158

Mg 48.57600 45.23800 43.35600
C  45.39400 45.60200 41.81000
C  49.13000 42.61800 41.11900
C  51.94600 45.32000 43.90200
C  48.16100 48.47300 44.61700
N  47.39700 44.33300 41.63500
C  46.14800 44.60000 41.20200
C  45.69500 43.65700 40.12300
C  46.74200 42.51800 40.14500
C  47.88700 43.18400 41.02600
C  46.31500 41.15600 40.65900
C  45.47500 44.28400 38.65200
C  44.10100 43.90700 37.98900
H  44.24300 43.18000 36.65900
N  50.23100 43.95200 42.83300
C  50.20700 42.98300 41.94300
C  51.50200 42.28200 41.95200
C  52.36300 43.04100 42.80300
C  51.51700 44.15400 43.27900
C  51.78100 41.06000 41.16100
C  53.84500 42.73000 43.06700
O  54.36600 41.77100 42.52700
C  54.71100 43.63100 43.99100
N  49.87000 46.63500 44.16700
C  51.22200 46.43700 44.40000
C  51.83100 47.58300 45.07100
C  50.59300 48.59100 45.37500
C  49.49400 47.87400 44.63100
C  52.75700 47.37400 46.26000
C  50.84100 50.09400 45.10900
C  51.98700 50.68900 45.85800
N  47.03200 46.67700 43.46600
C  47.00300 47.92600 44.01000
C  45.62800 48.41000 44.04000
C  44.94900 47.51600 43.16300
C  45.84300 46.47400 42.84500
C  45.18300 49.61700 44.82500
C  43.72300 47.23200 42.60100
O  42.68500 47.84200 42.65300
C  43.93100 46.01400 41.67200
C  42.90400 45.03100 42.06800
O  41.77900 44.86700 41.50600
O  43.23600 44.49700 43.34800
C  42.19800 43.85700 44.17500
H  49.18800 41.77500 40.42700
H  52.99800 45.30800 44.19200
H  47.99000 49.49800 44.95400
H  44.74500 43.31400 40.53300
H  47.09600 42.39900 39.12100
H  46.32400 40.38300 39.89100
H  45.25300 41.20200 40.90000
H  46.82200 40.75900 41.53900
H  46.30800 44.26200 37.94900
H  45.42200 45.36000 38.82000
H  43.56800 44.82200 37.73100
H  43.45200 43.28300 38.60400
H  50.94000 40.54400 40.69700
H  52.24200 40.34300 41.83900
H  52.55300 41.35600 40.45100
H  54.25000 43.74000 44.97300
H  54.86800 44.60300 43.52400
H  55.64600 43.08200 44.10400
H  52.42500 47.98400 44.25000
H  50.35300 48.48400 46.43200
H  53.49200 48.17800 46.28900
H  53.48500 46.56400 46.21200
H  52.27700 47.42200 47.23700
H  49.99700 50.75600 45.30400
H  51.02500 50.23100 44.04300
H  51.72200 51.71100 46.12900
H  52.89000 50.92400 45.29400
H  52.32100 50.03600 46.66400
H  45.93500 49.86600 45.57400
H  44.22200 49.37100 45.27500
H  45.09200 50.50900 44.20500
H  43.67900 46.33800 40.66200
H  42.51200 42.83700 44.39500
H  41.20200 43.82200 43.73500
H  42.11100 44.43400 45.09600
Mg -10.49800 17.06100 41.33800
C  -7.11600 16.72900 41.33700
C  -10.23300 20.18900 40.07500
C  -13.83400 17.04100 40.70300
C  -10.66000 13.49900 41.56700
N  -8.84300 18.28400 40.74400
C  -7.51700 17.99600 40.92100
C  -6.68000 19.15200 40.41300
C  -7.71400 20.40200 40.62300
C  -9.04300 19.62100 40.47500
C  -7.64500 21.23800 41.91100
C  -6.23200 18.88100 38.90000
C  -4.66900 18.99200 38.61700
H  -4.07400 17.96600 37.64900
N  -11.92000 18.48200 40.56500
C  -11.58500 19.70000 40.10600
C  -12.71000 20.43100 39.62300
C  -13.83600 19.52500 39.91700
C  -13.20400 18.25300 40.37600
C  -12.68300 21.77500 39.07000
C  -15.31300 19.78100 39.75800
O  -15.75200 20.92600 39.42800
C  -16.48700 18.80400 39.95900
N  -12.05200 15.52600 41.28100
C  -13.36400 15.82600 41.12900
C  -14.28600 14.60100 41.43400
C  -13.27000 13.51500 41.22400
C  -11.87500 14.15600 41.36700
C  -14.99200 14.68700 42.79500
C  -13.47200 12.86900 39.81700
C  -13.56400 11.38100 39.85100
N  -9.14900 15.46200 41.65600
C  -9.37000 14.02200 41.71900
C  -8.06900 13.41500 41.95400
C  -7.13900 14.43900 41.80700
C  -7.87600 15.65000 41.59100
C  -7.87200 11.89600 42.02100
C  -5.67300 14.76100 41.71100
O  -4.72400 14.04800 41.91600
C  -5.65700 16.29700 41.34100
C  -4.84800 16.95200 42.36900
O  -3.63100 17.01800 42.35200
O  -5.62800 17.38300 43.46100
C  -4.76000 17.76600 44.65200
H  -10.14600 21.13900 39.54200
H  -14.91900 16.97600 40.59900
H  -10.76000 12.41200 41.56900
H  -5.86700 19.37000 41.10600
H  -7.73600 20.94700 39.67900
H  -6.85300 20.94200 42.60000
H  -8.60000 21.26300 42.43400
H  -7.40100 22.26100 41.62300
H  -6.72400 19.63100 38.28200
H  -6.63100 17.92200 38.56800
H  -4.10000 18.88900 39.54000
H  -4.37500 19.97400 38.24800
H  -13.52200 21.86300 38.37900
H  -11.80300 21.84600 38.43100
H  -12.64300 22.53300 39.85200
H  -16.30200 18.07400 39.17200
H  -17.48000 19.23300 39.82100
H  -16.46000 18.27200 40.91000
H  -15.07000 14.54900 40.67800
H  -13.43300 12.82600 42.05300
H  -14.46300 15.38300 43.44500
H  -15.23600 13.77100 43.33300
H  -15.94100 15.15100 42.52500
H  -12.60600 13.19000 39.23800
H  -14.30700 13.33400 39.29200
H  -12.73100 10.85200 39.38700
H  -14.50200 11.07200 39.39000
H  -13.74200 10.97300 40.84500
H  -8.60900 11.39100 42.64700
H  -6.86300 11.59800 42.30600
H  -7.99000 11.52600 41.00300
H  -5.23100 16.51900 40.36200
H  -5.40800 18.18700 45.42100
H  -4.05900 18.53600 44.32900
H  -4.23000 16.95700 45.15500

