158

Mg 40.96500 9.27100 30.05100
C  42.62300 10.42000 32.95600
C  38.67300 7.92500 32.29200
C  39.46900 7.86800 27.48000
C  43.61800 10.40100 28.12400
N  40.73300 9.16500 32.41200
C  41.45900 9.83600 33.32100
C  40.73600 9.82700 34.66600
C  39.62600 8.83200 34.53000
C  39.60000 8.66100 33.00300
C  39.78800 7.43300 35.28300
C  40.34100 11.26000 35.33400
C  39.92300 11.13300 36.82100
H  40.54800 12.00400 37.85700
N  39.39700 7.98000 29.89700
C  38.61100 7.52500 30.92000
C  37.45500 6.75200 30.40900
C  37.52800 6.89400 29.03900
C  38.86500 7.53100 28.73100
C  36.37000 6.21300 31.16300
C  36.53800 6.60600 27.97500
O  36.75200 6.69100 26.81100
C  35.14000 6.00800 28.37100
N  41.56000 9.01900 28.13700
C  40.71900 8.45200 27.22500
C  41.14200 8.70200 25.75100
C  42.41500 9.56300 26.02000
C  42.51000 9.73400 27.54600
C  41.49600 7.39700 24.97000
C  42.29500 11.00600 25.32200
C  43.51600 11.26900 24.42400
N  42.84300 10.14700 30.43600
C  43.72200 10.59500 29.48800
C  44.91000 11.03400 30.22500
C  44.43800 11.10500 31.58600
C  43.16300 10.51300 31.66100
C  46.18000 11.57700 29.60200
C  44.72500 11.57300 32.88400
O  45.68400 12.21200 33.30100
C  43.63400 11.07100 33.87400
C  44.14100 10.04000 34.91800
O  44.69000 8.96500 34.66500
O  43.83100 10.44400 36.23500
C  44.24600 9.52900 37.28300
H  37.80700 7.68900 32.91500
H  39.01700 7.41400 26.59500
H  44.41900 10.79400 27.49500
H  41.49400 9.46200 35.36000
H  38.71100 9.17200 35.01600
H  40.74500 7.33500 35.79600
H  39.56500 6.64900 34.56000
H  39.01700 7.53400 36.04700
H  39.53900 11.82200 34.85500
H  41.27700 11.79700 35.18400
H  40.01700 10.08300 37.09800
H  38.84700 11.25800 36.94000
H  36.50400 6.24900 32.24400
H  36.24300 5.18000 30.83900
H  35.45300 6.76400 30.95500
H  34.70000 6.69900 29.09000
H  35.19400 5.04900 28.88800
H  34.45000 5.97500 27.52800
H  40.38700 9.26100 25.19900
H  43.27000 9.00100 25.64400
H  40.68400 7.11400 24.30000
H  41.48900 6.71000 25.81600
H  42.45100 7.37700 24.44600
H  42.33000 11.72800 26.13800
H  41.29800 11.00500 24.88200
H  43.86500 10.27800 24.13300
H  44.22000 11.89100 24.97700
H  43.31900 11.82900 23.50900
H  45.93000 12.39400 28.92600
H  46.74900 10.79500 29.09800
H  46.69800 12.06200 30.42900
H  43.27400 12.00900 34.29800
H  44.33300 8.46900 37.04600
H  43.59000 9.65900 38.14400
H  45.19300 9.88900 37.68500
Mg 47.70600 16.29000 29.12500
C  45.75900 15.72500 31.96900
C  49.83700 18.06700 31.26900
C  49.41900 17.50900 26.39300
C  45.31000 14.96300 27.11600
N  47.68500 16.93500 31.33400
C  46.92500 16.45000 32.30600
C  47.29200 16.88100 33.79200
C  48.38800 17.90900 33.44000
C  48.69500 17.59000 31.90700
C  47.77200 19.38100 33.52100
C  47.87100 15.70300 34.64500
C  47.98500 15.84900 36.20600
H  47.65000 17.21600 36.98800
N  49.37900 17.50600 28.90000
C  50.14900 18.10100 29.90400
C  51.36000 18.69600 29.33500
C  51.24600 18.53900 27.88600
C  49.95000 17.85200 27.67600
C  52.50800 19.37600 30.20200
C  52.30000 19.08300 26.87000
O  52.06500 19.11400 25.68000
C  53.48900 19.79100 27.32100
N  47.42000 16.25000 27.07700
C  48.21200 16.83500 26.11700
C  47.73300 16.67300 24.64700
C  46.55100 15.69100 24.89000
C  46.43200 15.53200 26.46400
C  47.38800 18.07200 23.97500
C  46.54300 14.31700 24.12500
C  45.58000 14.00800 22.92500
N  45.87500 15.52700 29.37700
C  44.96400 14.92800 28.55800
C  43.82900 14.35200 29.28600
C  44.16100 14.60400 30.60500
C  45.35800 15.32200 30.62600
C  42.61100 13.67000 28.68900
C  43.60300 14.52100 31.94800
O  42.61100 13.99900 32.43700
C  44.63800 15.21800 32.92400
C  43.93500 16.36400 33.48200
O  43.37700 17.19500 32.82200
O  43.98300 16.32700 34.88900
C  43.49000 17.57800 35.48100
H  50.58800 18.55300 31.89500
H  49.92800 17.85600 25.49200
H  44.60900 14.52000 26.40600
H  46.48300 17.27200 34.41000
H  49.20100 17.85000 34.16400
H  48.63200 20.05100 33.50900
H  47.34500 19.54200 34.51000
H  47.07400 19.58700 32.70900
H  48.85800 15.59400 34.19400
H  47.26300 14.85200 34.33800
H  49.05500 15.69900 36.35100
H  47.42700 15.18400 36.86500
H  52.51000 18.98700 31.22000
H  52.51900 20.46100 30.09600
H  53.47500 19.02300 29.84400
H  53.23900 20.68000 27.90000
H  54.07200 20.26400 26.53200
H  54.13700 19.05800 27.80100
H  48.40600 16.04400 24.06400
H  45.66000 16.26700 24.64100
H  47.97400 18.81300 24.51800
H  46.34800 18.37600 24.09100
H  47.70100 18.22500 22.94200
H  46.39200 13.55000 24.88500
H  47.48100 14.30900 23.57000
H  46.13300 13.71200 22.03300
H  44.88400 14.83600 22.79000
H  44.98100 13.16100 23.25800
H  42.26200 13.11200 29.55800
H  42.97500 12.96400 27.94300
H  41.88800 14.37800 28.28300
H  44.79900 14.49900 33.72800
H  42.40200 17.52900 35.52200
H  43.81300 18.48300 34.96800
H  43.79900 17.65100 36.52400

