158

Mg 40.60500 8.77400 30.31600
C  42.88100 10.20900 32.67400
C  38.61600 8.05600 32.94000
C  38.41800 7.80000 28.09900
C  42.94700 9.56000 27.90300
N  40.77600 9.02600 32.62600
C  41.71800 9.72800 33.30800
C  41.39500 9.78300 34.82000
C  40.04200 8.99400 34.85800
C  39.78700 8.68100 33.41800
C  39.97100 7.79500 35.86900
C  41.40600 11.27300 35.39600
C  40.51200 11.62300 36.57500
H  40.96100 12.67300 37.62000
N  38.83600 7.88100 30.49800
C  38.13800 7.66400 31.62900
C  36.83900 7.11800 31.37000
C  36.72000 7.07900 29.93200
C  37.94900 7.57000 29.45000
C  35.85500 6.81900 32.47400
C  35.54700 6.67200 29.03000
O  35.69000 6.54500 27.80000
C  34.19900 6.50700 29.54800
N  40.76700 8.45300 28.28100
C  39.66400 8.20100 27.56400
C  40.06100 8.20400 25.99800
C  41.43400 8.93300 25.99200
C  41.73300 9.00600 27.51300
C  39.92700 6.77800 25.30500
C  41.45100 10.24100 25.24500
C  40.47500 11.36600 25.64600
N  42.61300 9.49800 30.24900
C  43.31400 9.86300 29.18000
C  44.54100 10.45100 29.60100
C  44.36800 10.70700 30.94900
C  43.17700 10.06100 31.31900
C  45.66800 10.85600 28.68200
C  44.94400 11.41100 32.02100
O  45.96300 12.04400 32.01900
C  44.04600 11.02500 33.33400
C  44.90700 10.16500 34.12700
O  45.27600 9.03300 33.83000
O  45.11600 10.81200 35.32700
C  45.79400 9.91400 36.34200
H  37.93600 7.83400 33.76500
H  37.73200 7.60400 27.27200
H  43.73600 9.89900 27.22800
H  42.12800 9.11400 35.27100
H  39.34100 9.75500 35.20100
H  40.88000 7.58900 36.43300
H  39.76200 6.80600 35.45900
H  39.22600 8.04300 36.62500
H  41.24200 11.90800 34.52600
H  42.40500 11.52400 35.75400
H  40.36200 10.67300 37.09000
H  39.62900 12.02900 36.08100
H  34.95200 7.40100 32.29200
H  36.18900 6.95200 33.50300
H  35.57500 5.76800 32.41100
H  33.72400 7.41400 29.91900
H  34.07300 5.77400 30.34500
H  33.60500 6.04500 28.75800
H  39.41200 8.95400 25.54700
H  42.20900 8.34500 25.50000
H  39.04200 6.62200 24.68800
H  40.14600 5.93100 25.95600
H  40.74800 6.67300 24.59600
H  41.32300 10.06600 24.17700
H  42.44000 10.61200 25.51100
H  40.98600 12.32300 25.54400
H  40.15600 11.20900 26.67700
H  39.63500 11.43200 24.95500
H  45.38500 10.77300 27.63300
H  46.49400 10.18000 28.90700
H  45.94900 11.89100 28.87700
H  43.74600 11.96000 33.80700
H  45.13000 9.62700 37.15800
H  46.53200 10.59500 36.76600
H  46.21400 8.96600 36.00500
Mg 27.58800 56.39200 40.30500
C  25.41000 53.84900 39.79200
C  30.18900 54.26600 39.56200
C  29.71400 59.09600 40.31400
C  24.94300 58.48700 40.92500
N  27.69400 54.36000 39.57700
C  26.71500 53.44100 39.48000
C  27.15800 52.12400 38.96400
C  28.72500 52.20800 39.16400
C  28.89200 53.72500 39.48100
C  29.16500 51.31000 40.34000
C  26.70300 51.80300 37.46800
C  27.30400 52.60900 36.36100
H  26.40200 53.64100 35.57800
N  29.65700 56.60100 39.84400
C  30.56000 55.61300 39.74300
C  31.88800 56.24300 39.68600
C  31.73300 57.61600 39.83900
C  30.29800 57.85800 40.00900
C  33.14600 55.45200 39.41900
C  32.92200 58.57800 39.78300
O  34.00800 58.24300 39.33500
C  32.66200 59.95400 40.18200
N  27.33200 58.54800 40.35900
C  28.35500 59.46100 40.49400
C  27.73700 60.82300 41.03700
C  26.20800 60.63700 40.87700
C  26.14400 59.11900 40.74500
C  28.19600 61.07400 42.46900
C  25.46300 61.36500 39.77700
C  24.75000 62.60800 40.25000
N  25.58500 56.22400 40.43200
C  24.62900 57.11200 40.79700
C  23.35000 56.47900 40.96400
C  23.56500 55.19100 40.47300
C  24.93400 55.12400 40.13500
C  22.04700 57.03100 41.49100
C  22.94700 53.94100 40.14100
O  21.77900 53.62600 40.19000
C  24.12300 52.99300 39.67400
C  24.14500 51.62900 40.35600
O  23.65400 50.59900 39.88000
O  24.74700 51.69800 41.59400
C  24.70200 50.39500 42.32800
H  30.96500 53.52300 39.36400
H  30.25800 60.03900 40.40300
H  24.11500 59.11100 41.26900
H  26.59600 51.45200 39.61200
H  29.26600 51.88400 38.27500
H  29.48000 50.32500 39.99700
H  28.33000 51.35600 41.04000
H  30.08100 51.73400 40.75200
H  25.61400 51.75600 37.42800
H  26.92100 50.77800 37.17000
H  27.82200 52.05300 35.58100
H  28.14700 53.18200 36.74800
H  33.03900 54.36800 39.46800
H  33.98800 55.54000 40.10500
H  33.58400 55.62000 38.43500
H  32.32700 60.10800 41.20800
H  32.10300 60.33900 39.33000
H  33.56400 60.55100 40.04200
H  28.02400 61.65900 40.39900
H  25.80500 60.72400 41.88600
H  27.59400 61.76000 43.06600
H  29.25200 61.33700 42.40800
H  28.13300 60.09400 42.94200
H  24.80800 60.73300 39.17800
H  26.17600 61.76700 39.05800
H  24.90600 62.80200 41.31100
H  23.68000 62.55800 40.04900
H  25.13100 63.51200 39.77400
H  21.33500 57.27800 40.70400
H  22.18500 57.86000 42.18600
H  21.57200 56.22800 42.05400
H  24.07200 52.64300 38.64300
H  23.77100 50.24800 42.87600
H  25.53800 50.46100 43.02400
H  24.96900 49.56000 41.68100

