158

Mg 47.91000 15.99600 28.59600
C  45.51100 15.95900 31.11400
C  49.78400 17.83900 30.74300
C  49.82300 16.62300 26.05900
C  45.23600 14.96500 26.43200
N  47.75800 16.74600 30.73600
C  46.63500 16.62600 31.51200
C  46.90400 17.03600 32.97000
C  48.26100 17.80900 32.82900
C  48.65100 17.44400 31.37000
C  48.29400 19.40000 33.01900
C  46.98500 15.90900 34.05300
C  46.14700 16.12700 35.30700
H  46.11900 17.43300 36.17000
N  49.66500 16.81900 28.54200
C  50.21600 17.56500 29.49300
C  51.47700 18.05500 28.94600
C  51.60100 17.66300 27.57600
C  50.30600 16.99500 27.32200
C  52.45900 18.93300 29.82500
C  52.63200 18.04600 26.60600
O  52.60000 17.87400 25.41200
C  53.87800 18.81200 27.04800
N  47.60000 15.85700 26.49900
C  48.62100 16.06600 25.64600
C  48.12500 15.88500 24.14500
C  46.63300 15.36100 24.29800
C  46.51200 15.28700 25.78000
C  48.19000 17.18100 23.23200
C  46.43700 14.00100 23.59200
C  45.39400 13.82200 22.46200
N  45.85600 15.41500 28.70300
C  44.92600 14.98700 27.79300
C  43.62600 14.62100 28.37500
C  43.81800 14.97900 29.73100
C  45.15800 15.42200 29.84700
C  42.49300 13.94900 27.72300
C  43.11600 15.13500 30.99000
O  41.96700 15.04500 31.25500
C  44.18800 15.65900 31.96200
C  43.72900 16.93900 32.49100
O  43.72300 18.01100 31.92700
O  43.09400 16.77400 33.65500
C  42.60000 17.92200 34.43500
H  50.25200 18.47200 31.50000
H  50.48500 16.92500 25.24500
H  44.49400 14.63600 25.70100
H  46.14100 17.73900 33.30500
H  49.05500 17.42300 33.46800
H  48.19000 19.88900 32.05000
H  49.23000 19.72800 33.47000
H  47.49800 19.65000 33.72100
H  47.99900 15.72200 34.40500
H  46.50700 15.05300 33.57500
H  46.46500 15.38200 36.03700
H  45.07600 15.98300 35.16000
H  52.72000 19.84600 29.28900
H  53.44600 18.47400 29.89100
H  52.11300 19.26500 30.80400
H  54.28400 18.24600 27.88700
H  53.47200 19.78400 27.32800
H  54.56700 18.89200 26.20700
H  48.69500 15.12900 23.60500
H  45.90900 15.96200 23.74700
H  48.94700 16.96200 22.47900
H  48.60300 18.06500 23.71700
H  47.26300 17.49200 22.75100
H  46.27100 13.27800 24.39000
H  47.32300 13.56000 23.13400
H  46.00100 13.70500 21.56400
H  44.75500 14.70500 22.44600
H  44.83000 12.90500 22.63500
H  42.62000 12.89400 27.47900
H  42.29400 14.43300 26.76700
H  41.59900 14.24800 28.26900
H  44.40600 14.85000 32.65900
H  43.44000 18.46800 34.86300
H  41.96500 17.51700 35.22400
H  42.14700 18.67400 33.78800
Mg 36.43800 49.77400 24.61300
C  36.99300 48.32900 27.57100
C  34.95500 52.55900 26.25900
C  35.56000 51.09500 21.58400
C  37.55700 46.94300 22.91400
N  36.15000 50.39500 26.71600
C  36.36600 49.61400 27.79800
C  35.99300 50.29600 29.10700
C  35.05400 51.42900 28.60500
C  35.42300 51.51600 27.10100
C  33.52300 51.26400 29.06200
C  37.19000 50.76200 29.96600
C  37.31900 50.23900 31.41500
H  36.06800 50.12300 32.21400
N  35.58600 51.65400 24.01400
C  35.03600 52.65400 24.82900
C  34.55300 53.75400 24.01200
C  34.56700 53.29000 22.63600
C  35.33300 51.98200 22.68600
C  34.01100 55.05100 24.58400
C  34.01400 53.92300 21.34500
O  34.04200 53.28500 20.25300
C  33.51500 55.37300 21.49100
N  36.50500 49.08400 22.55100
C  36.11700 49.81600 21.53200
C  36.34900 49.10400 20.08600
C  37.11500 47.85100 20.48600
C  37.01500 47.90600 22.12600
C  35.02700 48.89600 19.36100
C  38.60800 47.65200 19.98900
C  39.61600 48.77200 20.39500
N  37.04100 47.98300 25.11200
C  37.55100 46.94600 24.33700
C  37.95800 45.83200 25.15400
C  37.72800 46.34700 26.52600
C  37.19700 47.65800 26.39600
C  38.33800 44.42400 24.70800
C  37.88000 45.98000 27.90000
O  38.14100 44.90500 28.46700
C  37.43000 47.30600 28.64200
C  36.29600 46.79700 29.54400
O  35.11300 46.72400 29.28300
O  36.87500 46.37800 30.77500
C  35.94300 45.78200 31.70900
H  34.55400 53.42000 26.79900
H  35.15500 51.40600 20.61900
H  37.81400 46.01000 22.40800
H  35.43500 49.50900 29.61400
H  35.33700 52.39300 29.02900
H  33.30300 52.24700 29.47800
H  33.35700 50.45800 29.77600
H  32.88200 51.06600 28.20300
H  37.23400 51.84500 30.08500
H  38.09200 50.48500 29.42000
H  38.08000 50.82000 31.93800
H  37.70600 49.22000 31.42900
H  34.61800 55.88200 24.22500
H  34.07600 55.01900 25.67100
H  32.96300 55.09500 24.28800
H  32.68700 55.32800 22.20000
H  33.24200 55.80600 20.52900
H  34.31000 56.00800 21.88300
H  36.93200 49.84600 19.53900
H  36.57900 46.98500 20.09800
H  34.15100 49.10800 19.97400
H  35.00400 47.83800 19.09900
H  34.81000 49.42600 18.43400
H  38.58800 47.62000 18.89900
H  38.91800 46.62700 20.19200
H  39.07300 49.59600 20.85900
H  40.10600 49.12000 19.48600
H  40.21500 48.48600 21.26000
H  38.41000 44.28400 23.63000
H  37.72000 43.65300 25.16900
H  39.39800 44.34800 24.94700
H  38.22700 47.50700 29.35800
H  35.09100 46.46200 31.72600
H  36.38700 45.65600 32.69600
H  35.60200 44.80700 31.36200

