158

Mg -1.24200 17.84000 26.21700
C  -1.53800 15.46500 28.92500
C  -1.76600 20.26200 28.70200
C  -1.63900 20.09800 23.80700
C  -1.56000 15.18800 23.99100
N  -1.66900 17.85600 28.58100
C  -1.51400 16.76600 29.44500
C  -1.84400 17.23600 30.88800
C  -2.23800 18.77400 30.73800
C  -1.77900 19.03600 29.26000
C  -3.74400 19.12600 30.96900
C  -0.69600 16.83700 31.95200
C  -0.71700 17.58700 33.28200
H  -0.55400 16.96900 34.61600
N  -1.45700 19.88300 26.23600
C  -1.69700 20.71700 27.36700
C  -1.97700 22.07900 26.98300
C  -1.84000 22.09200 25.53100
C  -1.59900 20.63600 25.09000
C  -2.36400 23.12400 28.00500
C  -1.97400 23.11000 24.51900
O  -1.81000 22.99800 23.28000
C  -2.20400 24.52400 25.06600
N  -1.79900 17.70200 24.19500
C  -1.68000 18.75900 23.37700
C  -1.66200 18.30700 21.88200
C  -1.45000 16.75600 21.93400
C  -1.65100 16.48900 23.43800
C  -2.84400 18.81900 21.03800
C  -0.12300 16.14200 21.38200
C  -0.14800 15.34800 20.06700
N  -1.43500 15.81400 26.35500
C  -1.47700 14.85500 25.32900
C  -1.45200 13.50100 25.92300
C  -1.57300 13.75200 27.29200
C  -1.44200 15.13400 27.53500
C  -1.50500 12.17000 25.22800
C  -1.68400 13.03700 28.55600
O  -1.75400 11.84800 28.83600
C  -1.67400 14.13300 29.65200
C  -0.64600 13.72600 30.58300
O  0.57000 13.85300 30.52400
O  -1.33300 13.41900 31.74100
C  -0.41200 12.86300 32.76700
H  -1.94000 20.90800 29.56500
H  -1.62400 20.80200 22.97300
H  -1.34800 14.35800 23.31300
H  -2.66200 16.60500 31.23700
H  -1.69300 19.30900 31.51500
H  -4.04900 19.68500 30.08400
H  -3.87500 19.72500 31.87100
H  -4.34400 18.22600 31.10200
H  0.26600 16.84800 31.43800
H  -0.95500 15.79000 32.11300
H  -1.67100 18.10700 33.37300
H  0.05900 18.33200 33.10500
H  -3.11900 23.74400 27.52200
H  -1.50200 23.76500 28.19000
H  -2.70300 22.71700 28.95700
H  -2.01100 25.29700 24.32100
H  -1.43200 24.59800 25.83200
H  -3.24300 24.45900 25.39000
H  -0.79800 18.82800 21.46800
H  -2.29600 16.21100 21.51400
H  -2.61000 19.48900 20.21000
H  -3.55700 19.33000 21.68500
H  -3.32200 17.92400 20.63800
H  0.31900 15.48000 22.12600
H  0.64900 16.90100 21.26400
H  0.62000 15.71000 19.38400
H  -1.00700 15.62100 19.45500
H  0.00800 14.28100 20.23000
H  -0.98000 12.14100 24.27300
H  -2.58500 12.06600 25.12600
H  -0.93800 11.40300 25.75500
H  -2.65900 14.16100 30.11800
H  0.30500 12.16100 32.34000
H  -1.06200 12.33200 33.46200
H  0.26200 13.56700 33.25500
Mg 23.49900 -7.38800 46.57200
C  26.10900 -5.21800 45.53100
C  21.45100 -5.78900 44.43700
C  21.41200 -10.04800 46.78000
C  26.00000 -9.22200 48.35800
N  23.89400 -5.78900 45.04300
C  24.89700 -4.89400 44.96900
C  24.59800 -3.81300 43.91700
C  23.05200 -3.87100 43.84800
C  22.73700 -5.25000 44.44400
C  22.36100 -2.70100 44.74700
C  25.35500 -4.14200 42.50000
C  26.11100 -2.96600 41.94400
H  25.78100 -2.64100 40.52200
N  21.62700 -7.85400 45.82600
C  20.90900 -6.93200 45.06800
C  19.58600 -7.59200 44.94500
C  19.70900 -8.95600 45.36000
C  20.92800 -9.02500 45.97700
C  18.40400 -6.93200 44.37800
C  18.70900 -9.93900 45.08300
O  17.70000 -9.78000 44.39100
C  18.87000 -11.40500 45.52100
N  23.69700 -9.34200 47.40300
C  22.67200 -10.19200 47.42900
C  23.05000 -11.57400 48.11300
C  24.45200 -11.29400 48.70100
C  24.71400 -9.81800 48.15100
C  22.10100 -12.11400 49.20600
C  25.54100 -12.29100 48.34500
C  25.74000 -13.39400 49.42800
N  25.56600 -7.20300 47.04500
C  26.40900 -8.00500 47.80000
C  27.77900 -7.42300 47.81600
C  27.69300 -6.36400 46.86500
C  26.34500 -6.31200 46.44100
C  28.99000 -8.06100 48.45800
C  28.39200 -5.26100 46.32200
O  29.54900 -4.87300 46.51400
C  27.40800 -4.52900 45.33300
C  27.37400 -3.08800 45.74200
O  26.78700 -2.74300 46.78200
O  27.97500 -2.21600 44.82700
C  28.01600 -0.78800 45.33800
H  20.69400 -5.20000 43.91500
H  20.82500 -10.93300 47.03600
H  26.72800 -9.68700 49.02500
H  24.94400 -2.85200 44.29700
H  22.56800 -3.76100 42.87800
H  21.86800 -3.19300 45.58500
H  21.63500 -2.15400 44.14600
H  23.08900 -2.09000 45.28100
H  24.52200 -4.28600 41.81200
H  25.97100 -5.03300 42.62100
H  27.17500 -3.20100 41.98900
H  26.02100 -2.14800 42.65800
H  18.82100 -5.93800 44.21700
H  17.58000 -6.88500 45.08900
H  18.02700 -7.27900 43.41600
H  18.71800 -11.49000 46.59700
H  19.82500 -11.81800 45.19500
H  18.16000 -11.99100 44.93700
H  23.00100 -12.30400 47.30400
H  24.45100 -11.18100 49.78500
H  22.67400 -12.24900 50.12400
H  21.73000 -13.08000 48.86400
H  21.34200 -11.37900 49.47700
H  26.47400 -11.75300 48.18100
H  25.40400 -12.87200 47.43300
H  25.03700 -13.24600 50.24800
H  26.76700 -13.37700 49.79200
H  25.74700 -14.43500 49.10400
H  29.83700 -7.37900 48.52800
H  29.29500 -8.98500 47.96600
H  28.73400 -8.35600 49.47600
H  27.84500 -4.53100 44.33500
H  28.90000 -0.64400 45.95800
H  27.07700 -0.50400 45.81300
H  28.11900 -0.04200 44.55100

