158

Mg 53.60500 24.19700 44.92900
C  51.35600 26.59200 44.03600
C  51.82100 21.87900 43.14500
C  56.19300 22.02800 45.12400
C  55.65900 26.66300 46.31100
N  51.97900 24.30100 43.48900
C  51.10600 25.36200 43.37600
C  49.87100 25.02200 42.59600
C  49.91500 23.42500 42.59800
C  51.31200 23.15800 43.19100
C  48.79100 22.70800 43.48500
C  49.85200 25.56300 41.13300
C  51.20600 26.01100 40.45400
H  51.96000 24.98300 39.61400
N  53.94900 22.15900 44.34600
C  53.00700 21.37900 43.68000
C  53.53600 20.02300 43.74600
C  54.81500 20.14100 44.41700
C  55.01700 21.44600 44.65600
C  52.79700 18.75000 43.25100
C  55.63100 18.93600 44.84300
O  55.43000 17.84200 44.34400
C  56.71000 18.95600 45.92900
N  55.68500 24.34100 45.40100
C  56.55500 23.29300 45.48800
C  57.92600 23.68300 46.04100
C  57.61600 25.07300 46.66200
C  56.20100 25.38000 46.10900
C  58.58400 22.74100 47.07200
C  58.59900 26.21200 46.34500
C  58.48900 26.89500 44.98500
N  53.52400 26.19500 45.20100
C  54.30600 27.03600 45.89800
C  53.65700 28.30500 46.18200
C  52.43900 28.10500 45.51800
C  52.42200 26.88700 44.89000
C  53.99000 29.40900 47.06600
C  51.18500 28.70800 45.23400
O  50.68800 29.78800 45.51500
C  50.37200 27.75000 44.24000
C  50.07000 28.53500 42.99100
O  50.79600 28.72900 42.06900
O  48.75800 28.62800 42.98100
C  48.09100 28.96100 41.72500
H  51.12300 21.15200 42.72600
H  56.93400 21.25300 45.32900
H  56.20700 27.35900 46.95000
H  49.01900 25.36500 43.18200
H  49.77200 22.96600 41.62000
H  48.86400 23.15700 44.47600
H  48.94200 21.62900 43.46400
H  47.74500 22.84000 43.20900
H  49.26900 26.47900 41.03300
H  49.29100 24.85100 40.52800
H  51.94600 26.30300 41.19900
H  51.15900 26.87500 39.79100
H  52.13900 18.94700 42.40500
H  52.14900 18.37100 44.04100
H  53.54500 18.06100 42.85800
H  56.80700 17.98300 46.41200
H  56.23900 19.63400 46.64000
H  57.60200 19.21700 45.35900
H  58.65600 23.78000 45.23700
H  57.41100 25.09400 47.73300
H  59.59200 22.43800 46.79100
H  57.99100 21.83600 47.21000
H  58.71600 23.21600 48.04300
H  59.58300 25.90500 46.70000
H  58.42100 27.00900 47.06600
H  58.01400 26.18900 44.30300
H  59.50800 27.14500 44.68900
H  57.82300 27.75600 44.92200
H  54.09600 29.18400 48.12700
H  53.24400 30.20300 47.08700
H  54.91800 29.85200 46.70400
H  49.47600 27.46200 44.79000
H  47.51000 29.86600 41.90400
H  47.50600 28.05500 41.56600
H  48.76000 29.23200 40.90800
Mg 7.30600 54.10100 41.69300
C  6.73800 50.66800 40.99600
C  10.46900 53.81700 40.19700
C  7.52000 57.46700 41.41700
C  3.99600 54.28100 42.70800
N  8.34600 52.48400 40.47900
C  7.90100 51.18900 40.45500
C  8.96800 50.41200 39.69400
C  10.29300 51.24200 39.88400
C  9.70400 52.62500 40.18900
C  11.28900 50.72200 40.94900
C  8.51200 50.17900 38.20200
C  8.71300 48.76000 37.56600
H  7.98200 48.36500 36.28500
N  8.81800 55.48300 41.00600
C  10.12000 55.15000 40.55200
C  10.86200 56.31500 40.24700
C  10.03800 57.43400 40.67100
C  8.68900 56.85700 41.01900
C  12.27000 56.31000 39.58000
C  10.40800 58.90500 40.72000
O  11.54400 59.19800 40.38200
C  9.55300 59.99900 41.29200
N  5.94000 55.60800 41.87400
C  6.26400 56.95200 41.77700
C  5.24700 57.86000 42.49800
C  4.01100 56.84100 42.67400
C  4.65800 55.49400 42.38600
C  5.80200 58.41000 43.82000
C  2.91800 57.23300 41.66500
C  2.15100 58.50300 42.11300
N  5.74800 52.77000 41.96300
C  4.47400 53.02200 42.47500
C  3.75200 51.79500 42.71000
C  4.62000 50.83200 42.14000
C  5.70100 51.49000 41.61000
C  2.37000 51.76500 43.40600
C  4.70900 49.41300 41.88700
O  3.96300 48.43100 42.15600
C  6.06200 49.27100 40.97200
C  5.68200 48.58600 39.71600
O  5.31300 49.17700 38.70700
O  5.74800 47.22900 39.86700
C  5.37700 46.29900 38.81400
H  11.52300 53.68000 39.94400
H  7.67100 58.54800 41.38300
H  3.04500 54.56700 43.16200
H  9.08200 49.42400 40.14200
H  10.92000 51.24000 38.99300
H  10.87000 49.84300 41.43700
H  11.54000 51.52100 41.64700
H  12.23300 50.49600 40.45200
H  9.02500 50.98300 37.67300
H  7.47000 50.45900 38.05100
H  8.43300 47.96500 38.25600
H  9.73200 48.63300 37.19900
H  12.88600 57.18100 39.80200
H  12.22600 56.09000 38.51300
H  12.80100 55.54600 40.14800
H  9.24400 59.76600 42.31100
H  8.66600 60.14200 40.67500
H  10.17200 60.89300 41.36400
H  4.95700 58.72000 41.89500
H  3.57600 56.91500 43.67100
H  5.10300 58.42800 44.65600
H  5.94100 59.47500 43.63400
H  6.79300 57.97300 43.93900
H  2.35100 56.39400 41.26000
H  3.43100 57.48700 40.73800
H  2.32200 59.37500 41.48200
H  2.42600 58.75900 43.13600
H  1.06300 58.43100 42.08900
H  2.52100 52.30600 44.34000
H  2.14800 50.72500 43.64900
H  1.57300 52.15900 42.77600
H  6.77600 48.59000 41.43500
H  5.83400 45.33800 39.05300
H  5.77300 46.57200 37.83600
H  4.30300 46.11700 38.77400

