158

Mg 55.28900 23.21500 45.10000
C  53.11600 25.90400 44.16400
C  53.12800 21.08400 43.68500
C  57.77100 21.10500 44.92900
C  57.62800 25.92800 46.03100
N  53.42400 23.59400 43.91400
C  52.69300 24.68700 43.68500
C  51.32900 24.37300 42.99000
C  51.23000 22.82600 43.26300
C  52.69400 22.42800 43.65800
C  50.08700 22.41400 44.26600
C  51.25900 24.65900 41.49600
C  49.85800 25.17600 41.03200
H  49.32200 24.47300 39.86900
N  55.44700 21.22900 44.46000
C  54.40200 20.54300 43.95400
C  54.84000 19.21400 43.65200
C  56.23900 19.11000 44.17100
C  56.55000 20.51300 44.54200
C  54.07700 18.05800 43.16500
C  57.10200 17.86900 44.02700
O  56.69400 16.83000 43.44200
C  58.35400 17.86800 44.72100
N  57.37300 23.52400 45.25200
C  58.17300 22.37100 45.26100
C  59.64000 22.73300 45.37700
C  59.58200 24.16700 45.98200
C  58.09900 24.61900 45.66600
C  60.61000 21.75900 46.24600
C  60.72400 25.12100 45.62100
C  61.40600 25.71000 46.92600
N  55.34500 25.44800 45.31300
C  56.31300 26.35800 45.70700
C  55.69600 27.64600 45.75200
C  54.43900 27.56200 45.21600
C  54.31000 26.21800 44.85800
C  56.36400 28.86200 46.22300
C  53.28300 28.29900 44.75000
O  53.00900 29.46700 44.77700
C  52.34000 27.19500 44.10400
C  52.02600 27.74500 42.78300
O  52.76800 27.87500 41.81900
O  50.81300 28.33300 42.87600
C  50.46300 29.15100 41.73700
H  52.45400 20.35400 43.23200
H  58.63400 20.44200 45.01000
H  58.43700 26.63700 46.21700
H  50.52700 24.86700 43.53900
H  51.01800 22.21100 42.38800
H  49.68200 21.42200 44.06500
H  49.30000 23.16900 44.23700
H  50.49600 22.35300 45.27500
H  51.56100 23.83700 40.84700
H  52.01900 25.40200 41.25400
H  50.12500 26.18500 40.71800
H  49.12600 25.19200 41.84000
H  54.37800 17.64000 42.20500
H  53.07300 18.36300 42.86700
H  53.99100 17.23400 43.87300
H  59.17500 18.19600 44.08400
H  58.56900 16.83000 44.97800
H  58.34800 18.34100 45.70300
H  59.88100 22.75200 44.31500
H  59.51300 24.07300 47.06600
H  61.07000 22.36100 47.02900
H  61.35000 21.22300 45.65200
H  59.88400 21.16700 46.80300
H  60.36300 25.92700 44.98200
H  61.58700 24.72700 45.08400
H  61.85400 24.94600 47.56100
H  60.64700 26.27000 47.47200
H  62.19700 26.41900 46.68400
H  56.08100 29.00900 47.26500
H  56.08700 29.70500 45.59000
H  57.45300 28.84600 46.16100
H  51.49300 27.15600 44.78900
H  50.29800 28.53100 40.85700
H  51.16400 29.98000 41.63900
H  49.53200 29.67200 41.96400
Mg 16.43300 52.04100 26.40000
C  18.42100 50.40400 28.85600
C  14.31900 53.06400 28.83300
C  14.57100 53.32100 23.99600
C  18.61200 50.76200 23.97000
N  16.47200 51.65800 28.62100
C  17.34600 51.09700 29.43600
C  17.11800 51.45500 30.94200
C  15.61000 51.92800 30.89700
C  15.46300 52.28100 29.37100
C  14.65600 50.72000 31.27200
C  18.10100 52.53600 31.49900
C  18.43400 52.49600 32.98300
H  17.58800 51.63000 33.88300
N  14.64600 53.07200 26.40400
C  13.99700 53.44200 27.50100
C  13.04400 54.42200 27.14800
C  12.96300 54.48800 25.73000
C  14.01500 53.54100 25.30200
C  12.23000 55.17500 28.27600
C  12.04300 55.21500 24.75900
O  12.13000 55.11900 23.57900
C  11.05100 56.18500 25.24100
N  16.60200 51.98800 24.36100
C  15.69400 52.60400 23.56700
C  16.05300 52.54600 22.07400
C  17.44000 51.86000 22.11900
C  17.50800 51.54800 23.54800
C  14.94300 51.83200 21.25000
C  18.59300 52.64400 21.45900
C  19.66100 53.45700 22.26400
N  18.18200 50.89100 26.32400
C  18.93400 50.42000 25.33900
C  20.15400 49.71800 25.81000
C  19.99900 49.73300 27.19300
C  18.76400 50.39600 27.48700
C  21.30400 49.08100 25.10300
C  20.60100 49.37700 28.47100
O  21.67000 48.82800 28.68100
C  19.59000 49.80600 29.60700
C  19.15000 48.55200 30.34300
O  18.18000 47.85400 29.99000
O  19.96800 48.43600 31.48200
C  19.45900 47.70100 32.65200
H  13.69700 53.45500 29.64100
H  13.97300 53.74700 23.18800
H  19.26200 50.34900 23.19700
H  17.30200 50.52700 31.48200
H  15.43400 52.71000 31.63700
H  13.79900 50.63600 30.60400
H  14.32500 51.02200 32.26600
H  15.09700 49.72600 31.34400
H  17.81600 53.57400 31.32900
H  19.04500 52.25500 31.03300
H  18.45800 53.49700 33.41500
H  19.39000 51.98900 33.11500
H  12.93300 55.73100 28.89700
H  11.60500 54.44800 28.79500
H  11.54700 55.92900 27.88600
H  10.76100 56.83600 24.41600
H  11.39800 56.89400 25.99200
H  10.18600 55.63000 25.60300
H  16.03500 53.55200 21.65700
H  17.35200 50.86900 21.67500
H  15.41100 51.05400 20.64800
H  14.42900 52.53100 20.59100
H  14.15200 51.36000 21.83200
H  18.23100 53.39800 20.76000
H  19.11100 51.86000 20.90600
H  19.43000 53.35500 23.32400
H  19.62600 54.53700 22.12300
H  20.68100 53.13100 22.06100
H  21.38200 49.72800 24.23000
H  21.21500 48.08600 24.66700
H  22.18700 49.07900 25.74400
H  20.03900 50.39500 30.40700
H  19.65500 48.30600 33.53700
H  20.07500 46.80300 32.70300
H  18.40300 47.44100 32.58000

