158

Mg 35.24900 48.90300 26.40000
C  35.57000 46.69900 29.05700
C  34.25900 51.31200 28.88900
C  34.37200 51.00500 24.05300
C  35.89000 46.37000 24.14500
N  34.89200 48.90600 28.67700
C  35.23700 47.94500 29.55400
C  35.03600 48.32500 30.99600
C  34.36600 49.76900 30.86500
C  34.59700 50.06500 29.37100
C  32.87900 49.89900 31.19500
C  36.43100 48.29800 31.74600
C  36.49500 47.96100 33.22700
H  35.22100 48.08200 34.07000
N  34.52600 50.90700 26.42200
C  34.18400 51.69600 27.47100
C  33.66000 52.98800 27.05900
C  33.86000 52.99800 25.66300
C  34.30500 51.64400 25.27800
C  33.04500 54.10300 27.91600
C  33.69300 54.10300 24.52700
O  33.81100 53.97100 23.31300
C  33.44700 55.48300 25.04100
N  35.08700 48.73900 24.39000
C  34.73300 49.73000 23.53700
C  34.57600 49.23300 22.14200
C  35.38000 47.85400 22.16800
C  35.59200 47.63200 23.65500
C  33.11900 49.16800 21.56900
C  36.65100 47.73200 21.35100
C  37.89200 48.46800 21.84600
N  35.72800 46.90100 26.47000
C  35.98500 45.97000 25.50400
C  36.15800 44.63900 26.13300
C  36.04000 44.88200 27.50800
C  35.67700 46.25700 27.65500
C  36.54400 43.41100 25.35400
C  36.14900 44.27500 28.77900
O  36.43200 43.10400 29.09900
C  35.83800 45.41900 29.83500
C  34.67100 44.87500 30.58500
O  33.55400 44.65300 30.06600
O  35.04900 44.51500 31.84600
C  33.95500 44.00600 32.64100
H  33.81900 52.02300 29.59100
H  33.90800 51.59400 23.26000
H  35.83800 45.58300 23.39000
H  34.41800 47.57200 31.48400
H  34.98600 50.47800 31.41400
H  32.38300 48.95500 31.42200
H  32.33300 50.36300 30.37400
H  32.78400 50.58900 32.03400
H  36.95600 49.25400 31.74100
H  37.09900 47.62900 31.20300
H  37.33500 48.42500 33.74500
H  36.76000 46.90400 33.18100
H  32.35000 54.76600 27.40100
H  33.84600 54.55000 28.50500
H  32.58500 53.63300 28.78500
H  33.49700 56.22800 24.24700
H  34.22600 55.74900 25.75500
H  32.44900 55.56600 25.47200
H  35.10200 49.93200 21.49100
H  34.66600 47.11300 21.80800
H  32.38500 49.39600 22.34200
H  32.91300 48.16700 21.19000
H  32.86300 49.79800 20.71700
H  36.30200 47.91400 20.33400
H  36.83000 46.65700 21.34500
H  38.81000 47.90500 22.01400
H  37.69300 49.11900 22.69800
H  38.20800 49.13400 21.04200
H  36.33000 42.49400 25.90400
H  37.60800 43.51200 25.13600
H  36.05100 43.25700 24.39500
H  36.71500 45.33000 30.47600
H  33.53800 43.17900 32.06600
H  33.22300 44.77100 32.89900
H  34.36700 43.55700 33.54600
Mg 6.93500 53.76700 40.07400
C  6.39800 50.31400 40.21000
C  10.10100 53.14700 39.30900
C  7.24200 57.08500 39.37600
C  3.45600 54.10700 40.52000
N  8.01800 51.93300 39.56100
C  7.68100 50.61600 39.74900
C  8.77700 49.65500 39.36000
C  9.98400 50.58900 39.49400
C  9.35900 52.01000 39.38000
C  10.74200 50.47000 40.84000
C  8.65100 48.94100 37.98000
C  7.89700 49.57700 36.81400
H  8.72400 50.10900 35.60800
N  8.55300 54.94100 39.41900
C  9.79100 54.54200 39.15000
C  10.58400 55.67100 38.79500
C  9.76500 56.84400 38.81000
C  8.47600 56.33200 39.19600
C  12.08000 55.63400 38.42500
C  10.18500 58.22700 38.47700
O  11.37900 58.47500 38.31500
C  9.19700 59.36200 38.26200
N  5.53400 55.35100 40.05100
C  5.88700 56.64700 39.72800
C  4.67700 57.59900 39.66000
C  3.54700 56.67100 40.20100
C  4.22000 55.25800 40.27900
C  4.90300 58.91200 40.55000
C  2.19600 56.75600 39.42400
C  1.07600 57.42900 40.25400
N  5.16400 52.57200 40.49000
C  3.85100 52.80700 40.72300
C  3.16200 51.65600 41.14600
C  4.11900 50.57200 40.96400
C  5.33600 51.24300 40.52400
C  1.74400 51.61600 41.67400
C  4.36000 49.15200 41.07900
O  3.63600 48.26400 41.45800
C  5.79300 48.97400 40.61700
C  5.73000 47.99600 39.51900
O  5.49300 48.26200 38.34900
O  5.99800 46.77000 39.97100
C  5.77300 45.69400 38.97700
H  11.18100 53.00600 39.24100
H  7.26200 58.15400 39.15100
H  2.38400 54.25800 40.66500
H  8.81200 48.79700 40.03100
H  10.71500 50.39600 38.70800
H  10.17600 49.80900 41.49700
H  10.95600 51.43000 41.31000
H  11.70700 49.99300 40.66300
H  8.11100 48.03700 38.26200
H  9.64600 48.67900 37.62000
H  7.40100 50.44800 37.24300
H  7.11800 48.93800 36.39800
H  12.68100 56.17400 39.15600
H  12.21900 55.91500 37.38100
H  12.35100 54.59100 38.58900
H  8.84700 59.73700 39.22400
H  8.36100 59.17100 37.58900
H  9.89300 60.02500 37.74900
H  4.45800 57.72100 38.59900
H  3.30200 56.92800 41.23200
H  4.07000 58.98600 41.24900
H  4.85600 59.72600 39.82700
H  5.89300 58.99200 41.00000
H  1.83100 55.78100 39.10400
H  2.26500 57.36700 38.52400
H  1.39500 57.80500 41.22600
H  0.28400 56.69400 40.40300
H  0.74900 58.32400 39.72500
H  1.11100 50.85600 41.21500
H  1.23700 52.58000 41.62900
H  1.78800 51.18800 42.67600
H  6.38900 48.43200 41.35300
H  4.69600 45.57300 38.86700
H  6.20900 44.73700 39.26600
H  6.12500 45.73000 37.94600

