158

Mg 41.92500 41.81600 26.98100
C  41.02800 44.22600 29.43200
C  42.96500 39.76000 29.44400
C  42.72500 39.58300 24.51700
C  41.41800 44.32600 24.50400
N  41.79500 42.00500 29.10100
C  41.32600 42.99000 29.86900
C  41.37600 42.56600 31.32400
C  42.27600 41.32700 31.43200
C  42.42300 41.00900 29.89500
C  43.58800 41.45500 32.18500
C  39.94500 42.40600 31.93900
C  39.80100 42.85800 33.48700
H  39.26100 41.87000 34.43800
N  42.70500 39.91400 27.02500
C  43.05200 39.25000 28.13000
C  43.63600 38.02200 27.73000
C  43.50700 37.92100 26.27600
C  42.88200 39.14900 25.89600
C  44.07900 36.94000 28.70700
C  43.92000 36.79500 25.32100
O  43.83100 36.83600 24.08200
C  44.56200 35.62700 25.80100
N  42.13500 41.96300 24.79700
C  42.51900 40.89200 24.08800
C  42.36400 41.21200 22.64000
C  42.03000 42.76700 22.59100
C  41.80200 43.08500 24.04700
C  43.58300 40.87100 21.80100
C  40.77900 42.93700 21.69400
C  41.03200 43.20700 20.19500
N  41.40800 43.82900 26.92200
C  41.17800 44.65800 25.86700
C  40.67400 45.92200 26.31800
C  40.61300 45.84900 27.73300
C  41.14800 44.54900 28.02400
C  40.42300 47.18400 25.37400
C  40.37800 46.58900 28.95300
O  40.12200 47.75500 29.14200
C  40.51600 45.49000 30.15800
C  41.48600 46.06400 31.15400
O  42.57900 46.65200 30.85000
O  40.92600 46.04300 32.45400
C  41.86100 46.60200 33.46400
H  43.24200 39.15800 30.31100
H  42.77700 38.78500 23.77300
H  41.20500 45.06900 23.73200
H  41.84400 43.37100 31.89000
H  41.77500 40.46500 31.87200
H  43.52500 40.88600 33.11200
H  43.75800 42.52300 32.31800
H  44.52400 41.18900 31.69300
H  39.72700 41.34000 32.00400
H  39.25300 43.04900 31.39500
H  39.24300 43.79400 33.52100
H  40.78100 43.15400 33.86200
H  43.32800 36.16500 28.85900
H  44.40900 37.41100 29.63300
H  45.03900 36.64200 28.28700
H  45.47400 35.83900 26.36000
H  44.82200 34.98900 24.95600
H  43.69100 35.34300 26.39100
H  41.52400 40.58600 22.33900
H  42.91000 43.34600 22.31100
H  44.16600 41.78300 21.67800
H  43.26500 40.67500 20.77600
H  44.25500 40.11700 22.21100
H  40.11800 43.66800 22.16100
H  40.08900 42.10500 21.83800
H  40.48900 44.09500 19.87100
H  40.60500 42.36800 19.64500
H  42.06900 43.31200 19.87500
H  39.63000 47.78600 25.81800
H  40.07700 47.03400 24.35100
H  41.27100 47.86400 25.29700
H  39.57700 45.35300 30.69500
H  42.87700 46.38700 33.13300
H  41.82200 46.09300 34.42700
H  41.77200 47.66900 33.67300
Mg 31.18600 58.74300 40.73600
C  28.75100 56.41000 39.66800
C  33.57200 56.33700 39.88200
C  33.36200 61.16100 40.98500
C  28.54500 61.05900 41.17800
N  31.11600 56.54000 40.02400
C  30.00600 55.81900 39.60000
C  30.48500 54.49600 38.85500
C  31.91500 54.37800 39.43300
C  32.25700 55.85800 39.81300
C  32.13900 53.45000 40.71200
C  30.52700 54.58000 37.29000
C  29.60800 53.63700 36.44600
H  28.47900 54.35000 35.60700
N  33.12400 58.72200 40.61200
C  33.96400 57.68400 40.31200
C  35.36100 58.10100 40.38500
C  35.34600 59.45000 40.84100
C  33.88200 59.79400 40.85000
C  36.44100 57.16200 39.89900
C  36.52500 60.31100 41.27000
O  37.64900 59.80300 41.23900
C  36.40200 61.70600 41.80200
N  30.91000 60.81900 40.85700
C  31.99900 61.56800 41.06800
C  31.64900 63.02800 41.46400
C  30.09600 62.97900 41.74000
C  29.84400 61.55900 41.16500
C  32.38900 63.76000 42.61700
C  29.38300 64.03400 40.95400
C  28.09800 64.54900 41.72800
N  29.02900 58.76600 40.63200
C  28.15400 59.77100 40.83800
C  26.85100 59.21200 40.75700
C  26.98800 57.94200 40.22900
C  28.37200 57.70800 40.14700
C  25.55100 59.89300 41.16800
C  26.28900 56.70000 39.74900
O  25.11000 56.52900 39.44200
C  27.45700 55.66300 39.37700
C  27.32800 54.50000 40.29700
O  28.01400 54.25300 41.25700
O  26.08600 53.99500 40.12100
C  25.53700 52.84300 40.84500
H  34.23300 55.47900 39.74600
H  34.00500 62.01600 41.20600
H  27.79000 61.81300 41.41000
H  29.98600 53.58900 39.19800
H  32.65200 54.12100 38.67300
H  31.42500 52.62600 40.71100
H  32.01000 54.07000 41.59900
H  33.13000 52.99600 40.73100
H  31.54100 54.36100 36.95600
H  30.30200 55.60700 37.00300
H  28.97900 52.98400 37.05000
H  30.19300 53.01300 35.77100
H  36.16500 56.77100 38.91900
H  36.72800 56.44500 40.66800
H  37.33600 57.77200 39.77500
H  37.33500 61.93300 42.31700
H  35.57100 61.66500 42.50700
H  36.19400 62.36000 40.95500
H  31.85400 63.63500 40.58200
H  29.83500 62.99300 42.79900
H  32.85800 63.01900 43.26400
H  31.79100 64.41900 43.24700
H  33.17200 64.38500 42.18900
H  28.95800 63.72100 40.00100
H  30.07200 64.83700 40.69200
H  27.19700 64.23700 41.19800
H  28.10500 65.63800 41.71700
H  28.01200 64.08000 42.70800
H  25.42400 60.84500 40.65300
H  25.55600 60.01400 42.25100
H  24.77200 59.24400 40.76600
H  27.50300 55.33500 38.33900
H  24.65600 52.38000 40.39900
H  25.19100 53.29600 41.77400
H  26.30300 52.20900 41.29100

