158

Mg 34.78500 2.85700 30.35600
C  32.46300 3.73300 33.04700
C  37.28100 2.90600 32.88100
C  36.89200 2.34300 28.08300
C  32.09900 3.44300 28.24400
N  34.76500 3.45600 32.67200
C  33.71200 3.54000 33.50600
C  34.18400 3.44200 34.94500
C  35.73900 3.61600 34.83500
C  35.99100 3.29200 33.36700
C  36.27900 5.00000 35.34100
C  33.72900 2.18800 35.76000
C  33.16500 2.53800 37.17900
H  33.83500 3.60300 38.06200
N  36.77500 2.53700 30.49100
C  37.62700 2.70000 31.59100
C  38.97100 2.32100 31.12600
C  38.94700 2.15000 29.72300
C  37.54700 2.32000 29.34100
C  40.17800 2.51100 32.06500
C  40.02700 1.73400 28.76700
O  39.83600 1.66000 27.53800
C  41.31200 1.24500 29.30400
N  34.51300 3.01400 28.40600
C  35.55200 2.61800 27.62200
C  35.02400 2.44800 26.21400
C  33.47600 2.58200 26.30800
C  33.36100 3.14600 27.70800
C  35.66800 3.51200 25.24000
C  32.69800 1.26800 26.14200
C  31.57400 1.34300 25.10600
N  32.69500 3.60200 30.56000
C  31.76600 3.66700 29.61000
C  30.44500 3.69500 30.21100
C  30.64600 3.79200 31.51000
C  32.06500 3.69400 31.71000
C  29.23200 3.75700 29.45900
C  30.07100 3.88000 32.78100
O  28.88800 3.89700 33.09100
C  31.19200 3.95300 33.84400
C  31.14400 5.24400 34.59700
O  31.28300 6.36000 34.08400
O  31.02900 5.09900 35.96700
C  30.98600 6.32300 36.77400
H  38.11900 2.89100 33.58000
H  37.56100 1.93800 27.32100
H  31.32700 3.44700 27.47100
H  33.81400 4.31700 35.47900
H  36.26700 2.86200 35.41900
H  36.62100 4.75600 36.34600
H  35.45000 5.69800 35.46000
H  37.18700 5.28300 34.80800
H  34.59900 1.55000 35.91600
H  33.00300 1.54400 35.26400
H  33.18600 1.70600 37.88200
H  32.10500 2.75000 37.03600
H  40.42000 1.54500 32.50800
H  40.09900 3.35500 32.75000
H  41.14100 2.66000 31.57700
H  41.15900 0.69100 30.23000
H  41.91000 2.13800 29.48800
H  41.64700 0.51300 28.56900
H  35.35600 1.49400 25.80300
H  33.15700 3.30500 25.55800
H  35.65500 4.55900 25.54100
H  35.18300 3.45400 24.26600
H  36.73500 3.28800 25.24100
H  32.38700 0.86400 27.10600
H  33.48700 0.54900 25.92100
H  30.67000 1.77900 25.53200
H  31.34500 0.30400 24.87100
H  31.88900 1.79500 24.16500
H  28.64000 2.86300 29.65400
H  29.41000 3.98300 28.40800
H  28.73400 4.68700 29.73300
H  31.05600 3.13600 34.55300
H  30.31700 7.04400 36.30600
H  31.95900 6.81500 36.81200
H  30.52800 5.94200 37.68700
Mg 9.53000 47.52100 25.49400
C  7.34900 47.77300 28.22400
C  12.01600 48.83100 27.45000
C  11.63200 47.40700 22.84600
C  6.80600 46.79200 23.40900
N  9.57200 48.25100 27.60400
C  8.65200 48.16300 28.60000
C  9.21000 48.79700 29.88100
C  10.65700 49.39400 29.51200
C  10.77300 48.77200 28.09000
C  10.68500 50.95300 29.63100
C  9.40100 47.67300 31.02700
C  8.60300 47.87100 32.33400
H  8.84700 46.76700 33.47200
N  11.58200 47.90900 25.25600
C  12.41300 48.47700 26.16100
C  13.80800 48.45200 25.60500
C  13.69700 48.00300 24.22900
C  12.26800 47.69400 24.08000
C  15.02800 48.98800 26.35500
C  14.79000 47.66200 23.23000
O  14.56600 47.21300 22.12400
C  16.23700 47.80800 23.71800
N  9.16800 47.40500 23.33500
C  10.25100 47.20800 22.56200
C  9.78400 46.82700 21.16400
C  8.27300 46.52900 21.30300
C  8.06800 46.84700 22.77900
C  10.27000 47.67200 19.94100
C  7.90200 45.03700 20.90500
C  8.10100 43.84100 21.87900
N  7.47500 47.33300 25.69200
C  6.51300 47.02000 24.78100
C  5.23000 46.93900 25.48300
C  5.56700 47.14300 26.85300
C  6.93800 47.46400 26.93700
C  3.86300 46.79500 24.93400
C  5.00400 47.11100 28.13400
O  3.86900 46.77800 28.49700
C  6.14000 47.58100 29.12100
C  6.20600 46.50400 30.14600
O  6.95300 45.56400 30.10000
O  5.24600 46.73200 31.14500
C  4.86800 45.51800 31.88700
H  12.72400 49.43700 28.02000
H  12.34900 47.37000 22.02300
H  5.97900 46.45400 22.78100
H  8.54200 49.55400 30.29000
H  11.49700 49.06300 30.12200
H  9.91800 51.39900 30.26400
H  10.45000 51.26500 28.61300
H  11.64900 51.37000 29.92300
H  10.42800 47.64000 31.39000
H  9.14300 46.72500 30.55600
H  7.54100 47.71500 32.14400
H  8.71000 48.90500 32.66300
H  14.68600 49.15400 27.37700
H  15.36600 49.92100 25.90300
H  15.81800 48.23800 26.35500
H  16.99400 47.79300 22.93400
H  16.29900 46.99500 24.44200
H  16.48700 48.70900 24.27900
H  10.15700 45.80600 21.08200
H  7.65700 47.23700 20.74800
H  9.42800 48.18600 19.47800
H  10.70100 46.98400 19.21300
H  11.02800 48.35400 20.32800
H  8.29700 44.87900 19.90200
H  6.83100 45.07300 20.70600
H  8.50500 44.25100 22.80400
H  8.73400 43.05500 21.46600
H  7.07800 43.46600 21.91300
H  3.75400 47.25100 23.95000
H  3.13100 47.02900 25.70700
H  3.60200 45.74300 24.82300
H  5.85400 48.55600 29.51400
H  3.78300 45.42000 31.84800
H  5.22300 45.86100 32.85900
H  5.35800 44.56800 31.67600

