158

Mg 8.57600 4.49800 27.61600
C  9.91400 2.86000 30.40400
C  6.67000 6.45900 29.69400
C  7.27200 5.93400 24.93700
C  10.10000 2.14700 25.52500
N  8.34600 4.60800 29.81800
C  9.04500 3.91700 30.73300
C  8.74300 4.39000 32.18800
C  7.72300 5.57600 31.92500
C  7.50000 5.53700 30.33900
C  6.36300 5.48900 32.65800
C  9.95900 4.72000 33.12600
C  9.77500 5.89500 34.07600
H  10.11700 5.56300 35.50200
N  7.14900 5.98700 27.38400
C  6.49500 6.71200 28.32000
C  5.61700 7.74700 27.74900
C  5.83700 7.55900 26.33500
C  6.79000 6.39900 26.15300
C  4.77800 8.69900 28.52600
C  5.32400 8.38300 25.17300
O  5.44500 8.05700 24.01100
C  4.72100 9.69900 25.47200
N  8.65600 4.06000 25.50700
C  8.10700 4.82600 24.56400
C  8.41400 4.40600 23.11700
C  9.31800 3.21000 23.34900
C  9.45300 3.14600 24.85300
C  7.15900 4.12800 22.34100
C  10.70400 3.27200 22.67200
C  11.15100 1.92500 22.12500
N  9.73300 2.85200 27.87400
C  10.26900 1.99900 26.93400
C  11.04000 0.97200 27.62600
C  11.00500 1.34200 28.98900
C  10.13300 2.41100 29.07900
C  11.71400 -0.19200 27.02200
C  11.44800 0.97400 30.31200
O  12.24500 0.09500 30.54700
C  10.77700 1.99000 31.32200
C  9.94300 1.24900 32.43000
O  8.78600 0.83300 32.34100
O  10.76900 1.23000 33.51500
C  10.09500 0.78700 34.73200
H  6.13200 7.11300 30.38200
H  6.86500 6.42000 24.04700
H  10.64200 1.46300 24.86800
H  8.20000 3.65800 32.78600
H  8.20900 6.52500 32.15300
H  5.46100 5.49300 32.04600
H  6.37300 6.39200 33.26800
H  6.29700 4.64600 33.34500
H  10.85100 4.89100 32.52400
H  10.29600 3.80900 33.62100
H  8.80600 6.39400 34.10900
H  10.37900 6.68400 33.62700
H  5.18800 9.70800 28.51600
H  4.64900 8.30800 29.53500
H  3.78800 8.74900 28.07000
H  5.44200 10.23400 26.08900
H  3.82000 9.37400 25.99200
H  4.43200 10.20300 24.55000
H  8.96300 5.29700 22.81400
H  8.71700 2.32600 23.13700
H  6.32200 3.91500 23.00600
H  7.16000 3.25800 21.68400
H  7.01200 5.07100 21.81400
H  11.45100 3.66300 23.36300
H  10.71900 4.04600 21.90400
H  10.38700 1.15000 22.06700
H  11.96600 1.55900 22.74900
H  11.64500 2.00900 21.15600
H  11.01700 -0.49900 26.24200
H  11.79900 -1.00000 27.74800
H  12.64800 0.05100 26.51500
H  11.57300 2.58600 31.76800
H  9.60200 1.59400 35.27400
H  10.74600 0.36800 35.49900
H  9.33600 0.04500 34.48500
Mg -9.90500 39.49000 39.63100
C  -8.78000 36.35000 38.80000
C  -6.82700 40.78300 38.76100
C  -11.30600 42.49700 39.61100
C  -13.12000 37.96900 40.24400
N  -8.02300 38.60000 39.01200
C  -7.75800 37.31700 38.71200
C  -6.20600 37.07200 38.47000
C  -5.59500 38.48700 38.86300
C  -6.88000 39.37000 38.82300
C  -4.77700 38.63400 40.12900
C  -5.94000 36.63300 36.97900
C  -6.72000 37.40800 35.95300
H  -7.60400 36.71900 34.86700
N  -9.15500 41.41600 39.23100
C  -7.87600 41.69100 38.85600
C  -7.74200 43.13800 38.79700
C  -9.02400 43.66200 39.14000
C  -9.90500 42.52000 39.36600
C  -6.39700 43.84300 38.60500
C  -9.43700 45.10600 39.21000
O  -8.60900 45.95200 38.85400
C  -10.78100 45.62300 39.62800
N  -11.94000 40.16800 39.74100
C  -12.23300 41.49500 39.86900
C  -13.72100 41.65200 40.18300
C  -14.26500 40.17200 40.34900
C  -13.02200 39.38300 40.12900
C  -14.11600 42.59700 41.36700
C  -15.41100 39.82000 39.40000
C  -16.65000 39.43100 40.09800
N  -10.78600 37.49200 39.67000
C  -12.06200 37.10100 39.95900
C  -12.13700 35.67500 39.84100
C  -10.87400 35.30200 39.30500
C  -10.08000 36.48900 39.19600
C  -13.35600 34.78000 40.06900
C  -10.04500 34.20900 38.96000
O  -10.35900 33.02000 39.02700
C  -8.67300 34.86200 38.52700
C  -7.57100 34.18700 39.25900
O  -7.41400 34.12000 40.44500
O  -6.68900 33.67700 38.36900
C  -5.42600 33.16600 38.95300
H  -5.89300 41.30800 38.55100
H  -11.72400 43.50000 39.72100
H  -14.09200 37.58100 40.55300
H  -5.87100 36.29200 39.15300
H  -4.98900 38.72900 37.99100
H  -4.12100 39.50100 40.04300
H  -4.26500 37.72600 40.44800
H  -5.35900 38.88700 41.01500
H  -6.26200 35.60700 36.80100
H  -4.87800 36.79200 36.79100
H  -6.07500 37.94700 35.25900
H  -7.33000 38.14100 36.48100
H  -6.48000 44.93000 38.64400
H  -5.92700 43.49200 37.68700
H  -5.89500 43.53400 39.52200
H  -11.10800 45.21000 40.58200
H  -11.62200 45.54400 38.93900
H  -10.73400 46.68900 39.85100
H  -14.00400 42.05500 39.21000
H  -14.40700 39.96800 41.41100
H  -14.92600 43.31500 41.23800
H  -13.22400 43.11600 41.71500
H  -14.50300 41.97400 42.17400
H  -15.08700 39.02800 38.72400
H  -15.62100 40.68300 38.76800
H  -16.62700 39.71300 41.15100
H  -16.86500 38.37100 39.96600
H  -17.41700 39.98100 39.55200
H  -14.07700 35.14900 40.79900
H  -12.96100 33.80400 40.35100
H  -13.95000 34.75100 39.15500
H  -8.57800 34.55300 37.48600
H  -5.63100 32.15600 39.30900
H  -4.95800 33.72900 39.76000
H  -4.69900 33.23900 38.14400

