158

Mg 2.02200 -1.44000 44.03700
C  5.36900 -1.04100 43.28900
C  1.36800 1.52700 42.26700
C  -1.33700 -2.06600 44.08800
C  2.64200 -4.63100 45.10500
N  3.19300 -0.07200 42.72800
C  4.56300 -0.03800 42.64200
C  5.12000 1.18200 41.76700
C  3.80100 1.98700 41.54700
C  2.72600 1.09600 42.26500
C  3.97400 3.36900 42.21000
C  5.69400 0.54400 40.51200
C  6.79700 1.32800 39.86700
H  6.51000 2.08100 38.56800
N  0.18500 -0.39600 43.31600
C  0.20000 0.88100 42.74400
C  -1.20400 1.42800 42.67500
C  -2.05300 0.32600 43.11800
C  -1.09500 -0.78400 43.59100
C  -1.55400 2.85300 42.16800
C  -3.60700 0.30000 43.00200
O  -4.23600 1.15900 42.39800
C  -4.34400 -0.75800 43.57100
N  0.84100 -3.10800 44.50000
C  -0.55100 -3.18500 44.43600
C  -1.13900 -4.57200 44.80500
C  0.22000 -5.34800 44.99200
C  1.35400 -4.28600 44.86700
C  -2.18000 -4.48300 45.99000
C  0.44800 -6.64300 44.08900
C  0.39400 -8.02000 44.79100
N  3.69600 -2.58000 44.37500
C  3.79300 -3.90300 44.76100
C  5.22000 -4.22500 44.84600
C  5.87400 -3.09900 44.32100
C  4.88800 -2.16500 43.96000
C  5.71000 -5.51100 45.33900
C  7.12500 -2.46900 44.01500
O  8.27700 -2.88800 44.18200
C  6.91600 -1.12600 43.34400
C  7.66700 0.01400 43.91800
O  8.62900 0.45400 43.33000
O  7.00400 0.70300 44.97800
C  7.41400 2.12100 45.27900
H  1.09900 2.54600 41.98100
H  -2.39400 -2.27200 43.90700
H  2.91500 -5.59800 45.53200
H  5.94400 1.62900 42.32300
H  3.43900 2.04800 40.52100
H  4.72100 3.33900 43.00400
H  3.08300 3.74400 42.71300
H  4.28100 4.11900 41.48000
H  4.87500 0.46100 39.79800
H  5.92500 -0.52000 40.56400
H  7.55500 0.63100 39.51000
H  7.24900 2.05800 40.53800
H  -1.66400 2.82000 41.08400
H  -0.82900 3.54700 42.59300
H  -2.53100 3.08200 42.59200
H  -5.39700 -0.52100 43.72200
H  -3.94600 -0.97200 44.56300
H  -4.17200 -1.61300 42.91600
H  -1.74800 -4.79100 43.92800
H  0.18900 -5.73300 46.01100
H  -1.76400 -5.00400 46.85200
H  -3.10800 -4.98100 45.70700
H  -2.31200 -3.42300 46.20200
H  1.41800 -6.50800 43.61100
H  -0.42900 -6.59500 43.44400
H  0.28500 -8.05200 45.87500
H  1.27900 -8.60400 44.54000
H  -0.54700 -8.47800 44.48400
H  5.29200 -6.26200 44.66900
H  5.43200 -5.70900 46.37500
H  6.79600 -5.54800 45.25700
H  7.25300 -1.26200 42.31600
H  7.83000 2.26100 46.27600
H  6.51300 2.71900 45.14100
H  8.19100 2.56000 44.65300
Mg 26.08200 0.93600 28.92200
C  27.95500 0.02400 31.76800
C  23.27100 0.97500 31.04400
C  24.27900 1.35900 26.28500
C  28.85600 0.23700 26.96800
N  25.73100 0.47100 31.16200
C  26.62000 0.21300 32.12400
C  26.10300 0.53700 33.59900
C  24.56100 0.65500 33.26000
C  24.50600 0.76900 31.74500
C  23.74400 -0.55600 33.65800
C  26.90500 1.67700 34.36900
C  27.72200 1.17500 35.53800
H  27.41400 1.91700 36.84200
N  24.08600 1.18100 28.70300
C  23.09300 1.10400 29.66900
C  21.82200 1.33700 29.05500
C  22.04500 1.48900 27.66600
C  23.52300 1.33800 27.46400
C  20.46200 1.27600 29.83500
C  21.09400 1.51600 26.53200
O  21.40200 1.68400 25.34600
C  19.58000 1.46900 26.80100
N  26.49000 0.52500 26.85900
C  25.53800 0.93600 25.98300
C  26.08400 0.93300 24.54400
C  27.61000 0.55000 24.73900
C  27.69600 0.51500 26.30100
C  25.42600 -0.11600 23.51900
C  28.63000 1.64100 24.17700
C  29.90300 1.07300 23.48400
N  28.07700 0.34900 29.26600
C  29.07900 0.11000 28.38300
C  30.32500 -0.13900 29.06300
C  29.95800 -0.21200 30.40500
C  28.58500 0.09600 30.52200
C  31.66600 -0.47100 28.51000
C  30.39100 -0.45800 31.77200
O  31.51800 -0.76300 32.13800
C  29.13900 -0.35500 32.68900
C  29.05900 -1.63000 33.40900
O  28.54500 -2.64200 32.98600
O  29.60000 -1.41900 34.63800
C  29.34900 -2.37100 35.71400
H  22.41500 0.96900 31.72300
H  23.78900 1.59600 25.33800
H  29.77300 0.17500 26.37900
H  26.28300 -0.39600 34.13400
H  24.09600 1.57200 33.62100
H  23.06800 -0.85000 32.85600
H  23.15500 -0.29400 34.53800
H  24.46300 -1.33600 33.90900
H  26.10400 2.26100 34.82200
H  27.54900 2.23900 33.69200
H  28.76500 1.43600 35.35700
H  27.61900 0.10100 35.69200
H  20.14500 0.23600 29.76100
H  19.82000 2.01200 29.34900
H  20.54300 1.60800 30.87000
H  18.95200 1.55200 25.91400
H  19.17000 2.26400 27.42400
H  19.36300 0.52000 27.29100
H  25.84000 1.89700 24.09800
H  27.96500 -0.42500 24.40600
H  24.91500 -0.81200 24.18500
H  26.11900 -0.74400 22.96000
H  24.74400 0.33100 22.79600
H  28.88400 2.37500 24.94200
H  28.03600 2.15300 23.42000
H  30.71700 1.79100 23.38400
H  29.54600 0.70500 22.52200
H  30.18100 0.20900 24.08700
H  31.38500 -1.37300 27.96600
H  32.44700 -0.55000 29.26600
H  31.91600 0.33300 27.81800
H  29.41400 0.52500 33.27100
H  28.57200 -1.89300 36.31000
H  30.20900 -2.62700 36.33300
H  28.84700 -3.27500 35.37000

