158

Mg -1.96900 17.24100 26.68900
C  -2.27000 15.08400 29.30400
C  -3.13000 19.78700 28.82500
C  -1.84000 19.35600 24.10200
C  -1.28600 14.64000 24.51300
N  -2.81200 17.40400 28.90400
C  -2.66900 16.35800 29.76300
C  -2.93400 16.92800 31.15900
C  -3.63000 18.34300 30.88700
C  -3.23600 18.53200 29.43900
C  -5.19800 18.32000 31.00100
C  -1.62200 16.99900 32.09300
C  -1.76900 16.80300 33.63900
H  -0.41100 16.69500 34.41500
N  -2.14500 19.30400 26.54000
C  -2.67100 20.13700 27.53500
C  -2.60200 21.52400 26.99000
C  -2.18900 21.49100 25.65500
C  -2.03900 20.01300 25.34600
C  -2.97300 22.69300 27.83400
C  -1.94300 22.49600 24.64000
O  -1.60700 22.26000 23.50900
C  -1.95100 23.86300 24.93900
N  -1.54400 17.08900 24.62400
C  -1.65100 18.08400 23.74900
C  -1.64500 17.61300 22.27600
C  -1.14700 16.12200 22.43900
C  -1.35700 15.87200 23.97100
C  -2.94800 17.84000 21.45600
C  0.31600 15.90900 21.98500
C  1.34300 16.55200 22.86200
N  -1.85100 15.23800 26.84300
C  -1.56100 14.28100 25.90800
C  -1.55800 13.01100 26.53600
C  -1.76100 13.22500 27.87100
C  -2.00500 14.60800 28.00000
C  -1.34900 11.73700 25.82200
C  -1.78600 12.73600 29.15900
O  -1.52500 11.61100 29.52000
C  -2.28000 13.81200 30.18000
C  -1.27800 13.73200 31.27500
O  -0.08900 13.88200 31.19300
O  -1.93800 13.40700 32.46600
C  -1.14100 13.09100 33.66300
H  -3.51500 20.64400 29.38100
H  -1.85900 20.07300 23.27900
H  -1.01300 13.78700 23.88800
H  -3.55800 16.16200 31.62000
H  -3.14400 19.19400 31.36500
H  -5.65700 19.21600 30.58100
H  -5.36800 18.25900 32.07600
H  -5.50000 17.44100 30.43200
H  -1.19600 17.98400 31.89900
H  -0.89800 16.31400 31.65100
H  -2.35900 15.90700 33.82900
H  -2.27700 17.61900 34.15200
H  -2.36900 23.56100 27.57200
H  -2.89100 22.46500 28.89600
H  -4.02300 22.90500 27.63300
H  -2.95200 24.29300 24.90200
H  -1.38800 24.40000 24.17600
H  -1.48600 24.11500 25.89200
H  -0.89700 18.17800 21.72000
H  -1.84200 15.45700 21.92500
H  -2.88700 18.07400 20.39400
H  -3.51400 18.67000 21.88100
H  -3.55200 16.95300 21.64700
H  0.48300 16.17200 20.94000
H  0.49500 14.83800 22.07500
H  1.37600 16.20600 23.89500
H  1.57400 17.59300 22.63500
H  2.29600 16.13500 22.53600
H  -0.56600 11.78300 25.06600
H  -2.30200 11.34900 25.46300
H  -0.99200 11.01500 26.55600
H  -3.20800 13.49400 30.65500
H  -1.47100 12.23800 34.25700
H  -1.22400 13.90600 34.38100
H  -0.07900 12.92800 33.48300
Mg 40.97600 7.93400 29.61500
C  42.93000 9.32800 32.19500
C  38.74300 6.70200 31.91200
C  39.26200 6.57800 27.09900
C  43.48700 8.88900 27.43600
N  40.86800 8.12500 31.71300
C  41.73400 8.78200 32.51900
C  41.19700 8.68600 34.04700
C  39.80800 7.98100 33.92700
C  39.79900 7.51900 32.48400
C  39.63500 6.88300 34.94400
C  41.06700 10.12500 34.72800
C  40.33100 10.15700 36.09200
H  41.18100 10.36600 37.40000
N  39.22100 6.85400 29.53700
C  38.48600 6.41300 30.56700
C  37.34200 5.64400 30.09300
C  37.39800 5.67900 28.67300
C  38.68000 6.39600 28.33400
C  36.40100 4.86200 30.94900
C  36.42700 5.30200 27.60400
O  36.68600 5.32600 26.44200
C  34.98500 5.08200 28.07000
N  41.41300 7.66800 27.54100
C  40.40200 7.25500 26.72400
C  40.91500 7.34600 25.26000
C  42.11700 8.32000 25.34900
C  42.30900 8.37300 26.84900
C  41.36100 5.96500 24.65800
C  41.84600 9.82500 24.89600
C  40.55000 10.52400 25.28500
N  42.85500 8.72600 29.78000
C  43.77000 9.06100 28.82500
C  44.93300 9.66000 29.31700
C  44.62800 9.84900 30.64200
C  43.39700 9.22900 30.86600
C  46.05900 10.37400 28.55300
C  45.21100 10.32900 31.90100
O  46.27600 10.88100 32.09000
C  44.14400 9.92200 32.93600
C  44.74900 9.07600 33.99600
O  45.06300 7.87900 33.98000
O  44.92200 9.96900 35.03600
C  45.31400 9.36800 36.34800
H  37.98500 6.27900 32.57500
H  38.70800 6.23500 26.22300
H  44.22800 9.33300 26.76800
H  41.94000 8.03000 34.50000
H  39.04200 8.74800 34.04100
H  40.04200 7.20600 35.90200
H  40.22600 6.02300 34.63200
H  38.60500 6.57600 35.12900
H  40.56600 10.71800 33.96200
H  42.07100 10.51200 34.90200
H  39.78500 9.21700 36.17200
H  39.53200 10.88200 35.93800
H  37.04000 4.52200 31.76400
H  36.10300 3.90900 30.51200
H  35.60600 5.44600 31.41000
H  34.90200 4.12500 28.58600
H  34.36800 4.97200 27.17800
H  34.64800 5.91300 28.68900
H  40.15200 7.73200 24.58400
H  43.00300 8.06600 24.76800
H  41.04100 5.17800 25.34200
H  42.43400 6.02600 24.48200
H  40.83600 5.71100 23.73700
H  41.93300 9.81400 23.81000
H  42.78000 10.27300 25.23400
H  40.17300 11.01000 24.38500
H  40.74900 11.13800 26.16300
H  39.74500 9.84500 25.56400
H  45.71700 11.30800 28.10700
H  46.50300 9.76800 27.76300
H  46.87800 10.46700 29.26600
H  43.73700 10.83100 33.37800
H  46.38500 9.55700 36.41700
H  45.13200 8.29400 36.32900
H  44.75200 9.85600 37.14500

