158

Mg 9.55100 4.07900 27.35900
C  10.36200 2.47000 30.31300
C  7.75500 6.32400 29.07300
C  8.23700 5.25500 24.39900
C  10.63700 1.22000 25.54500
N  8.95400 4.24900 29.50300
C  9.63700 3.59100 30.51000
C  9.40700 4.27900 31.82900
C  8.29900 5.35500 31.49200
C  8.35200 5.36700 29.88800
C  6.91200 5.18600 32.05500
C  10.79000 4.86500 32.58900
C  10.80200 4.59900 34.08800
H  12.15700 4.59700 34.83600
N  8.30300 5.65700 26.76600
C  7.69100 6.51500 27.64700
C  6.99900 7.61700 26.92900
C  7.18200 7.25200 25.51500
C  7.95000 5.97300 25.53100
C  6.20300 8.73500 27.63400
C  6.72900 8.02300 24.26700
O  6.98900 7.69200 23.07400
C  5.86800 9.15500 24.40400
N  9.62400 3.45200 25.17600
C  8.94500 4.08900 24.20800
C  9.04100 3.35300 22.83900
C  10.01300 2.16100 23.21900
C  10.03500 2.23900 24.74600
C  7.64800 2.86200 22.37100
C  11.40500 2.02500 22.46400
C  11.25000 1.10300 21.21800
N  10.54600 2.32200 27.75600
C  10.95300 1.24800 26.92500
C  11.56200 0.25600 27.71900
C  11.33000 0.65500 29.04400
C  10.69500 1.92000 29.00800
C  12.33300 -0.95400 27.33400
C  11.64100 0.27000 30.42000
O  12.20700 -0.68000 30.92600
C  11.02800 1.49800 31.32100
C  10.04700 0.85400 32.21900
O  9.00600 0.29200 31.91100
O  10.62100 0.74200 33.52200
C  9.83600 0.04700 34.56300
H  7.20800 7.04300 29.68700
H  7.79700 5.70300 23.50600
H  10.75000 0.19700 25.18100
H  8.91000 3.54400 32.46200
H  8.62200 6.29600 31.93600
H  6.17000 5.37500 31.27900
H  6.63400 6.01700 32.70300
H  6.86900 4.23900 32.59300
H  10.75700 5.95000 32.49200
H  11.70000 4.54400 32.08200
H  10.19900 3.74800 34.40300
H  10.34800 5.46700 34.56600
H  6.81200 9.59900 27.90100
H  5.66300 8.22800 28.43400
H  5.37700 9.18100 27.08100
H  6.34700 10.05000 24.80300
H  4.99700 8.93000 25.02000
H  5.42000 9.48200 23.46600
H  9.36000 4.06500 22.07800
H  9.42900 1.25400 23.06300
H  7.21800 3.40100 21.52700
H  6.95000 2.98500 23.19900
H  7.75200 1.84100 22.00300
H  12.22200 1.74200 23.12800
H  11.73400 2.96700 22.02400
H  12.22200 0.66500 20.98700
H  10.84300 1.67500 20.38500
H  10.52200 0.31400 21.40500
H  13.01700 -0.71900 26.51800
H  11.72800 -1.82300 27.07400
H  13.05500 -1.32800 28.06000
H  11.71100 1.98900 32.01400
H  9.37000 -0.85500 34.16700
H  8.90300 0.54800 34.82300
H  10.51100 -0.03900 35.41400
Mg 26.06100 50.59900 25.79800
C  23.90300 51.45600 28.46100
C  28.21200 49.41200 28.23300
C  28.04400 49.59700 23.32100
C  23.74100 51.71500 23.52500
N  26.01400 50.41600 28.23200
C  25.02200 50.80900 29.03300
C  25.40300 50.62700 30.48000
C  26.89500 50.03300 30.37700
C  27.09000 49.94100 28.85300
C  28.05500 50.76900 31.13100
C  24.36700 49.71600 31.27000
C  24.88800 49.17400 32.56500
H  24.11300 49.42100 33.79600
N  27.87500 49.78200 25.77300
C  28.57500 49.23500 26.88300
C  29.89700 48.78900 26.38000
C  29.89300 48.92600 24.98400
C  28.52900 49.48000 24.62600
C  30.96000 48.13000 27.31600
C  30.92800 48.61900 23.94100
O  30.92900 48.95100 22.76000
C  32.16200 47.99500 24.45800
N  25.90200 50.63100 23.71400
C  26.84200 50.13300 22.85800
C  26.36600 50.09000 21.36500
C  24.91400 50.68800 21.46500
C  24.83400 51.02300 22.98000
C  27.35800 50.68800 20.31200
C  23.87700 49.75300 20.79900
C  23.57400 48.46400 21.42100
N  24.19800 51.50500 25.88800
C  23.33400 51.87500 24.86500
C  22.09200 52.32700 25.45900
C  22.24100 52.24700 26.89100
C  23.55000 51.66700 27.10400
C  21.01100 52.80300 24.47700
C  21.68400 52.52600 28.18800
O  20.60900 52.93000 28.60900
C  22.73500 52.13100 29.18500
C  23.16400 53.32900 30.01000
O  24.16200 53.96200 29.73600
O  22.39200 53.40400 31.13400
C  22.72600 54.47100 32.01400
H  29.00900 49.14500 28.93000
H  28.67300 49.20200 22.52000
H  22.98200 52.08200 22.83100
H  25.30500 51.61200 30.93500
H  26.96200 49.03200 30.80500
H  28.67600 50.17200 31.79800
H  27.58100 51.56300 31.70800
H  28.79000 51.24800 30.48400
H  24.20100 48.81000 30.68700
H  23.35500 50.11300 31.33700
H  25.84300 49.64600 32.79700
H  24.95900 48.08800 32.50600
H  31.10700 47.06900 27.11600
H  30.72800 48.23800 28.37600
H  31.92600 48.63500 27.29700
H  32.78200 47.64100 23.63400
H  31.90800 47.10600 25.03500
H  32.68300 48.78400 25.00000
H  26.31700 49.04600 21.05700
H  25.05100 51.63000 20.93300
H  28.17100 51.18600 20.84000
H  26.91900 51.45400 19.67300
H  27.83000 49.93400 19.68200
H  24.33200 49.42600 19.86400
H  22.97900 50.30700 20.53100
H  22.48700 48.42100 21.48900
H  24.11300 48.26600 22.34700
H  23.89500 47.67000 20.74600
H  20.12100 52.97200 25.08300
H  20.76900 51.98800 23.79500
H  21.27600 53.73600 23.97900
H  22.31400 51.32500 29.78500
H  23.69700 54.24000 32.45400
H  21.95300 54.51900 32.78100
H  23.03600 55.43600 31.61400

