158

Mg 17.13300 -1.70200 27.58500
C  15.86000 0.20100 30.17700
C  19.36500 -3.19500 29.71700
C  18.21300 -3.52300 24.91500
C  15.10800 0.09000 25.41200
N  17.54000 -1.49400 29.72000
C  16.93900 -0.63200 30.59700
C  17.44100 -0.92300 31.97600
C  18.62200 -1.89900 31.76200
C  18.60100 -2.19500 30.30200
C  20.02800 -1.36300 32.07600
C  16.27200 -1.52200 32.90100
C  16.11500 -0.97500 34.37500
H  17.40300 -0.23100 34.88400
N  18.54200 -3.21400 27.36700
C  19.31300 -3.74900 28.41700
C  20.01500 -4.91900 27.87400
C  19.83000 -4.85700 26.45400
C  18.82300 -3.83000 26.17800
C  20.92700 -5.68800 28.79100
C  20.43300 -5.75000 25.39700
O  20.16000 -5.76200 24.17400
C  21.55200 -6.70900 25.76100
N  16.79700 -1.69200 25.41800
C  17.29800 -2.55400 24.52700
C  16.94400 -2.16400 23.08900
C  15.81500 -1.09000 23.29300
C  15.87800 -0.85300 24.79500
C  18.17200 -1.66700 22.28200
C  14.43600 -1.56700 22.75300
C  13.70300 -2.53300 23.70900
N  15.64000 -0.28100 27.74200
C  14.85400 0.32500 26.74200
C  13.99100 1.33600 27.38100
C  14.35500 1.28400 28.73000
C  15.34100 0.34500 28.89000
C  13.07300 2.28400 26.71000
C  14.03900 1.85900 30.03300
O  13.26000 2.70800 30.43700
C  14.92000 1.10300 31.08400
C  15.58800 2.00700 32.06500
O  16.73600 2.39900 32.07400
O  14.61300 2.55500 32.82300
C  15.00900 3.45600 33.93200
H  20.09900 -3.75100 30.30300
H  18.54200 -4.07600 24.03300
H  14.45600 0.53700 24.65900
H  17.86300 -0.02600 32.43000
H  18.46400 -2.85100 32.26900
H  19.95600 -0.32700 32.40900
H  20.60000 -1.39500 31.14900
H  20.41000 -2.04300 32.83800
H  16.33700 -2.60900 32.87600
H  15.34800 -1.34900 32.34900
H  15.85200 -1.74800 35.09700
H  15.28400 -0.27400 34.28900
H  21.93000 -5.27100 28.69400
H  20.91700 -6.75800 28.58500
H  20.70700 -5.52800 29.84700
H  21.03500 -7.64900 25.95100
H  22.18800 -6.50700 26.62300
H  22.21300 -6.71900 24.89400
H  16.51300 -3.05700 22.63500
H  16.05600 -0.18600 22.73500
H  18.08000 -0.66700 21.85700
H  18.41500 -2.46600 21.58100
H  19.05800 -1.59300 22.91200
H  14.53600 -2.12800 21.82400
H  13.78000 -0.72900 22.51600
H  13.21700 -1.92500 24.47200
H  14.40300 -3.22500 24.17800
H  12.90900 -2.93300 23.08000
H  12.44100 2.77100 27.45300
H  12.45600 1.70600 26.02100
H  13.74200 2.97700 26.20100
H  14.25200 0.43600 31.62900
H  14.25300 3.34200 34.70800
H  15.04600 4.49700 33.61100
H  15.98700 3.28200 34.37800
Mg 40.01800 10.13800 29.46900
C  41.99300 11.41500 32.15800
C  37.84500 8.98200 31.79300
C  38.46900 8.72500 27.00000
C  42.71900 10.90300 27.37000
N  39.95700 10.12900 31.75400
C  40.70800 10.91400 32.60200
C  40.16700 10.93800 34.01200
C  38.88900 10.01000 33.87500
C  38.85100 9.68800 32.38300
C  38.81100 8.84300 34.88700
C  39.94300 12.37600 34.51600
C  40.63300 12.76100 35.81800
H  39.77000 13.61600 36.81700
N  38.32500 9.03700 29.44600
C  37.54900 8.61100 30.47900
C  36.33000 8.01900 29.91100
C  36.42100 8.01500 28.49200
C  37.81600 8.58200 28.27400
C  35.21000 7.58400 30.92400
C  35.45300 7.54400 27.42700
O  35.69400 7.54900 26.20400
C  34.14100 7.03500 27.80000
N  40.64100 9.78000 27.51200
C  39.72500 9.20200 26.67300
C  40.16700 9.29200 25.17300
C  41.52500 9.94900 25.36600
C  41.66200 10.19900 26.81300
C  40.26500 7.96500 24.36500
C  41.78400 11.24800 24.50300
C  41.18600 12.58700 24.93800
N  41.87100 11.01000 29.64800
C  42.82100 11.31300 28.72300
C  44.00100 11.93900 29.31600
C  43.70200 12.04500 30.61500
C  42.43200 11.39400 30.82200
C  45.31400 12.26100 28.67300
C  44.18300 12.52000 31.85800
O  45.27000 13.11100 32.05800
C  43.13600 12.10300 32.96600
C  43.79000 11.23000 34.00600
O  43.82000 10.00900 33.97800
O  44.11700 11.96900 35.06900
C  44.29500 11.17300 36.33300
H  37.22000 8.59700 32.60200
H  37.92400 8.40400 26.10900
H  43.50700 11.10600 26.64200
H  40.87500 10.47600 34.69900
H  37.94100 10.54000 33.97000
H  37.88200 8.66900 35.43100
H  39.56000 9.04300 35.65300
H  39.12600 7.91300 34.41300
H  38.85400 12.38800 34.57900
H  40.15000 13.11400 33.74100
H  41.46900 13.36600 35.46900
H  41.05100 11.90500 36.34800
H  34.61400 8.38300 31.36500
H  35.66400 7.19900 31.83700
H  34.58100 6.78200 30.53800
H  34.17300 6.38500 28.67400
H  33.52600 6.57600 27.02600
H  33.58200 7.91700 28.11400
H  39.53800 9.94000 24.56300
H  42.30800 9.23100 25.12500
H  39.45100 7.95400 23.64100
H  40.18300 7.06400 24.97300
H  41.16500 8.00800 23.75100
H  41.60600 10.93700 23.47400
H  42.86000 11.38100 24.60800
H  40.71300 13.15900 24.13900
H  41.91800 13.21700 25.44400
H  40.35800 12.33800 25.60100
H  45.21000 13.28800 28.32300
H  45.50000 11.63900 27.79700
H  46.18600 12.33000 29.32300
H  42.74100 13.00400 33.43400
H  44.03000 10.12100 36.23600
H  43.48400 11.65200 36.88200
H  45.28600 11.42000 36.71400

