158

Mg -10.38500 41.05100 40.57500
C  -9.18700 37.76700 39.75400
C  -7.24200 42.19100 39.33200
C  -11.71600 43.95800 39.98500
C  -13.44900 39.60800 41.18200
N  -8.40700 40.03300 39.73200
C  -8.17800 38.72900 39.48800
C  -6.80400 38.45100 38.92900
C  -6.14200 39.86800 39.07900
C  -7.32400 40.76200 39.47400
C  -5.01700 39.96000 40.08600
C  -6.90100 37.95500 37.46300
C  -5.49600 37.61300 36.91600
H  -5.46200 36.63600 35.73800
N  -9.57000 42.88100 39.91700
C  -8.29600 43.14200 39.50500
C  -8.16600 44.54100 39.44800
C  -9.40300 45.07800 39.57300
C  -10.31700 43.97800 39.70500
C  -6.79100 45.13800 39.11100
C  -9.61300 46.58900 39.63900
O  -8.65100 47.32100 39.49500
C  -10.89300 47.29500 39.88200
N  -12.28600 41.71200 40.62800
C  -12.62400 42.98500 40.43000
C  -14.08500 43.28300 40.73300
C  -14.59500 41.88300 41.15900
C  -13.39100 41.01200 40.97600
C  -14.35700 44.54300 41.58800
C  -15.84400 41.50500 40.37400
C  -16.85400 40.72700 41.13000
N  -11.12500 39.03500 40.63700
C  -12.41100 38.63900 40.94000
C  -12.42800 37.23100 40.95400
C  -11.18600 36.76200 40.47900
C  -10.45400 37.95600 40.21700
C  -13.55200 36.28600 41.21400
C  -10.35700 35.63800 40.16300
O  -10.55100 34.44400 40.25400
C  -9.02700 36.28200 39.55600
C  -7.94300 35.82400 40.36900
O  -7.92900 35.92300 41.56700
O  -7.14000 34.96900 39.61800
C  -6.26500 34.08900 40.41800
H  -6.24000 42.54900 39.08400
H  -12.18400 44.93800 39.87200
H  -14.39300 39.08800 41.36200
H  -6.21700 37.65100 39.37900
H  -5.74800 40.21500 38.12400
H  -4.02800 40.04600 39.63500
H  -5.00300 39.10800 40.76600
H  -5.12200 40.77000 40.80800
H  -7.28000 38.69000 36.75200
H  -7.64800 37.18800 37.25600
H  -4.93800 37.24600 37.77700
H  -5.10100 38.61000 36.72100
H  -6.88800 46.07500 38.56200
H  -6.16400 44.52900 38.46000
H  -6.29000 45.33800 40.05800
H  -10.51700 48.29300 40.10500
H  -11.25900 46.80000 40.78200
H  -11.56500 47.19100 39.03000
H  -14.49100 43.46100 39.73700
H  -14.77400 41.93400 42.23300
H  -15.23000 44.36100 42.21400
H  -14.61000 45.34300 40.89300
H  -13.45500 44.84000 42.12500
H  -15.51300 40.97000 39.48400
H  -16.32800 42.40600 39.99600
H  -16.80600 39.71400 40.73100
H  -17.85200 41.16400 41.09000
H  -16.59500 40.72000 42.18800
H  -13.80000 35.58400 40.41900
H  -14.49200 36.74200 41.52800
H  -13.28900 35.68700 42.08600
H  -8.88600 36.07400 38.49600
H  -5.67100 33.48600 39.73100
H  -6.96900 33.46300 40.96600
H  -5.64600 34.70700 41.06800
Mg -4.96800 25.94700 26.72900
C  -3.80400 27.52300 29.55900
C  -6.65200 23.83100 28.57200
C  -5.71200 24.32800 23.84200
C  -2.69400 27.97400 24.78900
N  -5.19500 25.75100 28.89600
C  -4.74600 26.53100 29.88400
C  -5.37400 26.18800 31.22000
C  -6.08900 24.78100 30.87300
C  -6.03000 24.78400 29.30800
C  -5.43200 23.50900 31.52500
C  -6.33100 27.27800 31.79200
C  -6.14000 27.67900 33.20400
H  -5.72700 26.66000 34.29600
N  -6.15100 24.39600 26.26700
C  -6.74300 23.64000 27.16300
C  -7.62900 22.65200 26.45300
C  -7.44000 22.84300 25.11900
C  -6.42900 23.97200 24.97500
C  -8.41500 21.56500 27.14400
C  -8.06800 22.10700 23.92200
O  -7.81000 22.53000 22.78900
C  -9.02000 20.93800 24.17200
N  -4.21600 26.12700 24.64200
C  -4.65700 25.25400 23.66900
C  -3.95500 25.42200 22.33500
C  -3.03900 26.62400 22.61800
C  -3.40100 27.01300 24.08400
C  -3.29600 24.18700 21.78700
C  -3.28100 27.79900 21.63300
C  -1.97900 28.12200 20.96300
N  -3.51400 27.51700 27.07700
C  -2.71600 28.22000 26.18600
C  -1.99500 29.17100 26.97900
C  -2.39000 28.97400 28.31500
C  -3.28300 27.93100 28.30300
C  -1.03000 30.23700 26.46200
C  -2.28400 29.38200 29.75000
O  -1.57700 30.26800 30.20800
C  -3.17300 28.43200 30.58400
C  -2.22800 27.68700 31.54000
O  -1.57800 26.67500 31.22900
O  -2.19500 28.29300 32.75300
C  -1.20000 27.71900 33.72900
H  -7.07400 23.01300 29.16000
H  -5.81400 23.71300 22.94600
H  -2.18800 28.74700 24.20700
H  -4.61700 25.99300 31.97900
H  -7.15800 24.73800 31.08400
H  -6.16200 22.89500 32.05300
H  -4.57600 23.84000 32.11300
H  -5.02800 22.88800 30.72600
H  -7.34900 26.91600 31.64300
H  -6.11000 28.18900 31.23500
H  -7.14200 27.98100 33.50900
H  -5.30500 28.37300 33.10600
H  -8.01400 20.58500 26.88300
H  -9.47400 21.73600 26.94700
H  -8.42900 21.72500 28.22200
H  -8.59900 20.26300 24.91600
H  -9.05400 20.45500 23.19500
H  -9.92400 21.48000 24.44900
H  -4.76400 25.69500 21.65800
H  -2.01200 26.26200 22.67000
H  -4.00000 23.74600 21.08100
H  -3.28000 23.47800 22.61400
H  -2.29600 24.32800 21.37700
H  -3.72600 28.63300 22.17400
H  -3.81800 27.46100 20.74600
H  -1.40100 28.73300 21.65600
H  -2.08100 28.35900 19.90400
H  -1.19100 27.37200 21.02800
H  -1.49200 30.97900 25.81000
H  -0.39000 29.78000 25.70700
H  -0.51200 30.67200 27.31700
H  -3.84700 29.06900 31.15600
H  -1.60400 26.74000 33.99000
H  -1.37400 28.25200 34.66400
H  -0.19600 27.69800 33.30700

