158

Mg -0.68500 43.30600 24.84100
C  1.52400 43.18100 27.69100
C  -3.15800 42.20900 26.92400
C  -2.61400 43.41000 22.13700
C  2.04700 44.30900 22.87500
N  -0.76600 42.82900 27.03300
C  0.18400 42.89500 27.99500
C  -0.36800 42.64400 29.36600
C  -1.80600 42.18100 29.05900
C  -1.94800 42.37700 27.58100
C  -2.23700 40.79700 29.57000
C  -0.13900 43.93100 30.24400
C  0.46600 43.85700 31.68100
H  0.05700 42.67700 32.58600
N  -2.66400 42.74100 24.53300
C  -3.46400 42.29000 25.53700
C  -4.79500 41.96600 24.88800
C  -4.64700 42.30200 23.47800
C  -3.23400 42.84200 23.29100
C  -5.90700 41.31300 25.62500
C  -5.68600 42.18700 22.24600
O  -5.36000 42.48200 21.09400
C  -7.05000 41.70200 22.52500
N  -0.29900 43.56000 22.74100
C  -1.33200 43.73400 21.82100
C  -0.88200 44.45300 20.49700
C  0.56000 44.96600 20.91500
C  0.75200 44.25700 22.24200
C  -0.92100 43.42800 19.27900
C  0.56000 46.55300 21.14800
C  0.72300 47.38100 19.90100
N  1.31600 43.64200 25.19800
C  2.32200 43.90000 24.21100
C  3.62000 43.83400 24.90700
C  3.33800 43.54300 26.25900
C  1.99400 43.47800 26.40100
C  4.96500 44.26700 24.37300
C  3.99600 43.26600 27.52900
O  5.20100 43.19900 27.80400
C  2.74000 43.02900 28.54700
C  2.96700 41.79200 29.29500
O  2.95200 40.65400 28.82600
O  3.31800 42.12500 30.63500
C  3.52500 40.96500 31.55900
H  -3.99800 42.08200 27.61000
H  -3.21600 43.64100 21.25600
H  2.79300 44.83800 22.27900
H  0.12900 41.80000 29.84500
H  -2.55500 42.85500 29.47500
H  -3.19900 40.88700 30.07300
H  -1.56100 40.35700 30.30300
H  -2.42600 40.08100 28.77000
H  -1.03400 44.55300 30.27900
H  0.63700 44.56900 29.82000
H  0.18600 44.84900 32.03600
H  1.55300 43.88200 31.60300
H  -5.91200 41.35800 26.71400
H  -5.93600 40.27100 25.30600
H  -6.87500 41.73100 25.34800
H  -7.15100 40.68800 22.91200
H  -7.43100 41.70600 21.50400
H  -7.57200 42.41800 23.16000
H  -1.47500 45.34900 20.31600
H  1.26600 44.66400 20.14200
H  -1.58200 42.58600 19.48300
H  0.12700 43.13700 19.20900
H  -1.18700 43.91100 18.33900
H  1.38300 46.84400 21.80100
H  -0.41800 46.77600 21.57500
H  1.00000 46.74900 19.05700
H  1.49100 48.07900 20.23300
H  -0.21400 47.90000 19.69600
H  4.76700 45.02100 23.61200
H  5.53100 43.45500 23.91400
H  5.56000 44.55500 25.24000
H  2.89100 43.85700 29.24000
H  3.09000 40.04800 31.16300
H  3.07000 41.32800 32.48100
H  4.56400 40.79800 31.84300
Mg -5.02400 24.80900 26.70700
C  -3.76400 26.81600 29.44700
C  -6.01300 22.56400 29.18300
C  -6.16100 22.88900 24.16200
C  -3.39900 26.84400 24.50400
N  -4.90800 24.75600 29.10800
C  -4.51600 25.77900 29.97900
C  -5.07700 25.52600 31.38100
C  -5.57500 24.00900 31.31000
C  -5.56100 23.77900 29.82400
C  -4.61400 23.01400 32.11700
C  -6.19200 26.57500 31.84900
C  -5.97600 27.22100 33.21500
H  -6.96300 26.80400 34.25600
N  -5.96000 22.97000 26.64400
C  -6.29500 22.24400 27.77000
C  -6.83600 21.02300 27.26500
C  -6.83500 21.04200 25.84900
C  -6.35700 22.35700 25.45000
C  -7.42800 20.07200 28.13700
C  -7.30800 20.07200 24.75100
O  -7.38900 20.34200 23.53200
C  -7.59400 18.64300 25.22400
N  -4.99000 24.85400 24.65400
C  -5.54900 24.06700 23.74100
C  -5.24600 24.35100 22.31700
C  -4.32800 25.66800 22.43600
C  -4.24800 25.80500 23.95700
C  -4.56000 23.17200 21.57000
C  -4.88600 26.96700 21.75300
C  -3.99100 27.71300 20.79800
N  -3.91400 26.53400 26.86300
C  -3.27900 27.20200 25.85700
C  -2.55600 28.26500 26.41000
C  -2.68400 28.13800 27.77400
C  -3.54600 27.08900 28.06900
C  -1.71500 29.26300 25.55200
C  -2.37200 28.77400 29.02000
O  -1.63000 29.72500 29.25100
C  -3.02100 27.92400 30.20600
C  -1.88700 27.37900 31.06500
O  -0.77700 27.08900 30.63200
O  -2.27900 27.21300 32.35400
C  -1.26400 26.72400 33.32000
H  -6.30300 21.81000 29.91800
H  -6.40400 22.26900 23.29700
H  -2.76700 27.38300 23.79400
H  -4.28200 25.49800 32.12700
H  -6.56300 23.71300 31.66200
H  -4.18300 22.20900 31.52100
H  -5.19000 22.58200 32.93500
H  -3.80200 23.59300 32.55800
H  -7.17900 26.11100 31.84900
H  -6.22100 27.36200 31.09500
H  -5.98200 28.29700 33.04100
H  -5.02300 26.89800 33.63400
H  -8.44300 19.89800 27.77900
H  -7.45300 20.30600 29.20100
H  -6.87000 19.14900 27.97900
H  -7.86200 17.88000 24.49300
H  -8.39100 18.71700 25.96300
H  -6.62800 18.43400 25.68400
H  -6.25300 24.47600 21.92000
H  -3.33200 25.36500 22.11500
H  -4.00300 22.55700 22.27700
H  -3.92500 23.41600 20.71900
H  -5.37000 22.49400 21.29900
H  -5.11900 27.69100 22.53400
H  -5.81600 26.81700 21.20500
H  -3.60000 28.61500 21.26900
H  -4.47200 27.90400 19.83900
H  -3.15300 27.07700 20.51600
H  -2.20800 29.81100 24.75000
H  -0.81800 28.74900 25.20600
H  -1.47900 29.91900 26.39000
H  -3.68800 28.51000 30.83800
H  -0.31000 27.25000 33.27700
H  -1.22900 25.66400 33.06900
H  -1.76400 26.85200 34.27900

