158

Mg 40.85700 7.44100 28.79700
C  42.64500 9.18400 31.48200
C  38.75300 6.47500 31.35300
C  39.16600 5.87400 26.42900
C  43.30500 8.36200 26.61300
N  40.77800 7.74200 31.15300
C  41.52800 8.54800 31.94600
C  41.00400 8.56500 33.38300
C  39.96200 7.41900 33.34300
C  39.87400 7.09200 31.88800
C  40.20900 6.24400 34.21300
C  40.37400 9.95800 33.89300
C  39.84600 9.84200 35.32700
H  40.39600 10.77100 36.41600
N  39.18100 6.35800 28.83500
C  38.40600 6.11200 29.95000
C  37.21300 5.45000 29.56400
C  37.26600 5.35300 28.11600
C  38.59300 5.80300 27.76300
C  36.17700 4.91800 30.55300
C  36.19000 4.97000 27.11800
O  36.27600 4.88800 25.91100
C  34.85300 4.57400 27.67500
N  41.29600 7.01500 26.84000
C  40.38800 6.41700 25.99300
C  40.95300 6.40900 24.56200
C  42.17500 7.30600 24.69400
C  42.23300 7.58100 26.11900
C  41.31200 5.06600 23.93300
C  41.97700 8.57500 23.82800
C  41.08800 9.76200 24.25200
N  42.62300 8.43200 29.01500
C  43.52200 8.70700 28.03100
C  44.66900 9.44000 28.52000
C  44.35200 9.68500 29.88000
C  43.09900 9.07600 30.15600
C  45.78000 9.95000 27.70600
C  44.74400 10.42500 31.13100
O  45.70500 11.15900 31.34300
C  43.65000 10.05800 32.25700
C  44.37100 9.47100 33.37300
O  45.28600 8.65100 33.26800
O  43.86100 10.09300 34.48600
C  44.28200 9.38800 35.70900
H  38.00800 6.28600 32.12900
H  38.63500 5.35600 25.62800
H  44.04200 8.77200 25.92000
H  41.83500 8.39100 34.06700
H  39.00200 7.90300 33.52300
H  39.25700 5.76100 34.43100
H  40.73900 6.51800 35.12500
H  40.79500 5.45100 33.74700
H  39.55700 10.35100 33.28800
H  41.21700 10.64100 34.00400
H  39.94500 8.82500 35.70600
H  38.77200 10.02400 35.32200
H  35.95300 3.89900 30.23800
H  35.26800 5.51100 30.45200
H  36.46600 4.94400 31.60400
H  34.07400 4.25500 26.98200
H  34.47300 5.46800 28.16900
H  34.90900 3.79500 28.43500
H  40.25000 6.89900 23.88800
H  43.12100 6.93900 24.29500
H  41.00700 4.27300 24.61500
H  42.36600 4.83100 23.79000
H  40.82800 4.93000 22.96600
H  41.67100 8.32300 22.81300
H  42.93700 9.07100 23.68500
H  40.38200 9.94500 23.44200
H  41.81500 10.54100 24.48100
H  40.36600 9.61700 25.05500
H  45.36000 10.81200 27.18800
H  46.04800 9.23000 26.93200
H  46.52300 10.29600 28.42400
H  43.15500 10.99000 32.52900
H  44.31700 8.31200 35.53700
H  43.58500 9.50900 36.53900
H  45.25200 9.73200 36.06900
Mg -4.75800 24.93400 26.06600
C  -3.18400 26.60800 28.66600
C  -6.24000 22.95000 28.21500
C  -5.56200 23.11800 23.39300
C  -2.98100 27.04100 23.85600
N  -4.73900 24.84700 28.25800
C  -3.97100 25.58100 29.09500
C  -4.36600 25.30300 30.56300
C  -5.07400 23.94200 30.39200
C  -5.42800 23.90600 28.88600
C  -4.19100 22.75000 30.78000
C  -5.14700 26.48500 31.16900
C  -6.13500 26.12600 32.30100
H  -5.68000 25.11800 33.37900
N  -5.69900 23.26300 25.85900
C  -6.20800 22.52700 26.88100
C  -6.87000 21.29800 26.40800
C  -6.70500 21.37700 24.98500
C  -5.96800 22.66600 24.69400
C  -7.65800 20.36600 27.30300
C  -7.11700 20.34100 23.88100
O  -6.91100 20.49200 22.70000
C  -7.77400 19.06500 24.27800
N  -4.52000 25.15000 23.88900
C  -4.93400 24.25900 22.94900
C  -4.76200 24.87300 21.49500
C  -3.90100 26.12000 21.78100
C  -3.78200 26.10500 23.26800
C  -4.29600 23.95100 20.34000
C  -4.47700 27.52900 21.25500
C  -3.44700 28.40100 20.51800
N  -3.32300 26.50400 26.15300
C  -2.68500 27.25900 25.22400
C  -1.76900 28.25300 25.89500
C  -1.90800 27.99100 27.19500
C  -2.86800 26.89900 27.31700
C  -0.95500 29.24300 25.13800
C  -1.49300 28.46500 28.52400
O  -0.72300 29.34800 28.87800
C  -2.32400 27.55000 29.46400
C  -1.42100 26.91200 30.43200
O  -0.30800 26.46500 30.13900
O  -1.89800 26.93000 31.77100
C  -1.13000 26.05800 32.64600
H  -6.94700 22.41500 28.85200
H  -5.76000 22.55300 22.47900
H  -2.52600 27.69500 23.10900
H  -3.46100 25.16600 31.15400
H  -6.00200 23.87000 30.95800
H  -4.32700 21.93100 30.07400
H  -4.46000 22.38800 31.77200
H  -3.12400 22.96100 30.70300
H  -5.68000 26.98600 30.36100
H  -4.43400 27.20100 31.57800
H  -7.06500 25.80400 31.83200
H  -6.35100 27.07100 32.79800
H  -8.68300 20.52600 26.96800
H  -7.68300 20.56900 28.37300
H  -7.30800 19.34700 27.14100
H  -8.69400 19.18300 24.85200
H  -6.96500 18.61300 24.85200
H  -8.09400 18.41600 23.46300
H  -5.73700 25.21800 21.14900
H  -2.93900 25.98000 21.28700
H  -4.28300 22.89200 20.59900
H  -3.27400 24.24500 20.10100
H  -4.90100 23.98400 19.43400
H  -4.75500 28.11400 22.13200
H  -5.27100 27.26700 20.55600
H  -2.63500 27.73600 20.22300
H  -3.15200 29.26300 21.11600
H  -3.92000 28.76900 19.60800
H  -0.92000 28.85600 24.12000
H  0.03800 29.44300 25.54200
H  -1.49200 30.18800 25.06800
H  -3.02700 28.20200 29.98300
H  -0.09800 26.40700 32.69100
H  -1.09300 25.09000 32.14700
H  -1.48400 25.98800 33.67500

