158

Mg 23.34700 -5.34700 44.61000
C  24.92100 -2.66100 43.25000
C  20.37900 -4.56800 43.09100
C  22.07200 -8.46300 45.38000
C  26.52300 -6.64500 45.69200
N  22.75100 -3.70900 43.41000
C  23.56500 -2.74500 42.85700
C  22.78300 -1.70900 41.97600
C  21.31700 -2.16600 42.27200
C  21.43500 -3.58100 43.00700
C  20.56800 -1.17200 43.18600
C  23.18000 -1.82500 40.46900
C  23.86100 -0.59300 39.85200
H  25.07900 -0.74100 38.97200
N  21.48400 -6.30900 44.35300
C  20.36000 -5.83100 43.67800
C  19.22700 -6.76100 43.79100
C  19.72200 -7.89900 44.48400
C  21.13700 -7.58600 44.79100
C  17.95100 -6.48200 43.11800
C  18.92300 -9.10300 44.74300
O  17.69900 -9.07900 44.55200
C  19.43600 -10.43100 45.23000
N  24.23300 -7.36000 45.30900
C  23.47000 -8.38200 45.69900
C  24.25600 -9.47700 46.53300
C  25.67900 -8.77500 46.66200
C  25.44500 -7.43600 45.94400
C  23.70200 -10.00400 47.89800
C  26.85300 -9.71300 46.23100
C  28.15500 -9.77400 47.08100
N  25.36200 -4.79500 44.54800
C  26.51300 -5.42400 44.96200
C  27.66500 -4.59400 44.66300
C  27.07100 -3.45400 43.98100
C  25.64400 -3.66800 43.94300
C  29.12300 -4.93200 44.88900
C  27.30300 -2.20600 43.29100
O  28.36200 -1.57100 43.21400
C  25.88400 -1.67300 42.75600
C  25.59300 -0.36200 43.38600
O  24.74000 -0.09900 44.20700
O  26.50300 0.54900 42.84900
C  26.34200 1.90900 43.28100
H  19.41600 -4.26200 42.67500
H  21.66800 -9.43500 45.67100
H  27.54600 -6.98200 45.87300
H  22.97500 -0.72500 42.40500
H  20.67800 -2.19200 41.38900
H  20.95400 -0.15300 43.15400
H  20.47400 -1.50200 44.22100
H  19.56700 -1.03800 42.77800
H  22.36400 -2.20200 39.85300
H  23.75100 -2.74200 40.31800
H  23.97100 0.13300 40.65700
H  23.14300 -0.21800 39.12300
H  17.97000 -6.84100 42.08900
H  17.66600 -5.43500 43.01100
H  17.16000 -6.92300 43.72400
H  18.74300 -11.24800 45.03100
H  19.67100 -10.36300 46.29300
H  20.19800 -10.66400 44.48600
H  24.28900 -10.35400 45.88600
H  25.86400 -8.45500 47.68800
H  22.66000 -9.68600 47.94200
H  24.15900 -9.48000 48.73800
H  23.71400 -11.08200 48.05600
H  27.12600 -9.41600 45.21900
H  26.48600 -10.72200 46.04500
H  28.85600 -9.21600 46.46000
H  28.56700 -10.78100 47.15400
H  27.95300 -9.38300 48.07800
H  29.31500 -5.55500 45.76300
H  29.53800 -3.94700 45.10200
H  29.52800 -5.36700 43.97600
H  25.98300 -1.45300 41.69300
H  25.50100 2.40100 42.79200
H  27.18200 2.47500 42.87500
H  26.27700 2.01100 44.36400
Mg -12.01700 15.89600 41.52800
C  -9.25700 13.84500 41.11000
C  -10.23900 18.46100 40.16900
C  -15.00300 17.62800 41.21900
C  -13.84200 13.18600 42.86000
N  -9.99200 16.09900 40.77400
C  -8.97400 15.21200 40.82600
C  -7.67600 15.85400 40.32700
C  -7.98800 17.38600 40.28600
C  -9.50600 17.35300 40.45000
C  -7.36800 18.18500 41.41200
C  -7.14600 15.18800 39.02200
C  -5.60100 14.93500 38.95800
H  -4.92700 15.71000 37.80200
N  -12.57400 17.77300 40.82100
C  -11.63800 18.66600 40.26700
C  -12.37900 19.68500 39.64300
C  -13.81000 19.56600 39.92400
C  -13.88000 18.28100 40.74400
C  -11.76300 20.83300 38.92200
C  -14.89400 20.51100 39.50700
O  -14.64700 21.42500 38.75000
C  -16.27200 20.34500 40.05100
N  -14.13700 15.48300 41.99400
C  -15.18800 16.35400 41.78200
C  -16.49200 15.81900 42.23900
C  -16.06600 14.41600 42.80100
C  -14.55000 14.32900 42.56600
C  -17.21900 16.72700 43.18800
C  -17.00900 13.23200 42.20700
C  -17.89600 12.42400 43.23700
N  -11.71700 13.86200 41.89500
C  -12.50800 12.88200 42.42500
C  -11.69100 11.67400 42.52400
C  -10.42100 11.96500 42.04900
C  -10.51000 13.30100 41.65300
C  -12.12000 10.41700 43.23700
C  -9.03300 11.54400 41.82400
O  -8.46400 10.50500 42.04800
C  -8.30400 12.72000 41.23100
C  -7.13300 13.13200 42.17600
O  -7.32400 13.62800 43.23100
O  -5.86800 12.73200 41.61300
C  -4.79300 13.34300 42.38800
H  -9.57200 19.32100 40.07900
H  -15.94400 18.16000 41.06800
H  -14.45100 12.36400 43.24300
H  -6.98100 15.71400 41.15500
H  -7.52100 17.75200 39.37200
H  -8.12000 18.44100 42.15800
H  -7.04000 19.14000 41.00200
H  -6.45700 17.74900 41.82300
H  -7.39200 15.97700 38.31100
H  -7.80600 14.35200 38.78800
H  -5.38900 13.87200 38.85000
H  -5.15300 15.21000 39.91300
H  -12.03700 20.97000 37.87600
H  -10.67600 20.88300 38.98600
H  -12.07000 21.78400 39.35800
H  -16.85400 21.11600 39.54700
H  -16.18800 20.33200 41.13800
H  -16.72700 19.39100 39.78500
H  -17.09800 15.71500 41.33900
H  -16.07900 14.27400 43.88100
H  -18.20000 16.88900 42.74000
H  -16.64200 17.64300 43.31300
H  -17.26500 16.19600 44.13900
H  -16.44800 12.46900 41.66800
H  -17.65400 13.58100 41.40100
H  -17.96500 13.03400 44.13700
H  -17.69600 11.37300 43.44300
H  -18.90400 12.28000 42.84700
H  -12.78800 9.87900 42.56500
H  -12.79200 10.82500 43.99200
H  -11.33100 9.73100 43.54400
H  -7.75000 12.59500 40.30100
H  -4.76400 12.84600 43.35800
H  -4.81500 14.43200 42.44000
H  -3.93900 13.13100 41.74400

