158

Mg 24.54000 -5.48200 45.86600
C  27.00500 -3.71300 44.30300
C  22.18600 -4.20900 43.66700
C  22.50500 -8.01700 46.80600
C  27.06800 -6.83100 48.01400
N  24.58000 -4.03700 44.27300
C  25.73700 -3.52800 43.72800
C  25.51600 -2.61400 42.50100
C  23.91800 -2.60800 42.43400
C  23.51800 -3.73800 43.50400
C  23.26300 -1.20700 42.77900
C  26.14400 -3.00800 41.16500
C  26.87600 -1.93800 40.43700
H  27.27200 -2.06200 38.92300
N  22.58900 -5.98800 45.40600
C  21.76300 -5.24900 44.49100
C  20.47900 -5.95500 44.49700
C  20.41500 -6.95800 45.49700
C  21.89100 -7.02500 45.97800
C  19.50800 -5.51800 43.47800
C  19.30800 -7.65300 45.98600
O  18.20100 -7.52500 45.48700
C  19.27100 -8.53100 47.30500
N  24.86700 -7.28100 47.02300
C  23.77100 -8.11800 47.36500
C  24.15500 -9.14000 48.39800
C  25.55000 -8.60600 48.97900
C  25.86400 -7.45700 48.00700
C  23.05900 -9.42000 49.49400
C  26.74500 -9.64900 49.06500
C  27.20000 -10.01600 50.48800
N  26.59200 -5.23500 46.18300
C  27.48700 -5.87900 47.03500
C  28.75300 -5.25700 46.97100
C  28.68100 -4.38200 45.87900
C  27.35500 -4.48600 45.41300
C  30.02900 -5.67200 47.70400
C  29.42100 -3.46400 44.97000
O  30.57000 -3.15100 44.89100
C  28.26900 -2.82500 44.09200
C  28.18000 -1.39500 44.49300
O  28.18700 -0.95100 45.62700
O  28.43800 -0.70500 43.35200
C  28.90500 0.65100 43.46800
H  21.48000 -3.63600 43.06200
H  21.84900 -8.83400 47.11600
H  27.76700 -7.04800 48.82400
H  25.76400 -1.61300 42.85400
H  23.54200 -3.04500 41.51000
H  22.46500 -1.13200 42.04100
H  23.79000 -0.25500 42.70600
H  22.72100 -1.23600 43.72400
H  25.38600 -3.31300 40.44300
H  26.83300 -3.82500 41.37600
H  27.83000 -1.81100 40.94700
H  26.33500 -1.00100 40.57500
H  20.00900 -5.37600 42.52000
H  19.16000 -4.53300 43.79000
H  18.64000 -6.15800 43.32300
H  18.25000 -8.63800 47.67400
H  19.98200 -8.18300 48.05400
H  19.65700 -9.52300 47.07100
H  24.39900 -10.04300 47.83800
H  25.29700 -8.04600 49.87900
H  22.60900 -10.41200 49.48000
H  22.25900 -8.68100 49.44300
H  23.42800 -9.26600 50.50800
H  27.64400 -9.27200 48.57600
H  26.42200 -10.51100 48.48200
H  27.01300 -11.08900 50.53700
H  26.64600 -9.44300 51.23100
H  28.20800 -9.69200 50.74400
H  30.65300 -6.31100 47.07900
H  29.73500 -6.17700 48.62400
H  30.60200 -4.74700 47.77400
H  28.58100 -2.91300 43.05100
H  29.69100 0.66500 44.22300
H  28.18100 1.43000 43.71100
H  29.33700 0.83500 42.48400
Mg 9.76800 48.08600 25.98100
C  7.45000 47.91000 28.64300
C  12.10600 49.51100 28.08500
C  11.81000 48.31700 23.38000
C  7.12300 47.07500 23.92000
N  9.63100 48.92700 27.99300
C  8.70300 48.48500 28.99500
C  9.24100 48.67100 30.52100
C  10.61800 49.41300 30.18100
C  10.83200 49.25200 28.66300
C  10.60600 50.88100 30.71300
C  9.26200 47.28300 31.28300
C  10.27600 47.07000 32.42500
H  9.83400 46.09400 33.53500
N  11.73100 48.75700 25.77600
C  12.51100 49.30900 26.74300
C  13.87100 49.38100 26.24000
C  13.75200 49.07800 24.84900
C  12.37300 48.74000 24.61200
C  15.01700 49.85200 26.97800
C  14.84000 49.07300 23.77900
O  14.69800 48.83100 22.59900
C  16.25700 49.46800 24.18800
N  9.57600 47.75600 23.92200
C  10.52400 47.87100 22.97600
C  10.19400 47.23600 21.59600
C  8.69700 46.82500 21.85700
C  8.42900 47.18600 23.35300
C  10.43400 48.18000 20.42800
C  8.39300 45.37500 21.51300
C  8.63300 44.20700 22.52100
N  7.71000 47.65700 26.16500
C  6.83800 47.29400 25.24300
C  5.52300 47.08800 25.84200
C  5.72800 47.31400 27.20800
C  7.09000 47.62700 27.30500
C  4.24200 46.76500 25.09300
C  5.06600 47.29900 28.48900
O  3.93400 47.00600 28.82600
C  6.23400 47.61500 29.50100
C  6.37400 46.31900 30.20900
O  7.04000 45.37500 29.80400
O  5.74600 46.41100 31.41500
C  5.91000 45.28600 32.33500
H  12.90800 49.81600 28.76100
H  12.49900 48.21400 22.54000
H  6.35000 46.75200 23.21900
H  8.54500 49.36600 30.99000
H  11.36600 48.77400 30.65100
H  11.51800 50.92700 31.30800
H  9.78700 51.03100 31.41700
H  10.52200 51.56800 29.87100
H  9.49400 46.45100 30.61800
H  8.27600 47.07900 31.70100
H  10.26600 48.06600 32.86600
H  11.29400 47.08600 32.03600
H  14.77100 50.50900 27.81300
H  15.60000 50.60500 26.44800
H  15.79700 49.15700 27.28900
H  16.26700 50.52200 24.46600
H  16.90400 49.32100 23.32300
H  16.64900 48.85200 24.99800
H  10.77400 46.31800 21.50400
H  8.02500 47.35600 21.18200
H  9.51500 48.34100 19.86600
H  11.14900 47.69400 19.76400
H  10.94100 49.08900 20.75400
H  8.86500 45.14700 20.55800
H  7.31100 45.28500 21.40800
H  9.21900 44.51700 23.38600
H  9.16200 43.39100 22.02900
H  7.65100 43.77300 22.70900
H  3.66900 47.69100 25.06100
H  3.58600 46.09500 25.65000
H  4.45300 46.39500 24.08900
H  6.04100 48.37600 30.25800
H  6.21400 44.40800 31.76600
H  5.07000 45.06800 32.99500
H  6.75600 45.52000 32.98100

