158

Mg -1.44100 17.27500 27.21100
C  -2.31600 15.30600 30.06900
C  -1.92800 20.01000 29.33000
C  -0.91500 19.18500 24.67300
C  -1.33500 14.40700 25.30200
N  -1.99200 17.60400 29.47500
C  -2.21700 16.62000 30.45800
C  -2.43400 17.22800 31.84900
C  -2.57900 18.70900 31.49300
C  -2.14100 18.78900 30.02300
C  -3.94800 19.50000 31.69900
C  -1.37400 16.98000 32.99600
C  -1.99600 16.59600 34.33900
H  -1.01400 16.42400 35.46400
N  -1.36600 19.34600 27.00900
C  -1.50600 20.28300 28.02100
C  -1.24100 21.59000 27.39900
C  -0.92600 21.38600 26.01400
C  -1.12000 19.95400 25.85700
C  -1.47100 22.91500 28.11500
C  -0.50600 22.32900 24.95300
O  -0.24900 21.97300 23.82100
C  -0.34600 23.79500 25.20300
N  -1.45800 16.91800 25.27100
C  -1.09800 17.86500 24.37700
C  -0.94300 17.33300 22.92500
C  -0.72900 15.85300 23.25200
C  -1.14700 15.68400 24.73600
C  -2.02000 17.63200 21.92500
C  0.68000 15.26800 22.98600
C  1.70500 15.75000 24.06400
N  -1.72400 15.21500 27.54700
C  -1.66400 14.15700 26.65900
C  -1.91900 12.96700 27.43300
C  -2.24700 13.37100 28.74700
C  -2.11900 14.74700 28.77200
C  -2.09500 11.48900 26.89400
C  -2.63900 12.87600 30.01100
O  -2.80100 11.74600 30.42700
C  -2.61900 14.07400 30.99000
C  -1.58700 13.74300 32.05900
O  -0.32400 13.74100 32.00300
O  -2.31000 13.42900 33.19700
C  -1.57900 13.01900 34.46100
H  -2.14400 20.90600 29.91600
H  -0.74500 19.74300 23.74900
H  -1.30500 13.53700 24.64200
H  -3.37300 16.84700 32.24900
H  -1.83600 19.22900 32.09800
H  -4.76000 18.89500 32.10200
H  -4.23100 19.85900 30.71000
H  -3.89600 20.38800 32.33000
H  -0.70200 17.82800 33.13000
H  -0.66400 16.24500 32.61800
H  -2.40000 15.58400 34.32100
H  -2.75700 17.33800 34.57900
H  -0.55600 23.14600 28.66100
H  -2.26300 22.80900 28.85600
H  -1.60900 23.83400 27.54500
H  0.44800 23.79400 25.95000
H  -1.37000 24.08600 25.44000
H  -0.03900 24.33200 24.30600
H  -0.03100 17.73500 22.48400
H  -1.48600 15.30600 22.69100
H  -2.93600 18.08900 22.29900
H  -2.22100 16.70800 21.38200
H  -1.62600 18.27400 21.13700
H  1.05300 15.78500 22.10200
H  0.67200 14.18400 22.87600
H  1.36500 16.58500 24.67800
H  2.66500 16.04200 23.64000
H  1.93300 14.92900 24.74400
H  -1.40800 11.27700 26.07400
H  -3.06700 11.34600 26.42300
H  -1.90800 10.84200 27.75100
H  -3.59300 14.04300 31.47700
H  -0.68000 13.58900 34.69500
H  -1.38800 11.95200 34.57500
H  -2.27900 13.32000 35.24100
Mg 42.74300 42.30200 27.42700
C  41.96200 44.61200 29.90000
C  43.52200 40.07100 29.74600
C  43.44400 40.29700 24.92700
C  42.42500 44.95300 24.98100
N  42.63900 42.27900 29.59300
C  42.23100 43.35400 30.43500
C  42.24400 42.90600 31.92800
C  42.93300 41.54300 31.83300
C  43.02300 41.22600 30.31500
C  44.29400 41.32200 32.50400
C  40.81400 42.92100 32.39800
C  40.59300 43.75700 33.70000
H  39.91100 42.96100 34.86900
N  43.44800 40.40000 27.32400
C  43.64000 39.64200 28.39500
C  43.99900 38.31400 27.91800
C  43.87800 38.35400 26.45900
C  43.58000 39.73900 26.17100
C  44.42400 37.26900 28.82700
C  44.07100 37.27000 25.41800
O  44.05800 37.42300 24.15100
C  44.50800 35.88100 25.92200
N  42.94300 42.63400 25.24700
C  43.16000 41.55200 24.47400
C  42.95900 41.86400 22.96000
C  42.46300 43.32300 23.09100
C  42.65200 43.71500 24.50900
C  44.23400 41.65100 21.96700
C  40.95800 43.63900 22.59100
C  39.87100 44.05700 23.60200
N  42.23900 44.32900 27.36600
C  42.18400 45.28400 26.32700
C  41.67900 46.55600 26.90800
C  41.60900 46.36300 28.29900
C  41.93400 45.00300 28.52800
C  41.36600 47.86000 26.18100
C  41.31800 46.97300 29.53400
O  40.88800 48.11700 29.77400
C  41.53200 45.90400 30.68200
C  42.48800 46.45100 31.70600
O  43.74100 46.43900 31.53300
O  41.76500 46.89900 32.80600
C  42.45400 47.13600 34.05600
H  43.92700 39.41100 30.51600
H  43.30500 39.60300 24.09500
H  42.26700 45.79100 24.29800
H  42.86800 43.60000 32.49100
H  42.21900 40.79600 32.18200
H  45.07000 41.00200 31.80800
H  44.27000 40.63400 33.34800
H  44.61800 42.28700 32.89500
H  40.43100 41.95200 32.71700
H  40.12200 43.19300 31.60000
H  40.03000 44.65700 33.45000
H  41.56300 44.14600 34.01000
H  43.55900 36.60800 28.88700
H  44.67700 37.65400 29.81500
H  45.29500 36.71200 28.48300
H  43.84800 35.46400 26.68300
H  45.51700 35.98400 26.32200
H  44.44600 35.18500 25.08600
H  42.12700 41.26600 22.58800
H  42.96200 43.85000 22.27700
H  43.93500 41.12200 21.06200
H  45.08100 41.24200 22.51800
H  44.50300 42.65000 21.62200
H  40.63700 42.88000 21.87700
H  41.19200 44.52100 21.99500
H  39.02400 43.69900 23.01600
H  39.70000 45.13200 23.65500
H  39.83400 43.60800 24.59400
H  40.44800 47.68200 25.62000
H  42.16000 48.11200 25.47800
H  41.27900 48.66400 26.91200
H  40.55200 45.77600 31.14200
H  42.51800 46.24300 34.67800
H  41.87200 47.87600 34.60500
H  43.45500 47.51100 33.84500

