158

Mg 36.16000 48.46800 24.52500
C  36.30400 46.68400 27.53000
C  34.80100 51.08900 26.33600
C  35.57800 50.02600 21.71300
C  37.32400 45.68400 22.83600
N  35.65500 48.83800 26.74300
C  35.90100 47.99100 27.71800
C  35.65800 48.69500 29.08400
C  34.98300 50.06800 28.72000
C  35.07800 50.00700 27.17400
C  33.47600 50.29000 29.20100
C  36.96000 48.84700 29.93000
C  36.91800 48.37900 31.35500
H  35.58300 48.51800 32.08700
N  35.24100 50.23600 24.07000
C  34.78700 51.22300 24.91600
C  34.27700 52.34700 24.14900
C  34.46900 52.07000 22.77800
C  35.10700 50.70200 22.82800
C  33.81400 53.57700 24.80300
C  34.32100 53.05800 21.50600
O  34.71800 52.81200 20.37300
C  33.84000 54.51600 21.72700
N  36.35100 47.94800 22.56600
C  36.09800 48.76300 21.56400
C  36.37400 48.14300 20.20000
C  37.15800 46.84400 20.59200
C  36.98700 46.80700 22.13100
C  35.08600 47.89500 19.31100
C  38.63500 46.65300 20.09000
C  39.81000 46.98500 21.08600
N  36.87700 46.63900 25.03600
C  37.25900 45.60500 24.21800
C  37.64000 44.47800 25.05000
C  37.28300 44.86800 26.36900
C  36.76700 46.13700 26.28500
C  38.18900 43.16300 24.54600
C  37.15100 44.47200 27.75000
O  37.42900 43.39500 28.32900
C  36.54700 45.69700 28.55100
C  35.40300 45.18500 29.32300
O  34.20800 45.08700 29.02500
O  35.87600 44.97500 30.54700
C  34.98000 44.46600 31.57300
H  34.45900 51.97800 26.87000
H  35.50600 50.50000 20.73200
H  37.69400 44.75900 22.39000
H  34.98100 48.11700 29.71200
H  35.64400 50.88800 29.00100
H  33.22700 49.43700 29.83300
H  32.77900 50.29700 28.36300
H  33.32200 51.12700 29.88300
H  37.24800 49.89900 29.91800
H  37.76900 48.36000 29.38500
H  37.65000 48.89400 31.97800
H  37.17000 47.32000 31.41100
H  34.67300 54.24200 24.71100
H  33.45100 53.41100 25.81700
H  32.92500 53.90600 24.26600
H  32.84000 54.50000 22.16100
H  33.82500 54.84500 20.68800
H  34.53700 55.08400 22.34300
H  37.15100 48.79500 19.80000
H  36.56500 45.99900 20.24300
H  34.25700 48.50000 19.67800
H  34.64600 46.90400 19.42700
H  35.27600 48.11000 18.25900
H  38.78000 47.32700 19.24600
H  38.75000 45.68700 19.60000
H  40.28400 47.87900 20.68300
H  40.54900 46.18700 21.16200
H  39.55700 47.20100 22.12400
H  38.91800 43.30500 23.74800
H  37.33600 42.62100 24.13900
H  38.62500 42.65100 25.40400
H  37.28900 45.97600 29.29900
H  34.23800 45.24300 31.75900
H  35.45200 44.25100 32.53200
H  34.30300 43.69300 31.20900
Mg -11.47400 37.88400 43.30900
C  -9.52100 35.23800 42.14000
C  -9.40300 40.05900 41.98900
C  -13.80600 40.26900 43.94300
C  -14.00700 35.44800 44.12600
N  -9.70900 37.59100 42.13400
C  -9.03100 36.47800 41.87900
C  -7.63700 36.80200 41.23000
C  -7.49200 38.36100 41.33100
C  -8.89300 38.70900 41.89100
C  -6.34500 38.79500 42.29500
C  -7.66500 36.29800 39.76400
C  -6.53700 35.55800 39.24600
H  -5.76000 36.33200 38.15700
N  -11.68000 39.91400 42.94800
C  -10.65800 40.62100 42.28700
C  -11.02600 42.02700 42.16100
C  -12.36600 42.14300 42.79100
C  -12.69700 40.75400 43.27100
C  -10.07300 43.11000 41.67200
C  -13.23700 43.38700 42.94800
O  -12.71600 44.53900 42.78800
C  -14.66200 43.26100 43.27200
N  -13.55900 37.84400 43.94100
C  -14.21000 38.97900 44.20800
C  -15.61700 38.68400 44.78800
C  -15.72300 37.14500 44.92400
C  -14.36500 36.79100 44.23800
C  -15.81900 39.43000 46.23000
C  -17.05800 36.47400 44.50100
C  -17.32600 36.33100 43.00800
N  -11.77200 35.73000 43.25000
C  -12.81300 34.87600 43.63600
C  -12.47700 33.53400 43.37300
C  -11.21300 33.61600 42.64700
C  -10.81500 34.99100 42.68300
C  -13.19100 32.28300 43.77200
C  -10.08100 32.79900 42.09400
O  -9.87200 31.60400 41.94500
C  -8.99100 33.85100 41.64900
C  -7.68500 33.37100 42.21800
O  -7.05000 32.40800 41.77900
O  -7.20100 34.17600 43.24000
C  -5.90900 33.78200 43.71800
H  -8.61400 40.78500 41.78000
H  -14.57000 41.01700 44.16400
H  -14.65900 34.60600 44.36500
H  -6.81000 36.36000 41.78600
H  -7.32600 38.94400 40.42500
H  -5.40600 38.94300 41.76100
H  -6.20900 38.12900 43.14800
H  -6.58900 39.80000 42.63900
H  -7.82700 37.15000 39.10300
H  -8.49400 35.62400 39.54900
H  -6.88900 34.58700 38.89900
H  -5.84900 35.27000 40.04000
H  -10.17400 43.43800 40.63800
H  -9.02400 42.88800 41.86900
H  -10.23500 44.02000 42.25000
H  -15.30100 42.48500 42.85000
H  -15.12800 44.20000 42.97400
H  -14.75800 43.08100 44.34200
H  -16.36800 39.15400 44.15300
H  -15.42700 36.81900 45.92100
H  -15.13100 40.25000 46.43400
H  -15.66300 38.75500 47.07200
H  -16.80400 39.89700 46.21600
H  -17.90900 37.01500 44.91400
H  -16.88800 35.52000 45.00000
H  -16.84600 37.17100 42.50600
H  -18.39200 36.27400 42.78600
H  -16.89800 35.41600 42.59800
H  -13.72300 32.39900 44.71600
H  -12.56100 31.39600 43.83100
H  -14.00200 32.11200 43.06500
H  -9.01800 33.85200 40.55900
H  -6.11300 32.81800 44.18600
H  -5.50100 34.50500 44.42400
H  -5.17200 33.73200 42.91700

