158

Mg 46.90700 16.79400 28.37600
C  44.88000 16.25400 31.16600
C  49.06200 18.50800 30.29700
C  48.58000 17.59200 25.58400
C  44.54600 15.08900 26.43900
N  46.94800 17.34800 30.46100
C  46.09600 16.90200 31.45100
C  46.52900 17.43100 32.81200
C  47.83900 18.13400 32.43300
C  47.97500 17.96400 30.99000
C  48.05800 19.57700 32.90100
C  46.71200 16.25200 33.85700
C  46.24800 16.63900 35.25600
H  46.09300 18.14600 35.67900
N  48.56000 17.93100 27.91100
C  49.36500 18.47200 28.91800
C  50.50900 19.14200 28.27000
C  50.40500 18.90900 26.88700
C  49.13000 18.13800 26.71300
C  51.57700 19.92700 29.05800
C  51.19400 19.41100 25.68700
O  50.85200 19.39400 24.49400
C  52.47600 20.17900 25.99500
N  46.49500 16.55500 26.31100
C  47.39600 16.91000 25.36600
C  46.97100 16.30000 23.93700
C  45.50700 15.70300 24.31300
C  45.57700 15.67400 25.81600
C  46.82900 17.38600 22.84700
C  45.31800 14.23700 23.66500
C  46.14800 13.01200 24.23200
N  45.13900 15.76900 28.69700
C  44.23400 15.20800 27.78300
C  43.09400 14.78200 28.56200
C  43.32400 15.10200 29.88600
C  44.52900 15.79600 29.89900
C  41.89400 14.10600 27.97800
C  42.74300 15.13800 31.18800
O  41.62100 14.90900 31.53000
C  43.77200 15.88300 32.11900
C  43.07400 17.03000 32.76000
O  42.91900 18.13800 32.31200
O  42.46400 16.61700 33.91700
C  41.66100 17.64400 34.67400
H  49.83200 18.95800 30.92700
H  49.16100 17.76900 24.67600
H  43.78900 14.57900 25.84000
H  45.73500 18.13800 33.05700
H  48.75300 17.69400 32.83200
H  48.00000 20.22400 32.02600
H  48.98200 19.74100 33.45600
H  47.19200 19.82600 33.51500
H  47.78500 16.08700 33.94500
H  46.38600 15.24800 33.58500
H  46.89400 16.25000 36.04300
H  45.23600 16.25700 35.39000
H  51.61100 20.99800 28.85600
H  52.52300 19.49400 28.73200
H  51.54100 19.84800 30.14500
H  52.23700 21.17900 26.35800
H  52.94500 20.38300 25.03300
H  53.12500 19.52600 26.57800
H  47.67500 15.49500 23.72700
H  44.63200 16.32200 24.11700
H  47.57100 18.16600 23.01600
H  45.84400 17.82900 22.69700
H  47.14300 17.06500 21.85400
H  45.68800 14.33300 22.64500
H  44.27100 13.96600 23.52800
H  46.85300 13.34000 24.99600
H  46.73400 12.70200 23.36700
H  45.50700 12.19300 24.55900
H  41.94200 14.42100 26.93500
H  41.01500 14.55900 28.43600
H  41.86900 13.02300 28.09900
H  44.14700 15.15000 32.83300
H  40.77100 17.90300 34.10100
H  42.19200 18.58600 34.80900
H  41.42700 17.23000 35.65500
Mg -12.91600 16.77800 40.91800
C  -9.90900 15.07800 40.52600
C  -11.45600 19.61000 39.62400
C  -15.95300 18.21600 40.75800
C  -14.40000 13.65600 41.82400
N  -10.91300 17.29900 40.02700
C  -9.83600 16.42800 40.10300
C  -8.52700 17.20100 39.63400
C  -9.05400 18.71700 39.44800
C  -10.53000 18.54300 39.73700
C  -8.32200 19.72500 40.38700
C  -7.89100 16.51700 38.40000
C  -6.35100 16.28600 38.45300
H  -5.57600 16.62400 37.20200
N  -13.68100 18.60800 40.22500
C  -12.89700 19.66800 39.78300
C  -13.75700 20.85000 39.58000
C  -15.07400 20.42200 39.84600
C  -14.95900 18.98000 40.30500
C  -13.30800 22.25900 39.15700
C  -16.31200 21.35800 39.69700
O  -16.16300 22.48200 39.27600
C  -17.74100 20.81100 39.96000
N  -14.96800 15.96500 41.11900
C  -16.00200 16.87200 41.19500
C  -17.30800 16.04600 41.50800
C  -16.71700 14.62600 42.14600
C  -15.24100 14.74500 41.69900
C  -18.51500 16.72000 42.28900
C  -17.49000 13.37100 41.67300
C  -18.02100 12.30200 42.71400
N  -12.31700 14.66600 41.13500
C  -13.05300 13.54800 41.44100
C  -12.14400 12.43800 41.56800
C  -10.86000 12.97200 41.23800
C  -11.08400 14.35400 40.90100
C  -12.56600 11.08300 41.88600
C  -9.45900 12.65600 41.11900
O  -8.76800 11.63900 41.24200
C  -8.77700 14.03200 40.67300
C  -7.71800 14.42600 41.63600
O  -7.85100 15.13600 42.62900
O  -6.48500 14.03200 41.22100
C  -5.25200 14.67900 41.84200
H  -10.96900 20.55100 39.36100
H  -16.97000 18.60400 40.66700
H  -14.79700 12.72200 42.22700
H  -7.93300 17.09000 40.54100
H  -8.99700 19.06800 38.41800
H  -9.05500 20.30300 40.94900
H  -7.69600 20.34400 39.74400
H  -7.65700 19.18000 41.05700
H  -8.03400 17.20400 37.56600
H  -8.46400 15.60000 38.25800
H  -6.09800 15.25100 38.68600
H  -5.90900 16.91700 39.22400
H  -13.79800 22.63100 38.25700
H  -12.25500 22.40900 38.91900
H  -13.53500 22.92100 39.99200
H  -18.40000 21.54400 39.49500
H  -17.88800 20.93000 41.03400
H  -18.06700 19.88400 39.49000
H  -17.78700 15.70700 40.58900
H  -16.66400 14.64500 43.23400
H  -19.43100 16.88000 41.72000
H  -18.19000 17.74900 42.43800
H  -18.79200 16.23300 43.22400
H  -16.85700 12.86300 40.94600
H  -18.34900 13.63400 41.05600
H  -17.93600 12.78400 43.68800
H  -17.37500 11.42500 42.73300
H  -19.07500 12.04000 42.61400
H  -11.65000 10.50800 41.75000
H  -13.34200 10.67100 41.24200
H  -12.96300 10.98200 42.89600
H  -8.34500 13.88900 39.68200
H  -5.40400 15.67000 42.26800
H  -4.45800 14.72900 41.09600
H  -4.89100 14.06000 42.66400

