158

Mg 1.94500 -1.85400 44.35900
C  5.37100 -1.26800 44.35000
C  1.46600 1.23800 42.89600
C  -1.23100 -2.81800 43.76100
C  2.67300 -5.06300 45.40800
N  3.29600 -0.22300 43.57000
C  4.65000 -0.25100 43.69300
C  5.17200 1.11900 43.20400
C  3.90900 2.04500 43.05700
C  2.78300 0.98000 43.28600
C  3.78500 3.14700 44.11200
C  5.89400 1.09100 41.86600
C  5.52300 0.11900 40.75500
H  5.46300 0.62700 39.32600
N  0.31800 -0.85200 43.47400
C  0.32500 0.36800 42.90100
C  -1.01300 0.64200 42.49000
C  -1.90000 -0.38300 42.93800
C  -0.92400 -1.42800 43.39500
C  -1.46700 1.96400 41.84800
C  -3.49300 -0.48500 42.77200
O  -4.14100 0.50800 42.37500
C  -4.22600 -1.61900 43.31000
N  0.85400 -3.68400 44.61000
C  -0.49200 -3.81200 44.39300
C  -1.00300 -5.16100 44.80400
C  0.27100 -5.87200 45.20300
C  1.36200 -4.84100 45.06500
C  -2.21700 -5.06200 45.77800
C  0.58600 -7.05700 44.32500
C  -0.54800 -8.06700 44.07900
N  3.62500 -2.98800 44.88000
C  3.78100 -4.24200 45.34200
C  5.17200 -4.51800 45.75100
C  5.85800 -3.37700 45.30400
C  4.87500 -2.51800 44.78600
C  5.61600 -5.92200 46.33500
C  7.16300 -2.75300 45.10800
O  8.31000 -3.15400 45.36100
C  6.87700 -1.36300 44.47600
C  7.42300 -0.28700 45.35000
O  7.03200 0.14400 46.41900
O  8.38700 0.27900 44.53600
C  8.98600 1.51000 45.13800
H  1.24800 2.20000 42.42700
H  -2.21500 -3.24800 43.56500
H  2.89500 -6.08100 45.73500
H  5.80200 1.42400 44.03900
H  3.72900 2.47600 42.07200
H  4.61700 3.05100 44.80900
H  2.83800 3.14100 44.65200
H  3.79100 4.14400 43.67100
H  6.90300 0.88300 42.22000
H  5.87100 2.05700 41.36100
H  4.58700 -0.39100 40.98500
H  6.35100 -0.59000 40.75000
H  -0.54200 2.19500 41.32000
H  -1.58000 2.73100 42.61400
H  -2.38800 1.86600 41.27400
H  -5.28600 -1.37300 43.37200
H  -4.04200 -1.77000 44.37300
H  -4.06200 -2.48400 42.66800
H  -1.51000 -5.59200 43.94000
H  0.21500 -6.30600 46.20100
H  -2.35500 -4.01900 46.06300
H  -1.92300 -5.65800 46.64200
H  -3.09600 -5.38200 45.21900
H  1.44300 -7.53000 44.80400
H  0.92800 -6.73000 43.34400
H  -1.37900 -7.82400 44.74100
H  -0.14500 -9.04600 44.33800
H  -0.97400 -8.10000 43.07600
H  4.85700 -6.34300 46.99500
H  6.59900 -5.80500 46.79000
H  5.66900 -6.64600 45.52100
H  7.15900 -1.28400 43.42600
H  8.25500 2.31600 45.20900
H  9.82000 1.80200 44.50000
H  9.29500 1.30000 46.16200
Mg 48.49000 46.71700 43.20800
C  45.16000 47.73900 42.23600
C  48.14900 43.99400 41.19000
C  51.71400 46.36400 43.64900
C  48.73000 50.06300 44.50800
N  46.93100 46.13200 41.74900
C  45.61500 46.58200 41.62900
C  44.81100 45.79000 40.61600
C  45.84300 44.62500 40.20300
C  47.04900 44.89600 41.12100
C  45.39700 43.11300 40.15500
C  44.40200 46.80300 39.53300
C  42.91900 46.83200 39.12300
H  42.55200 46.30000 37.75400
N  49.76300 45.24200 42.67600
C  49.45800 44.20800 41.84700
C  50.61600 43.33700 41.82300
C  51.63300 43.98600 42.51200
C  51.10700 45.25800 43.03300
C  50.61500 41.98200 41.10000
C  53.02200 43.40500 42.68100
O  53.28900 42.29600 42.21200
C  54.14600 44.09400 43.51900
N  49.96700 48.01300 44.00300
C  51.26400 47.61800 44.04900
C  52.23300 48.70400 44.48600
C  51.30200 49.92600 44.67700
C  49.89400 49.35300 44.40100
C  53.13500 48.36700 45.73600
C  51.53900 51.08000 43.72200
C  51.14200 52.48600 44.20200
N  47.17300 48.45400 43.49100
C  47.44800 49.67100 44.05100
C  46.15900 50.44600 44.16900
C  45.28000 49.67000 43.49600
C  45.91700 48.49300 43.04700
C  46.03300 51.77000 44.81200
C  43.88900 49.59100 43.09100
O  42.98700 50.41600 43.25500
C  43.70600 48.25300 42.26700
C  42.69400 47.35600 42.97600
O  41.52200 47.22100 42.63200
O  43.31500 46.43400 43.83700
C  42.48900 45.27600 44.09800
H  48.07000 43.10800 40.55600
H  52.80500 46.32100 43.65400
H  48.72500 51.04800 44.97900
H  44.02500 45.28800 41.18000
H  46.25000 44.77000 39.20200
H  45.89500 42.52100 39.38600
H  44.33100 43.03000 39.94200
H  45.61800 42.61200 41.09700
H  44.91000 46.55400 38.60100
H  44.65700 47.84300 39.73700
H  42.73300 47.90400 39.19200
H  42.30000 46.22900 39.78700
H  51.43100 41.87400 40.38600
H  49.66400 41.86400 40.58000
H  50.74800 41.18100 41.82800
H  54.92500 43.34400 43.65600
H  53.61500 44.23900 44.46000
H  54.56800 44.99500 43.07300
H  52.92400 48.90200 43.66700
H  51.34400 50.28600 45.70500
H  53.15900 47.27700 45.73600
H  52.82400 48.66200 46.73800
H  54.13000 48.74900 45.50800
H  50.96200 50.99900 42.80100
H  52.59400 51.16700 43.46600
H  50.32900 52.76700 43.53300
H  52.02100 53.11400 44.05500
H  50.86700 52.58100 45.25200
H  46.19800 52.54600 44.06600
H  46.78300 51.74900 45.60300
H  45.03500 51.86700 45.24100
H  43.24300 48.68800 41.38100
H  42.52700 44.56100 43.27600
H  41.44200 45.51600 44.28500
H  42.91500 44.83500 44.99900

