158

Mg 5.98800 53.44900 40.74100
C  5.67800 49.87700 40.75300
C  8.87000 52.99600 39.09800
C  5.65500 56.52900 39.52800
C  2.56200 53.49200 41.73100
N  7.07200 51.65900 39.99000
C  6.83300 50.35700 40.16000
C  7.92600 49.47400 39.51700
C  9.08100 50.47300 39.60000
C  8.33200 51.81900 39.56300
C  10.06000 50.37800 40.75800
C  7.64600 48.99400 38.00400
C  6.68200 49.82200 37.15700
H  7.14800 51.04800 36.47700
N  7.20600 54.72800 39.66200
C  8.38500 54.32000 39.01100
C  8.96800 55.36700 38.21400
C  8.00000 56.40200 38.33900
C  6.84300 55.93100 39.17400
C  10.46500 55.33600 37.62900
C  8.14200 57.74700 37.59400
O  9.00700 57.95000 36.75100
C  7.12200 58.81800 37.76300
N  4.26100 54.80500 40.56900
C  4.42200 56.07900 40.13700
C  3.23900 57.02200 40.41900
C  2.23600 55.97100 41.02600
C  3.04600 54.66700 41.14100
C  3.65000 58.25100 41.24300
C  0.96100 55.73200 40.21400
C  -0.29500 55.48800 41.10600
N  4.48500 52.02800 41.46700
C  3.21200 52.25600 41.85400
C  2.70300 51.03900 42.43700
C  3.57800 50.02200 41.90600
C  4.67300 50.70900 41.35100
C  1.38800 50.87700 43.19900
C  3.83300 48.60600 41.77900
O  3.26400 47.66000 42.31700
C  5.19600 48.48700 40.98400
C  4.75600 47.77300 39.80000
O  4.05200 48.20600 38.88200
O  5.28100 46.47900 39.87700
C  4.98500 45.59300 38.76200
H  9.84400 52.83800 38.63100
H  5.50600 57.57100 39.23700
H  1.53100 53.48800 42.09100
H  8.07800 48.61800 40.17400
H  9.63100 50.38100 38.66400
H  11.01700 49.95700 40.45200
H  9.72600 49.71000 41.55100
H  10.30500 51.36300 41.15600
H  7.31300 47.95600 38.01900
H  8.61300 49.06600 37.50500
H  5.82200 50.11700 37.75900
H  6.33600 49.11500 36.40300
H  10.97000 54.37500 37.72700
H  11.02200 56.15000 38.09300
H  10.49500 55.50800 36.55300
H  6.97000 59.04900 38.81700
H  6.20300 58.42600 37.32700
H  7.58800 59.64300 37.22400
H  2.82200 57.25900 39.44000
H  2.14200 56.21300 42.08400
H  2.93900 58.31300 42.06700
H  3.52300 59.08200 40.54900
H  4.70300 58.34900 41.50800
H  1.06200 54.90500 39.51200
H  0.75500 56.55600 39.53000
H  -0.09000 55.30900 42.16100
H  -0.82600 54.62500 40.70700
H  -0.84500 56.41800 40.96000
H  0.95200 51.83100 43.49400
H  1.36100 50.11500 43.97800
H  0.69800 50.53700 42.42600
H  5.87300 47.86500 41.56900
H  5.33800 45.94200 37.79100
H  3.92900 45.32500 38.76800
H  5.51300 44.64600 38.88000
Mg -5.45800 25.65200 25.83400
C  -3.63700 26.73200 28.66900
C  -7.63300 24.05400 27.89700
C  -6.77500 24.33000 23.11100
C  -3.41100 27.72300 23.86200
N  -5.62900 25.46200 27.99600
C  -4.77500 25.93000 28.97900
C  -5.19100 25.50000 30.32500
C  -6.30900 24.41900 30.00900
C  -6.58800 24.68800 28.52200
C  -6.00100 22.97400 30.41000
C  -5.67300 26.71400 31.13300
C  -5.22200 26.85300 32.62100
H  -4.89400 25.52700 33.46800
N  -6.96800 24.36400 25.50200
C  -7.81700 23.86900 26.51900
C  -8.93900 23.06900 25.88000
C  -8.58100 22.99700 24.49600
C  -7.39100 23.90200 24.29100
C  -10.16100 22.47100 26.69200
C  -9.34100 22.32200 23.37500
O  -8.99800 22.43900 22.19900
C  -10.54500 21.54700 23.64100
N  -4.95200 25.81800 23.76000
C  -5.72100 25.21000 22.85400
C  -5.51000 25.73700 21.39000
C  -4.47200 26.87800 21.64300
C  -4.24200 26.82900 23.19000
C  -4.99100 24.59200 20.43600
C  -4.99900 28.21700 21.07100
C  -4.78400 28.41500 19.58100
N  -3.71900 26.91800 26.12400
C  -3.04000 27.70800 25.22000
C  -2.13500 28.58400 26.05100
C  -2.28500 28.11500 27.34400
C  -3.27800 27.10500 27.37900
C  -1.17000 29.66900 25.63400
C  -1.79500 28.33700 28.68800
O  -0.90400 29.03600 29.16400
C  -2.66800 27.47100 29.63300
C  -1.74900 26.61200 30.40000
O  -1.06400 25.73000 29.99800
O  -1.91200 27.01100 31.69000
C  -1.05100 26.23800 32.61200
H  -8.21500 23.39400 28.54300
H  -7.21200 23.84900 22.23400
H  -2.89700 28.42200 23.19900
H  -4.34700 25.03600 30.83600
H  -7.30600 24.56200 30.42800
H  -6.69700 22.53800 31.12700
H  -4.99900 22.75600 30.78000
H  -6.04100 22.34000 29.52400
H  -6.72400 26.46400 31.27200
H  -5.51300 27.65500 30.60700
H  -5.93800 27.48900 33.14200
H  -4.36500 27.50500 32.45500
H  -10.11800 22.79500 27.73200
H  -10.13200 21.38400 26.76000
H  -11.12300 22.75400 26.26400
H  -11.21800 22.24400 24.14100
H  -10.40700 20.65300 24.24800
H  -10.96600 21.23100 22.68600
H  -6.43700 26.14100 20.98500
H  -3.53600 26.74900 21.10100
H  -3.96700 24.39200 20.75300
H  -4.95100 24.93900 19.40400
H  -5.70000 23.76900 20.52900
H  -4.59600 29.11300 21.54200
H  -6.07600 28.25700 21.23700
H  -4.09200 29.23500 19.38800
H  -5.62600 28.73400 18.96700
H  -4.35400 27.51300 19.14500
H  -1.30600 30.54700 26.26600
H  -1.49700 30.06700 24.67400
H  -0.12400 29.37400 25.54900
H  -3.20900 28.19700 30.24000
H  -1.38800 25.20600 32.70800
H  -1.19200 26.61000 33.62700
H  -0.02200 26.14400 32.26400

