158

Mg 35.73500 1.25100 30.25400
C  33.48800 2.19100 32.74600
C  38.24100 1.10500 32.52600
C  37.83500 0.43600 27.67600
C  33.07100 1.48900 27.85200
N  35.82900 1.77200 32.38200
C  34.78600 2.02000 33.27200
C  35.31200 2.12900 34.71400
C  36.86800 2.00200 34.56600
C  37.01000 1.56700 33.07200
C  37.66000 3.26300 34.90200
C  34.72500 0.96900 35.56500
C  34.16300 1.25800 37.00800
H  34.45900 2.55500 37.59700
N  37.84400 1.05200 30.07800
C  38.65900 0.84600 31.14000
C  39.89700 0.28700 30.70500
C  39.88700 0.31000 29.29500
C  38.46400 0.63700 28.91400
C  41.01500 -0.02700 31.73200
C  40.93200 -0.05000 28.36400
O  40.77700 0.01100 27.15800
C  42.32500 -0.41600 28.90500
N  35.54400 1.10500 28.09100
C  36.59100 0.68300 27.24600
C  36.15000 0.41800 25.85100
C  34.55300 0.63400 25.95400
C  34.28600 0.95600 27.41300
C  36.73000 1.39800 24.85400
C  33.71900 -0.62400 25.50800
C  33.08600 -0.59000 24.10300
N  33.71000 1.80300 30.20200
C  32.84300 1.95200 29.18400
C  31.56700 2.37600 29.78400
C  31.75900 2.48700 31.14100
C  33.08200 2.14000 31.36000
C  30.28700 2.57200 29.02500
C  31.17000 2.87300 32.37500
O  30.02500 3.17500 32.64200
C  32.19400 2.71500 33.48900
C  32.37400 4.07600 34.00900
O  33.30900 4.83900 33.72900
O  31.32700 4.31300 34.92500
C  31.29000 5.69700 35.34900
H  38.88800 0.95700 33.39400
H  38.48600 0.27200 26.81400
H  32.28500 1.46300 27.09400
H  35.09800 3.08700 35.18900
H  37.26600 1.16000 35.13100
H  37.01000 4.06400 35.25700
H  38.21700 3.59700 34.02600
H  38.41600 2.89700 35.59600
H  35.49000 0.21500 35.75000
H  33.90100 0.44300 35.08200
H  34.51800 0.43300 37.62700
H  33.09300 1.12800 36.84700
H  41.97900 0.45100 31.55600
H  41.14100 -1.09900 31.88600
H  40.79200 0.35900 32.72700
H  42.15000 -1.32000 29.48900
H  42.58600 0.44500 29.52000
H  43.09100 -0.52700 28.13800
H  36.30800 -0.62700 25.58400
H  34.25600 1.43100 25.27200
H  37.53300 0.77500 24.46100
H  37.07700 2.33100 25.29900
H  36.03800 1.48200 24.01600
H  32.95500 -0.88700 26.24000
H  34.28900 -1.55000 25.43100
H  33.33700 0.35800 23.62600
H  32.01600 -0.74700 24.24000
H  33.49500 -1.41400 23.51800
H  30.03600 3.61800 29.20700
H  29.64000 1.77700 29.39300
H  30.46200 2.33700 27.97500
H  31.66600 2.11700 34.23200
H  30.31900 5.89300 35.80400
H  31.33700 6.28300 34.43100
H  32.14700 6.05000 35.92300
Mg 26.16800 50.32900 26.22100
C  24.04900 51.48600 28.76400
C  28.58500 49.62200 28.52700
C  28.11100 49.29700 23.62700
C  23.78200 51.48600 23.88000
N  26.35100 50.74900 28.42500
C  25.32000 51.01800 29.24300
C  25.75200 50.85900 30.71100
C  27.25000 50.25700 30.69100
C  27.46000 50.18300 29.17000
C  28.29900 51.09500 31.48800
C  24.58300 50.13700 31.51900
C  25.03300 49.42400 32.76200
H  24.13600 49.40500 34.00100
N  28.09200 49.71600 26.08900
C  28.90700 49.39000 27.18000
C  30.12300 48.74400 26.68900
C  30.07700 48.84200 25.24500
C  28.71200 49.31800 24.94100
C  31.24200 48.28000 27.63500
C  31.19500 48.53200 24.27300
O  31.11400 48.71600 23.03600
C  32.58900 48.10200 24.75700
N  26.06100 50.57500 24.06400
C  26.91700 49.95300 23.25300
C  26.38300 50.03200 21.81800
C  24.93400 50.55700 21.91900
C  24.92500 50.88700 23.41500
C  27.29300 50.84900 20.84200
C  23.87500 49.44100 21.51800
C  23.89500 48.12900 22.31200
N  24.25800 51.26800 26.27200
C  23.46100 51.62400 25.26900
C  22.14200 52.11500 25.80900
C  22.32200 51.98900 27.22100
C  23.67300 51.53300 27.41500
C  21.05100 52.64800 24.98500
C  21.65500 52.20500 28.51900
O  20.53800 52.43100 28.85000
C  22.83400 51.98700 29.55200
C  23.14500 53.22400 30.30500
O  23.66100 54.21400 29.77600
O  23.03800 53.09900 31.64400
C  23.48900 54.30100 32.47200
H  29.26000 49.24700 29.29800
H  28.74100 48.85300 22.85400
H  23.06300 51.67700 23.08100
H  25.69800 51.89100 31.05600
H  27.27900 49.23400 31.06700
H  29.01200 50.40800 31.94500
H  27.78800 51.65200 32.27400
H  28.95600 51.66400 30.83100
H  24.04000 49.39400 30.93500
H  23.83700 50.90700 31.71600
H  26.03800 49.76300 33.01300
H  25.19800 48.35500 32.62700
H  32.10200 48.94700 27.57500
H  31.64800 47.31000 27.34900
H  30.91400 48.17100 28.66900
H  33.20800 47.91900 23.87800
H  32.45000 47.20000 25.35400
H  32.98200 48.80200 25.49500
H  26.24900 49.05000 21.36700
H  24.82600 51.47000 21.33400
H  28.15900 51.11100 21.45000
H  26.84700 51.75700 20.43700
H  27.54500 50.20200 20.00100
H  24.11900 49.21700 20.47900
H  22.90000 49.91600 21.41200
H  23.86200 47.33700 21.56500
H  23.03900 47.86600 22.93300
H  24.83000 48.00600 22.86000
H  20.90300 51.98800 24.13000
H  21.37000 53.61600 24.59700
H  20.13800 52.68500 25.57900
H  22.40400 51.23300 30.21100
H  24.44900 53.97800 32.87400
H  22.87300 54.59800 33.32100
H  23.61200 55.21300 31.88900

