158

Mg 0.92600 7.64700 25.74900
C  1.75200 9.46000 28.50100
C  0.62500 4.84600 27.70300
C  -0.01900 6.00000 22.95500
C  1.45600 10.52700 23.70000
N  1.29200 7.24500 27.78700
C  1.50000 8.13300 28.79300
C  1.54400 7.39900 30.19000
C  1.55400 5.92700 29.74500
C  1.11700 5.99800 28.29700
C  2.82800 5.11400 29.85800
C  0.28600 7.86800 30.95500
C  0.33500 8.02900 32.52100
H  1.52500 7.38900 33.23000
N  0.38500 5.64500 25.39000
C  0.23700 4.64600 26.38800
C  -0.44400 3.50600 25.80800
C  -0.55200 3.84400 24.38300
C  -0.09600 5.18500 24.18300
C  -0.76600 2.26700 26.61500
C  -1.20400 2.94900 23.26300
O  -1.31700 3.28000 22.09800
C  -1.57900 1.51700 23.52900
N  0.93100 8.20200 23.59600
C  0.54600 7.25100 22.64100
C  0.46600 7.94300 21.22200
C  1.07500 9.31400 21.46100
C  1.15100 9.40100 22.97700
C  1.19700 7.11800 20.16700
C  0.22800 10.50100 20.87200
C  -0.94400 11.03300 21.75700
N  1.54000 9.59000 26.00500
C  1.56200 10.65600 25.12500
C  1.83500 11.83300 25.95200
C  1.88300 11.46500 27.25300
C  1.67100 10.06100 27.24300
C  2.09300 13.23000 25.39600
C  2.10300 11.84800 28.58100
O  2.40100 12.93300 28.96700
C  1.92800 10.57600 29.44100
C  3.07900 10.65000 30.41600
O  4.20600 10.33700 30.19200
O  2.58100 11.23700 31.56300
C  3.51500 11.16500 32.63000
H  0.49700 4.04700 28.43600
H  -0.41500 5.61100 22.01500
H  1.65700 11.30000 22.95500
H  2.44800 7.85200 30.59800
H  0.70900 5.54800 30.32000
H  3.32800 4.84100 28.92800
H  2.77400 4.16400 30.39000
H  3.51100 5.66600 30.50400
H  -0.42600 7.04700 30.87100
H  0.10800 8.87000 30.56600
H  -0.61300 7.71400 32.95500
H  0.35700 9.09100 32.76600
H  -1.79500 1.97000 26.41100
H  -0.53800 2.39200 27.67400
H  -0.10900 1.42600 26.39900
H  -2.30600 1.41000 24.33400
H  -0.64800 0.97000 23.68100
H  -2.06700 1.19500 22.61000
H  -0.60000 7.93300 20.99300
H  2.10400 9.32900 21.10000
H  0.62000 6.19600 20.08900
H  2.20400 6.84900 20.48500
H  1.15800 7.69700 19.24400
H  -0.24200 10.25400 19.92000
H  0.99900 11.25500 20.71200
H  -1.87100 10.94000 21.19200
H  -0.62700 12.07200 21.84900
H  -1.13200 10.49400 22.68600
H  1.92400 13.18900 24.32000
H  3.02700 13.67500 25.74000
H  1.25000 13.85600 25.69000
H  0.97500 10.73200 29.94600
H  3.81200 10.14400 32.87300
H  3.08500 11.39800 33.60500
H  4.34100 11.83200 32.38600
Mg 9.94200 48.39000 26.33200
C  7.88800 48.20900 29.16100
C  12.47200 49.30400 28.16900
C  11.64900 48.23500 23.49700
C  6.89600 47.70500 24.39000
N  10.10800 48.75500 28.41700
C  9.21100 48.68600 29.44600
C  9.90100 48.96700 30.73400
C  11.11300 49.87100 30.34600
C  11.26700 49.33000 28.84300
C  10.89700 51.36200 30.55400
C  10.14400 47.80000 31.70100
C  9.41100 47.92100 33.07600
H  9.57400 46.75800 34.05700
N  11.83700 48.68200 25.94500
C  12.79200 48.99900 26.83000
C  14.11200 48.88500 26.27700
C  13.91000 48.41900 24.94000
C  12.45000 48.46900 24.69900
C  15.40900 49.10000 27.07000
C  14.89700 47.90300 23.95300
O  14.57600 47.41800 22.86800
C  16.34300 47.84900 24.41800
N  9.31400 48.22200 24.23200
C  10.30300 48.11500 23.33600
C  9.66400 47.84000 21.91800
C  8.14200 47.69600 22.18400
C  8.10600 47.81200 23.69700
C  10.13000 48.76500 20.72900
C  7.39900 46.48900 21.61400
C  7.50200 46.31400 20.08100
N  7.80900 48.10900 26.63700
C  6.74300 47.82100 25.78100
C  5.59600 47.51300 26.58400
C  6.10100 47.50800 27.88000
C  7.36500 47.90900 27.85100
C  4.27900 47.06600 26.12400
C  5.56300 47.38300 29.23700
O  4.47000 47.06800 29.65400
C  6.82300 47.76000 30.12400
C  7.09600 46.55800 30.90700
O  7.83800 45.61200 30.62400
O  6.26200 46.66700 32.01700
C  6.41400 45.48800 32.92800
H  13.31900 49.55200 28.81100
H  12.21900 47.99900 22.59600
H  6.04500 47.29900 23.83900
H  9.15800 49.68100 31.09300
H  11.98500 49.54900 30.91500
H  10.29700 51.72600 29.72000
H  11.84300 51.89400 30.45300
H  10.56400 51.55800 31.57300
H  11.22700 47.72000 31.79400
H  9.77600 46.93600 31.14700
H  8.34300 48.11100 32.96800
H  9.76900 48.78000 33.64300
H  15.16000 49.02900 28.12900
H  15.80200 50.07900 26.79700
H  16.23700 48.43200 26.83400
H  16.48100 47.18600 25.27200
H  16.71700 48.86600 24.53500
H  16.89700 47.40400 23.59200
H  10.05100 46.83500 21.75100
H  7.64000 48.64000 21.97400
H  9.26100 49.31200 20.36300
H  10.65600 48.16000 19.99200
H  10.83800 49.50000 21.11300
H  6.34100 46.67900 21.79300
H  7.74400 45.57700 22.10200
H  6.64200 46.85000 19.68100
H  7.50800 45.23400 19.93000
H  8.46700 46.69600 19.74800
H  3.71600 47.87400 25.65600
H  3.70300 46.57600 26.90900
H  4.47600 46.21900 25.46700
H  6.42600 48.54000 30.77400
H  6.96900 45.63900 33.85300
H  6.89700 44.62900 32.46100
H  5.39200 45.24400 33.21800

