158

Mg 39.84800 9.81600 30.24900
C  41.90000 10.67700 33.04200
C  37.58300 8.42200 32.60600
C  38.30200 8.34300 27.82200
C  42.34300 10.90500 28.09900
N  39.73200 9.59600 32.53700
C  40.66500 10.05000 33.41700
C  40.13800 10.02800 34.82100
C  38.80800 9.17900 34.74400
C  38.68200 9.03400 33.23500
C  38.68500 7.79500 35.43600
C  40.00000 11.45800 35.39700
C  39.29100 11.60800 36.73300
H  39.98200 10.99900 37.92100
N  38.05500 8.72700 30.18300
C  37.34000 8.22900 31.19600
C  36.19300 7.51000 30.66000
C  36.37700 7.52800 29.26200
C  37.63400 8.20600 29.01500
C  35.21400 6.74900 31.49100
C  35.54400 6.95700 28.12800
O  35.92800 7.02100 26.92500
C  34.23300 6.36100 28.35300
N  40.33200 9.44700 28.22700
C  39.41800 8.94400 27.42100
C  39.76000 9.25400 25.91300
C  40.96200 10.24200 26.02900
C  41.16700 10.31300 27.59900
C  39.92900 7.92000 24.97600
C  40.63000 11.65500 25.41400
C  39.69500 12.57200 26.05300
N  41.75100 10.63300 30.46300
C  42.63200 11.02500 29.47600
C  43.78400 11.51100 30.16800
C  43.50700 11.38600 31.54200
C  42.28700 10.85200 31.69600
C  45.13200 11.82000 29.48900
C  44.04700 11.69400 32.79400
O  45.13400 12.20000 33.02600
C  43.01100 11.20900 33.84500
C  43.59200 10.12100 34.72700
O  43.78100 8.93800 34.42500
O  43.90400 10.58600 35.91200
C  44.34400 9.77000 37.00800
H  36.84500 8.11800 33.35200
H  38.03600 7.73800 26.95200
H  43.18900 11.20700 27.47800
H  40.90100 9.52000 35.41100
H  37.88100 9.60800 35.12300
H  37.67200 7.44500 35.63600
H  39.30500 7.78000 36.33200
H  39.13400 7.09200 34.73300
H  39.64700 12.13600 34.62000
H  41.01500 11.76000 35.65400
H  38.25100 11.28600 36.68300
H  39.27400 12.68800 36.88300
H  35.41500 5.68000 31.42600
H  34.27200 7.09000 31.06100
H  35.20700 6.99700 32.55300
H  33.61100 6.44000 27.46100
H  33.74900 6.90000 29.16700
H  34.33200 5.32400 28.67500
H  38.86300 9.76300 25.56200
H  41.87400 9.83800 25.58900
H  40.93200 7.85600 24.55500
H  39.24600 7.98600 24.12900
H  39.71300 7.00000 25.51900
H  40.10200 11.36700 24.50500
H  41.54200 12.20700 25.18900
H  38.75500 12.53800 25.50200
H  40.00400 13.61600 26.08600
H  39.42100 12.18000 27.03200
H  45.23000 12.83300 29.09700
H  45.41200 11.10300 28.71700
H  45.90500 11.80400 30.25800
H  42.76700 12.13500 34.36600
H  43.92800 10.13200 37.94800
H  45.42600 9.87000 37.08300
H  44.12200 8.70300 36.98700
Mg 49.42900 45.12300 42.13700
C  45.93900 44.84600 41.81500
C  49.73300 41.81700 41.79800
C  52.72400 45.56700 41.92500
C  48.96900 48.63100 41.78400
N  48.01900 43.56000 41.75900
C  46.63900 43.59500 41.75400
C  45.97200 42.26500 41.75500
C  47.16200 41.28800 41.96800
C  48.43600 42.26000 41.82300
C  47.20400 40.58100 43.39800
C  45.19000 42.07000 40.41700
C  45.67700 42.76000 39.13700
H  45.11100 42.23200 37.76300
N  51.07900 43.86000 41.98600
C  50.96100 42.52100 41.73200
C  52.24400 41.94000 41.55400
C  53.17200 42.99900 41.81300
C  52.39200 44.25200 41.92000
C  52.44200 40.55200 41.31200
C  54.67300 42.83800 41.96900
O  55.17600 41.76900 41.72800
C  55.62200 43.90800 42.36600
N  50.69600 46.83600 41.86000
C  51.99000 46.80300 41.94200
C  52.62500 48.16200 42.11500
C  51.46700 49.11200 42.10500
C  50.31200 48.16900 41.90800
C  53.49900 48.41200 43.38700
C  51.53200 50.30900 41.10100
C  51.01500 50.05600 39.65000
N  47.81600 46.53400 41.85400
C  47.79600 47.87700 41.79100
C  46.37700 48.35200 41.81400
C  45.64400 47.15800 41.80300
C  46.50100 46.11200 41.83900
C  45.86500 49.85000 41.72200
C  44.25300 46.66300 41.80800
O  43.17800 47.25300 41.71200
C  44.40600 45.13700 41.80900
C  43.65100 44.54100 43.03200
O  43.08500 43.43100 43.05500
O  43.85500 45.38200 44.16200
C  43.56600 44.66400 45.43600
H  49.80000 40.73000 41.87300
H  53.79400 45.74600 41.80000
H  48.70700 49.68900 41.85400
H  45.32100 42.24700 42.63000
H  47.18400 40.50800 41.20700
H  46.30100 40.76200 43.98100
H  48.13500 40.78900 43.92500
H  47.30600 39.51000 43.22000
H  44.13700 42.34800 40.47000
H  45.01000 40.99700 40.35600
H  46.76100 42.66400 39.08900
H  45.53200 43.83600 39.24000
H  52.25000 40.10800 42.28900
H  53.45700 40.21300 41.10400
H  51.84200 40.06000 40.54600
H  55.28700 44.34500 43.30700
H  55.53200 44.53900 41.48200
H  56.59700 43.42200 42.37300
H  53.15400 48.41400 41.19600
H  51.29500 49.48100 43.11600
H  52.82100 48.44200 44.23900
H  54.17100 49.26800 43.31100
H  54.15600 47.58100 43.64300
H  52.57800 50.60900 41.04900
H  51.03700 51.15700 41.57400
H  50.15800 50.70600 39.47800
H  50.72000 49.04200 39.37800
H  51.78800 50.36100 38.94600
H  46.16600 50.31000 42.66300
H  44.78000 49.76100 41.78100
H  46.13200 50.31100 40.77100
H  43.85200 44.58700 41.04900
H  44.06900 43.69700 45.42400
H  42.49400 44.62400 45.62800
H  43.98300 45.12800 46.33100

