158

Mg -2.06500 17.07300 27.31400
C  -2.68500 14.85800 30.01700
C  -2.75300 19.66800 29.39000
C  -1.81700 19.09500 24.66800
C  -2.31900 14.29100 25.17500
N  -2.59100 17.16000 29.41400
C  -2.82900 16.19000 30.36000
C  -3.18800 16.76500 31.71500
C  -3.13900 18.29000 31.44200
C  -2.91700 18.36800 29.96700
C  -4.35400 19.16700 31.94600
C  -2.27000 16.46700 32.90100
C  -2.89700 15.45400 33.87300
H  -2.10300 15.22600 35.14000
N  -2.12500 19.16200 27.11100
C  -2.32200 20.09600 28.09800
C  -1.98700 21.39600 27.61800
C  -1.80300 21.26200 26.20900
C  -1.88800 19.81700 25.91500
C  -2.08700 22.65400 28.45900
C  -1.59600 22.35100 25.15500
O  -1.50500 21.99000 24.02100
C  -1.55400 23.82300 25.58200
N  -2.13500 16.64800 25.13900
C  -1.84600 17.69400 24.37000
C  -1.75100 17.16500 22.89300
C  -1.78900 15.59900 23.06500
C  -2.17000 15.48900 24.54300
C  -2.83300 17.75000 21.94000
C  -0.40100 14.94300 22.68700
C  0.83300 15.32900 23.47900
N  -2.30400 14.96300 27.51200
C  -2.39600 13.98900 26.57000
C  -2.65800 12.70200 27.15900
C  -2.67200 12.95600 28.55700
C  -2.48600 14.33800 28.67600
C  -2.85400 11.34600 26.43800
C  -2.89400 12.40200 29.79000
O  -3.15700 11.25600 30.10500
C  -2.66000 13.51100 30.81600
C  -1.34000 13.14000 31.49200
O  -0.36300 13.84300 31.45500
O  -1.51600 12.01600 32.33300
C  -0.40800 11.63400 33.31700
H  -2.84600 20.46600 30.12900
H  -1.66700 19.63200 23.72900
H  -2.58600 13.54100 24.42700
H  -4.22900 16.48700 31.88100
H  -2.25100 18.74800 31.87800
H  -4.63400 19.89500 31.18500
H  -4.02400 19.60900 32.88600
H  -5.10100 18.38500 32.08300
H  -1.91800 17.34400 33.44400
H  -1.47700 15.89200 32.42300
H  -2.99300 14.49100 33.37100
H  -3.90800 15.74000 34.16400
H  -2.78200 23.38100 28.03900
H  -1.13600 23.15600 28.63800
H  -2.33000 22.44800 29.50100
H  -0.79500 24.01900 26.33900
H  -2.51700 23.99000 26.06500
H  -1.43200 24.43000 24.68500
H  -0.76900 17.47300 22.53500
H  -2.51500 15.14800 22.38900
H  -3.53300 18.26800 22.59500
H  -3.44400 17.04200 21.38200
H  -2.31000 18.47800 21.32000
H  -0.18300 15.24400 21.66200
H  -0.58500 13.87300 22.78300
H  1.22700 14.51200 24.08300
H  0.82500 16.23100 24.09100
H  1.54000 15.53400 22.67500
H  -1.99900 11.04600 25.83300
H  -3.69900 11.54400 25.77800
H  -3.17100 10.59600 27.16300
H  -3.62800 13.49100 31.31500
H  -0.24500 10.55700 33.27900
H  -0.73100 11.86400 34.33300
H  0.53700 12.16500 33.20300
Mg 6.44500 55.33400 41.21000
C  3.97300 52.74900 41.06600
C  8.66200 53.15100 39.80900
C  8.77600 57.91900 41.07000
C  4.04300 57.56600 42.08700
N  6.22600 53.21900 40.39900
C  5.14400 52.36000 40.45700
C  5.53700 50.97500 39.87300
C  7.09100 51.14500 39.50900
C  7.34500 52.62300 39.96600
C  8.04200 50.14300 40.21500
C  4.75700 50.47600 38.63000
C  4.54300 48.88900 38.42600
H  5.10400 48.14900 37.16400
N  8.49900 55.50600 40.54900
C  9.21800 54.45400 40.00000
C  10.57500 54.91100 39.67600
C  10.57200 56.30600 39.96500
C  9.29800 56.68100 40.64200
C  11.60100 54.01700 39.09700
C  11.71300 57.23900 39.60000
O  12.83000 56.85900 39.16300
C  11.69300 58.71600 39.83400
N  6.44900 57.37200 41.54200
C  7.55200 58.24500 41.58900
C  7.12200 59.74500 41.87900
C  5.54300 59.60100 41.80300
C  5.28300 58.10100 41.74100
C  7.66600 60.26100 43.19000
C  4.76400 60.34600 40.63500
C  3.70300 61.36100 41.10600
N  4.46600 55.23100 41.68600
C  3.64300 56.24100 42.09200
C  2.39800 55.73700 42.49900
C  2.48800 54.31100 42.27100
C  3.72100 54.08700 41.59800
C  1.24000 56.65300 42.91900
C  1.75100 53.05700 42.31300
O  0.65400 52.71500 42.74000
C  2.71800 52.01300 41.57800
C  1.86900 51.37600 40.50100
O  1.18800 51.94700 39.58700
O  1.83100 50.01400 40.67300
C  0.97200 49.31100 39.76800
H  9.27700 52.32500 39.44400
H  9.49900 58.73700 41.03800
H  3.26900 58.29900 42.32200
H  5.50400 50.27200 40.70500
H  7.27200 51.07400 38.43700
H  8.63600 49.65500 39.44300
H  7.41600 49.32600 40.57300
H  8.55700 50.65000 41.03200
H  5.16400 51.02000 37.77800
H  3.77800 50.94400 38.73600
H  3.47300 48.68300 38.47000
H  5.04800 48.51300 39.31500
H  11.73700 54.29700 38.05300
H  11.33900 52.96100 39.15500
H  12.52500 54.23900 39.63200
H  12.52200 59.18400 39.30300
H  11.84100 58.83600 40.90700
H  10.77700 59.17500 39.46500
H  7.53000 60.40900 41.11800
H  5.02300 60.01800 42.66500
H  8.34800 59.53000 43.62500
H  6.90800 60.54200 43.92100
H  8.32700 61.11100 43.01900
H  4.26200 59.53500 40.10600
H  5.37100 60.94400 39.95500
H  3.23800 61.90700 40.28500
H  4.18200 61.96000 41.88000
H  2.96400 60.86000 41.73100
H  1.21000 56.79500 43.99900
H  0.33200 56.07700 42.74000
H  1.30000 57.64900 42.48000
H  3.07400 51.22500 42.24100
H  -0.04900 49.66400 39.91500
H  1.00000 48.26600 40.07800
H  1.22200 49.32500 38.70700

