158

Mg 9.20800 3.72400 27.47700
C  10.42300 2.15600 30.46300
C  7.58000 5.96100 29.58100
C  8.00100 5.00400 24.85500
C  10.48500 0.92800 25.61300
N  8.91900 3.92700 29.82700
C  9.67200 3.31200 30.77400
C  9.47700 3.97200 32.17300
C  8.37100 5.07000 31.86100
C  8.25700 4.96400 30.34600
C  6.98100 4.69600 32.51200
C  10.83100 4.67800 32.62900
C  10.93300 5.37800 33.95300
H  10.22200 4.79600 35.22300
N  7.96200 5.20000 27.26400
C  7.41900 6.06300 28.19700
C  6.53500 7.09800 27.54500
C  6.71600 6.85000 26.18400
C  7.59000 5.65500 26.03100
C  5.77500 8.21900 28.21700
C  6.14900 7.68200 24.97600
O  6.44800 7.36200 23.83500
C  5.27200 8.87700 25.22700
N  9.47000 3.14100 25.42100
C  8.72400 3.86300 24.57200
C  8.78100 3.15600 23.17400
C  9.72000 1.89600 23.33600
C  9.90900 1.97200 24.82200
C  7.46700 2.85800 22.55100
C  11.06200 2.00900 22.53900
C  11.08700 1.11100 21.29400
N  10.29900 1.95500 27.87700
C  10.74800 0.93600 27.01800
C  11.40400 -0.11500 27.80500
C  11.38600 0.39000 29.11900
C  10.63800 1.59700 29.16200
C  12.01000 -1.35400 27.20700
C  11.82200 0.07300 30.48700
O  12.51800 -0.80900 30.85500
C  11.17800 1.20200 31.39600
C  10.27800 0.57900 32.39500
O  9.44900 -0.18100 32.06700
O  10.59600 0.90600 33.70900
C  9.91000 0.10600 34.71200
H  7.15500 6.78700 30.15600
H  7.68000 5.42000 23.89800
H  10.96700 0.06500 25.14800
H  9.21400 3.28700 32.97800
H  8.73500 6.06600 32.11200
H  7.05100 3.90000 33.25300
H  6.43800 4.38500 31.61900
H  6.65900 5.68300 32.84500
H  11.24100 5.24400 31.79300
H  11.39800 3.74800 32.64800
H  10.86800 6.46600 33.95600
H  11.98000 5.29800 34.24700
H  5.95100 8.36100 29.28400
H  4.72200 7.96200 28.11000
H  5.95300 9.20600 27.79000
H  5.95800 9.70600 25.39800
H  4.53400 8.62100 25.98800
H  4.74200 9.04600 24.29000
H  9.33100 3.76800 22.45900
H  9.14800 1.02000 23.03100
H  7.31100 1.81400 22.27900
H  7.39700 3.41000 21.61400
H  6.66000 3.15800 23.21800
H  11.84500 1.59600 23.17400
H  11.32800 3.05200 22.36400
H  10.04900 0.93400 21.01400
H  11.70900 0.22500 21.41900
H  11.48300 1.68900 20.45900
H  12.08800 -2.13500 27.96200
H  13.02200 -1.14100 26.86000
H  11.37500 -1.74100 26.41000
H  12.00900 1.66400 31.92900
H  9.09100 -0.54200 34.40000
H  9.47800 0.81900 35.41400
H  10.66200 -0.41500 35.30400
Mg 8.78700 47.86600 26.99100
C  7.28800 47.54500 30.16000
C  11.76400 48.41500 28.52700
C  9.89900 48.85200 24.09000
C  5.46800 47.64300 25.65900
N  9.43700 47.97700 29.16300
C  8.68600 47.68900 30.22800
C  9.55000 47.80200 31.52300
C  10.95900 48.35200 30.98900
C  10.72300 48.26100 29.47500
C  11.42800 49.82300 31.44300
C  9.68800 46.53100 32.43400
C  9.48300 46.90300 33.91300
H  9.64100 45.84300 34.94800
N  10.56700 48.33900 26.35400
C  11.69400 48.58600 27.16200
C  12.79700 48.75100 26.24600
C  12.32400 48.79100 24.95200
C  10.89600 48.76000 25.04400
C  14.23700 48.69000 26.74700
C  13.09700 48.82600 23.55200
O  12.51400 48.90300 22.45900
C  14.58700 48.83000 23.59100
N  7.86000 48.03200 25.10200
C  8.54700 48.60500 24.07300
C  7.63100 48.92000 22.86500
C  6.23100 48.44600 23.35300
C  6.52400 47.96400 24.79900
C  7.74700 50.39000 22.34400
C  5.63800 47.37200 22.36800
C  5.12000 47.83700 21.03700
N  6.78800 47.62900 27.68600
C  5.61300 47.53900 27.04000
C  4.55300 47.49800 28.04300
C  5.20200 47.52900 29.24100
C  6.56900 47.64400 28.97700
C  3.07800 47.33700 27.76100
C  4.90900 47.56300 30.63000
O  3.85600 47.48000 31.19800
C  6.29900 47.43900 31.27600
C  6.33400 46.11100 31.95100
O  6.64400 45.01800 31.46400
O  5.96000 46.32800 33.17900
C  6.14300 45.23100 34.12700
H  12.73700 48.60000 28.98500
H  10.27000 49.19900 23.12400
H  4.45700 47.76600 25.26500
H  9.14400 48.60200 32.14100
H  11.75300 47.61800 31.12600
H  12.48700 49.79900 31.69900
H  10.89200 50.13800 32.33700
H  11.18300 50.60600 30.72500
H  10.67600 46.08300 32.32800
H  8.91600 45.83000 32.11400
H  8.49000 47.33500 34.03800
H  10.26500 47.63100 34.12700
H  14.59800 49.64300 26.36000
H  14.83600 47.82500 26.46400
H  14.25100 48.65800 27.83600
H  14.99300 49.58000 24.27000
H  15.03500 48.98000 22.60800
H  14.86600 47.83300 23.93100
H  7.94200 48.29100 22.03100
H  5.59400 49.32600 23.45100
H  8.32100 51.06000 22.98500
H  6.76200 50.73200 22.02600
H  8.17000 50.39400 21.33900
H  4.76900 46.96900 22.88800
H  6.28600 46.51300 22.19700
H  5.39300 48.88700 20.92700
H  4.03100 47.79200 21.01100
H  5.63800 47.30000 20.24200
H  2.64300 46.71900 28.54600
H  2.90400 46.76300 26.85100
H  2.76000 48.38000 27.75600
H  6.42400 48.27800 31.96100
H  6.27500 45.64900 35.12500
H  7.02500 44.63100 33.90600
H  5.30600 44.55600 34.30800

