158

Mg 24.00900 -4.83300 46.50500
C  26.22700 -2.54100 45.07800
C  21.63700 -3.69900 44.37500
C  22.29700 -7.59700 47.28800
C  26.93100 -6.21000 48.11100
N  23.98700 -3.29900 44.83500
C  24.96600 -2.44700 44.44300
C  24.49900 -1.61000 43.23600
C  22.91000 -1.75900 43.40400
C  22.80500 -2.96100 44.33800
C  22.14100 -0.54300 43.92000
C  25.09100 -2.12600 41.85800
C  26.15100 -1.23900 41.10300
H  26.05000 -1.43800 39.63200
N  22.12500 -5.50100 45.99700
C  21.33700 -4.92500 45.03200
C  20.15000 -5.70500 44.94400
C  20.25900 -6.86600 45.81800
C  21.59600 -6.74600 46.47800
C  18.98000 -5.36800 44.03400
C  19.26400 -7.98900 45.92700
O  18.15800 -7.93500 45.36500
C  19.65500 -9.34300 46.55900
N  24.61200 -6.55400 47.54400
C  23.66900 -7.53500 47.80100
C  24.16900 -8.76600 48.62100
C  25.66000 -8.36400 48.78500
C  25.77200 -6.94900 48.08200
C  23.38600 -9.08600 49.95100
C  26.52900 -9.47000 48.18700
C  27.69100 -9.83900 49.11200
N  26.18600 -4.36200 46.77500
C  27.13200 -4.90600 47.53100
C  28.40800 -4.22000 47.38800
C  28.08100 -3.22500 46.46200
C  26.71200 -3.36200 46.13700
C  29.74800 -4.42900 48.05300
C  28.62200 -2.16500 45.69600
O  29.72500 -1.71900 45.58500
C  27.53900 -1.69000 44.71200
C  27.44300 -0.24000 44.83100
O  26.96300 0.37800 45.75500
O  28.02900 0.36700 43.79500
C  28.04400 1.86400 43.94500
H  20.96600 -3.24700 43.64100
H  21.66900 -8.39200 47.69700
H  27.80000 -6.55800 48.67400
H  24.73100 -0.54600 43.27200
H  22.46400 -2.05800 42.45600
H  22.72200 0.24900 44.39200
H  21.38400 -0.89800 44.61900
H  21.61900 -0.00200 43.13100
H  24.33400 -2.33400 41.10300
H  25.52200 -3.10600 42.06100
H  27.17100 -1.48200 41.40300
H  26.06800 -0.21800 41.47700
H  19.12800 -4.43100 43.49600
H  18.05900 -5.30500 44.61400
H  18.80200 -6.20700 43.36200
H  20.65900 -9.52500 46.17400
H  19.01100 -10.14800 46.20700
H  19.67700 -9.23300 47.64300
H  24.09600 -9.65700 47.99800
H  25.73900 -8.04400 49.82400
H  23.08000 -10.12900 50.03300
H  22.49900 -8.45300 49.92500
H  24.07700 -8.84400 50.75900
H  26.96900 -9.12200 47.25200
H  25.89200 -10.31200 47.91700
H  27.46900 -9.35300 50.06200
H  28.60700 -9.48200 48.63900
H  27.84600 -10.90000 49.30700
H  30.10600 -5.41300 47.75200
H  29.82400 -4.20500 49.11700
H  30.43100 -3.85400 47.42800
H  27.80900 -1.96600 43.69200
H  28.35300 2.31000 43.00000
H  28.86700 2.27500 44.53000
H  27.06600 2.28400 44.18300
Mg -11.70100 37.53900 42.44300
C  -9.33500 34.99000 41.66300
C  -9.56400 39.77100 40.85500
C  -14.05800 39.89700 42.43900
C  -13.74500 35.08300 43.66000
N  -9.69300 37.37700 41.35200
C  -8.97700 36.20600 41.06300
C  -7.73900 36.57200 40.24800
C  -7.71800 38.13100 40.18500
C  -9.14100 38.43400 40.81000
C  -6.39800 38.76000 40.85600
C  -7.86300 35.84600 38.89000
C  -6.67100 34.95600 38.39100
H  -5.66700 35.38700 37.26400
N  -11.71100 39.60900 41.92800
C  -10.72700 40.34200 41.36400
C  -11.12600 41.73000 41.32900
C  -12.49200 41.83600 41.70300
C  -12.79900 40.45500 42.03500
C  -10.29500 42.86000 40.84500
C  -13.35500 43.04400 41.87300
O  -12.79300 44.12300 41.67000
C  -14.78200 43.04200 42.34300
N  -13.67800 37.42800 42.83200
C  -14.47900 38.60500 42.78700
C  -15.88900 38.21200 43.25900
C  -15.79700 36.67700 43.67900
C  -14.35200 36.36700 43.36500
C  -16.44000 39.22600 44.28600
C  -16.89700 35.78700 42.94000
C  -18.04300 35.41800 43.82800
N  -11.62900 35.49900 42.65700
C  -12.49500 34.64200 43.27200
C  -11.91100 33.34200 43.46000
C  -10.70600 33.40300 42.80900
C  -10.56300 34.76600 42.33000
C  -12.53800 32.19500 44.15000
C  -9.50300 32.70700 42.46600
O  -9.06700 31.60400 42.72000
C  -8.55500 33.66700 41.65100
C  -7.24600 33.76900 42.26600
O  -6.23400 33.15600 41.96300
O  -7.11500 34.84700 43.14800
C  -5.77700 35.03100 43.75900
H  -8.89300 40.40400 40.27000
H  -14.84200 40.64500 42.57500
H  -14.37100 34.40000 44.23700
H  -6.84300 36.15300 40.70700
H  -7.68400 38.51800 39.16700
H  -5.84500 39.40000 40.16900
H  -5.72500 37.98400 41.21900
H  -6.79500 39.41600 41.63100
H  -7.95600 36.58700 38.09600
H  -8.81400 35.31600 38.96000
H  -7.18200 34.06500 38.02800
H  -6.16400 34.46500 39.22200
H  -9.52100 42.41000 40.22400
H  -9.83600 43.38200 41.68400
H  -10.84600 43.52900 40.18400
H  -15.34700 42.30100 41.77600
H  -14.97900 44.10600 42.21300
H  -14.67700 42.91300 43.42100
H  -16.50600 38.36900 42.37500
H  -15.88400 36.68000 44.76500
H  -16.51800 38.72600 45.25200
H  -17.41400 39.58600 43.95500
H  -15.89800 40.16600 44.38500
H  -16.32100 34.96500 42.51500
H  -17.36100 36.40400 42.17100
H  -19.01600 35.70400 43.42900
H  -18.09200 35.80500 44.84600
H  -18.02500 34.34600 44.02900
H  -13.44000 32.45700 44.70300
H  -11.76900 31.89300 44.86200
H  -12.71300 31.52100 43.31100
H  -8.42400 33.25200 40.65200
H  -5.04200 35.05500 42.95400
H  -5.45800 34.30500 44.50700
H  -5.84100 36.01600 44.22200

