158

Mg 1.49800 -1.59500 43.23100
C  4.95400 -1.04000 42.55900
C  0.83100 1.26000 41.35000
C  -1.76000 -2.25000 43.45500
C  2.35200 -4.68500 44.51300
N  2.81300 -0.16600 41.95200
C  4.17800 -0.07000 41.93200
C  4.68000 1.07700 41.02000
C  3.36100 1.81300 40.64200
C  2.23400 0.93400 41.30200
C  3.30800 3.28900 40.98900
C  5.53000 0.57200 39.86200
C  7.01500 1.20900 39.81200
H  7.55900 1.71000 38.37300
N  -0.21300 -0.62200 42.59500
C  -0.26800 0.52900 41.79300
C  -1.64300 0.87900 41.48300
C  -2.48800 -0.11900 42.13500
C  -1.48300 -1.03900 42.83800
C  -2.02800 2.09700 40.62900
C  -3.99700 -0.15200 42.06800
O  -4.65900 0.76100 41.54300
C  -4.78700 -1.26700 42.65500
N  0.42800 -3.33000 43.70000
C  -0.95200 -3.27000 43.90100
C  -1.43700 -4.62200 44.43200
C  -0.11300 -5.45700 44.73600
C  0.94700 -4.44900 44.26600
C  -2.52500 -4.62500 45.52100
C  0.00500 -6.82300 44.02400
C  0.60600 -7.91600 44.84800
N  3.26100 -2.69000 43.53500
C  3.46900 -3.89400 44.17100
C  4.87800 -4.11800 44.38700
C  5.52700 -2.96700 43.84200
C  4.47300 -2.18100 43.27200
C  5.51600 -5.30700 44.97000
C  6.83300 -2.30400 43.53700
O  7.94400 -2.66400 43.82600
C  6.48200 -1.04900 42.75400
C  7.03600 0.07000 43.51300
O  6.90100 0.18700 44.71800
O  7.59200 1.05000 42.72300
C  7.75700 2.35600 43.37700
H  0.65300 2.25200 40.93000
H  -2.79600 -2.56700 43.59500
H  2.59300 -5.59500 45.06700
H  5.23600 1.77600 41.64400
H  3.25000 1.68700 39.56500
H  2.23700 3.48000 41.05500
H  3.71000 3.83200 40.13400
H  3.87800 3.61600 41.85900
H  4.95500 0.90100 38.99700
H  5.72400 -0.49800 39.78600
H  7.71400 0.49000 40.23800
H  7.11100 2.07100 40.47300
H  -2.96000 2.03800 40.06500
H  -1.16600 2.24800 39.98000
H  -1.99700 2.97300 41.27500
H  -5.83200 -0.95800 42.64200
H  -4.46700 -1.41000 43.68700
H  -4.60600 -2.13100 42.01500
H  -1.97500 -5.08300 43.60400
H  -0.00300 -5.59600 45.81200
H  -2.08000 -4.97100 46.45400
H  -3.24700 -5.38800 45.23000
H  -3.02300 -3.67100 45.69900
H  0.66700 -6.68400 43.16800
H  -0.96300 -7.09300 43.60200
H  0.01100 -8.82900 44.85200
H  0.81900 -7.61200 45.87300
H  1.57800 -8.13300 44.40600
H  4.94300 -5.73400 45.79400
H  6.55100 -5.28100 45.31100
H  5.59300 -6.01100 44.14100
H  7.08500 -1.11300 41.84800
H  8.59700 2.26900 44.06600
H  6.87500 2.73700 43.89100
H  8.00400 3.14800 42.67000
Mg 47.54400 15.55800 28.72500
C  45.66300 15.54200 31.75300
C  49.85100 17.32300 30.40300
C  48.81800 16.48900 25.82400
C  44.69000 14.40600 27.11400
N  47.68200 16.36900 30.86300
C  46.87900 16.18400 31.95400
C  47.42700 16.94100 33.19200
C  48.73000 17.66000 32.71300
C  48.82400 16.98500 31.27800
C  48.62800 19.27600 32.47300
C  47.72900 15.90500 34.27800
C  47.76200 16.50800 35.76000
H  47.45500 17.99200 35.95300
N  49.25800 16.41800 28.23600
C  50.13900 17.04700 29.06700
C  51.38300 17.35700 28.30000
C  51.06500 17.12800 26.93400
C  49.61900 16.65300 26.94000
C  52.66400 17.91500 28.86100
C  51.89300 17.32100 25.71200
O  51.48400 17.07800 24.59100
C  53.23800 17.88800 25.83000
N  46.84400 15.56900 26.75800
C  47.54400 15.96200 25.72200
C  46.79600 15.70300 24.36600
C  45.52400 14.89500 24.81900
C  45.71500 14.88900 26.31600
C  46.44700 17.05000 23.67200
C  45.34900 13.55900 24.12100
C  46.47300 12.51500 24.51200
N  45.72600 14.86000 29.26100
C  44.65500 14.40200 28.52900
C  43.59700 13.92100 29.30400
C  43.93100 14.37200 30.56300
C  45.21800 14.99800 30.51200
C  42.26500 13.29600 28.89000
C  43.44100 14.52000 31.89800
O  42.36900 14.12200 32.35300
C  44.59300 15.15900 32.78100
C  43.89300 16.39400 33.23100
O  43.16200 17.11300 32.53200
O  44.14900 16.51700 34.55500
C  43.32700 17.61700 35.19400
H  50.60700 18.01500 30.77800
H  49.29000 16.65000 24.85300
H  43.93500 13.88200 26.52400
H  46.74200 17.67700 33.61100
H  49.64300 17.40700 33.25300
H  49.57500 19.68400 32.82700
H  47.75400 19.71200 32.95600
H  48.55300 19.43800 31.39800
H  48.67800 15.47300 33.96100
H  47.05100 15.07400 34.08400
H  48.72900 16.36400 36.24100
H  47.10100 15.93800 36.41200
H  52.71600 18.99600 28.72700
H  53.48900 17.37000 28.40200
H  52.80300 17.86000 29.94000
H  53.67500 18.01700 24.84000
H  53.77200 17.14800 26.42700
H  53.11600 18.86700 26.29500
H  47.44600 15.06200 23.77100
H  44.66200 15.52500 24.59900
H  47.29200 17.34000 23.04800
H  46.27400 17.78100 24.46100
H  45.59100 16.91000 23.01200
H  45.35000 13.58300 23.03100
H  44.34800 13.19500 24.35300
H  46.13600 12.00500 25.41400
H  47.52100 12.80600 24.57900
H  46.46500 11.81000 23.68100
H  42.50800 12.23900 29.00000
H  41.97400 13.51600 27.86300
H  41.51300 13.47900 29.65700
H  44.99900 14.44800 33.50100
H  43.67900 17.73800 36.21800
H  42.25200 17.44100 35.24200
H  43.46200 18.57400 34.68900

