158

Mg 27.49400 49.94800 26.95900
C  25.41400 50.69200 29.75400
C  29.91700 49.15100 29.36300
C  29.32800 49.01700 24.53200
C  24.87100 50.94000 24.92600
N  27.60800 49.91000 29.35900
C  26.61300 50.19100 30.24900
C  27.02300 50.01900 31.71900
C  28.58500 49.74500 31.57000
C  28.73300 49.58100 29.99200
C  29.47600 50.84600 32.16100
C  26.20900 48.92600 32.40100
C  25.48400 49.38600 33.71600
H  25.73200 48.44100 34.94000
N  29.40600 49.21600 26.95200
C  30.24900 48.92100 27.98300
C  31.45200 48.36300 27.44500
C  31.35000 48.47000 26.06100
C  30.02300 48.88100 25.79300
C  32.56100 47.75900 28.36600
C  32.47600 48.21500 25.12300
O  32.40500 48.43800 23.91300
C  33.75600 47.79700 25.62400
N  27.19500 50.11300 25.01700
C  28.10800 49.56500 24.18100
C  27.53900 49.29500 22.72300
C  26.02600 49.78800 22.90700
C  25.98700 50.31400 24.39900
C  28.38000 49.98600 21.61100
C  24.92700 48.63100 22.65300
C  24.31200 48.64600 21.27900
N  25.59400 50.84700 27.21100
C  24.61400 51.08800 26.28100
C  23.49500 51.66300 26.94100
C  23.73800 51.44400 28.28100
C  25.01300 50.93300 28.38500
C  22.17900 52.16000 26.36700
C  23.10800 51.43700 29.61800
O  22.02100 51.80700 29.96600
C  24.23700 51.02300 30.66300
C  24.43800 52.20100 31.48400
O  25.22300 53.13300 31.27900
O  23.76000 52.08000 32.68300
C  23.84200 53.10100 33.79700
H  30.74200 49.00700 30.06300
H  29.90900 48.58700 23.71400
H  24.04600 51.15100 24.24200
H  26.89000 50.90100 32.34500
H  28.77900 48.73800 31.93900
H  28.90200 51.51600 32.80200
H  29.89900 51.40000 31.32300
H  30.35100 50.50900 32.71600
H  26.77700 48.04600 32.70200
H  25.35500 48.63900 31.78700
H  24.42100 49.25900 33.51300
H  25.68400 50.43100 33.95500
H  32.59000 46.67100 28.30700
H  32.30400 47.72700 29.42400
H  33.57100 48.15500 28.26300
H  34.11000 48.63800 26.22000
H  34.52900 47.66300 24.86700
H  33.59400 46.84700 26.13200
H  27.54200 48.21900 22.54600
H  25.83900 50.64400 22.25800
H  28.43400 49.30000 20.76500
H  29.41400 50.05500 21.94800
H  28.01600 50.98300 21.36000
H  24.14200 48.73100 23.40200
H  25.50400 47.71800 22.79800
H  23.23400 48.74000 21.40900
H  24.58200 47.74500 20.72900
H  24.52200 49.57200 20.74400
H  21.54400 51.42700 25.86900
H  22.33400 53.04200 25.74400
H  21.70000 52.32400 27.33200
H  23.83400 50.13700 31.15400
H  23.66200 54.11200 33.43100
H  24.79700 53.10600 34.32300
H  23.04900 53.03400 34.54200
Mg 9.91400 46.77800 25.39200
C  7.50300 47.09000 27.74300
C  12.32600 47.75600 27.51900
C  12.42100 46.40800 22.82300
C  7.54100 46.22200 22.89300
N  9.86300 47.31600 27.37000
C  8.78900 47.34100 28.20500
C  9.23300 47.50700 29.67600
C  10.56400 48.24000 29.38800
C  10.96200 47.86300 27.91400
C  10.66200 49.72600 29.67800
C  9.43200 46.22800 30.57300
C  10.11800 46.51700 31.94600
H  9.44100 45.93300 33.15700
N  12.12700 46.91500 25.25700
C  12.87900 47.33000 26.30800
C  14.27500 47.33200 25.93800
C  14.38100 46.82600 24.59200
C  12.95700 46.66800 24.14700
C  15.39100 47.96600 26.77200
C  15.60800 46.58300 23.74100
O  15.47900 46.22500 22.58500
C  17.02600 46.72400 24.25600
N  10.05500 46.46600 23.20400
C  11.09600 46.45500 22.36800
C  10.73000 46.26500 20.87600
C  9.23000 46.15600 20.94200
C  8.87200 46.27700 22.42900
C  11.37100 47.42400 19.98600
C  8.71800 44.79700 20.41400
C  8.10200 44.79600 19.05000
N  7.88100 46.62500 25.24700
C  7.01600 46.39600 24.21700
C  5.60500 46.35000 24.79500
C  5.78200 46.47000 26.18500
C  7.16700 46.78900 26.37600
C  4.32700 46.17100 24.00500
C  5.07500 46.47600 27.43800
O  3.86000 46.31400 27.73100
C  6.21400 46.87100 28.48200
C  6.35500 45.71600 29.51200
O  6.86100 44.61000 29.34100
O  5.78900 46.13400 30.66300
C  5.54400 45.11500 31.70500
H  12.87400 48.12200 28.38900
H  13.12200 46.36100 21.98700
H  6.75300 45.97800 22.17800
H  8.60800 48.26300 30.15100
H  11.35400 47.77500 29.97900
H  9.85200 50.04900 30.33100
H  10.72600 50.23200 28.71500
H  11.58100 49.86600 30.24700
H  10.07100 45.57000 29.98400
H  8.48500 45.71900 30.75600
H  10.35100 47.57200 32.09000
H  11.09300 46.05100 31.80200
H  15.81300 48.83800 26.27300
H  16.04600 47.14000 27.04900
H  15.08100 48.31700 27.75700
H  17.08600 47.77200 24.55000
H  17.78700 46.45400 23.52300
H  17.16500 46.03500 25.08800
H  11.14900 45.28500 20.64500
H  8.80600 46.91300 20.28200
H  11.78200 48.18000 20.65500
H  10.63100 47.76300 19.26100
H  12.12700 46.92000 19.38400
H  7.98300 44.32300 21.06400
H  9.51500 44.05700 20.35900
H  8.53600 45.54600 18.38900
H  7.01900 44.91500 19.04500
H  8.28000 43.82800 18.58100
H  4.16200 45.09500 23.96200
H  4.68000 46.50500 23.02900
H  3.49800 46.69500 24.48000
H  5.95600 47.73800 29.09000
H  4.50900 45.03500 32.03700
H  6.17600 45.47800 32.51600
H  5.84900 44.09800 31.45800

