158

Mg 53.77700 23.94500 45.45000
C  51.22200 26.08400 44.28700
C  52.45500 21.39800 43.90400
C  56.59200 22.20000 45.88400
C  55.41900 26.96400 46.59600
N  52.19300 23.81300 44.07500
C  51.22900 24.76400 43.74900
C  50.11500 24.17000 42.85900
C  50.46400 22.65300 43.02100
C  51.83800 22.60800 43.69700
C  49.27300 21.75700 43.58100
C  50.30700 24.68700 41.37700
C  49.00400 25.02700 40.67000
H  49.05200 25.69800 39.33700
N  54.45400 21.99600 45.03200
C  53.71200 21.04800 44.44300
C  54.42800 19.71600 44.27800
C  55.59400 19.96500 45.05800
C  55.59000 21.42800 45.36200
C  53.89200 18.52200 43.60000
C  56.57300 18.90500 45.50700
O  56.42300 17.80500 45.05500
C  57.66900 19.21100 46.47700
N  55.71000 24.56000 46.12200
C  56.63400 23.58000 46.16800
C  57.83500 24.12300 46.89600
C  57.70400 25.74700 46.82100
C  56.20200 25.77400 46.50500
C  58.04500 23.55700 48.34300
C  58.68700 26.45700 45.79100
C  59.34700 27.75300 46.31400
N  53.35100 26.10900 45.51900
C  54.13200 27.12000 46.13200
C  53.24800 28.32300 46.29400
C  52.06800 27.99100 45.60700
C  52.23500 26.62700 45.10000
C  53.56400 29.51700 47.12500
C  50.74500 28.36100 45.17200
O  50.03300 29.31400 45.39300
C  50.10600 27.09000 44.36300
C  49.52500 27.70300 43.13300
O  50.22300 28.04700 42.20900
O  48.14600 27.78400 43.07100
C  47.49000 28.26200 41.88000
H  51.89600 20.59600 43.41800
H  57.51800 21.65400 46.07300
H  55.85100 27.85700 47.05200
H  49.07200 24.31100 43.14400
H  50.54800 22.15700 42.05400
H  49.36000 21.41000 44.61100
H  49.09500 20.91400 42.91300
H  48.37200 22.37100 43.59600
H  50.77400 23.92900 40.74800
H  50.98000 25.54200 41.31000
H  48.39900 25.68400 41.29600
H  48.50200 24.07400 40.50400
H  53.04400 18.84700 42.99700
H  53.64900 17.76200 44.34200
H  54.71400 18.14900 42.98900
H  57.20100 19.72800 47.31500
H  58.36100 19.90900 46.00600
H  58.20600 18.34600 46.86700
H  58.71900 23.85900 46.31600
H  57.67100 26.19700 47.81300
H  57.88800 24.28700 49.13700
H  59.07800 23.22200 48.44300
H  57.46300 22.66500 48.57200
H  58.22700 26.71800 44.83800
H  59.54600 25.82000 45.57600
H  59.00600 28.38000 45.48900
H  60.43400 27.83500 46.30800
H  58.92800 28.09000 47.26200
H  54.22000 29.34400 47.97800
H  52.65000 29.89500 47.58400
H  53.98500 30.30700 46.50300
H  49.39200 26.64500 45.05500
H  46.96900 29.17400 42.16900
H  46.72700 27.53300 41.60500
H  48.08000 28.48700 40.99200
Mg 36.46400 48.83300 24.41600
C  36.38400 47.00900 27.36100
C  35.44600 51.54500 26.32000
C  35.82400 50.37200 21.46300
C  37.76100 46.12400 22.72800
N  35.82300 49.19200 26.63500
C  36.02100 48.31300 27.65600
C  36.02100 48.96800 29.03200
C  35.51400 50.41300 28.64900
C  35.65600 50.39800 27.11700
C  34.10600 50.69900 29.14500
C  37.45900 49.07800 29.76300
C  37.50700 48.83900 31.31800
H  36.07700 48.78000 32.00400
N  35.80900 50.68000 23.97200
C  35.37200 51.62700 24.87000
C  35.01300 52.81900 24.05400
C  34.96600 52.48600 22.65700
C  35.51800 51.10300 22.65600
C  34.70500 54.16600 24.65800
C  34.71100 53.34600 21.36200
O  34.69100 52.89600 20.20200
C  34.36500 54.83200 21.49100
N  36.74100 48.35100 22.34100
C  36.41200 49.13700 21.26500
C  36.86200 48.48100 19.89900
C  37.72000 47.19800 20.35600
C  37.42900 47.20600 21.90100
C  35.63500 48.16000 18.99100
C  39.31200 47.54000 20.20800
C  40.25800 46.39700 19.77600
N  36.90600 46.93300 24.88200
C  37.40800 45.86800 24.04900
C  37.51100 44.71300 24.82500
C  37.14800 45.08100 26.15300
C  36.80800 46.45700 26.12200
C  38.19700 43.34700 24.37300
C  37.03100 44.61300 27.50200
O  37.24500 43.51500 28.03600
C  36.58300 45.95200 28.33800
C  35.34200 45.61700 29.03700
O  34.19900 45.76200 28.57000
O  35.55700 45.07800 30.27200
C  34.34300 44.76600 31.06300
H  35.25900 52.40300 26.96900
H  35.54000 50.75500 20.48100
H  38.20800 45.25800 22.23500
H  35.39900 48.22000 29.52500
H  36.22200 51.14100 29.04400
H  33.83500 49.89600 29.83100
H  33.28900 50.68400 28.42300
H  34.02200 51.69300 29.58400
H  37.91200 50.05400 29.58800
H  38.11400 48.38200 29.24000
H  38.07300 49.65300 31.77100
H  38.03900 47.90000 31.47100
H  33.79700 54.56800 24.20800
H  35.58500 54.79100 24.50900
H  34.46100 54.08000 25.71700
H  33.38300 54.84100 21.96300
H  34.29300 55.28700 20.50300
H  35.07200 55.41600 22.08200
H  37.41700 49.20300 19.30000
H  37.46500 46.27300 19.83900
H  35.94800 47.29200 18.41000
H  35.49900 48.95400 18.25700
H  34.70000 48.06200 19.54200
H  39.70000 47.81200 21.18900
H  39.47500 48.36900 19.51900
H  39.63800 45.53300 19.53500
H  40.89800 46.02600 20.57600
H  40.88000 46.64100 18.91600
H  38.98900 43.07300 25.07100
H  38.60500 43.58500 23.39100
H  37.58600 42.44400 24.36800
H  37.42700 46.21400 28.97500
H  34.53100 43.78000 31.48800
H  33.43100 44.61600 30.48500
H  34.14100 45.50600 31.83700

