158

Mg 2.37000 -1.73400 43.34300
C  5.82000 -0.93200 42.73800
C  1.47800 1.04300 41.66600
C  -0.71700 -2.85200 43.48800
C  3.53600 -4.87700 44.61900
N  3.56200 -0.21600 42.16800
C  4.92600 0.03600 42.24600
C  5.32200 1.37000 41.65000
C  3.87500 2.05600 41.44700
C  2.90000 0.89500 41.83500
C  3.69600 3.39700 42.34500
C  6.09700 1.24600 40.30800
C  7.43600 2.00200 40.21000
H  8.05600 2.32900 38.79700
N  0.58500 -1.04800 42.59000
C  0.40300 0.17900 42.04400
C  -0.98100 0.34300 41.66600
C  -1.66000 -0.68600 42.32300
C  -0.61100 -1.61800 42.82000
C  -1.56800 1.41200 40.80600
C  -3.21700 -0.82500 42.30800
O  -3.87000 0.08400 41.86300
C  -3.91100 -2.05100 42.89900
N  1.53000 -3.61000 44.04400
C  0.20200 -3.80200 43.97900
C  -0.16300 -5.19200 44.47300
C  1.21600 -5.81600 44.89800
C  2.11300 -4.70500 44.43400
C  -1.30700 -5.11800 45.60400
C  1.61800 -7.14300 44.27000
C  1.54400 -8.41200 45.15100
N  4.24600 -2.77100 43.62500
C  4.49300 -3.96900 44.24500
C  5.88100 -4.08900 44.49600
C  6.45800 -2.93400 43.92500
C  5.42400 -2.20600 43.31600
C  6.59700 -5.18900 45.24600
C  7.72900 -2.17500 43.73500
O  8.89000 -2.36600 44.09500
C  7.32700 -0.80200 43.04300
C  7.57100 0.38000 43.92000
O  6.82500 0.79400 44.82500
O  8.63400 1.04900 43.44400
C  8.86100 2.40300 43.96300
H  1.18500 2.01200 41.25500
H  -1.77500 -3.12000 43.51200
H  3.88600 -5.74400 45.18200
H  5.88900 1.86200 42.44000
H  3.63500 2.27800 40.40700
H  4.70400 3.68300 42.64400
H  3.16100 3.00900 43.21200
H  3.22400 4.21500 41.80200
H  5.53600 1.52600 39.41700
H  6.49700 0.25100 40.11400
H  8.29300 1.53100 40.69000
H  7.26200 2.94500 40.72800
H  -2.25700 0.94500 40.10200
H  -0.76400 1.86500 40.22500
H  -1.97600 2.20700 41.42900
H  -4.92400 -1.65600 42.81500
H  -3.62700 -1.98300 43.94900
H  -3.82100 -2.93000 42.26100
H  -0.53700 -5.75900 43.62000
H  1.27800 -5.81500 45.98600
H  -2.23500 -5.60600 45.30700
H  -1.67600 -4.11600 45.82400
H  -0.92800 -5.51400 46.54700
H  2.60600 -7.09600 43.81400
H  0.86500 -7.27600 43.49300
H  2.34000 -9.09700 44.85900
H  0.64300 -8.96200 44.88000
H  1.49900 -8.18200 46.21600
H  7.16800 -5.81600 44.56200
H  5.99000 -5.89000 45.81900
H  7.29500 -4.64900 45.88600
H  7.81600 -0.59200 42.09200
H  8.50400 3.23600 43.35800
H  9.94800 2.44500 44.03300
H  8.48400 2.53800 44.97800
Mg 9.18700 4.64400 27.58000
C  10.59000 3.11200 30.22300
C  7.40900 6.63700 29.79800
C  7.48200 5.95600 24.94700
C  10.90400 2.52500 25.33400
N  9.05300 4.91900 29.84200
C  9.73600 4.16500 30.70500
C  9.38800 4.51100 32.18700
C  8.34100 5.68000 32.03200
C  8.29700 5.78900 30.47900
C  6.93800 5.42300 32.67400
C  10.74000 4.92800 32.95000
C  10.50600 5.58700 34.24500
H  11.19700 5.11200 35.53900
N  7.73200 6.12200 27.40100
C  7.10800 6.81800 28.36400
C  6.23900 7.89800 27.80400
C  6.24600 7.61100 26.42100
C  7.17100 6.53800 26.20400
C  5.43900 8.90400 28.62300
C  5.52600 8.34100 25.32100
O  5.66000 8.01800 24.14700
C  4.58100 9.38500 25.55200
N  9.20600 4.35400 25.47800
C  8.33000 4.89500 24.62700
C  8.59900 4.39400 23.19100
C  9.85300 3.46500 23.23300
C  10.03500 3.45100 24.81100
C  7.36700 3.84200 22.45400
C  11.05400 4.03700 22.39100
C  11.75100 3.04900 21.55600
N  10.53200 3.08100 27.64100
C  11.08100 2.31200 26.74500
C  11.94800 1.36300 27.39800
C  11.76900 1.56600 28.77300
C  10.89700 2.67100 28.84200
C  12.74700 0.36300 26.70200
C  12.13300 1.14400 30.16400
O  12.83400 0.26000 30.59400
C  11.37000 2.12900 31.10600
C  10.51300 1.35100 32.06800
O  9.37000 0.89200 31.82600
O  11.15500 1.26200 33.29600
C  10.29600 1.06100 34.44200
H  6.84700 7.31400 30.44400
H  7.14700 6.42300 24.01800
H  11.56000 1.86700 24.75900
H  8.79900 3.67100 32.55500
H  8.91800 6.52500 32.41000
H  6.76900 4.49600 33.22200
H  6.15100 5.47200 31.92100
H  6.69300 6.29100 33.28600
H  11.43000 5.53300 32.36200
H  11.23300 3.99500 33.22100
H  9.43100 5.51500 34.40800
H  10.76700 6.64000 34.13900
H  4.38900 8.64900 28.76700
H  5.57200 9.83600 28.07400
H  5.91100 9.04200 29.59500
H  3.64700 9.19600 26.08100
H  4.35200 9.71400 24.53800
H  5.11700 10.20300 26.03400
H  8.87400 5.26900 22.60300
H  9.68900 2.42800 22.93900
H  7.16900 4.40200 21.54000
H  6.54500 3.87600 23.16900
H  7.58700 2.81600 22.16100
H  11.66600 4.32600 23.24600
H  10.92400 5.03300 21.96800
H  12.55700 2.56900 22.11200
H  12.15900 3.62700 20.72700
H  11.11200 2.24400 21.19300
H  13.40800 0.71300 25.90900
H  12.07000 -0.18900 26.05000
H  13.27700 -0.32200 27.36300
H  12.07400 2.76300 31.64600
H  9.25100 1.21500 34.17100
H  10.61200 1.76400 35.21300
H  10.35300 0.03600 34.80800

