158

Mg 23.91800 -5.35300 46.34600
C  26.31700 -3.30700 44.62300
C  21.56500 -4.00400 44.10500
C  21.99000 -8.08000 46.85700
C  26.65200 -6.99900 47.90800
N  24.00000 -3.84600 44.50100
C  25.03300 -3.02800 44.14000
C  24.57100 -2.12500 42.99900
C  23.00700 -2.15300 43.08800
C  22.82700 -3.41800 43.96600
C  22.35400 -0.87500 43.65900
C  25.17000 -2.58600 41.60800
C  26.10400 -1.67100 40.89700
H  26.04000 -1.48600 39.42000
N  22.00100 -5.85700 45.75800
C  21.23400 -5.15300 44.87000
C  19.96400 -5.80800 44.85100
C  20.07500 -7.04600 45.54100
C  21.42900 -7.08100 46.04400
C  18.75200 -5.26700 44.15600
C  18.89700 -8.00300 45.64900
O  17.72900 -7.75100 45.33500
C  19.16100 -9.36200 46.13100
N  24.26700 -7.23100 47.36500
C  23.24100 -8.16600 47.45600
C  23.74900 -9.40000 48.26000
C  25.25900 -9.04100 48.68300
C  25.47000 -7.73600 47.93500
C  22.82900 -9.79600 49.47600
C  26.31400 -10.10100 48.19200
C  27.36700 -10.69200 49.12100
N  26.02700 -5.14600 46.39200
C  26.98300 -5.84400 47.11900
C  28.25300 -5.26300 46.91000
C  28.07700 -4.25500 45.93000
C  26.68800 -4.30700 45.56500
C  29.58500 -5.56800 47.59100
C  28.69700 -3.23700 45.13900
O  29.89200 -2.81400 45.09500
C  27.65800 -2.65800 44.15400
C  27.60600 -1.15200 44.39000
O  27.20600 -0.59200 45.41500
O  28.15900 -0.50300 43.33800
C  28.01200 0.92200 43.25000
H  20.78500 -3.40000 43.63600
H  21.44900 -9.00900 47.05000
H  27.51500 -7.48600 48.36800
H  25.01500 -1.16800 43.27500
H  22.52300 -2.35000 42.13100
H  22.00200 -0.87400 44.69100
H  21.52200 -0.58600 43.01600
H  23.02400 -0.04200 43.44900
H  24.33200 -2.80000 40.94600
H  25.67300 -3.54300 41.75100
H  27.11500 -1.92900 41.21200
H  26.03800 -0.64900 41.27100
H  18.00800 -5.47300 44.92600
H  18.55300 -5.62900 43.14800
H  18.77400 -4.18000 44.08000
H  19.26300 -9.23800 47.20900
H  20.07100 -9.66700 45.61500
H  18.37500 -10.06900 45.86500
H  23.78400 -10.28500 47.62500
H  25.38900 -8.79800 49.73700
H  21.96200 -9.13700 49.51900
H  23.45800 -9.65600 50.35500
H  22.54900 -10.84700 49.41300
H  26.75400 -9.82900 47.23200
H  25.61800 -10.92800 48.05500
H  27.28500 -11.74000 49.41100
H  27.68000 -10.06000 49.95300
H  28.27800 -10.76000 48.52700
H  30.23900 -4.73700 47.32500
H  29.94600 -6.51500 47.19100
H  29.47700 -5.71800 48.66500
H  27.83100 -2.92900 43.11200
H  29.03200 1.28700 43.12700
H  27.34900 1.37300 43.98900
H  27.58900 1.17300 42.27700
Mg 0.04900 43.61100 26.01400
C  2.44000 43.79700 28.65000
C  -2.29700 43.18700 28.32400
C  -2.15100 42.86300 23.49400
C  2.58600 44.01500 23.66600
N  0.08600 43.57600 28.24300
C  1.16400 43.59300 29.12700
C  0.68800 43.45800 30.61600
C  -0.89300 43.45500 30.48500
C  -1.05700 43.34100 28.93900
C  -1.54200 42.24200 31.21600
C  1.34200 44.65200 31.49500
C  0.83200 44.89400 32.99100
H  0.57300 43.66400 33.84700
N  -2.02700 43.01100 25.89600
C  -2.82000 42.95900 26.97300
C  -4.14100 42.81200 26.57500
C  -4.12200 42.68700 25.16400
C  -2.71800 42.83600 24.77000
C  -5.30200 42.80200 27.46200
C  -5.27000 42.58100 24.16300
O  -5.07800 42.38700 22.95500
C  -6.71000 42.74200 24.67300
N  0.10000 43.65200 23.94500
C  -0.85300 43.13100 23.13000
C  -0.46800 43.08000 21.63100
C  0.89300 43.81700 21.67900
C  1.23300 43.82800 23.19600
C  -0.62800 41.76400 20.91700
C  0.89600 45.22500 20.92600
C  1.60900 45.44600 19.64700
N  2.12300 43.92700 26.05200
C  3.01400 44.00500 24.99100
C  4.30100 44.23200 25.62100
C  4.17100 44.10500 26.99200
C  2.79100 43.94900 27.27000
C  5.58700 44.44800 24.94600
C  4.88900 43.94000 28.27800
O  6.07800 43.98200 28.52500
C  3.82900 43.94000 29.38900
C  4.14900 42.69900 30.16500
O  3.72800 41.57700 29.86400
O  4.94000 43.05300 31.24200
C  5.12700 42.08000 32.27900
H  -3.04100 43.12900 29.12100
H  -2.80800 42.65900 22.64600
H  3.34100 44.16200 22.89100
H  1.03400 42.43400 30.75900
H  -1.25800 44.40100 30.88400
H  -1.72200 41.41600 30.52800
H  -2.47500 42.55500 31.68300
H  -0.91500 41.81700 32.00100
H  1.34800 45.55900 30.89000
H  2.38500 44.36800 31.62800
H  0.05000 45.65200 33.01900
H  1.66200 45.48300 33.38200
H  -5.91500 43.69800 27.37300
H  -4.98700 42.51400 28.46500
H  -5.91500 42.00200 27.04800
H  -6.96200 43.70000 25.12700
H  -6.90100 41.86900 25.29700
H  -7.43300 42.68300 23.85900
H  -1.23500 43.73800 21.22500
H  1.68200 43.17200 21.29100
H  0.09200 41.03900 21.29600
H  -0.65000 41.92500 19.83900
H  -1.66000 41.48100 21.12400
H  1.52700 45.84100 21.56600
H  -0.14300 45.55200 20.89200
H  2.52900 44.86100 19.63300
H  1.84400 46.50500 19.75000
H  0.87700 45.16800 18.88900
H  5.52300 45.01200 24.01600
H  6.08700 43.50800 24.71200
H  6.02700 45.21700 25.58100
H  3.89100 44.85500 29.97700
H  5.85500 41.41000 31.82200
H  4.20800 41.56600 32.56100
H  5.57100 42.62800 33.11000

