158

Mg 26.01800 0.95600 28.55400
C  27.80100 0.35700 31.52000
C  23.16500 1.26700 30.40800
C  24.28900 0.81400 25.78300
C  28.91400 0.20500 26.67800
N  25.57900 0.77500 30.83400
C  26.45000 0.68300 31.83900
C  25.83200 0.88400 33.22600
C  24.34000 1.24300 32.81000
C  24.30700 1.07200 31.23100
C  23.27100 0.35500 33.46300
C  26.52700 1.97400 34.10000
C  27.09100 1.50300 35.51300
H  26.76900 2.38400 36.73100
N  24.01500 0.96200 28.14500
C  23.00500 1.21600 29.01200
C  21.72400 1.31500 28.31400
C  22.03000 1.15300 26.92100
C  23.50800 0.98600 26.91500
C  20.39300 1.45100 28.96500
C  21.16700 1.06700 25.68000
O  21.59100 0.93800 24.54300
C  19.62800 0.99400 25.98400
N  26.54100 0.59000 26.50200
C  25.62200 0.61800 25.55500
C  26.16500 0.57000 24.14500
C  27.73500 0.70500 24.41500
C  27.77500 0.41900 25.96300
C  25.62500 -0.58400 23.27900
C  28.25100 2.16200 24.03000
C  28.15000 3.42100 24.91000
N  27.98500 0.55200 28.94200
C  29.03300 0.22200 28.07100
C  30.16800 -0.07900 28.90600
C  29.81100 0.00600 30.20100
C  28.42300 0.35500 30.21400
C  31.61100 -0.51100 28.35800
C  30.23500 -0.15200 31.59000
O  31.28200 -0.53000 32.08300
C  28.94300 0.16800 32.42500
C  28.69700 -0.95700 33.30500
O  27.90900 -1.88900 33.05100
O  29.32700 -0.74400 34.43700
C  29.02000 -1.66300 35.52000
H  22.25900 1.53900 30.95300
H  23.81900 0.84200 24.79800
H  29.82700 -0.01500 26.12200
H  25.79800 -0.09900 33.69500
H  24.19700 2.31600 32.93900
H  23.53100 -0.70100 33.38800
H  22.31900 0.52300 32.96000
H  23.11000 0.62400 34.50700
H  25.78100 2.73000 34.34500
H  27.30100 2.47100 33.51500
H  28.17300 1.63300 35.46700
H  26.75300 0.48800 35.72400
H  20.47000 1.65200 30.03400
H  19.84300 0.52800 28.78000
H  19.73000 2.21700 28.56200
H  19.37300 0.33200 26.81100
H  19.23700 0.37800 25.17400
H  19.27200 2.00600 26.17500
H  25.80100 1.51200 23.73600
H  28.27400 -0.05300 23.84700
H  24.92100 -1.17200 23.87000
H  26.48700 -1.14000 22.91000
H  25.25900 -0.00700 22.43000
H  27.95900 2.53300 23.04700
H  29.32700 2.09600 23.87200
H  28.06900 3.21300 25.97700
H  27.28700 4.02200 24.62400
H  29.02100 4.07600 24.90900
H  32.07700 0.30400 27.80400
H  31.54700 -1.30600 27.61500
H  32.23800 -0.85300 29.18100
H  29.28700 1.04300 32.97800
H  27.94200 -1.60700 35.66800
H  29.60100 -1.41900 36.41000
H  29.09600 -2.72300 35.27400
Mg 36.24200 49.06400 25.44600
C  36.42500 47.13500 28.34300
C  34.85800 51.55300 27.11200
C  36.13600 50.63800 22.46100
C  37.65000 46.20000 23.71700
N  35.74500 49.33100 27.51300
C  36.04000 48.45400 28.55300
C  35.85700 49.19800 29.90400
C  35.12400 50.55500 29.53200
C  35.27300 50.51800 27.94700
C  33.63400 50.61900 30.01400
C  37.14900 49.20500 30.74300
C  37.12300 48.82900 32.26500
H  35.70900 48.76600 32.95600
N  35.46400 50.85300 24.79200
C  34.90100 51.76900 25.69100
C  34.39900 52.88300 24.88000
C  34.83600 52.68000 23.57000
C  35.54500 51.38200 23.58600
C  33.80900 54.12000 25.46100
C  34.68200 53.59400 22.41900
O  35.29200 53.38600 21.37300
C  33.85900 54.88600 22.51900
N  36.77100 48.50000 23.39400
C  36.69600 49.38600 22.39700
C  37.16900 48.81500 21.08500
C  37.80800 47.42900 21.45100
C  37.34900 47.31900 22.89600
C  36.14200 48.65000 19.92600
C  39.40400 47.47700 21.26200
C  40.11200 46.17400 21.58900
N  36.85800 47.02300 25.86400
C  37.43500 46.02900 25.06400
C  37.79400 44.88700 25.92400
C  37.39400 45.27200 27.25100
C  36.80100 46.52300 27.09800
C  38.60000 43.69700 25.53300
C  37.25200 44.84300 28.67900
O  37.50200 43.78700 29.18500
C  36.67400 46.12400 29.42100
C  35.43100 45.63300 30.08800
O  34.31600 45.77900 29.64300
O  35.69000 45.14000 31.34200
C  34.60100 44.51900 32.08200
H  34.49700 52.48000 27.56400
H  36.12700 51.02800 21.44100
H  38.09500 45.30700 23.27200
H  35.14400 48.66700 30.53500
H  35.53800 51.47600 29.94200
H  33.42900 49.95800 30.85600
H  32.96700 50.22000 29.25000
H  33.29000 51.64000 30.18500
H  37.67400 50.16000 30.72500
H  37.86500 48.46300 30.38900
H  37.73700 49.46700 32.90100
H  37.49100 47.83900 32.53200
H  34.44400 54.91500 25.06800
H  33.89800 54.18000 26.54500
H  32.77500 54.25800 25.14600
H  32.96100 54.77900 23.12700
H  33.68000 55.20000 21.49100
H  34.52500 55.65400 22.91000
H  37.98900 49.44200 20.73500
H  37.43600 46.57700 20.88200
H  35.57500 49.57500 19.82600
H  35.47500 47.85300 20.25500
H  36.44100 48.36400 18.91800
H  39.81400 48.15800 22.00700
H  39.68600 47.94200 20.31700
H  40.86900 46.02700 20.81900
H  39.39200 45.35500 21.58800
H  40.58700 46.28400 22.56400
H  39.37600 44.04900 24.85400
H  38.05100 42.91600 25.00700
H  39.09700 43.29600 26.41700
H  37.43600 46.41300 30.14400
H  34.44100 43.63700 31.46200
H  33.71600 45.15200 32.15100
H  34.93900 44.34500 33.10300

