158

Mg 17.53400 -0.96000 28.53700
C  16.79200 1.20300 31.07600
C  19.60000 -2.79000 30.76600
C  19.02000 -2.53600 25.88500
C  16.02300 1.28500 26.27900
N  18.25500 -0.66400 30.64900
C  17.63000 0.11700 31.50700
C  17.82200 -0.31700 32.96500
C  18.95100 -1.36500 32.85600
C  18.88500 -1.68600 31.34600
C  20.41300 -0.93700 33.22200
C  16.35900 -0.77300 33.57600
C  15.89800 -0.34100 34.96600
H  17.07500 -0.00100 35.94500
N  18.96400 -2.46500 28.35200
C  19.63000 -3.11500 29.39100
C  20.36600 -4.27200 28.82000
C  20.27700 -4.15800 27.35300
C  19.43600 -2.96100 27.14600
C  20.96500 -5.40000 29.61300
C  20.93200 -5.02100 26.35400
O  20.96800 -4.75300 25.16000
C  21.62500 -6.29300 26.77000
N  17.66000 -0.62200 26.38100
C  18.26200 -1.46200 25.51100
C  18.00700 -1.08800 24.03700
C  16.94300 0.06900 24.24500
C  16.82800 0.28900 25.70400
C  19.22900 -0.70700 23.13300
C  15.57800 -0.20800 23.53000
C  14.48600 -1.13600 24.20400
N  16.47200 0.81300 28.62300
C  15.82800 1.59300 27.69700
C  15.22500 2.77000 28.31900
C  15.51700 2.55400 29.66500
C  16.28300 1.40100 29.75500
C  14.61300 3.93400 27.76400
C  15.38800 3.15500 31.00600
O  14.83900 4.19000 31.30700
C  16.09700 2.24900 31.94200
C  17.01300 3.07600 32.76000
O  18.02600 3.63300 32.34500
O  16.47800 3.28900 34.00000
C  17.16700 4.33600 34.83700
H  20.09500 -3.41100 31.51500
H  19.37800 -3.05400 24.99300
H  15.42300 1.93700 25.64200
H  18.21100 0.60800 33.38900
H  18.64000 -2.22800 33.44500
H  21.18400 -1.07300 32.46400
H  20.78100 -1.50800 34.07400
H  20.42600 0.13700 33.40300
H  16.45500 -1.85100 33.69900
H  15.61700 -0.60000 32.79600
H  15.36500 -1.11500 35.51700
H  15.35800 0.60500 35.01600
H  20.33300 -6.25700 29.38400
H  20.86500 -5.28400 30.69300
H  22.03900 -5.49300 29.45400
H  22.48900 -6.16500 27.42100
H  21.91300 -6.78000 25.83800
H  20.89900 -6.89900 27.31300
H  17.40100 -1.89100 23.61600
H  17.32100 0.98100 23.78300
H  20.15200 -0.97200 23.64800
H  19.28300 0.36100 22.92200
H  19.27500 -1.23700 22.18200
H  15.80200 -0.66900 22.56800
H  15.02800 0.73200 23.49700
H  13.49500 -0.71600 24.37900
H  14.75800 -1.62300 25.14000
H  14.36400 -2.05000 23.62200
H  14.63000 4.80500 28.42000
H  13.56300 3.72300 27.56100
H  15.13200 4.08100 26.81700
H  15.27700 1.77500 32.48100
H  16.66300 5.25600 34.54300
H  18.24200 4.45600 34.69900
H  16.95400 3.96500 35.83900
Mg 34.59100 48.34200 26.43000
C  34.98900 46.12700 29.14800
C  33.89400 50.79100 28.66900
C  33.98800 50.37300 23.66400
C  34.90100 45.59400 24.26400
N  34.45000 48.32200 28.67500
C  34.74000 47.37300 29.55200
C  34.75700 47.92800 30.96600
C  33.95500 49.28400 30.79500
C  34.15200 49.52900 29.26400
C  32.38400 49.08600 31.08600
C  36.16500 47.82800 31.67300
C  36.16000 47.45600 33.20100
H  36.21300 48.65300 34.09700
N  34.18800 50.33200 26.18700
C  33.88700 51.19100 27.23000
C  33.62800 52.48400 26.73700
C  33.74700 52.44600 25.32000
C  34.03400 50.99600 25.00200
C  33.41600 53.67400 27.68100
C  33.78700 53.50100 24.27200
O  34.06300 53.20700 23.09500
C  33.44900 54.98000 24.63500
N  34.49800 48.04300 24.27700
C  34.23800 49.06200 23.33000
C  34.16900 48.46500 21.98500
C  34.69700 46.93700 22.18400
C  34.71400 46.79800 23.68300
C  32.89500 48.58600 21.20100
C  36.09600 46.68900 21.64500
C  36.06600 45.57500 20.61700
N  34.76400 46.21400 26.58000
C  34.96900 45.26700 25.63200
C  35.37700 43.98200 26.28800
C  35.22400 44.22700 27.68300
C  35.02200 45.63500 27.79200
C  35.83900 42.77900 25.55900
C  35.45700 43.70800 28.97400
O  35.72500 42.57500 29.35500
C  35.26900 44.91000 30.07100
C  34.22100 44.44800 30.97900
O  33.08000 44.26100 30.69800
O  34.74400 44.27400 32.24600
C  33.83000 44.16600 33.37400
H  33.58300 51.50900 29.43100
H  33.77500 51.04300 22.82900
H  34.87400 44.63200 23.74800
H  34.09600 47.37000 31.62900
H  34.43400 50.15800 31.23600
H  31.93400 49.35400 32.04200
H  32.17300 48.02900 30.92500
H  31.91400 49.64300 30.27600
H  36.57900 48.82500 31.51900
H  36.86700 47.14500 31.19600
H  37.07100 46.88400 33.37900
H  35.39900 46.72300 33.46800
H  32.40200 54.03400 27.50400
H  34.15800 54.46900 27.60000
H  33.29600 53.45600 28.74200
H  33.40100 55.66400 23.78800
H  34.30800 55.30700 25.22100
H  32.56300 55.11100 25.25600
H  34.88300 49.12200 21.49000
H  34.05700 46.16500 21.75600
H  32.39000 47.62200 21.24300
H  33.09000 48.89900 20.17500
H  32.07200 49.20700 21.55500
H  36.77200 46.39300 22.44700
H  36.46300 47.55100 21.08800
H  35.03700 45.33200 20.35200
H  36.46200 44.62400 20.97300
H  36.62300 45.90700 19.74100
H  36.68400 43.14100 24.97400
H  34.99100 42.49900 24.93500
H  36.06900 41.86100 26.10000
H  36.18700 45.10500 30.62500
H  32.93800 44.77000 33.20900
H  34.27200 44.48100 34.31900
H  33.66200 43.09500 33.48300

