158

Mg -1.48300 17.78400 27.24500
C  -1.86900 15.32100 29.72700
C  -2.06500 20.16800 29.48100
C  -1.36900 19.89400 24.67200
C  -1.58300 15.03400 24.73900
N  -1.91200 17.66400 29.41200
C  -1.96500 16.62800 30.26100
C  -2.31400 17.17900 31.65700
C  -2.60900 18.67600 31.40500
C  -2.18700 18.87400 29.96300
C  -4.02500 19.09500 31.74500
C  -1.16900 16.84800 32.69000
C  -1.59000 16.06300 33.94800
H  -0.44200 15.98700 34.99000
N  -1.61400 19.76500 27.04800
C  -1.70100 20.58400 28.16600
C  -1.57200 21.92900 27.73800
C  -1.38200 21.91000 26.38200
C  -1.37400 20.53100 25.97700
C  -1.82200 23.15300 28.62300
C  -1.13200 22.99800 25.38600
O  -1.03300 22.84200 24.18800
C  -1.02000 24.41200 25.85300
N  -1.45100 17.46600 25.05100
C  -1.46600 18.57400 24.25100
C  -1.83300 18.16600 22.78700
C  -1.67500 16.63600 22.80100
C  -1.54500 16.40600 24.28100
C  -3.22900 18.51300 22.31400
C  -0.47600 15.98900 22.03100
C  0.99400 16.28800 22.56100
N  -1.56800 15.64700 27.19000
C  -1.54800 14.72600 26.14100
C  -1.76900 13.38700 26.70400
C  -1.90400 13.58700 28.08900
C  -1.74300 14.98100 28.32100
C  -2.09100 12.20700 25.92200
C  -2.17900 12.90700 29.29400
O  -2.30100 11.68600 29.51100
C  -2.22200 13.98900 30.43200
C  -1.11500 13.58500 31.42000
O  0.04800 13.97100 31.34000
O  -1.55200 12.93000 32.52900
C  -0.62300 12.55000 33.64500
H  -2.15500 21.02000 30.15800
H  -1.52500 20.50300 23.77900
H  -1.66000 14.21000 24.02800
H  -3.20700 16.70700 32.06700
H  -1.99300 19.39900 31.94100
H  -4.55900 18.49000 32.47800
H  -4.52000 19.19900 30.78000
H  -3.96600 20.12100 32.11000
H  -0.79500 17.82900 32.98200
H  -0.37900 16.35400 32.12400
H  -1.82700 15.04400 33.63900
H  -2.40600 16.63500 34.39000
H  -2.67400 23.75700 28.31000
H  -0.89300 23.69800 28.78600
H  -2.18400 22.99600 29.63900
H  -1.93700 24.70100 26.36600
H  -0.86900 25.03000 24.96800
H  -0.29000 24.41000 26.66300
H  -1.12200 18.64900 22.11600
H  -2.56700 16.12700 22.43800
H  -3.59800 18.96200 23.23700
H  -3.85000 17.63400 22.14500
H  -3.22300 19.17100 21.44500
H  -0.57200 16.34100 21.00400
H  -0.53500 14.90100 21.99700
H  1.02500 16.75500 23.54500
H  1.49200 16.92000 21.82500
H  1.60700 15.39900 22.71000
H  -2.22800 11.46700 26.71000
H  -1.34300 11.84700 25.21600
H  -3.05400 12.41700 25.45700
H  -3.22400 13.93200 30.85600
H  -0.01100 11.68700 33.38400
H  -1.14400 12.35800 34.58400
H  0.06500 13.39000 33.73600
Mg 53.87100 23.45400 45.15600
C  51.57700 26.06400 44.30100
C  51.54100 21.25300 43.94400
C  56.32100 21.21000 45.14900
C  56.26300 25.96200 46.15700
N  51.72400 23.69300 44.25600
C  51.02200 24.83600 44.00700
C  49.60800 24.52200 43.50200
C  49.57900 22.90100 43.67500
C  51.04300 22.55700 44.04900
C  48.44100 22.39700 44.64800
C  49.39000 25.04500 42.06000
C  47.90200 25.18500 41.66400
H  47.50100 24.36200 40.39000
N  53.90100 21.48400 44.59800
C  52.87600 20.74700 44.05600
C  53.29700 19.36500 43.99400
C  54.72000 19.31600 44.30700
C  55.05800 20.68600 44.70200
C  52.43700 18.23500 43.40300
C  55.56000 18.04600 44.34900
O  55.15700 16.96700 43.87600
C  56.88500 17.94100 45.05000
N  56.02500 23.62700 45.33000
C  56.77900 22.50900 45.38400
C  58.22500 22.74400 45.76100
C  58.22000 24.24200 45.98300
C  56.77800 24.69400 45.75300
C  58.78700 21.95900 46.91900
C  59.17600 24.99800 44.98800
C  59.82600 26.34000 45.53900
N  53.96400 25.55300 45.30300
C  54.92300 26.37600 45.75500
C  54.37500 27.75100 45.78700
C  53.11000 27.65900 45.15600
C  52.92600 26.31900 44.84200
C  55.16500 28.95600 46.18900
C  51.95300 28.44500 44.79200
O  51.70100 29.69600 44.93500
C  51.07500 27.44000 44.05900
C  51.21500 27.79300 42.61900
O  51.92600 27.26300 41.77500
O  50.44100 28.89100 42.32400
C  50.16500 29.19500 40.98300
H  50.82800 20.45400 43.73100
H  57.10800 20.45400 45.17100
H  56.91700 26.74700 46.54300
H  48.92200 25.10900 44.11300
H  49.39100 22.43100 42.71000
H  47.98500 21.46200 44.32200
H  47.62400 23.11700 44.69300
H  48.73500 22.29100 45.69200
H  49.80500 24.25600 41.43400
H  49.82900 26.00500 41.78700
H  47.70500 26.23200 41.43300
H  47.27400 24.87400 42.49900
H  51.36800 18.42200 43.29500
H  52.48900 17.46200 44.17000
H  52.89600 17.88400 42.47900
H  57.65000 18.40900 44.43000
H  57.08600 16.87300 45.12600
H  56.92700 18.37700 46.04800
H  58.78500 22.39900 44.89200
H  58.53400 24.39600 47.01500
H  59.71900 22.37500 47.30000
H  58.87900 20.91700 46.61400
H  58.08300 21.84500 47.74400
H  58.64000 25.37100 44.11500
H  59.92800 24.26600 44.69500
H  60.88200 26.09000 45.64000
H  59.37700 26.66400 46.47700
H  59.73200 27.10400 44.76800
H  56.24500 28.80800 46.22400
H  54.71100 29.24800 47.13600
H  55.00400 29.68600 45.39500
H  50.00800 27.44200 44.28100
H  49.15500 29.60500 40.95300
H  50.32600 28.40000 40.25600
H  50.72400 30.10200 40.75100

