158

Mg 1.02100 7.68000 27.13700
C  1.95200 10.18200 29.63400
C  0.73800 5.45700 29.80500
C  0.15600 5.51100 24.88200
C  1.77600 10.12700 24.73100
N  1.34000 7.89700 29.50400
C  1.58900 8.97200 30.22600
C  1.16700 8.72400 31.64500
C  1.17800 7.13700 31.77000
C  1.06600 6.78300 30.27300
C  2.53000 6.47600 32.31500
C  -0.15300 9.41000 32.12700
C  -0.31400 9.77200 33.60900
H  0.80100 9.28200 34.58000
N  0.65300 5.66000 27.31700
C  0.56800 4.89200 28.48300
C  0.17100 3.52400 28.13200
C  -0.13200 3.57600 26.69600
C  0.27500 4.91300 26.17000
C  -0.03400 2.45700 29.19300
C  -0.80500 2.54800 25.77300
O  -0.90200 2.65100 24.59400
C  -1.44700 1.30200 26.42400
N  1.20200 7.70300 25.13600
C  0.59400 6.74200 24.39100
C  0.56100 7.14900 22.88300
C  1.08700 8.64300 22.80300
C  1.49400 8.84400 24.29300
C  1.28400 6.07700 22.00200
C  -0.01000 9.62300 22.33900
C  0.55600 10.93400 21.81300
N  1.71700 9.72000 27.10400
C  1.94000 10.57500 26.04800
C  2.34000 11.88200 26.53100
C  2.37800 11.76700 27.92200
C  1.93600 10.44700 28.21900
C  2.82700 13.00700 25.67900
C  2.78100 12.45900 29.14600
O  3.37900 13.50700 29.31300
C  2.40600 11.47600 30.30200
C  3.51800 11.29200 31.27700
O  4.43600 10.46900 31.19400
O  3.38400 12.19600 32.23400
C  4.19300 11.96600 33.42900
H  0.66700 4.74100 30.62700
H  -0.36100 4.98300 24.07800
H  1.92900 10.93700 24.01400
H  1.97600 9.09600 32.27300
H  0.33800 6.82300 32.38900
H  2.35400 5.98500 33.27200
H  3.32200 7.20200 32.50100
H  2.83300 5.82200 31.49700
H  -0.94300 8.66800 32.00500
H  -0.41400 10.28600 31.53200
H  -1.31800 9.58800 33.99300
H  -0.24300 10.85900 33.66100
H  0.13900 1.41800 28.91300
H  -1.09400 2.53000 29.43300
H  0.43900 2.54800 30.17100
H  -1.73600 1.46300 27.46200
H  -0.94100 0.36000 26.21100
H  -2.39300 1.26500 25.88400
H  -0.49200 7.00900 22.63500
H  1.94600 8.68600 22.13300
H  2.07400 5.76800 22.68700
H  1.75300 6.57100 21.15200
H  0.76600 5.17100 21.68600
H  -0.60900 9.94500 23.19100
H  -0.58500 9.14400 21.54600
H  0.05400 11.05800 20.85300
H  1.62100 10.99200 21.59100
H  0.28500 11.70000 22.54000
H  2.10400 13.02000 24.86300
H  3.83400 12.85500 25.29100
H  2.70900 14.00000 26.11200
H  1.55000 11.91400 30.81600
H  4.52900 12.91400 33.84700
H  4.94500 11.17700 33.44700
H  3.47600 11.63500 34.18100
Mg 30.11600 57.94900 40.98500
C  27.11900 56.05200 40.10700
C  31.86000 55.36900 39.64500
C  32.63700 59.93400 41.08100
C  28.01900 60.36500 42.27600
N  29.49700 55.95300 39.97700
C  28.27600 55.35700 39.75800
C  28.45900 54.07200 38.91500
C  29.93700 53.66400 39.21200
C  30.44800 55.10600 39.59000
C  30.21000 52.66700 40.39500
C  27.84300 54.14400 37.49900
C  28.03000 55.49800 36.69300
H  27.30900 55.54700 35.35300
N  32.05300 57.72600 40.49000
C  32.58000 56.57600 39.98500
C  34.01100 56.74700 40.05900
C  34.32800 58.00000 40.59600
C  33.01500 58.61900 40.67300
C  34.91500 55.61600 39.65800
C  35.67900 58.54300 40.86800
O  36.65600 57.98100 40.54100
C  35.81600 59.94300 41.44100
N  30.20400 60.02700 41.33100
C  31.43300 60.53500 41.48700
C  31.35600 62.01200 41.94300
C  29.89300 62.08700 42.47500
C  29.36500 60.73200 42.04600
C  32.43300 62.52400 42.99200
C  29.21500 63.41200 41.95600
C  28.32300 64.17100 42.84700
N  27.99400 58.26200 41.13500
C  27.30500 59.34800 41.61700
C  25.90300 59.17700 41.49200
C  25.77300 57.93600 40.81000
C  27.08200 57.36200 40.71000
C  24.83700 60.09300 41.99300
C  24.83700 56.95000 40.35300
O  23.62900 57.03700 40.24100
C  25.67400 55.70200 39.85800
C  25.21100 54.47300 40.51500
O  25.05000 54.42000 41.72400
O  25.10100 53.36100 39.63300
C  24.58800 52.09600 40.18400
H  32.47400 54.54400 39.27600
H  33.53300 60.55600 41.12900
H  27.47300 61.11400 42.85300
H  27.89300 53.41700 39.57800
H  30.38200 53.35600 38.26600
H  30.40600 53.14400 41.35600
H  31.04100 51.99800 40.17700
H  29.28700 52.08700 40.41200
H  26.77500 53.96200 37.61900
H  28.40900 53.43700 36.89400
H  29.07700 55.77600 36.57200
H  27.57500 56.28700 37.29200
H  35.56800 56.00900 38.87800
H  34.38600 54.76200 39.23600
H  35.52600 55.19600 40.45700
H  35.60100 60.66300 40.65200
H  36.82900 60.07200 41.82200
H  35.20200 60.07800 42.33100
H  31.41500 62.65700 41.06600
H  29.78400 62.05100 43.55900
H  31.95600 62.96300 43.86900
H  32.99600 63.29700 42.46900
H  33.22300 61.80400 43.20600
H  28.51500 63.25100 41.13600
H  29.98000 64.09400 41.58500
H  27.49800 64.53900 42.23600
H  28.94200 64.98300 43.22900
H  27.95400 63.67300 43.74400
H  24.51000 60.61500 41.09400
H  25.33900 60.69800 42.74800
H  23.99600 59.66400 42.53900
H  25.53700 55.69600 38.77700
H  25.43800 51.51500 40.53900
H  23.92000 51.54600 39.52100
H  23.97900 52.33300 41.05700

