158

Mg 51.05500 46.26700 42.66700
C  48.10000 47.76800 41.63300
C  50.17800 43.53100 40.74100
C  54.13400 44.95100 43.14000
C  52.12700 49.30200 44.11000
N  49.30200 45.73200 41.33300
C  48.26800 46.48300 41.03800
C  47.23300 45.85600 40.16700
C  47.84300 44.45500 39.93900
C  49.14300 44.51600 40.71600
C  46.97800 43.17400 40.27900
C  47.02600 46.71700 38.87100
C  45.60000 46.91600 38.41600
H  45.21400 46.38500 37.00200
N  51.96400 44.39800 42.07800
C  51.46200 43.46100 41.30500
C  52.37600 42.33100 41.28000
C  53.52700 42.67700 41.98900
C  53.25200 44.05800 42.38100
C  52.12000 40.98700 40.53800
C  54.74400 41.92700 42.11000
O  54.83700 40.86400 41.52800
C  55.80900 42.34500 42.94900
N  52.86900 46.99500 43.51800
C  54.00800 46.30300 43.55000
C  55.10200 47.11200 44.20800
C  54.48900 48.54600 44.41500
C  53.07300 48.31000 43.95200
C  55.63700 46.37500 45.45500
C  55.10500 49.80600 43.74900
C  54.72800 50.10500 42.27400
N  50.30900 48.19000 42.89200
C  50.82100 49.38300 43.41100
C  49.83800 50.38400 43.30000
C  48.71300 49.81000 42.75900
C  49.05400 48.46900 42.47200
C  49.94500 51.84800 43.51000
C  47.31100 50.08000 42.35300
O  46.64900 51.04900 42.46000
C  46.94900 48.75500 41.48700
C  45.63000 48.29900 41.97900
O  45.57900 47.63600 42.96500
O  44.64900 48.67200 41.15800
C  43.26700 48.41500 41.52800
H  49.88600 42.60000 40.25100
H  55.14700 44.57600 43.30200
H  52.21400 50.27800 44.59200
H  46.28100 45.75600 40.68800
H  47.90900 44.36400 38.85500
H  45.92000 43.43300 40.24900
H  47.22500 43.00300 41.32700
H  47.17200 42.28500 39.68000
H  47.46600 46.12300 38.07000
H  47.62300 47.62800 38.82300
H  45.39400 47.98400 38.49300
H  44.93300 46.39100 39.10000
H  52.13900 41.14100 39.46000
H  51.20800 40.57300 40.96900
H  52.78200 40.12200 40.50900
H  56.53300 41.54000 43.07000
H  55.40500 42.62000 43.92300
H  56.43500 43.16100 42.58700
H  55.99100 47.19000 43.58400
H  54.38500 48.70000 45.48900
H  55.58200 46.93700 46.38700
H  56.66800 46.02600 45.40200
H  55.12500 45.43900 45.67800
H  56.19000 49.69900 43.73200
H  54.76900 50.65000 44.35100
H  53.91200 50.82400 42.20900
H  54.44300 49.22500 41.69800
H  55.56200 50.57200 41.74900
H  49.65100 52.17500 44.50800
H  49.22000 52.24500 42.80000
H  50.96900 52.07800 43.21700
H  46.83200 48.88400 40.41100
H  43.00300 47.36400 41.40700
H  42.54100 49.04600 41.01600
H  43.14600 48.70800 42.57100
Mg 30.96800 58.29100 40.12200
C  28.36500 56.20700 38.80300
C  33.24600 56.11600 38.67100
C  33.32800 60.66300 40.79400
C  28.54700 60.68500 40.93000
N  30.77100 56.35600 38.80800
C  29.67100 55.66200 38.51300
C  30.04200 54.31500 37.74300
C  31.61400 54.16500 38.08000
C  31.92300 55.61300 38.48800
C  32.03700 53.07200 39.08100
C  29.65400 54.27800 36.25000
C  29.43900 55.73000 35.50600
H  29.01700 55.61800 33.99800
N  32.94700 58.37300 39.93500
C  33.71000 57.34100 39.32100
C  35.07100 57.81300 39.31400
C  35.12100 58.97300 40.08900
C  33.77000 59.42400 40.32700
C  36.10800 56.90500 38.61000
C  36.46000 59.68100 40.40400
O  37.50300 59.26200 39.91600
C  36.65000 60.91700 41.33000
N  30.98000 60.41700 40.73200
C  32.10200 61.17700 41.06400
C  31.75600 62.56400 41.53100
C  30.21900 62.46300 41.81100
C  29.88700 61.08700 41.18600
C  32.52900 63.09200 42.69900
C  29.47300 63.65900 41.17700
C  28.52400 64.35300 42.10700
N  28.84500 58.42600 39.98800
C  28.04300 59.48100 40.30600
C  26.63600 59.19500 39.87000
C  26.70600 57.86400 39.40900
C  28.08300 57.48800 39.35300
C  25.43900 60.05300 39.83600
C  26.00500 56.72000 38.85000
O  24.80000 56.56200 38.71800
C  27.02700 55.64000 38.34300
C  26.69600 54.25200 38.75900
O  26.79700 53.75200 39.85600
O  26.20400 53.62600 37.60700
C  25.84400 52.26400 37.79100
H  34.03500 55.43600 38.34500
H  34.07300 61.44600 40.95000
H  27.78500 61.43200 41.16200
H  29.51100 53.49800 38.23300
H  32.22800 53.96900 37.20100
H  32.27000 53.59700 40.00800
H  32.96800 52.58500 38.79000
H  31.32800 52.27200 39.29300
H  28.75000 53.69400 36.07800
H  30.38400 53.68800 35.69500
H  30.45200 56.12900 35.44800
H  28.87600 56.50500 36.02600
H  37.05500 57.44400 38.56800
H  35.75600 56.84100 37.58000
H  36.13900 55.97800 39.18200
H  37.66600 60.99300 41.71800
H  35.89800 61.05000 42.10800
H  36.40900 61.71400 40.62800
H  32.00600 63.05500 40.59000
H  30.03100 62.35000 42.87900
H  33.31900 63.72900 42.30100
H  32.86700 62.32600 43.39700
H  32.10800 63.76000 43.45000
H  28.80700 63.46300 40.33700
H  30.19700 64.39300 40.82100
H  27.54400 63.87500 42.09800
H  28.46000 65.41000 41.85100
H  28.82500 64.13100 43.13100
H  25.40000 60.80200 40.62700
H  24.52500 59.49500 40.04200
H  25.47000 60.66800 38.93700
H  27.26200 55.63200 37.27800
H  24.86700 52.25400 38.27600
H  26.49500 51.68300 38.44400
H  25.74800 51.70500 36.86000

