158

Mg 24.92400 -5.83500 46.30400
C  26.33800 -2.85700 44.85800
C  22.16700 -5.30000 44.30100
C  24.00600 -8.85300 47.09600
C  27.98800 -6.26700 47.89600
N  24.37500 -4.22500 44.67600
C  25.06300 -3.15300 44.32600
C  24.37700 -2.45000 43.23600
C  22.90600 -3.03500 43.31200
C  23.11700 -4.24400 44.14300
C  21.86500 -2.03800 43.97500
C  25.07700 -2.73900 41.86400
C  25.21000 -1.54600 40.97000
H  24.99000 -1.65100 39.44200
N  23.25600 -6.86700 45.90600
C  22.25000 -6.50200 45.02300
C  21.25400 -7.55200 44.96500
C  21.76300 -8.63800 45.69200
C  23.11400 -8.21400 46.18700
C  19.86100 -7.50500 44.19100
C  21.09100 -9.99500 45.94500
O  19.96200 -10.04300 45.62100
C  21.93500 -11.23400 46.44600
N  25.89000 -7.26800 47.33200
C  25.22200 -8.40600 47.55100
C  26.07500 -9.23500 48.61700
C  27.34800 -8.39100 48.83200
C  27.07900 -7.24800 47.96800
C  25.32700 -9.78900 49.89400
C  28.64900 -9.20700 48.49400
C  29.61200 -9.38200 49.65900
N  26.78800 -4.70400 46.43100
C  27.93400 -5.03800 47.15100
C  28.95500 -4.05400 47.00500
C  28.32900 -3.17100 46.02800
C  27.05700 -3.64300 45.72300
C  30.30600 -3.99800 47.66600
C  28.65400 -1.94700 45.31800
O  29.61300 -1.18300 45.33100
C  27.28900 -1.69100 44.50700
C  26.76000 -0.27600 44.89000
O  25.54700 -0.04700 45.17800
O  27.77500 0.72000 44.85500
C  27.32800 2.07200 45.32700
H  21.29300 -5.24100 43.64900
H  23.67500 -9.81400 47.49500
H  28.87300 -6.28600 48.53500
H  24.38900 -1.37100 43.39500
H  22.66400 -3.32200 42.28900
H  21.61200 -1.30900 43.20500
H  22.34500 -1.49400 44.78800
H  21.05100 -2.69100 44.28700
H  24.54900 -3.57300 41.40100
H  26.07600 -3.13900 42.03400
H  26.29000 -1.40200 40.99600
H  24.63400 -0.67600 41.28500
H  18.98700 -7.80100 44.77100
H  19.92300 -8.19300 43.34700
H  19.67300 -6.58000 43.64500
H  21.36600 -12.10500 46.12000
H  21.94700 -11.21200 47.53500
H  22.86500 -11.28800 45.88000
H  26.29200 -10.07300 47.95500
H  27.50800 -8.09100 49.86800
H  25.53000 -10.79800 50.25300
H  24.25800 -9.67900 49.71300
H  25.43300 -9.14800 50.77000
H  29.12000 -8.77800 47.60900
H  28.45800 -10.22500 48.15400
H  29.96700 -10.41300 49.64900
H  29.19100 -9.20400 50.64900
H  30.43200 -8.68000 49.50900
H  30.27100 -3.28000 48.48500
H  31.07100 -3.51800 47.05600
H  30.58900 -4.99700 48.00000
H  27.48800 -1.58100 43.44100
H  27.23300 2.21600 46.40300
H  26.35900 2.41100 44.96000
H  27.98900 2.81800 44.88400
Mg 9.96000 48.24700 25.67800
C  8.09500 48.55000 28.67300
C  12.38200 50.11000 27.09700
C  11.58100 48.14700 22.73700
C  7.11200 46.95400 24.14100
N  10.23000 49.17800 27.67500
C  9.39200 49.10500 28.75800
C  10.03900 49.62800 29.99200
C  11.29800 50.40700 29.43000
C  11.35900 49.83300 27.98600
C  11.17300 51.98100 29.51300
C  10.45000 48.59700 31.11600
C  9.68500 48.54500 32.46600
H  10.28400 49.24500 33.73100
N  11.77100 48.93300 25.03700
C  12.67400 49.59600 25.76000
C  13.92500 49.73800 25.10800
C  13.76500 49.01900 23.85400
C  12.31800 48.65900 23.80700
C  15.17700 50.25900 25.83700
C  14.77600 48.68300 22.86700
O  14.41900 48.16600 21.81200
C  16.21100 49.02600 23.12700
N  9.32300 47.84200 23.64500
C  10.30000 47.72200 22.72400
C  9.81700 46.87200 21.56100
C  8.47400 46.34200 22.06400
C  8.29200 47.08400 23.40600
C  9.72300 47.45900 20.12000
C  8.38600 44.78900 22.18800
C  9.31700 43.99300 23.13300
N  7.95900 47.82100 26.23700
C  6.94600 47.33200 25.48500
C  5.78500 47.24000 26.35200
C  6.19700 47.62400 27.60600
C  7.51500 47.95500 27.51100
C  4.34800 46.94300 25.88000
C  5.79600 47.85400 28.94100
O  4.66100 47.77800 29.44900
C  7.05000 48.28300 29.77500
C  7.33100 47.09100 30.60100
O  8.16800 46.23300 30.34400
O  6.47300 46.96300 31.76000
C  6.81100 45.88300 32.71200
H  13.16300 50.80000 27.42200
H  12.19700 47.80600 21.90200
H  6.23600 46.40300 23.79100
H  9.27700 50.20800 30.51300
H  12.19300 50.13600 29.99100
H  11.16600 52.46200 28.53500
H  11.93800 52.42800 30.14900
H  10.23100 52.23000 30.00100
H  11.47800 48.86900 31.35300
H  10.36500 47.62700 30.62500
H  9.65100 47.48600 32.72200
H  8.65800 48.90100 32.39300
H  15.90000 50.80800 25.23300
H  15.64000 49.45200 26.40400
H  14.99600 51.09400 26.51400
H  16.46600 48.67500 24.12700
H  16.22600 50.09500 22.91600
H  16.79500 48.57700 22.32300
H  10.45000 45.98600 21.51600
H  7.63200 46.68900 21.46400
H  9.92100 48.52300 20.25200
H  8.70100 47.36900 19.75200
H  10.30800 47.09600 19.27500
H  8.61700 44.27500 21.25500
H  7.39100 44.37600 22.35500
H  9.82600 44.73000 23.75300
H  10.01100 43.30500 22.65000
H  8.81500 43.45000 23.93400
H  3.88100 47.83100 25.45300
H  3.72700 46.55400 26.68600
H  4.47000 46.13000 25.16500
H  6.80500 49.10000 30.45400
H  6.15800 45.01000 32.68800
H  6.72300 46.37800 33.67900
H  7.85200 45.56400 32.66300

