158

Mg 8.05700 3.23000 27.53800
C  9.54300 1.98300 30.32300
C  6.18000 5.39200 29.36800
C  6.57300 4.29900 24.63000
C  9.51700 0.58700 25.63900
N  7.92400 3.65200 29.61000
C  8.62600 3.01500 30.61000
C  8.26000 3.64100 32.01800
C  7.07500 4.55500 31.69700
C  7.02000 4.52300 30.11000
C  5.70700 4.32500 32.40400
C  9.51300 4.36300 32.65500
C  9.22400 5.31400 33.87800
H  10.04700 5.15900 35.08500
N  6.67000 4.72900 27.02800
C  5.95200 5.46000 27.93900
C  5.04700 6.37600 27.32300
C  5.09800 6.08500 25.93000
C  6.17500 5.05300 25.81700
C  4.12100 7.34000 28.05800
C  4.36200 6.72200 24.76900
O  4.72700 6.49800 23.61500
C  3.23700 7.66800 24.96400
N  8.15200 2.57300 25.37300
C  7.41100 3.15200 24.37300
C  7.70900 2.55900 23.07800
C  8.67300 1.38700 23.40200
C  8.77500 1.46300 24.90400
C  6.42700 2.15300 22.21900
C  10.04100 1.24300 22.54100
C  11.23400 1.85700 23.30700
N  9.20600 1.56300 27.86100
C  9.76000 0.63200 27.03700
C  10.68400 -0.26700 27.77900
C  10.73200 0.30800 29.07600
C  9.75000 1.39300 29.07600
C  11.55800 -1.41200 27.28100
C  11.40300 0.23100 30.37400
O  12.17900 -0.58600 30.79300
C  10.55100 1.29700 31.27200
C  9.88300 0.56700 32.42800
O  9.16600 -0.41700 32.30200
O  10.26200 1.10100 33.69600
C  9.91000 0.35500 34.88600
H  5.68500 6.07500 30.06200
H  6.06100 4.74200 23.77300
H  9.98100 -0.15100 24.98100
H  7.94600 2.75200 32.56500
H  7.32700 5.59200 31.91800
H  5.22800 5.25400 32.71300
H  5.83500 3.72000 33.30100
H  5.11600 3.84800 31.62200
H  9.88000 5.00500 31.85400
H  10.30800 3.65600 32.89300
H  8.19500 5.31500 34.23700
H  9.33400 6.36200 33.59800
H  4.30900 7.39800 29.13000
H  3.09200 6.98300 28.08800
H  4.20600 8.35200 27.66300
H  2.43800 7.24200 25.57100
H  2.79600 7.91600 23.99800
H  3.64800 8.55000 25.45600
H  8.31900 3.27600 22.52800
H  8.18300 0.41600 23.33200
H  5.58200 2.31300 22.88900
H  6.46700 1.06900 22.10800
H  6.40900 2.74500 21.30500
H  10.00000 1.83500 21.62600
H  10.19900 0.21100 22.22800
H  10.89300 2.51300 24.10700
H  12.01200 2.34800 22.72200
H  11.72700 1.05300 23.85300
H  12.29400 -0.96300 26.61400
H  11.02100 -2.12200 26.65200
H  12.07000 -1.91100 28.10400
H  11.25800 2.00800 31.69800
H  9.69700 -0.70500 34.75100
H  9.04400 0.86200 35.31400
H  10.76800 0.45600 35.55000
Mg 44.77900 5.52600 46.70200
C  42.48400 8.32600 46.99900
C  41.99200 3.46200 46.46700
C  46.81200 3.00500 46.56900
C  47.32600 7.88700 46.22100
N  42.55000 5.93900 46.81600
C  41.85700 7.10300 46.91800
C  40.27800 6.82500 46.80900
C  40.23400 5.28700 46.75000
C  41.66800 4.87100 46.72800
C  39.29400 4.54400 47.73800
C  39.49300 7.47200 45.61300
C  40.11300 7.42100 44.21400
H  40.20600 8.68600 43.39000
N  44.46900 3.53700 46.47600
C  43.30200 2.83000 46.46700
C  43.55500 1.43000 46.40200
C  44.96200 1.28600 46.34100
C  45.47800 2.60800 46.49700
C  42.42700 0.34300 46.50500
C  45.74100 -0.10000 46.24300
O  45.09500 -1.14200 46.32700
C  47.22900 -0.16700 45.91400
N  46.76500 5.42000 46.16400
C  47.41500 4.26100 46.47000
C  48.93200 4.49400 46.48300
C  49.01000 5.88700 45.81000
C  47.65700 6.49000 46.13700
C  49.59900 4.32100 47.92800
C  49.25200 5.86900 44.30600
C  50.67800 6.25600 43.90500
N  44.98200 7.67300 46.80400
C  46.08800 8.49500 46.52500
C  45.68300 9.89400 46.63100
C  44.33800 9.85300 46.93200
C  43.92600 8.52300 46.95200
C  46.43100 11.27000 46.47600
C  43.17400 10.68200 47.16300
O  43.06300 11.92500 47.21000
C  41.93500 9.74500 47.12100
C  40.92700 9.87100 48.28500
O  41.00200 9.20300 49.26100
O  39.96300 10.82000 47.92300
C  38.88100 11.00500 48.91600
H  41.11000 2.90900 46.13600
H  47.52700 2.18900 46.69200
H  48.20200 8.50300 46.01000
H  39.92200 7.01700 47.82100
H  39.87700 5.00700 45.75800
H  38.40700 4.22200 47.19300
H  39.04000 5.10900 48.63400
H  39.81000 3.69100 48.17800
H  39.23900 8.52400 45.73900
H  38.55400 6.93500 45.48200
H  39.62100 6.63600 43.64100
H  41.18500 7.28500 44.35600
H  42.49300 -0.27000 45.60600
H  41.42900 0.76100 46.63100
H  42.54800 -0.35200 47.33600
H  47.44600 -1.14400 45.48100
H  47.61500 0.02300 46.91500
H  47.58700 0.57700 45.20200
H  49.50500 3.77200 45.90000
H  49.69100 6.51600 46.38400
H  50.60700 3.90500 47.93700
H  48.96800 3.62700 48.48200
H  49.65600 5.30600 48.39200
H  48.52300 6.46300 43.75400
H  49.12900 4.83400 43.99000
H  51.18000 5.50100 43.30000
H  51.36200 6.56400 44.69600
H  50.49500 7.12000 43.26600
H  46.39900 11.76400 47.44700
H  45.86500 11.89100 45.78200
H  47.46100 11.05200 46.19200
H  41.38200 9.90200 46.19500
H  38.88300 12.05000 49.22700
H  39.08700 10.38000 49.78500
H  37.86500 10.86600 48.54700

