158

Mg 2.05700 -1.50700 44.27000
C  5.47300 -0.93200 43.23800
C  1.08700 0.90600 42.13200
C  -1.13800 -2.68400 44.51500
C  3.07800 -4.03700 46.30900
N  3.17400 -0.28400 42.76900
C  4.51800 -0.14800 42.55300
C  4.84200 0.95700 41.51600
C  3.41200 1.60600 41.36900
C  2.47900 0.73200 42.24500
C  3.39200 3.12700 41.74000
C  5.41500 0.43600 40.16400
C  6.57100 1.13000 39.39800
H  6.29700 1.57700 37.89300
N  0.19500 -0.94900 43.46400
C  0.00100 0.13600 42.67600
C  -1.40900 0.29500 42.45400
C  -2.08000 -0.77700 43.10000
C  -1.03800 -1.48300 43.76200
C  -1.97400 1.49500 41.60800
C  -3.62600 -1.09500 43.09300
O  -4.35800 -0.31000 42.50200
C  -4.23700 -2.28900 43.70500
N  1.09500 -3.28700 45.12200
C  -0.21400 -3.52500 45.16200
C  -0.58600 -4.72600 46.10200
C  0.85600 -5.05200 46.67100
C  1.75300 -4.06800 46.00300
C  -1.66300 -4.37200 47.21400
C  1.25100 -6.52000 46.38800
C  2.18100 -7.16700 47.34000
N  3.91400 -2.25900 44.89600
C  4.13900 -3.27100 45.71200
C  5.55500 -3.47400 45.84900
C  6.08700 -2.57900 44.86900
C  5.04300 -1.87400 44.28900
C  6.29700 -4.50800 46.78000
C  7.35900 -2.01200 44.31700
O  8.52400 -2.21000 44.64100
C  6.90700 -0.99500 43.19600
C  7.59100 0.32900 43.44300
O  8.61700 0.53700 42.77100
O  7.21700 1.12500 44.52200
C  8.31600 1.87200 45.15600
H  0.86100 1.80400 41.55200
H  -2.06500 -3.23800 44.67000
H  3.27200 -4.83400 47.03000
H  5.44200 1.69300 42.05200
H  3.13900 1.56600 40.31500
H  2.57400 3.36700 42.41900
H  3.23100 3.80500 40.90200
H  4.19300 3.50700 42.37500
H  4.61100 0.33500 39.43400
H  5.74500 -0.57200 40.41400
H  7.44900 0.50200 39.24900
H  7.00000 1.90300 40.03500
H  -2.87800 1.25100 41.05100
H  -1.20400 1.74900 40.87900
H  -2.27200 2.27700 42.30700
H  -3.90200 -2.42400 44.73400
H  -4.05800 -3.07100 42.96700
H  -5.32700 -2.31400 43.71600
H  -1.02900 -5.47200 45.44200
H  0.85700 -4.98100 47.75900
H  -2.37600 -5.18500 47.34900
H  -2.24600 -3.52200 46.85800
H  -1.29000 -4.24800 48.23000
H  1.65900 -6.55400 45.37700
H  0.29600 -7.04500 46.41800
H  1.73500 -8.13500 47.56800
H  2.39700 -6.64200 48.27000
H  3.05400 -7.33800 46.71000
H  7.16100 -3.98400 47.18600
H  6.57800 -5.39500 46.21200
H  5.56200 -4.77700 47.53800
H  7.19900 -1.46000 42.25500
H  8.69200 2.61800 44.45600
H  9.14900 1.18100 45.29200
H  8.06100 2.34200 46.10600
Mg -0.31600 7.06900 26.20700
C  0.32100 9.14800 28.84800
C  0.10300 4.34200 28.31200
C  -0.36800 4.90500 23.50800
C  0.07800 9.77600 23.96800
N  0.08500 6.84000 28.30300
C  0.19100 7.82400 29.23100
C  0.29800 7.30700 30.68900
C  0.59800 5.78500 30.36300
C  0.22500 5.65100 28.90400
C  2.05200 5.26600 30.74600
C  -1.02600 7.75700 31.42900
C  -0.80900 8.18500 32.85700
H  0.39400 7.60500 33.59600
N  -0.45000 4.97200 25.96400
C  -0.24000 4.06200 26.98000
C  -0.34700 2.74200 26.37900
C  -0.65500 2.87200 25.02700
C  -0.44100 4.27900 24.77400
C  -0.37800 1.51900 27.24500
C  -1.08500 1.79800 24.01700
O  -1.42300 2.08000 22.88300
C  -1.23500 0.34900 24.48100
N  -0.17300 7.27800 24.09400
C  -0.28300 6.23000 23.17900
C  -0.37000 6.73200 21.73600
C  -0.25300 8.27300 21.93800
C  -0.06700 8.51600 23.41000
C  0.71500 6.15300 20.75700
C  -1.17500 9.13100 21.14600
C  -2.51900 9.49500 21.79900
N  0.21000 9.10300 26.34600
C  0.30300 10.03600 25.33600
C  0.46700 11.36700 25.99100
C  0.48800 11.08600 27.35700
C  0.39700 9.68400 27.51900
C  0.63000 12.73000 25.10500
C  0.65800 11.59500 28.67500
O  0.98800 12.71400 28.99300
C  0.48500 10.39900 29.66700
C  1.65100 10.35100 30.50200
O  2.77800 10.01400 30.18400
O  1.33100 10.85900 31.72100
C  2.52000 11.16400 32.54100
H  0.26300 3.51900 29.01100
H  -0.54700 4.29500 22.62000
H  -0.06500 10.59300 23.25700
H  1.14500 7.84900 31.10900
H  -0.15500 5.21500 30.90700
H  2.69000 5.11000 29.87600
H  2.04600 4.36100 31.35300
H  2.52600 6.03500 31.35600
H  -1.74800 6.94300 31.49900
H  -1.54000 8.52500 30.85100
H  -1.64000 7.97000 33.52800
H  -0.84300 9.26500 33.00200
H  -0.03200 1.64100 28.27200
H  0.25900 0.73700 26.83200
H  -1.42000 1.21500 27.34200
H  -0.29900 -0.14300 24.74600
H  -1.65200 -0.12700 23.59400
H  -1.76200 0.19100 25.42200
H  -1.39300 6.60500 21.38200
H  0.72000 8.51900 21.51400
H  1.25700 6.85300 20.12000
H  0.14600 5.62200 19.99400
H  1.33300 5.38400 21.22000
H  -1.40000 8.66500 20.18600
H  -0.77800 10.13200 20.97800
H  -3.33000 9.50600 21.07100
H  -2.48900 10.52600 22.15000
H  -2.80800 8.77300 22.56300
H  -0.33500 13.21200 24.94800
H  1.16900 12.42600 24.20800
H  1.28000 13.49000 25.53900
H  -0.37900 10.47900 30.32700
H  2.27800 10.76700 33.52700
H  2.77300 12.21700 32.66400
H  3.44600 10.61700 32.36300

