158

Mg 9.75400 48.22900 25.80200
C  7.74400 48.38300 28.73300
C  12.35200 49.43200 27.62700
C  11.51200 47.94800 23.08800
C  6.76600 47.75100 23.99300
N  9.96000 48.79600 27.97400
C  9.05700 48.77600 28.95400
C  9.67100 49.16400 30.31100
C  11.03200 49.80200 29.92300
C  11.17500 49.38200 28.34800
C  11.14200 51.36100 30.03100
C  9.85100 47.96500 31.23200
C  9.27800 48.10100 32.66400
H  8.97800 46.85000 33.43500
N  11.69900 48.43500 25.51700
C  12.62000 48.92400 26.40900
C  13.88900 48.81100 25.80100
C  13.67600 48.38700 24.42000
C  12.25800 48.19200 24.30300
C  15.14200 49.20400 26.57300
C  14.73700 48.23900 23.29500
O  14.42100 48.04000 22.09600
C  16.15700 48.32600 23.63700
N  9.11700 48.10100 23.74600
C  10.15300 47.79000 22.87100
C  9.58200 47.54800 21.46300
C  8.00400 47.44500 21.74600
C  7.89000 47.84700 23.21800
C  9.90900 48.57800 20.40200
C  7.43000 45.99600 21.51300
C  6.14800 45.91500 20.62000
N  7.62100 48.26100 26.19600
C  6.58500 47.91300 25.36500
C  5.41400 47.70700 26.18400
C  5.80800 48.04200 27.46600
C  7.16900 48.22500 27.47000
C  4.03400 47.37000 25.72100
C  5.26800 48.11900 28.77900
O  4.12900 48.01700 29.17000
C  6.51700 48.30400 29.72900
C  6.57500 47.11000 30.65600
O  7.02000 46.00700 30.31300
O  5.99800 47.39600 31.90300
C  5.69900 46.21800 32.69800
H  13.14300 49.81300 28.27600
H  12.13400 47.83500 22.19800
H  5.87000 47.60500 23.38500
H  8.94500 49.75900 30.86600
H  11.87100 49.40700 30.49500
H  10.10600 51.64700 30.21000
H  11.56700 51.92700 29.20200
H  11.72900 51.68400 30.89200
H  10.91100 47.77500 31.40200
H  9.37400 47.04200 30.90500
H  8.29500 48.55700 32.54200
H  9.98400 48.70300 33.23600
H  15.84900 48.38000 26.47500
H  15.05100 49.42200 27.63700
H  15.64400 50.06900 26.14100
H  16.49100 47.32700 23.91700
H  16.25900 49.03300 24.46000
H  16.61500 48.77500 22.75500
H  9.99000 46.57400 21.19400
H  7.43600 48.19100 21.18900
H  9.10300 49.30300 20.29400
H  9.94900 48.11200 19.41700
H  10.84900 49.10900 20.55100
H  7.28000 45.40700 22.41800
H  8.11900 45.52300 20.81300
H  5.50800 46.73400 20.94900
H  5.59100 44.98700 20.75300
H  6.36500 46.01200 19.55700
H  3.58900 46.63700 26.39400
H  4.19800 46.77500 24.82200
H  3.54200 48.31600 25.49600
H  6.48900 49.30400 30.16300
H  4.62400 46.07900 32.81100
H  6.19100 46.45900 33.64000
H  6.06100 45.24500 32.36700
Mg -5.92000 25.83700 26.44300
C  -4.06100 27.08300 29.19900
C  -7.79400 23.99500 28.67400
C  -7.39500 24.40000 23.79100
C  -3.71800 27.60900 24.21200
N  -5.74300 25.44100 28.54800
C  -5.10400 26.20000 29.49400
C  -5.63800 25.96900 30.97000
C  -6.53400 24.74800 30.78400
C  -6.73400 24.75800 29.22500
C  -6.21800 23.37500 31.39300
C  -6.38500 27.19800 31.55800
C  -6.63400 27.34900 33.05800
H  -6.16300 26.19400 33.97300
N  -7.36100 24.39900 26.25300
C  -8.08000 23.82500 27.33600
C  -8.97400 22.82800 26.75800
C  -8.74100 22.86100 25.32500
C  -7.77600 23.97500 25.08300
C  -10.04300 22.14000 27.61800
C  -9.41600 21.94800 24.30800
O  -9.26200 22.01900 23.10900
C  -10.30800 20.88100 24.78100
N  -5.61900 25.93500 24.31300
C  -6.40800 25.33700 23.42000
C  -5.93900 25.55400 22.00900
C  -5.06400 26.80000 22.17800
C  -4.67400 26.74100 23.65700
C  -5.12700 24.32600 21.61300
C  -5.59400 28.26500 21.80100
C  -4.91900 28.81400 20.61200
N  -4.27100 27.17200 26.60600
C  -3.51000 27.82100 25.63800
C  -2.59900 28.71800 26.30500
C  -2.77500 28.37800 27.65500
C  -3.75200 27.44300 27.82200
C  -1.57800 29.62800 25.69100
C  -2.25100 28.64700 28.90500
O  -1.30900 29.37100 29.20000
C  -3.10700 27.76800 30.01100
C  -2.07800 26.84100 30.63800
O  -1.74600 25.81500 30.19100
O  -1.73000 27.39900 31.82400
C  -1.14200 26.47000 32.77400
H  -8.43200 23.56300 29.44700
H  -7.98900 23.98700 22.97300
H  -3.08900 28.10200 23.46800
H  -4.84400 25.77300 31.69200
H  -7.42500 25.03900 31.33900
H  -5.15800 23.21200 31.59200
H  -6.49400 22.62900 30.64800
H  -6.77300 23.02900 32.26500
H  -7.29900 27.35400 30.98600
H  -5.76300 28.05800 31.31100
H  -7.72300 27.33000 33.01300
H  -6.13200 28.22500 33.46900
H  -11.04000 22.51400 27.38500
H  -9.86500 22.30100 28.68100
H  -9.99500 21.08000 27.36700
H  -11.08000 21.49400 25.24500
H  -9.80500 20.14200 25.40400
H  -10.85700 20.39700 23.97400
H  -6.75400 25.71600 21.30400
H  -4.12000 26.58100 21.67900
H  -4.20900 24.20000 22.18600
H  -4.83700 24.40700 20.56500
H  -5.75000 23.44600 21.77400
H  -5.39000 29.03200 22.54800
H  -6.67000 28.25000 21.63000
H  -5.57200 28.82200 19.74000
H  -3.96600 28.29500 20.50700
H  -4.60000 29.83900 20.80100
H  -1.34800 29.29000 24.68000
H  -0.65800 29.72300 26.26800
H  -2.00800 30.62500 25.59300
H  -3.58200 28.37500 30.78100
H  -0.18500 26.85700 33.12600
H  -0.89400 25.44200 32.51100
H  -1.90300 26.33200 33.54200

