158

Mg 16.73500 52.04200 25.91900
C  18.49100 50.79400 28.60900
C  14.29800 53.01000 28.08300
C  14.97100 52.97000 23.22600
C  19.36400 50.83800 23.79000
N  16.35900 51.80100 28.18500
C  17.28300 51.41000 29.06700
C  16.90000 51.43100 30.52200
C  15.35500 52.02100 30.28900
C  15.30200 52.33300 28.77000
C  14.19500 51.15300 30.79000
C  17.82900 52.41300 31.30500
C  17.61100 52.67400 32.77500
H  16.55700 51.81700 33.39300
N  14.91700 52.91400 25.68000
C  14.11100 53.25400 26.73500
C  12.94500 54.01400 26.16300
C  13.09700 54.05600 24.71400
C  14.33100 53.30600 24.47200
C  11.94900 54.61500 27.07800
C  12.24200 54.63600 23.66100
O  12.54200 54.66600 22.47300
C  11.04200 55.42900 24.02400
N  17.18400 51.91900 23.77800
C  16.29400 52.37800 22.94700
C  16.85000 52.32600 21.48800
C  18.27300 51.81000 21.66000
C  18.32000 51.48500 23.16800
C  15.92500 51.54100 20.49200
C  19.37100 52.83400 21.34900
C  20.79100 52.30100 20.88600
N  18.42500 50.95500 26.06600
C  19.44000 50.56300 25.11200
C  20.44600 49.78900 25.77700
C  20.07500 49.78200 27.13800
C  18.85100 50.52800 27.24800
C  21.64500 49.37900 25.22000
C  20.58000 49.41700 28.44500
O  21.55900 48.81200 28.76500
C  19.49300 49.98000 29.47000
C  18.99300 48.80000 30.12900
O  18.19400 48.03300 29.67300
O  19.21300 48.92000 31.51500
C  18.45000 47.95600 32.40300
H  13.59400 53.27100 28.87600
H  14.54500 53.19100 22.24500
H  20.13400 50.49700 23.09500
H  16.84900 50.41900 30.92300
H  15.21600 52.98300 30.78200
H  13.53500 51.70300 31.46100
H  14.50800 50.22500 31.27000
H  13.58900 50.80800 29.95300
H  17.72700 53.39100 30.83600
H  18.85800 52.07400 31.18500
H  17.25100 53.68000 32.98800
H  18.59600 52.45700 33.18700
H  10.91300 54.27600 27.07100
H  12.00600 55.62700 26.67600
H  12.33400 54.65000 28.09700
H  11.36600 56.26900 24.63800
H  10.32600 54.85000 24.60800
H  10.56800 55.77300 23.10500
H  16.90100 53.36900 21.17400
H  18.42800 50.88700 21.10100
H  16.56000 51.04900 19.75600
H  15.24500 52.30200 20.11200
H  15.25400 50.85500 21.01000
H  19.64000 53.44000 22.21500
H  18.98900 53.49400 20.57100
H  20.69900 51.23900 20.65700
H  21.47100 52.55800 21.69800
H  20.95500 52.91900 20.00400
H  22.48000 50.05300 25.40900
H  21.67600 49.17400 24.14900
H  21.96900 48.43200 25.65200
H  20.06100 50.54500 30.20900
H  18.32400 46.97700 31.94100
H  17.54600 48.39600 32.82300
H  19.01100 47.76900 33.31900
Mg 0.01600 43.24800 25.97800
C  1.83000 43.42800 28.92500
C  -2.95000 42.99000 27.95100
C  -1.78600 42.50900 23.19000
C  2.92100 43.31800 24.22300
N  -0.50700 43.10700 28.17300
C  0.47700 43.34200 29.21300
C  -0.21700 43.28500 30.55300
C  -1.70700 43.07400 30.22400
C  -1.76600 43.03600 28.69900
C  -2.29000 41.79500 30.88300
C  -0.03000 44.48000 31.54900
C  0.43100 44.24200 33.06000
H  -0.07000 42.88400 33.62300
N  -2.04800 42.72600 25.62900
C  -3.09400 42.85500 26.48800
C  -4.34100 42.76300 25.77700
C  -4.05400 42.54700 24.38500
C  -2.55500 42.58400 24.33300
C  -5.68700 42.98300 26.52600
C  -4.96500 42.44700 23.22500
O  -4.56200 42.51600 22.08600
C  -6.45000 42.35400 23.47600
N  0.61000 42.81500 24.05000
C  -0.39100 42.64500 23.07500
C  0.32500 42.42500 21.63300
C  1.79200 42.76800 22.02100
C  1.78900 43.01600 23.51000
C  0.11000 41.07600 20.89300
C  2.21200 43.97300 21.27600
C  1.47600 45.25400 21.63200
N  2.01400 43.35000 26.47000
C  3.08900 43.54400 25.60000
C  4.34100 43.84600 26.37800
C  3.86500 43.64600 27.73600
C  2.44500 43.47500 27.70100
C  5.73100 44.01400 25.88400
C  4.36400 43.48500 29.12900
O  5.48800 43.47800 29.61800
C  2.97400 43.43900 29.96400
C  3.05500 42.16100 30.75300
O  2.75000 41.03200 30.37200
O  3.51500 42.49100 31.92600
C  3.61300 41.36000 32.92600
H  -3.84000 42.91300 28.57900
H  -2.36200 42.47600 22.26200
H  3.88500 43.46300 23.73100
H  0.13900 42.35100 30.98700
H  -2.32700 43.92600 30.50300
H  -3.07300 42.12700 31.56500
H  -1.50000 41.13400 31.24200
H  -2.81400 41.30800 30.06100
H  -0.87500 45.16200 31.45900
H  0.75000 44.96300 30.96100
H  -0.01900 45.00600 33.69500
H  1.47600 44.48000 33.25800
H  -5.60000 43.67800 27.36200
H  -6.03200 42.08100 27.03200
H  -6.44400 43.31700 25.81700
H  -7.06800 41.86900 22.72000
H  -6.72000 43.40700 23.55800
H  -6.59700 41.93600 24.47200
H  -0.13600 43.20400 21.02700
H  2.39100 41.89100 21.77600
H  -0.31400 41.29500 19.91300
H  -0.64700 40.37800 21.24900
H  1.05300 40.58100 20.66100
H  2.21400 43.72600 20.21400
H  3.27400 44.06500 21.50600
H  2.10400 45.73900 22.37900
H  0.54500 45.18100 22.19400
H  1.45400 45.83900 20.71300
H  6.01300 45.05400 25.72400
H  5.88400 43.35100 25.03300
H  6.48500 43.69000 26.60200
H  2.80800 44.32200 30.58200
H  3.39000 40.35700 32.56100
H  2.94000 41.55600 33.76000
H  4.62500 41.32500 33.33100

