158

Mg 36.05300 48.93200 25.72400
C  36.42000 46.93300 28.72200
C  35.09900 51.47100 27.71500
C  35.52000 50.56900 22.91400
C  36.74200 46.01200 23.87700
N  35.76700 49.09400 27.95300
C  36.00900 48.17700 28.90700
C  35.78400 48.80500 30.33500
C  35.17300 50.19300 30.00700
C  35.36700 50.25900 28.49400
C  33.71300 50.49300 30.59000
C  37.12400 48.88800 31.13800
C  37.10400 48.85100 32.68800
H  35.71700 48.90300 33.41600
N  35.39800 50.73800 25.33800
C  35.07100 51.69200 26.30800
C  34.81900 52.97300 25.68900
C  34.98000 52.75500 24.25400
C  35.31700 51.30300 24.06800
C  34.31300 54.13700 26.41000
C  34.74900 53.70800 23.11000
O  34.94100 53.37000 21.97400
C  34.29200 55.11000 23.39200
N  36.01400 48.25900 23.69800
C  35.94000 49.21100 22.74900
C  36.13400 48.55300 21.33400
C  36.66000 47.16300 21.62500
C  36.48600 47.12300 23.13500
C  34.94700 48.43800 20.41700
C  38.17700 46.71000 21.23300
C  38.14700 46.00200 19.84600
N  36.49200 46.91000 26.14100
C  36.78300 45.87400 25.32400
C  37.06700 44.69600 26.10600
C  36.84000 45.08500 27.39600
C  36.51700 46.40800 27.40700
C  37.35200 43.35300 25.60100
C  37.00800 44.54000 28.78300
O  37.38400 43.44800 29.15400
C  36.56200 45.73100 29.69900
C  35.30800 45.40900 30.36500
O  34.24800 45.28900 29.75400
O  35.54800 45.19500 31.64200
C  34.28700 44.94200 32.43400
H  34.91600 52.36300 28.31900
H  35.48100 51.11500 21.96900
H  37.00500 45.19000 23.20800
H  35.03800 48.17800 30.82300
H  35.80500 50.95300 30.46500
H  33.26700 49.59000 31.00500
H  33.03600 50.69000 29.75800
H  33.83300 51.27400 31.34000
H  37.57800 49.83500 30.84600
H  37.87000 48.18700 30.76400
H  37.66200 49.62600 33.21300
H  37.61800 47.92800 32.95800
H  34.34200 54.17900 27.49900
H  33.25900 54.32300 26.20200
H  34.83000 55.05500 26.13200
H  34.81300 55.70500 24.14300
H  33.32100 55.03000 23.88100
H  34.23100 55.55300 22.39800
H  36.90500 49.21100 20.93300
H  35.89800 46.52200 21.18000
H  34.85900 47.58100 19.75000
H  35.24000 49.24400 19.74500
H  34.03400 48.71500 20.94300
H  38.73400 46.13000 21.96800
H  38.80100 47.52700 20.87000
H  37.15000 45.81000 19.45000
H  38.59100 45.03900 20.09800
H  38.81000 46.44400 19.10200
H  37.09500 42.59500 26.34100
H  38.37300 43.24300 25.23600
H  36.64500 43.17000 24.79200
H  37.29200 45.89500 30.49200
H  34.05500 43.89900 32.21800
H  33.42000 45.59100 32.30600
H  34.56400 45.03400 33.48400
Mg -11.56800 16.96400 40.81900
C  -8.24100 15.83600 40.61900
C  -10.36600 20.09300 39.61000
C  -14.65000 17.91800 40.26000
C  -12.61500 13.62500 41.08600
N  -9.54800 17.86700 40.17200
C  -8.28100 17.16700 40.21200
C  -7.06100 18.12600 39.88600
C  -7.80300 19.51500 39.74900
C  -9.35100 19.19400 39.98200
C  -7.48000 20.49300 40.92200
C  -6.26400 17.75300 38.64400
C  -4.78900 17.61000 38.82100
H  -4.23600 16.46800 37.99100
N  -12.40400 18.82100 40.14900
C  -11.78500 19.97000 39.69000
C  -12.75800 20.99700 39.44800
C  -14.02800 20.42800 39.67800
C  -13.77000 19.00300 39.99900
C  -12.41800 22.36000 39.00100
C  -15.46300 21.14800 39.55400
O  -15.57800 22.26200 39.10200
C  -16.70200 20.48300 40.00600
N  -13.36600 15.89000 40.64200
C  -14.50800 16.55000 40.58500
C  -15.82000 15.64000 40.54800
C  -15.11200 14.24300 40.92300
C  -13.60500 14.59300 40.94100
C  -17.02400 16.14400 41.50100
C  -15.48300 13.10200 39.96300
C  -15.10200 13.26600 38.49800
N  -10.71600 15.09700 40.97500
C  -11.23900 13.85500 41.11400
C  -10.09700 12.91800 41.47900
C  -8.89800 13.67700 41.24200
C  -9.31000 14.91900 40.86800
C  -10.22600 11.47000 41.87700
C  -7.42700 13.66900 41.38500
O  -6.72300 12.70700 41.72000
C  -6.96300 15.06500 40.92700
C  -6.27400 15.69000 42.09700
O  -6.72100 16.47800 42.93300
O  -4.95300 15.34100 42.08000
C  -4.23100 16.03800 43.09400
H  -10.02900 21.05500 39.21800
H  -15.69100 18.21000 40.11300
H  -12.94400 12.63200 41.39900
H  -6.39000 18.10200 40.74500
H  -7.60200 19.98800 38.78800
H  -6.53200 21.01600 40.79800
H  -7.45700 19.92000 41.84900
H  -8.27900 21.22000 41.06800
H  -6.50500 18.46400 37.85300
H  -6.62200 16.80400 38.24300
H  -4.59800 17.48700 39.88700
H  -4.27600 18.47800 38.40600
H  -13.06300 22.82800 38.25700
H  -11.42300 22.30300 38.56000
H  -12.39000 23.05100 39.84400
H  -17.07200 19.60300 39.48000
H  -17.53800 21.18000 40.06100
H  -16.41600 20.20000 41.01900
H  -16.19800 15.65300 39.52600
H  -15.38500 13.95600 41.93800
H  -16.73000 16.99700 42.11200
H  -17.27900 15.28000 42.11600
H  -17.93500 16.37600 40.95100
H  -16.56700 13.00400 40.01600
H  -15.06500 12.16100 40.32000
H  -15.98000 13.10300 37.87200
H  -14.32500 12.53800 38.26300
H  -14.67300 14.26400 38.41500
H  -10.80300 11.39300 42.79900
H  -9.21500 11.08300 42.00700
H  -10.69700 10.99500 41.01600
H  -6.23800 15.02700 40.11400
H  -4.33800 17.08300 42.80000
H  -3.17100 15.79500 43.02900
H  -4.54200 15.81700 44.11500

