158

Mg -1.95300 17.60700 27.94500
C  -2.48700 15.69000 30.75800
C  -2.71700 20.42400 29.97700
C  -1.69900 19.43400 25.19800
C  -1.37100 14.63500 26.02200
N  -2.52900 18.00200 30.06800
C  -2.55700 17.05000 31.07800
C  -2.75400 17.68600 32.41900
C  -3.07900 19.17100 32.14500
C  -2.77900 19.22200 30.62600
C  -4.55200 19.54700 32.43300
C  -1.57900 17.45300 33.42300
C  -1.99700 17.01100 34.85000
H  -0.89400 16.96900 35.94700
N  -2.05400 19.65200 27.61200
C  -2.45200 20.60700 28.56200
C  -2.37300 21.90000 27.87300
C  -2.02100 21.61800 26.51100
C  -1.89800 20.23500 26.37500
C  -2.39800 23.19000 28.70500
C  -1.74800 22.53700 25.35000
O  -1.47600 22.19300 24.24700
C  -1.73300 24.06500 25.50200
N  -1.77700 17.10200 25.85800
C  -1.50700 18.07300 24.96300
C  -1.11100 17.40000 23.63300
C  -0.84800 15.90900 23.89900
C  -1.27300 15.88700 25.36700
C  -2.15700 17.66700 22.55200
C  0.64500 15.44800 23.73200
C  1.73000 16.04500 24.66200
N  -2.02900 15.58600 28.21900
C  -1.81700 14.48800 27.35700
C  -1.98500 13.28200 28.11400
C  -2.28000 13.71700 29.40700
C  -2.18000 15.13700 29.45100
C  -1.81600 11.82600 27.67600
C  -2.55500 13.27000 30.74000
O  -2.65500 12.14300 31.16900
C  -2.57400 14.51000 31.65500
C  -1.43000 14.28000 32.52400
O  -0.27400 14.51000 32.23000
O  -1.82500 13.74300 33.74300
C  -0.78100 13.19300 34.63900
H  -3.06900 21.27400 30.56500
H  -1.57100 20.01300 24.28200
H  -1.25500 13.79800 25.33200
H  -3.70300 17.30200 32.79200
H  -2.28400 19.77400 32.58300
H  -4.89600 20.15700 31.59800
H  -4.55100 20.20600 33.30100
H  -5.20100 18.67200 32.45900
H  -1.01800 18.38500 33.48800
H  -0.96900 16.65300 33.00400
H  -2.49000 16.04100 34.90400
H  -2.71400 17.75900 35.18600
H  -3.20000 23.91300 28.55400
H  -1.49800 23.80100 28.63600
H  -2.33300 22.96000 29.76800
H  -1.95000 24.41100 24.49100
H  -0.80100 24.47000 25.89500
H  -2.60400 24.38500 26.07400
H  -0.20400 17.83200 23.21100
H  -1.39700 15.20600 23.27200
H  -2.98200 16.95600 22.53200
H  -1.73000 17.55500 21.55500
H  -2.59500 18.65000 22.72600
H  1.00000 15.75400 22.74800
H  0.68500 14.36800 23.87400
H  2.04600 16.99500 24.23100
H  2.64200 15.44800 24.68200
H  1.29000 16.13500 25.65500
H  -1.10300 11.67200 26.86500
H  -2.84100 11.63600 27.35800
H  -1.57400 11.16600 28.50900
H  -3.46000 14.51500 32.28900
H  0.25500 13.35800 34.34200
H  -0.94600 12.13700 34.85400
H  -1.05200 13.67600 35.57800
Mg 25.81500 0.68800 28.75000
C  27.98300 0.51300 31.50400
C  23.19200 1.30900 30.89800
C  23.86600 0.38500 26.23000
C  28.58900 -0.14300 26.73800
N  25.60500 0.95200 30.97500
C  26.65000 0.86000 31.90000
C  26.10800 1.13400 33.25800
C  24.49700 1.03900 33.05300
C  24.41600 1.16100 31.56800
C  23.89300 -0.25900 33.64300
C  26.67500 2.43900 33.92100
C  25.93500 3.20500 34.96900
H  26.42200 2.78200 36.39600
N  23.77800 0.97000 28.56700
C  22.85400 1.33800 29.54500
C  21.53000 1.47900 28.90400
C  21.70100 1.15900 27.54500
C  23.17200 0.80000 27.35100
C  20.31200 1.79100 29.69100
C  20.67400 1.16400 26.43300
O  20.87400 0.65600 25.33300
C  19.31500 1.70600 26.72900
N  26.14800 0.03600 26.80800
C  25.20200 0.14300 25.85800
C  25.72200 -0.04700 24.45200
C  27.32600 0.13200 24.70500
C  27.37300 0.02000 26.20000
C  25.34500 -1.45200 23.83000
C  27.77900 1.62200 24.35400
C  29.21900 1.76200 23.71400
N  27.85300 0.23500 29.04900
C  28.88700 -0.02700 28.19200
C  30.20200 -0.16200 28.83200
C  29.86700 -0.00600 30.20800
C  28.43900 0.28300 30.22800
C  31.35100 -0.73800 28.16100
C  30.36400 -0.03600 31.56200
O  31.50600 -0.20100 32.02400
C  29.14900 0.30500 32.49200
C  29.00600 -0.85400 33.44000
O  28.81200 -2.03400 33.22600
O  29.10300 -0.29300 34.66100
C  29.16200 -1.14300 35.82500
H  22.48200 1.55600 31.69000
H  23.25000 0.20400 25.34600
H  29.45600 -0.13700 26.07400
H  26.53800 0.34800 33.87800
H  23.81300 1.82400 33.37500
H  23.35700 -0.12500 34.58300
H  24.80700 -0.85200 33.66700
H  23.26700 -0.89200 33.01500
H  26.85300 3.16700 33.13000
H  27.65800 2.26000 34.35700
H  24.90100 2.86700 34.89600
H  25.99700 4.25900 34.69800
H  20.42800 2.01700 30.75100
H  19.79100 0.83400 29.71200
H  19.80800 2.66000 29.26700
H  18.69200 1.12200 27.40600
H  18.74100 1.84600 25.81300
H  19.42500 2.67700 27.21400
H  25.24200 0.77800 23.92500
H  27.91200 -0.59100 24.13700
H  24.86300 -2.04400 24.60800
H  26.23500 -1.98600 23.49800
H  24.56600 -1.39500 23.07000
H  27.90900 2.24400 25.24000
H  27.04200 2.10300 23.71100
H  29.12900 2.09500 22.68000
H  29.74700 0.80900 23.71500
H  29.87200 2.39200 24.31800
H  31.16600 -1.14500 27.16700
H  31.87900 -1.51600 28.71300
H  32.12400 0.03100 28.16300
H  29.37200 1.30200 32.87200
H  30.11500 -0.90700 36.29900
H  28.92700 -2.18400 35.60200
H  28.35700 -1.03600 36.55100

