158

Mg 47.35300 25.63300 27.84700
C  48.46400 27.70100 30.41400
C  46.81500 23.15000 30.15300
C  46.94300 23.53500 25.36200
C  48.54800 28.09900 25.63100
N  47.56700 25.50900 29.97900
C  47.96000 26.53700 30.87600
C  47.66400 26.11300 32.35800
C  47.39800 24.61700 32.20100
C  47.22300 24.35900 30.66100
C  48.53900 23.79500 32.89700
C  46.69400 27.01100 33.26800
C  47.34900 27.55900 34.49800
H  46.39000 28.07000 35.63600
N  46.95000 23.63800 27.74800
C  46.64400 22.81900 28.80700
C  46.01500 21.59700 28.32600
C  46.08800 21.67600 26.89600
C  46.76900 22.92900 26.62000
C  45.45700 20.47900 29.27700
C  45.71300 20.64000 25.89000
O  45.87600 20.69500 24.63300
C  45.12000 19.33900 26.36200
N  47.69600 25.79400 25.79000
C  47.44400 24.79700 24.90800
C  47.55700 25.26100 23.48300
C  48.02600 26.71900 23.50600
C  47.97100 26.94300 25.03600
C  48.25600 24.30000 22.38800
C  47.19000 27.76100 22.72500
C  47.94200 28.50900 21.61500
N  48.24500 27.49200 27.90400
C  48.69200 28.35400 26.97900
C  49.24500 29.61900 27.53500
C  49.09600 29.41300 28.89100
C  48.56700 28.02200 29.08400
C  49.87200 30.81100 26.84500
C  49.22900 29.99400 30.20000
O  49.67300 31.08200 30.51500
C  48.84600 28.89100 31.24900
C  50.08700 28.83600 32.11300
O  51.12800 28.29100 31.80800
O  49.82100 29.27300 33.39500
C  50.87100 29.05100 34.41900
H  46.62400 22.37700 30.90100
H  46.66300 22.94100 24.48900
H  48.97000 28.77900 24.88800
H  48.66200 26.33300 32.73800
H  46.43500 24.33900 32.63100
H  48.01100 23.04500 33.48700
H  49.01900 24.37600 33.68500
H  49.11600 23.25200 32.14900
H  45.92700 26.36300 33.69200
H  46.15000 27.80100 32.74900
H  47.95000 28.41800 34.19900
H  48.06600 26.90000 34.98700
H  45.52200 20.78300 30.32200
H  46.08300 19.59200 29.38200
H  44.41000 20.24400 29.08800
H  45.85200 18.77400 26.93800
H  44.93100 18.79300 25.43800
H  44.17600 19.51800 26.87700
H  46.51300 25.37000 23.18500
H  49.05800 26.85700 23.18400
H  49.01100 23.73100 22.92900
H  48.63800 25.02700 21.67100
H  47.43000 23.68700 22.02900
H  46.69400 28.50000 23.35500
H  46.44400 27.24300 22.12300
H  48.17200 27.80000 20.81900
H  48.78200 29.01700 22.08800
H  47.31100 29.34200 21.30500
H  49.32900 31.02500 25.92500
H  50.88100 30.46900 26.61600
H  49.91600 31.73200 27.42800
H  48.06500 29.34400 31.86000
H  50.57400 28.27700 35.12700
H  51.03400 29.93800 35.03000
H  51.89800 28.97600 34.06300
Mg -12.31600 16.64600 41.01700
C  -9.65600 14.41600 40.83700
C  -10.55000 19.04500 39.19500
C  -15.10300 18.39700 40.75900
C  -14.12900 13.87200 42.46900
N  -10.34900 16.69200 40.06000
C  -9.39800 15.70000 40.17900
C  -8.08500 16.13700 39.59500
C  -8.35800 17.71300 39.35400
C  -9.85600 17.87600 39.47000
C  -7.60900 18.69900 40.17900
C  -7.65300 15.42600 38.25700
C  -6.10300 15.36200 37.96400
H  -5.61000 16.13900 36.73300
N  -12.79000 18.51700 40.14800
C  -11.88600 19.35000 39.45900
C  -12.67900 20.42600 38.92400
C  -13.97400 20.31200 39.48100
C  -14.03700 19.00900 40.08900
C  -12.26200 21.41800 37.97100
C  -15.03500 21.56500 39.45200
O  -14.66100 22.63400 39.01600
C  -16.48100 21.45000 39.98900
N  -14.23400 16.18800 41.57500
C  -15.24100 17.12100 41.37500
C  -16.57000 16.73000 42.14200
C  -16.20400 15.36400 42.79300
C  -14.80200 15.05200 42.23100
C  -16.99800 17.78600 43.17700
C  -17.22000 14.27700 42.45000
C  -17.77600 13.57800 43.77800
N  -11.97600 14.57600 41.58400
C  -12.82600 13.59800 42.07700
C  -12.06700 12.44600 42.46900
C  -10.77400 12.70900 42.04500
C  -10.82300 14.01800 41.42600
C  -12.57900 11.16700 43.15000
C  -9.40200 12.25500 41.83100
O  -8.90800 11.18700 42.21300
C  -8.64000 13.33200 41.02700
C  -7.41300 13.87200 41.80400
O  -7.57900 14.57000 42.80700
O  -6.22600 13.58400 41.15900
C  -4.99600 14.22200 41.68000
H  -9.98900 19.71000 38.53500
H  -16.04700 18.94100 40.68300
H  -14.74700 13.15100 43.00800
H  -7.24800 16.15300 40.29200
H  -8.12600 17.96900 38.32100
H  -7.46400 19.63300 39.63500
H  -6.64300 18.24500 40.40100
H  -8.14700 18.87100 41.11100
H  -8.19000 15.82800 37.39700
H  -8.03800 14.41400 38.38400
H  -5.69900 14.34900 37.97900
H  -5.63600 15.87900 38.80200
H  -12.82500 21.41100 37.03800
H  -11.17600 21.39400 37.87700
H  -12.23400 22.37800 38.48500
H  -17.06900 20.62300 39.59200
H  -17.08900 22.34300 39.84700
H  -16.43000 21.31200 41.06900
H  -17.43300 16.71800 41.47500
H  -16.21400 15.50300 43.87400
H  -17.66400 18.52100 42.72400
H  -16.15700 18.43700 43.41500
H  -17.51200 17.45100 44.07800
H  -16.74000 13.53500 41.81200
H  -18.04200 14.76900 41.92900
H  -18.61200 14.15500 44.17200
H  -17.08000 13.47100 44.61000
H  -18.00100 12.54500 43.51200
H  -12.80500 10.48100 42.33300
H  -13.49500 11.34600 43.71300
H  -11.81100 10.73600 43.79300
H  -8.35200 13.08000 40.00700
H  -4.11000 13.62600 41.46300
H  -4.92400 14.29100 42.76500
H  -4.68900 15.17600 41.25100

