158

Mg 7.30900 53.94800 40.11600
C  7.09700 50.34800 40.03300
C  10.54900 53.77400 39.43500
C  7.22700 57.22500 39.66900
C  3.79200 54.01000 40.58300
N  8.67500 52.19200 39.68300
C  8.39100 50.85500 39.65300
C  9.70400 50.11300 39.46700
C  10.83200 51.13200 39.55700
C  10.00100 52.43600 39.59000
C  11.76700 51.11400 40.79200
C  9.90200 49.45000 38.15900
C  9.89400 50.15700 36.84200
H  8.41500 50.43100 36.27400
N  8.71500 55.28700 39.56500
C  10.02500 55.02700 39.31900
C  10.69100 56.27600 39.05700
C  9.74000 57.28900 39.14500
C  8.48000 56.61700 39.48300
C  12.04200 56.32100 38.68500
C  10.04700 58.76500 38.91300
O  11.17200 59.20800 38.67300
C  8.90600 59.83500 39.05800
N  5.68800 55.41100 40.11900
C  5.94800 56.72000 40.05000
C  4.77900 57.63300 40.18500
C  3.61700 56.55400 40.41000
C  4.34000 55.21400 40.34300
C  4.93900 58.72700 41.23500
C  2.47600 56.62700 39.35800
C  1.05900 56.97300 39.82400
N  5.81200 52.55100 40.46800
C  4.42200 52.71700 40.62700
C  3.80600 51.39900 40.85100
C  4.88800 50.52100 40.77600
C  6.02700 51.18100 40.39300
C  2.35300 51.09300 41.14900
C  5.25900 49.10900 40.80500
O  4.62100 48.11200 41.11000
C  6.67400 48.93100 40.21200
C  6.50200 48.25400 38.94900
O  5.84200 48.65600 38.03500
O  6.96800 46.96900 39.12200
C  6.73800 46.03300 37.97800
H  11.63000 53.68900 39.30700
H  7.15100 58.31400 39.71100
H  2.70600 53.96700 40.69200
H  9.80400 49.39700 40.28200
H  11.49200 51.00200 38.69800
H  11.49700 50.23100 41.37100
H  11.60300 52.05100 41.32600
H  12.82600 51.13100 40.53500
H  9.10400 48.70800 38.14800
H  10.74900 48.78100 38.30800
H  10.31600 49.59200 36.01000
H  10.50100 51.05100 36.98200
H  12.62000 56.35900 39.60800
H  12.22500 57.14000 37.99000
H  12.26300 55.41500 38.12100
H  8.08400 59.68400 38.35800
H  9.22300 60.82700 38.73700
H  8.68500 59.91200 40.12200
H  4.68800 58.13500 39.22100
H  3.21300 56.57700 41.42200
H  5.96600 58.68300 41.59700
H  4.16100 58.68100 41.99700
H  4.84900 59.60500 40.59600
H  2.32900 55.59900 39.02700
H  2.79500 57.31200 38.57300
H  1.18100 57.77700 40.55000
H  0.65800 56.09500 40.33100
H  0.48800 57.24900 38.93800
H  1.78600 51.99400 41.38000
H  2.35800 50.52700 42.08100
H  2.00400 50.58100 40.25200
H  7.43900 48.49000 40.85000
H  5.72100 46.16200 37.60800
H  6.69700 44.98800 38.28400
H  7.51900 46.06600 37.21800
Mg -2.35500 34.71200 26.64200
C  -3.42000 32.99800 29.56400
C  -1.08400 37.02600 28.61100
C  -2.14100 36.57800 23.91300
C  -4.20100 32.26200 24.73900
N  -2.17400 34.89900 28.83700
C  -2.63000 34.08400 29.83000
C  -2.18500 34.59000 31.23700
C  -1.43300 35.89700 30.82000
C  -1.62000 35.99100 29.34400
C  -1.77600 37.22500 31.61600
C  -1.38400 33.49700 32.06600
C  -1.96300 33.05100 33.46200
H  -1.03800 33.02800 34.66300
N  -1.50500 36.34100 26.26400
C  -1.03100 37.22700 27.17500
C  -0.34200 38.38300 26.60300
C  -0.74100 38.34700 25.21500
C  -1.50500 37.05300 25.05400
C  0.31900 39.40900 27.47300
C  -0.44400 39.32700 24.08200
O  -0.86900 39.27300 22.92500
C  0.50400 40.46500 24.42800
N  -3.13500 34.47100 24.60800
C  -2.96600 35.45300 23.74300
C  -3.64000 35.08300 22.38900
C  -3.99200 33.52000 22.56000
C  -3.72400 33.33900 24.06300
C  -4.86700 35.95800 21.90300
C  -3.20000 32.53600 21.67500
C  -1.90300 32.02400 22.24500
N  -3.52500 33.05500 27.01700
C  -4.14900 32.11100 26.14100
C  -4.78100 31.12500 26.93600
C  -4.52300 31.46600 28.25400
C  -3.72600 32.60400 28.24600
C  -5.50700 29.89800 26.47100
C  -4.80200 31.01700 29.56900
O  -5.44400 30.09100 29.99900
C  -4.01900 32.00300 30.47100
C  -4.95700 32.68000 31.29000
O  -5.78800 33.46400 30.84800
O  -5.03600 32.21700 32.59700
C  -5.96600 32.81000 33.52400
H  -0.62500 37.75900 29.27800
H  -2.19500 37.21500 23.02800
H  -4.71900 31.47000 24.19500
H  -3.11700 34.87000 31.72700
H  -0.38200 35.67500 31.00600
H  -0.90100 37.69900 32.06100
H  -2.43500 37.09100 32.47400
H  -2.15600 38.02100 30.97600
H  -0.36200 33.86200 32.16500
H  -1.30900 32.57400 31.49000
H  -2.43600 32.07600 33.34200
H  -2.84700 33.66200 33.64500
H  1.31500 39.04800 27.73100
H  -0.27300 39.59900 28.36800
H  0.43800 40.36100 26.95500
H  0.89800 40.90800 23.51300
H  1.30100 39.90900 24.92200
H  -0.12700 41.12100 25.02600
H  -2.83100 35.14300 21.66100
H  -5.05500 33.43700 22.33300
H  -5.11700 36.77900 22.57500
H  -5.73200 35.30600 21.78300
H  -4.76800 36.27100 20.86400
H  -2.93700 32.98100 20.71500
H  -3.83800 31.65300 21.71400
H  -1.59900 32.45700 23.19800
H  -1.03800 32.14100 21.59200
H  -1.97200 30.96000 22.47100
H  -5.20500 29.05200 27.08800
H  -5.12000 29.77500 25.45900
H  -6.56500 30.11300 26.31700
H  -3.20300 31.49600 30.98600
H  -6.49900 33.69900 33.18700
H  -5.38000 33.05500 34.40900
H  -6.71200 32.02700 33.66600

