158

Mg 29.26400 57.91100 40.66400
C  26.53100 56.09100 39.71800
C  31.36200 55.30000 39.47700
C  32.15900 60.02800 40.83500
C  27.38800 60.62100 41.26600
N  28.96100 55.91800 39.73900
C  27.74400 55.33900 39.52900
C  27.79500 53.92100 39.08800
C  29.39000 53.58700 39.24300
C  29.94600 55.05400 39.51500
C  29.93000 52.57000 40.22100
C  27.32200 53.67200 37.58600
C  27.92100 54.40100 36.40300
H  27.08300 55.46000 35.69500
N  31.41500 57.69100 40.28500
C  32.06700 56.56800 39.75600
C  33.47200 56.82000 39.54900
C  33.77400 58.12700 40.06400
C  32.38400 58.68500 40.45600
C  34.41500 55.76500 38.99100
C  35.23400 58.70100 40.25100
O  36.21900 58.05100 39.98100
C  35.50300 60.06500 40.81400
N  29.70900 60.04400 41.01100
C  30.94400 60.66600 41.06100
C  30.85900 62.17200 41.46800
C  29.32900 62.29800 41.75700
C  28.75400 60.90300 41.37900
C  31.80100 62.73700 42.53400
C  28.64300 63.51900 41.04500
C  27.89600 64.42200 42.03600
N  27.38900 58.32500 40.52800
C  26.70700 59.48500 40.80600
C  25.27200 59.33200 40.65600
C  25.16700 57.95300 40.30100
C  26.47000 57.38600 40.20900
C  24.27600 60.33000 40.81100
C  24.19500 56.98500 39.83000
O  23.00400 57.03800 39.66700
C  25.03700 55.64100 39.52500
C  24.47300 54.54600 40.34100
O  24.39500 54.55200 41.55100
O  23.99600 53.53200 39.44500
C  23.18400 52.54400 40.15400
H  31.86100 54.39300 39.12900
H  32.98600 60.73100 40.71400
H  26.75700 61.48700 41.47300
H  27.21000 53.41500 39.85500
H  29.63100 53.21100 38.24900
H  29.08000 52.32600 40.85600
H  30.74100 52.91700 40.86100
H  30.21800 51.65800 39.69800
H  26.24200 53.68400 37.43800
H  27.49600 52.60300 37.46100
H  28.29900 53.65400 35.70600
H  28.76900 54.99800 36.74000
H  33.88200 55.01100 38.41100
H  34.95200 55.25500 39.79100
H  35.12000 56.17800 38.26800
H  35.32400 60.93100 40.17700
H  36.57100 60.04500 41.03200
H  34.83700 60.01400 41.67500
H  31.10400 62.75000 40.57700
H  29.27800 62.44500 42.83500
H  32.31500 61.83200 42.85500
H  31.21000 63.06300 43.39000
H  32.44200 63.55000 42.19400
H  28.08700 63.31000 40.13100
H  29.53000 64.09800 40.78700
H  28.59500 65.25200 42.13500
H  27.66100 63.89400 42.96000
H  26.96500 64.86600 41.68100
H  23.47700 60.11800 40.10000
H  24.63500 61.32900 40.56400
H  23.88900 60.26600 41.82800
H  25.02300 55.38900 38.46500
H  23.64600 51.57700 39.95700
H  22.21800 52.57000 39.65100
H  22.95800 52.64800 41.21600
Mg -1.86600 35.09500 26.58100
C  -3.62400 33.40000 29.18200
C  -0.76200 37.27700 28.99000
C  -0.84700 37.17900 24.11500
C  -3.90400 33.38000 24.22900
N  -2.21400 35.36100 28.87700
C  -2.86200 34.50000 29.70300
C  -2.42600 34.72800 31.19400
C  -1.49300 35.92400 31.10900
C  -1.45000 36.21900 29.60500
C  -1.77300 37.21000 31.97500
C  -1.87100 33.34200 31.68600
C  -2.52600 32.73100 32.92500
H  -1.70100 32.58400 34.16200
N  -0.81400 36.90100 26.59000
C  -0.42100 37.60800 27.66400
C  0.39400 38.67500 27.19800
C  0.46900 38.58800 25.79600
C  -0.50000 37.56600 25.43900
C  0.97400 39.83200 28.13000
C  1.31600 39.42700 24.83400
O  1.20000 39.38200 23.60400
C  2.44100 40.30700 25.34600
N  -2.55000 35.43300 24.46700
C  -1.77600 36.24300 23.64700
C  -2.06500 35.97700 22.19300
C  -2.93400 34.65000 22.18300
C  -3.25800 34.49700 23.70100
C  -2.72600 37.14300 21.42400
C  -2.20900 33.35400 21.65000
C  -1.04000 32.84600 22.43500
N  -3.31400 33.64100 26.62700
C  -3.97400 32.99100 25.60700
C  -4.74600 31.90200 26.11700
C  -4.70200 32.06900 27.51800
C  -3.80900 33.15200 27.79900
C  -5.57100 30.92400 25.41400
C  -5.11100 31.49800 28.74300
O  -5.83600 30.57900 28.97300
C  -4.48600 32.32000 29.87100
C  -5.66700 32.73600 30.68500
O  -6.47700 33.60700 30.39000
O  -5.68600 31.98600 31.82900
C  -6.66100 32.53000 32.82300
H  -0.16700 37.78300 29.75300
H  -0.46000 37.72800 23.25400
H  -4.19700 32.72200 23.40800
H  -3.27200 35.00900 31.82100
H  -0.48900 35.56800 31.34200
H  -0.82000 37.39500 32.47200
H  -2.44800 37.01600 32.80800
H  -2.16600 38.01400 31.35300
H  -0.79500 33.39300 31.85200
H  -1.83900 32.62600 30.86500
H  -2.86600 31.72300 32.68600
H  -3.39400 33.33500 33.19000
H  1.90900 39.48300 28.57000
H  0.19500 39.96000 28.88200
H  1.17900 40.82800 27.73900
H  2.96000 39.93100 26.22800
H  1.89200 41.21300 25.60300
H  3.06800 40.44400 24.46500
H  -1.16500 35.71500 21.63800
H  -3.90200 34.79400 21.70300
H  -3.77600 36.90400 21.25700
H  -2.27600 37.45200 20.48000
H  -2.76200 38.00400 22.09200
H  -1.91100 33.52100 20.61500
H  -3.01700 32.62500 21.71100
H  -1.34800 31.98500 23.02900
H  -0.62000 33.64300 23.04900
H  -0.22800 32.53200 21.78000
H  -5.07400 30.92500 24.44400
H  -6.63800 31.14600 25.44600
H  -5.38300 29.94300 25.85000
H  -3.91700 31.65600 30.52200
H  -7.63700 32.08200 32.64000
H  -6.73700 33.60500 32.66100
H  -6.34400 32.38300 33.85600

