158

Mg 47.33300 15.81900 27.33300
C  45.56100 16.07600 30.35700
C  49.94500 17.68500 28.90000
C  49.10200 15.89400 24.50400
C  44.68000 14.33400 25.80600
N  47.80100 16.52500 29.56400
C  46.84700 16.56200 30.56100
C  47.49200 17.11400 31.82600
C  48.79000 17.83200 31.23200
C  48.88600 17.31500 29.79000
C  48.84100 19.42500 31.30500
C  47.69700 16.10400 33.01300
C  47.24400 16.54200 34.42600
H  47.23300 18.04600 34.85700
N  49.31600 16.71500 26.77300
C  50.13900 17.40500 27.54800
C  51.37300 17.59700 26.85700
C  51.15100 17.17600 25.50900
C  49.81400 16.60600 25.48500
C  52.53600 18.28700 27.51300
C  52.08900 17.21800 24.31400
O  51.77900 16.72900 23.21800
C  53.40900 17.96500 24.41500
N  46.97800 15.03700 25.45700
C  47.93300 15.20600 24.45300
C  47.33700 14.49100 23.16300
C  45.90500 13.89900 23.54500
C  45.84100 14.38100 25.03500
C  47.16900 15.32600 21.85500
C  45.84200 12.34400 23.54800
C  45.34000 11.71000 22.23600
N  45.50200 15.30300 27.89100
C  44.50500 14.73300 27.14800
C  43.27900 14.68800 27.96000
C  43.67000 15.05500 29.25600
C  45.02100 15.53100 29.15400
C  41.88800 14.24400 27.48600
C  43.25500 15.29600 30.56700
O  42.16200 14.99300 31.04700
C  44.48300 15.80500 31.35200
C  44.10500 16.93200 32.22400
O  44.16600 18.11100 31.92000
O  43.54700 16.46500 33.38300
C  43.36400 17.50100 34.42100
H  50.63900 18.39500 29.35500
H  49.66100 15.86500 23.56600
H  43.78100 13.97600 25.30100
H  46.94200 17.95600 32.24700
H  49.66800 17.60000 31.83500
H  47.97000 19.80700 31.83800
H  48.91600 19.80800 30.28700
H  49.76400 19.79900 31.74700
H  48.74000 15.78800 33.00700
H  47.10400 15.26100 32.66000
H  47.84100 15.98000 35.14400
H  46.25500 16.17900 34.70700
H  52.77600 17.55200 28.28200
H  52.27900 19.27500 27.89500
H  53.43500 18.59200 26.97800
H  53.31300 18.98200 24.79500
H  53.80600 18.04900 23.40400
H  54.14400 17.36200 24.95000
H  47.95000 13.64800 22.84600
H  45.06400 14.39700 23.06200
H  47.87300 16.15800 21.89400
H  46.23200 15.88200 21.85400
H  47.40300 14.77400 20.94400
H  45.22900 11.99300 24.37800
H  46.83900 11.94100 23.72500
H  44.40600 11.18400 22.43400
H  46.07900 11.04300 21.79100
H  45.06900 12.47300 21.50600
H  41.06600 14.50800 28.15100
H  42.03400 13.16400 27.44400
H  41.66100 14.66500 26.50700
H  44.76100 14.96900 31.99400
H  44.20200 17.25800 35.07300
H  42.40900 17.41900 34.94000
H  43.42500 18.56700 34.20100
Mg 17.37600 53.51900 26.39100
C  19.23200 51.74100 28.81100
C  15.15400 54.29600 28.97700
C  15.39200 54.93400 24.02100
C  19.44500 52.20200 23.95700
N  17.20500 53.03900 28.65800
C  18.11500 52.35100 29.47200
C  17.88900 52.65500 30.91700
C  16.42100 53.15500 30.94400
C  16.26200 53.54000 29.39600
C  15.32200 52.22100 31.43100
C  18.95900 53.58600 31.56300
C  19.26000 53.34600 33.06200
H  18.10100 52.67900 33.87000
N  15.57500 54.57400 26.45800
C  14.84700 54.78300 27.62100
C  13.72600 55.55600 27.27000
C  13.74600 55.83100 25.88100
C  14.94500 55.15500 25.34300
C  12.69100 56.06200 28.40700
C  12.81400 56.60100 25.09800
O  12.92200 56.71400 23.89700
C  11.64700 57.34500 25.76900
N  17.28700 53.38200 24.23800
C  16.48500 54.19900 23.53500
C  16.89500 54.27200 22.03700
C  18.30900 53.53400 22.06900
C  18.34200 52.91000 23.51200
C  15.90900 53.74000 20.96900
C  19.58300 54.37600 21.70200
C  20.54600 53.85600 20.63800
N  18.97700 52.18500 26.36300
C  19.71900 51.82000 25.27400
C  20.80400 50.98000 25.79300
C  20.60200 50.87800 27.17800
C  19.49100 51.62700 27.44900
C  21.95400 50.52600 24.88000
C  21.15000 50.38700 28.37300
O  22.09000 49.64800 28.62100
C  20.29200 50.95800 29.44800
C  19.73300 49.93900 30.27200
O  18.97400 49.06700 29.87200
O  20.04500 50.10800 31.60400
C  19.66000 48.91900 32.41200
H  14.40000 54.62000 29.69800
H  14.99000 55.47800 23.16300
H  20.24800 51.97100 23.25400
H  17.84800 51.71600 31.46900
H  16.40800 54.05700 31.55600
H  15.04400 51.47600 30.68500
H  14.46800 52.80000 31.78200
H  15.82200 51.62900 32.19800
H  18.58400 54.60800 31.61800
H  19.88500 53.56100 30.98800
H  19.49000 54.32200 33.48800
H  20.14000 52.70900 32.96800
H  12.50000 57.12400 28.24800
H  12.96800 55.92800 29.45300
H  11.76800 55.48300 28.39000
H  12.05300 57.99300 26.54700
H  11.11900 56.54900 26.29300
H  11.05300 57.86200 25.01600
H  17.09500 55.33800 21.93100
H  18.30700 52.71700 21.34700
H  14.88100 53.71200 21.33000
H  16.24500 52.74900 20.66500
H  15.88600 54.39800 20.10000
H  20.23400 54.42600 22.57500
H  19.30600 55.42600 21.60800
H  21.49200 53.68200 21.15100
H  20.78300 54.58600 19.86500
H  20.12700 52.97300 20.15600
H  22.09600 51.10100 23.96500
H  21.87900 49.45300 24.70400
H  22.83500 50.58100 25.51900
H  20.90100 51.63700 30.04500
H  19.87500 49.05500 33.47200
H  20.14400 48.09400 31.89000
H  18.59100 48.71600 32.48200

