158

Mg 35.75200 1.44900 29.71000
C  33.21900 2.46300 32.07000
C  38.03900 1.53700 32.35100
C  38.20000 1.07800 27.42000
C  33.40300 2.09900 27.25900
N  35.58800 1.95700 31.89200
C  34.50100 2.26900 32.70800
C  34.72300 2.26500 34.23500
C  36.32100 2.23400 34.19400
C  36.73300 1.85300 32.68900
C  37.02700 3.49700 34.68300
C  34.00000 1.12700 34.89400
C  33.50700 1.41000 36.34600
H  33.75800 2.79000 37.04000
N  37.85300 1.21000 29.86400
C  38.55600 1.16100 31.05900
C  39.91900 0.69600 30.74600
C  39.96600 0.63600 29.31400
C  38.66300 0.96000 28.82100
C  40.93800 0.40800 31.82500
C  41.12000 0.45700 28.37500
O  41.09400 0.51600 27.15900
C  42.47200 0.19200 28.91700
N  35.79100 1.64000 27.63700
C  36.92900 1.41200 26.87500
C  36.63500 1.63400 25.39900
C  35.05500 1.53300 25.34700
C  34.67500 1.77000 26.82800
C  37.14600 2.99800 24.95700
C  34.38100 0.25400 24.76100
C  33.67300 -0.71000 25.74700
N  33.66300 2.04000 29.62600
C  32.90000 2.26300 28.50700
C  31.53700 2.78700 28.93100
C  31.57600 2.79700 30.34200
C  32.89500 2.40700 30.75300
C  30.28600 3.00100 28.09500
C  30.85400 3.13500 31.57800
O  29.72100 3.62800 31.68700
C  31.89400 2.87900 32.77100
C  32.06600 4.16200 33.54000
O  32.85500 5.09200 33.36000
O  31.01700 4.20800 34.40700
C  30.85300 5.51000 35.01000
H  38.69000 1.56700 33.22700
H  38.83000 1.02600 26.53000
H  32.68600 2.44500 26.51100
H  34.50600 3.28500 34.55300
H  36.85700 1.50300 34.79900
H  36.87100 4.24500 33.90500
H  38.10400 3.32900 34.69300
H  36.59800 3.81200 35.63400
H  34.70300 0.29400 34.88700
H  33.10100 0.89100 34.32500
H  34.01200 0.60500 36.87900
H  32.44100 1.18300 36.36400
H  41.52400 1.26700 32.15100
H  41.52700 -0.38400 31.36200
H  40.49700 -0.09100 32.68800
H  42.67000 -0.87600 29.00900
H  42.74200 0.67400 29.85700
H  43.11800 0.60900 28.14400
H  37.10600 0.89600 24.75000
H  34.63800 2.36800 24.78400
H  36.56000 3.60400 24.26700
H  38.10700 2.90900 24.45100
H  37.49300 3.62100 25.78100
H  35.17200 -0.16500 24.13900
H  33.66400 0.55600 23.99700
H  33.44900 -1.68300 25.31000
H  32.66300 -0.36900 25.97300
H  34.08400 -0.84800 26.74700
H  29.56700 2.21800 28.33500
H  30.66000 2.80800 27.08900
H  29.96500 4.03100 28.24700
H  31.48400 2.12700 33.44400
H  30.63200 6.35500 34.35700
H  31.65100 5.79300 35.69500
H  29.97400 5.54500 35.65300
Mg 53.27000 24.40400 44.66100
C  50.45900 26.35300 44.42100
C  51.36500 21.54700 44.36400
C  56.16200 22.57000 44.24200
C  55.09800 27.37700 44.74100
N  51.15200 23.98700 44.30500
C  50.16800 25.00300 44.39000
C  48.78200 24.35200 44.24000
C  49.07300 22.88100 44.65000
C  50.59500 22.74100 44.40900
C  48.80900 22.47800 46.14500
C  48.02700 24.59500 42.92700
C  48.84000 24.50500 41.61400
H  48.46700 23.30300 40.62900
N  53.73400 22.36800 44.29300
C  52.79400 21.33600 44.27600
C  53.45700 20.09200 44.15400
C  54.86600 20.34100 44.05700
C  54.95500 21.79000 44.21700
C  52.82400 18.71500 44.03000
C  55.96600 19.28600 43.80200
O  55.65100 18.15500 43.41700
C  57.39400 19.59900 43.88600
N  55.28900 24.95100 44.36200
C  56.26400 23.99200 44.24200
C  57.61400 24.70200 43.95700
C  57.31800 26.18400 44.43300
C  55.78300 26.18300 44.53200
C  58.79700 24.09300 44.80600
C  58.03600 27.31800 43.56300
C  58.76200 28.30000 44.42600
N  52.94100 26.50200 44.71800
C  53.74500 27.57400 44.82600
C  52.98500 28.76400 45.07000
C  51.65400 28.34000 44.84500
C  51.75700 26.90100 44.61500
C  53.53400 30.11300 45.33300
C  50.35900 28.79200 44.69700
O  49.94200 29.91500 44.76100
C  49.52800 27.56900 44.42900
C  48.80300 27.78600 43.18300
O  49.31900 27.80700 42.10400
O  47.45900 28.04200 43.44600
C  46.71000 28.20500 42.17500
H  50.70300 20.69400 44.52600
H  57.15800 22.12700 44.18200
H  55.78000 28.22900 44.78600
H  48.20600 24.80800 45.04400
H  48.59000 22.09000 44.07600
H  48.13000 23.01900 46.80300
H  49.77200 22.45300 46.65500
H  48.64100 21.40100 46.14700
H  47.45100 25.52100 42.94400
H  47.30900 23.77500 42.91800
H  49.84300 24.25600 41.96000
H  48.80900 25.41200 41.01000
H  53.08800 18.25400 43.07800
H  51.74400 18.80600 44.14400
H  53.10400 18.03800 44.83700
H  57.99000 18.70300 43.71600
H  57.63000 20.00700 44.86800
H  57.60500 20.38400 43.15900
H  57.88100 24.78100 42.90400
H  57.63600 26.32400 45.46600
H  58.73800 23.01400 44.94800
H  58.97700 24.54500 45.78100
H  59.68100 24.28900 44.19900
H  57.30900 27.80600 42.91400
H  58.70800 26.87100 42.83000
H  58.70800 28.05700 45.48700
H  58.35400 29.30900 44.37500
H  59.75700 28.41300 43.99500
H  52.64600 30.73600 45.44400
H  54.20800 30.48400 44.56100
H  53.98300 30.03100 46.32200
H  48.80200 27.54100 45.24200
H  45.65100 28.45800 42.22500
H  46.88000 27.38000 41.48300
H  47.19200 29.04000 41.66600

