158

Mg 47.37000 16.16800 28.19200
C  45.22700 16.16100 31.09900
C  49.57300 18.01300 30.09100
C  48.98500 16.73500 25.34300
C  44.76100 14.73100 26.50000
N  47.28900 17.06900 30.23500
C  46.44700 16.79100 31.27100
C  47.00900 17.16800 32.64400
C  48.35200 17.88800 32.31900
C  48.43000 17.68800 30.75200
C  48.48100 19.30200 32.82300
C  47.15600 16.00600 33.66500
C  46.51300 16.17500 35.11200
H  46.18600 17.54700 35.58200
N  49.13400 17.07200 27.80100
C  49.89000 17.76600 28.69800
C  51.03100 18.39300 28.04300
C  50.90600 17.95500 26.64100
C  49.69100 17.15500 26.56300
C  52.01800 19.26500 28.66100
C  51.84000 18.23800 25.48900
O  51.60600 18.01500 24.30900
C  53.17200 18.77600 25.78100
N  47.01700 15.71700 26.20000
C  47.74500 16.13200 25.13500
C  47.11100 15.68000 23.82100
C  45.95300 14.72600 24.28400
C  45.90200 15.06100 25.76000
C  46.63300 16.81200 22.91500
C  46.16300 13.18700 23.90900
C  45.21800 12.57300 22.88000
N  45.39500 15.47500 28.65500
C  44.54900 14.87900 27.86200
C  43.36500 14.40300 28.69100
C  43.56200 14.88400 29.94700
C  44.84600 15.48500 29.89100
C  42.11500 13.78300 28.26300
C  43.08200 14.98200 31.33800
O  42.12800 14.48500 31.89600
C  44.14700 15.84300 32.13800
C  43.45700 16.95800 32.81100
O  43.34200 18.11300 32.37600
O  42.86200 16.44200 33.94800
C  41.93200 17.36900 34.62500
H  50.37700 18.45600 30.68200
H  49.47700 17.02000 24.41100
H  44.10000 14.04800 25.96200
H  46.29400 17.91700 32.98700
H  49.21600 17.39200 32.76300
H  49.27600 19.35900 33.56700
H  47.50200 19.60800 33.19100
H  48.76000 19.96800 32.00700
H  48.23200 15.91100 33.81100
H  46.76000 15.11700 33.17400
H  47.30700 15.76600 35.73600
H  45.72200 15.42500 35.12100
H  52.21400 20.24900 28.23400
H  52.98600 18.76600 28.62300
H  51.83900 19.47800 29.71500
H  53.04000 19.62000 26.45800
H  53.58400 19.10100 24.82600
H  53.88100 18.01600 26.11000
H  47.92300 15.25200 23.23400
H  45.08900 15.10900 23.74100
H  45.75200 16.68200 22.28700
H  47.28100 16.80400 22.03900
H  46.55800 17.74700 23.47100
H  46.08500 12.52700 24.77300
H  47.14000 13.07500 23.43800
H  44.32600 13.17900 22.71700
H  44.74000 11.67800 23.27900
H  45.64200 12.27600 21.92100
H  41.86600 14.14600 27.26600
H  41.28100 14.10800 28.88400
H  42.26100 12.70300 28.25000
H  44.45100 15.11600 32.89200
H  42.16400 17.45900 35.68600
H  40.90700 17.02400 34.48600
H  41.85300 18.32800 34.11300
Mg -5.29600 25.60100 24.83400
C  -3.93300 27.19100 27.72300
C  -6.84600 23.47300 26.96800
C  -6.46600 23.91200 22.12800
C  -3.56500 27.81000 22.82800
N  -5.23200 25.30200 27.10600
C  -4.71900 26.16000 28.05300
C  -5.02400 25.63500 29.47400
C  -5.71500 24.23000 29.21000
C  -6.02100 24.34000 27.64800
C  -4.97000 22.92400 29.61700
C  -5.94800 26.76400 30.22500
C  -6.13500 26.62100 31.72600
H  -5.21500 25.59000 32.44600
N  -6.52500 24.00500 24.59100
C  -7.11400 23.24700 25.61900
C  -7.97300 22.23400 25.01900
C  -7.80100 22.24200 23.56400
C  -6.85000 23.35500 23.36500
C  -8.83200 21.37500 25.88100
C  -8.51200 21.37100 22.52200
O  -8.41200 21.56200 21.35900
C  -9.35600 20.25100 22.97000
N  -4.94700 25.73500 22.71000
C  -5.61500 24.96800 21.75900
C  -5.11000 25.32700 20.32600
C  -4.44800 26.75100 20.60800
C  -4.31400 26.79700 22.13700
C  -4.21900 24.29200 19.61800
C  -5.09400 28.01800 20.04000
C  -6.41500 28.48300 20.62000
N  -3.96400 27.18500 25.13600
C  -3.44500 28.01800 24.23000
C  -2.70700 29.06500 24.99600
C  -2.87700 28.73500 26.28800
C  -3.65400 27.58900 26.39300
C  -1.94100 30.23500 24.44500
C  -2.54600 29.14100 27.58200
O  -1.88400 30.07100 27.94900
C  -3.24300 28.12900 28.59900
C  -2.19100 27.47400 29.42900
O  -1.16400 26.89800 28.97800
O  -2.39200 27.58700 30.79600
C  -1.36000 27.35100 31.79600
H  -7.35400 22.76500 27.62600
H  -7.04700 23.60600 21.25500
H  -3.17200 28.63600 22.23200
H  -4.08800 25.44400 29.99900
H  -6.65200 24.25800 29.76700
H  -4.18700 23.08400 30.35900
H  -4.49800 22.54300 28.71200
H  -5.51900 22.06500 30.00300
H  -6.94300 26.48900 29.87400
H  -5.68300 27.81000 30.06800
H  -7.10700 26.18500 31.96000
H  -6.09600 27.59200 32.22000
H  -9.83700 21.08800 25.57200
H  -9.04800 21.85900 26.83400
H  -8.41700 20.38400 26.06700
H  -8.83400 19.49600 23.55800
H  -9.63000 19.84400 21.99600
H  -10.25200 20.70800 23.38800
H  -6.02400 25.40400 19.73800
H  -3.37800 26.81200 20.40500
H  -3.81300 23.65000 20.39900
H  -3.35300 24.86600 19.28900
H  -4.61300 23.69400 18.79500
H  -5.20800 27.78400 18.98100
H  -4.36300 28.82500 20.09800
H  -6.84200 27.78900 21.34400
H  -7.11300 28.58000 19.78800
H  -6.05200 29.45500 20.95500
H  -1.04400 30.02700 23.86200
H  -1.72500 30.91600 25.26800
H  -2.47300 30.79700 23.67800
H  -3.86800 28.74100 29.24900
H  -1.40200 28.09700 32.59000
H  -0.35200 27.15900 31.42800
H  -1.50900 26.31100 32.08600

