158

Mg 55.51100 22.59500 44.78200
C  53.42500 24.96200 43.52900
C  53.12900 20.23400 43.89200
C  57.84500 20.19800 45.16300
C  57.89200 24.99300 45.35200
N  53.57500 22.61600 43.69000
C  52.90100 23.71500 43.18800
C  51.54300 23.30000 42.71000
C  51.34800 21.83700 43.33600
C  52.72700 21.54500 43.72800
C  50.32200 21.71600 44.49900
C  51.33700 23.66800 41.22200
C  50.05600 24.40300 40.91100
H  49.25100 23.86900 39.75200
N  55.46400 20.57800 44.39500
C  54.42700 19.75500 44.03500
C  54.81100 18.36900 44.06000
C  56.20000 18.34800 44.33500
C  56.60200 19.72600 44.63300
C  53.87600 17.25600 43.87500
C  57.03300 17.07900 44.52000
O  56.44300 15.96300 44.46300
C  58.47400 17.05900 45.01700
N  57.54300 22.51000 45.32800
C  58.32100 21.45400 45.48100
C  59.83700 21.71900 45.85100
C  59.80400 23.35000 45.74000
C  58.30300 23.65100 45.47500
C  60.25400 21.23600 47.28700
C  60.69800 23.94700 44.53100
C  61.44800 25.25100 44.79700
N  55.63700 24.55700 44.65800
C  56.60700 25.44700 45.00800
C  56.11700 26.80700 44.83900
C  54.84300 26.70300 44.32800
C  54.58600 25.29800 44.21500
C  56.85100 28.09700 45.19400
C  53.65200 27.38000 43.86600
O  53.38100 28.57500 43.89100
C  52.82800 26.31200 43.15000
C  52.92000 26.54700 41.69400
O  53.87500 26.23100 40.95500
O  51.86300 27.30400 41.35200
C  51.93100 28.12000 40.14900
H  52.38500 19.47100 43.65300
H  58.64900 19.51700 45.44600
H  58.54700 25.85500 45.49200
H  50.89300 23.89900 43.34800
H  51.05500 21.08600 42.60100
H  50.85800 21.19500 45.29300
H  49.49100 21.09800 44.15700
H  49.93400 22.71600 44.68800
H  51.39000 22.73600 40.66000
H  52.14100 24.31900 40.88000
H  50.26500 25.40300 40.53000
H  49.42000 24.43400 41.79500
H  54.02600 16.94000 42.84300
H  52.82900 17.48500 44.07400
H  54.11100 16.42700 44.54300
H  58.53300 17.40900 46.04800
H  59.07700 17.66400 44.33900
H  58.94100 16.07500 45.05100
H  60.37600 21.27300 45.01500
H  60.05700 23.86300 46.66700
H  59.39600 20.75200 47.75300
H  60.56300 22.13400 47.82200
H  61.02000 20.47200 47.15100
H  60.07600 24.10700 43.65000
H  61.43600 23.17800 44.30100
H  61.33200 25.79900 43.86100
H  62.52800 25.20300 44.93700
H  60.97800 25.89800 45.53800
H  56.36500 28.64700 46.00000
H  56.72000 28.76400 44.34100
H  57.93200 27.98300 45.27500
H  51.77200 26.37200 43.41300
H  51.28500 28.99800 40.15100
H  51.57600 27.50500 39.32300
H  52.96800 28.39000 39.95100
Mg 47.30600 24.73400 27.71600
C  48.18000 27.10900 30.24100
C  46.21500 22.65100 30.15900
C  46.81300 22.42100 25.31600
C  48.82200 26.86800 25.38400
N  47.15900 25.00600 29.94700
C  47.51500 26.01200 30.73200
C  47.23100 25.75900 32.26900
C  46.76800 24.25600 32.24500
C  46.69300 23.91800 30.65300
C  47.65100 23.27500 33.08400
C  46.18100 26.67800 32.86800
C  45.50500 26.12600 34.19000
H  45.56200 26.96600 35.47700
N  46.54700 22.72400 27.72500
C  46.15600 22.08900 28.85900
C  45.75200 20.73800 28.45000
C  45.80300 20.64500 27.00900
C  46.38800 21.98400 26.61000
C  45.49800 19.64400 29.46000
C  45.52400 19.55800 26.03000
O  45.66300 19.66200 24.83100
C  45.16100 18.26000 26.67300
N  47.89200 24.62700 25.74900
C  47.49200 23.60400 24.94500
C  47.94000 23.79200 23.52700
C  48.31300 25.26500 23.49900
C  48.44900 25.61000 24.98800
C  49.16200 22.83500 23.09200
C  47.30200 26.13200 22.74400
C  47.81100 26.97400 21.51100
N  48.36500 26.64300 27.70500
C  48.90500 27.29800 26.64000
C  49.38100 28.54100 27.21400
C  49.12200 28.54400 28.61900
C  48.60900 27.23600 28.86400
C  50.06600 29.66200 26.37000
C  49.38200 29.26900 29.82100
O  50.02800 30.26500 30.09800
C  48.73700 28.28300 30.90800
C  49.64300 28.03400 32.08000
O  50.66600 27.40700 32.07900
O  49.26500 28.88600 33.06900
C  49.95400 28.86900 34.36700
H  45.84800 21.89000 30.85200
H  46.60700 21.71700 24.50700
H  49.29500 27.51000 24.63800
H  48.17500 25.85800 32.80500
H  45.72900 24.07600 32.52300
H  48.48200 23.00100 32.43400
H  47.01500 22.45600 33.42200
H  48.08400 23.89900 33.86500
H  45.52600 27.14200 32.13100
H  46.72200 27.54900 33.23900
H  45.96800 25.16400 34.41300
H  44.43900 25.97600 34.01900
H  44.47700 19.35400 29.21100
H  45.31800 20.04000 30.46000
H  46.26100 18.87300 29.35600
H  44.10900 18.18400 26.94600
H  45.84700 17.98700 27.47500
H  45.35800 17.63100 25.80500
H  47.08800 23.61400 22.87100
H  49.32900 25.47900 23.16500
H  49.44000 22.18100 23.91900
H  49.96700 23.26900 22.50000
H  48.72500 22.08000 22.43900
H  46.91000 26.89600 23.41600
H  46.36800 25.59200 22.59200
H  47.69800 28.04700 21.66200
H  47.35900 26.73600 20.54800
H  48.89000 26.93500 21.35800
H  50.09700 30.55000 27.00200
H  49.42000 29.87500 25.51800
H  51.02700 29.30600 26.00100
H  47.93000 28.86900 31.34900
H  49.24700 28.70200 35.18000
H  50.25600 29.90000 34.55000
H  50.81100 28.19500 34.35700

