158

Mg 44.54900 4.36500 47.83900
C  42.49200 7.12800 47.35200
C  41.83400 2.29800 47.73800
C  46.60100 1.71800 48.02700
C  47.28900 6.53400 47.44000
N  42.43800 4.72500 47.42100
C  41.78700 5.88700 47.39300
C  40.37400 5.72700 47.05100
C  40.12200 4.22900 47.40800
C  41.60200 3.68200 47.69600
C  39.23700 4.08800 48.66200
C  40.06500 6.10600 45.55500
C  39.12200 7.36900 45.33000
H  39.52600 8.06700 44.06700
N  44.23200 2.28800 47.95700
C  43.07600 1.63100 47.86300
C  43.31900 0.22800 47.95600
C  44.67000 0.03400 48.17800
C  45.22700 1.33200 48.06700
C  42.28100 -0.90400 47.83000
C  45.39300 -1.31100 48.42600
O  44.75500 -2.36100 48.49100
C  46.85100 -1.43600 48.63900
N  46.66800 4.22800 47.76700
C  47.17500 2.98700 47.88800
C  48.78700 3.09600 47.93300
C  49.03700 4.60700 47.69600
C  47.62600 5.20200 47.65000
C  49.59800 2.63200 49.12800
C  50.06700 5.07300 46.61300
C  51.20600 6.02400 47.12400
N  44.90000 6.46400 47.49000
C  46.08900 7.20000 47.48700
C  45.76500 8.63900 47.45500
C  44.33800 8.68400 47.34100
C  43.92200 7.32600 47.36700
C  46.76000 9.79700 47.42800
C  43.18500 9.55800 47.29900
O  43.01300 10.78800 47.24400
C  41.96400 8.57300 47.39200
C  41.29700 8.83600 48.70200
O  41.36300 8.17200 49.69000
O  40.40000 9.89800 48.57000
C  39.41800 9.97000 49.59900
H  40.94800 1.66000 47.71900
H  47.36800 0.95200 48.15600
H  48.11800 7.23500 47.55800
H  39.87800 6.36300 47.78400
H  39.50700 3.68800 46.68900
H  38.54100 4.90400 48.85300
H  39.83700 3.86600 49.54500
H  38.59800 3.22400 48.47800
H  39.48100 5.29900 45.11100
H  40.96800 6.39200 45.01600
H  39.25200 7.96500 46.23400
H  38.07400 7.06900 45.32800
H  42.47700 -1.48700 46.93000
H  41.35200 -0.37100 47.62700
H  42.14000 -1.52000 48.71900
H  47.28000 -1.38000 47.63800
H  46.97400 -2.42200 49.08700
H  47.08700 -0.71200 49.42000
H  49.16500 2.53800 47.07600
H  49.24400 5.07800 48.65700
H  50.39000 3.25900 49.53900
H  50.14500 1.77200 48.74200
H  48.88400 2.34500 49.90100
H  49.53100 5.46000 45.74700
H  50.55600 4.14600 46.31300
H  52.14600 5.51800 47.34500
H  51.00900 6.40200 48.12800
H  51.41800 6.87600 46.47800
H  47.66000 9.66000 46.82800
H  47.20500 9.84500 48.42200
H  46.24900 10.72100 47.15800
H  41.37900 8.87500 46.52300
H  39.79700 10.04200 50.61800
H  38.68700 9.18400 49.41100
H  38.86700 10.90200 49.46900
Mg 34.98700 3.55800 30.42600
C  33.08900 4.56000 32.95300
C  37.81500 3.58900 32.42600
C  37.06200 2.91100 27.70400
C  32.30200 3.91100 28.17600
N  35.38300 3.90500 32.40600
C  34.41000 4.28400 33.31600
C  35.04000 4.44400 34.75000
C  36.53900 4.43100 34.42400
C  36.59900 4.04400 32.93400
C  37.31300 5.72000 34.78300
C  34.51800 3.33400 35.64100
C  33.98100 3.72600 37.05300
H  34.70100 4.95600 37.66900
N  37.08700 3.02100 30.23400
C  38.07400 3.02900 31.14500
C  39.36700 2.56800 30.62700
C  39.12400 2.39500 29.25600
C  37.67900 2.76700 29.01800
C  40.58600 2.32700 31.51000
C  40.14100 2.00300 28.20900
O  39.91100 2.02100 27.02000
C  41.52100 1.60500 28.52000
N  34.71100 3.42800 28.32000
C  35.72400 3.18700 27.40200
C  35.24000 3.24100 25.94700
C  33.68500 3.15700 26.17700
C  33.53600 3.50700 27.64700
C  35.62500 4.55900 25.14800
C  33.09300 1.79200 25.78800
C  31.57100 1.73700 25.43100
N  33.13200 4.18500 30.51200
C  32.13700 4.29800 29.52400
C  30.95800 4.72900 30.16600
C  31.29600 4.99300 31.52900
C  32.61400 4.55400 31.63900
C  29.66500 4.91400 29.46000
C  30.80200 5.36300 32.82900
O  29.73600 5.77000 33.24100
C  31.93900 5.12100 33.82400
C  32.23100 6.47900 34.42000
O  32.75500 7.49200 33.90200
O  31.75900 6.46300 35.67200
C  31.68900 7.78300 36.34300
H  38.64600 3.59800 33.13400
H  37.51700 2.57000 26.77200
H  31.43100 3.88000 27.51700
H  34.69100 5.41300 35.10800
H  37.04500 3.67200 35.02100
H  37.52200 6.41500 33.97000
H  38.24900 5.46900 35.28300
H  36.79000 6.21600 35.60000
H  35.25700 2.53600 35.72000
H  33.74600 2.80800 35.07900
H  34.01100 2.95400 37.82200
H  32.92700 3.93500 36.87100
H  40.49700 1.31000 31.89200
H  40.66500 3.07700 32.29600
H  41.48300 2.45600 30.90500
H  41.99000 2.55000 28.79500
H  42.02500 1.17100 27.65600
H  41.54800 0.89200 29.34500
H  35.76000 2.39900 25.49200
H  33.13400 3.88300 25.57900
H  34.81000 5.11800 24.68800
H  36.37800 4.26400 24.41800
H  36.13500 5.21300 25.85600
H  33.31100 1.11600 26.61500
H  33.60600 1.46500 24.88400
H  31.33600 2.79900 25.35900
H  31.07800 1.28500 26.29200
H  31.38000 1.14000 24.53900
H  29.24300 3.91400 29.35400
H  29.85100 5.45300 28.53100
H  28.99600 5.43900 30.14300
H  31.63100 4.41300 34.59300
H  32.09100 7.53500 37.32600
H  30.65800 8.11300 36.47400
H  32.23800 8.58500 35.85100

