158

Mg 42.69700 41.80000 25.99200
C  41.56000 44.18700 28.19000
C  43.61500 39.74400 28.61400
C  43.53100 39.47800 23.75600
C  42.13000 44.11300 23.26600
N  42.66100 41.97800 28.12300
C  42.10600 43.05300 28.78800
C  42.04100 42.70600 30.24100
C  42.93200 41.41100 30.46700
C  43.13700 40.99000 28.97500
C  44.07600 41.37600 31.45500
C  40.59900 42.54800 30.79300
C  40.42900 43.29800 32.16700
H  39.81200 42.61800 33.32900
N  43.45300 39.86000 26.16900
C  43.74400 39.17200 27.34900
C  44.16400 37.79300 27.04500
C  44.16300 37.69100 25.58900
C  43.72300 39.03900 25.10000
C  44.51700 36.81800 28.12100
C  44.50400 36.56000 24.66900
O  44.63700 36.56500 23.42800
C  44.87100 35.22400 25.23600
N  42.94500 41.84400 23.81700
C  43.25200 40.72000 23.16700
C  43.12700 40.81600 21.63300
C  42.54800 42.29500 21.52200
C  42.63800 42.82100 22.97000
C  44.42000 40.56300 20.82900
C  41.22300 42.29400 20.87500
C  40.14500 41.32300 21.37900
N  42.13800 43.79700 25.70900
C  42.05200 44.63100 24.55400
C  41.66100 45.98500 25.05000
C  41.32000 45.81100 26.44300
C  41.69300 44.48600 26.79500
C  41.38000 47.21800 24.30100
C  40.88500 46.49300 27.67400
O  40.60700 47.63800 27.82600
C  41.00500 45.41000 28.78600
C  41.93300 45.98000 29.84600
O  43.14100 45.88600 29.86200
O  41.10300 46.59600 30.80500
C  41.76100 46.86800 32.13700
H  43.78200 39.06300 29.45100
H  43.78500 38.70200 23.03000
H  41.87600 44.81000 22.46500
H  42.40800 43.56900 30.79700
H  42.25800 40.68700 30.92300
H  44.29700 42.35700 31.87700
H  44.95400 41.00400 30.92500
H  43.93500 40.65900 32.26400
H  40.27300 41.51300 30.90200
H  39.86500 42.91700 30.07700
H  39.73700 44.11500 31.96400
H  41.38700 43.70600 32.49000
H  43.76400 36.03900 28.23800
H  44.59300 37.29200 29.10000
H  45.37100 36.20300 27.84000
H  44.86100 34.34200 24.59500
H  44.13800 34.97500 26.00300
H  45.86000 35.24600 25.69300
H  42.34600 40.13200 21.30300
H  43.21700 42.73600 20.78300
H  44.40500 41.25400 19.98700
H  44.44900 39.58100 20.35600
H  45.31000 40.57400 21.45800
H  41.48600 42.15800 19.82600
H  40.68100 43.24000 20.88900
H  39.20700 41.87700 21.40100
H  40.46300 41.00900 22.37300
H  40.03700 40.44500 20.74100
H  40.56200 47.05200 23.59900
H  42.23400 47.59200 23.73700
H  40.86500 47.94800 24.92600
H  40.02700 45.07300 29.13000
H  40.97900 47.29700 32.76400
H  42.60000 47.54900 31.99500
H  42.03900 45.91100 32.57800
Mg 36.24000 49.69500 24.48300
C  36.27300 47.80700 27.23100
C  35.07000 52.37800 26.16400
C  35.73400 51.29100 21.47300
C  37.26600 46.75700 22.61900
N  35.59600 50.00400 26.36900
C  35.83100 49.09300 27.41600
C  35.57900 49.74700 28.76800
C  35.07700 51.14900 28.42500
C  35.26700 51.16700 26.92100
C  33.65800 51.42000 28.87400
C  36.81600 49.75000 29.74400
C  36.63300 49.30000 31.22900
H  35.19900 49.34300 31.74300
N  35.56000 51.61600 23.89000
C  35.22600 52.63100 24.75800
C  34.94900 53.85900 23.98300
C  35.09800 53.54700 22.57200
C  35.43200 52.08400 22.57600
C  34.64600 55.12300 24.71500
C  34.99400 54.48400 21.32700
O  35.10100 54.04600 20.19600
C  34.71000 55.89000 21.47000
N  36.48400 49.06600 22.40000
C  36.21200 49.93300 21.35500
C  36.39800 49.28200 19.92100
C  36.99700 47.89300 20.34100
C  36.80300 47.83700 21.85000
C  35.13700 49.30100 19.03700
C  38.49200 47.55500 19.90600
C  39.65800 48.10300 20.73500
N  36.58600 47.56600 24.79200
C  37.12600 46.57000 23.96700
C  37.46900 45.38700 24.80400
C  37.12200 45.78900 26.11700
C  36.56900 47.11400 26.03000
C  38.08700 44.08400 24.31500
C  37.18400 45.51200 27.50200
O  37.61600 44.50700 28.00600
C  36.63700 46.74900 28.35600
C  35.47800 46.35000 29.16600
O  34.33500 46.36300 28.83500
O  36.02800 45.87900 30.31600
C  35.02100 45.32200 31.28300
H  34.74500 53.24800 26.73800
H  35.70400 51.85900 20.54100
H  37.58000 45.92500 21.98400
H  34.79000 49.17300 29.25500
H  35.68600 51.96600 28.81000
H  33.60600 52.29900 29.51700
H  33.23000 50.52800 29.33100
H  33.09600 51.50700 27.94400
H  37.10800 50.79700 29.82000
H  37.60000 49.11000 29.33700
H  37.20700 49.97700 31.86300
H  36.95000 48.25800 31.26500
H  33.63400 55.42700 24.45000
H  35.28000 55.93300 24.35400
H  34.67700 55.05500 25.80200
H  35.73000 56.27500 21.47400
H  34.33800 56.28200 22.41700
H  34.22100 56.28700 20.58000
H  37.16000 49.85500 19.39200
H  36.41500 47.08800 19.89100
H  34.92700 50.20600 18.46800
H  34.32900 49.09200 19.73800
H  35.23900 48.47200 18.33600
H  38.66400 48.00300 18.92700
H  38.62000 46.47600 19.81500
H  40.25600 48.74200 20.08500
H  40.32300 47.33900 21.13800
H  39.40300 48.78600 21.54500
H  39.16900 44.09500 24.45300
H  37.78100 43.88800 23.28800
H  37.71500 43.34700 25.02700
H  37.45400 47.13900 28.96400
H  34.02900 45.11100 30.88500
H  35.00700 46.07800 32.06800
H  35.29000 44.35900 31.71800

