158

Mg 55.81600 24.94900 44.52600
C  53.25200 26.83800 43.09200
C  54.67900 22.08800 42.88000
C  58.72900 23.45000 45.24200
C  57.16600 27.90900 45.82000
N  54.20400 24.50500 43.06800
C  53.24300 25.45100 42.61400
C  52.30100 24.75500 41.60700
C  52.61900 23.24200 41.90000
C  53.89800 23.24100 42.62600
C  51.52600 22.50900 42.82900
C  52.60100 25.20500 40.12500
C  51.52900 24.84300 39.11200
H  51.94300 24.02900 37.85700
N  56.54300 23.01400 44.25700
C  55.84100 21.94400 43.67000
C  56.69000 20.76600 43.85200
C  57.81200 21.19900 44.57700
C  57.77800 22.63100 44.67600
C  56.24600 19.32800 43.45300
C  58.92300 20.31600 45.18900
O  58.88700 19.09400 45.02300
C  60.03500 20.80500 45.93300
N  57.76100 25.62500 45.30500
C  58.77500 24.74600 45.53400
C  59.91600 25.39000 46.32500
C  59.45100 26.88900 46.32100
C  58.02800 26.82800 45.79500
C  60.24800 24.73200 47.61600
C  60.36200 27.87000 45.44100
C  60.60000 29.19200 46.11000
N  55.37700 27.04000 44.53000
C  55.88400 28.06700 45.23400
C  55.00700 29.19400 45.11500
C  53.99200 28.81900 44.25200
C  54.28100 27.50000 43.88100
C  55.23700 30.45900 45.88600
C  52.76700 29.24200 43.68500
O  52.20300 30.31900 43.89700
C  52.15300 27.96500 42.94100
C  51.96800 28.34000 41.56200
O  52.73200 29.04600 40.94900
O  50.80300 27.79200 40.98300
C  50.34900 28.27600 39.68700
H  54.23100 21.21300 42.40500
H  59.74800 23.08100 45.37900
H  57.61000 28.75200 46.35300
H  51.26100 24.92000 41.88900
H  52.69800 22.60700 41.01700
H  50.64400 23.14500 42.76200
H  51.81200 22.49700 43.88100
H  51.41100 21.45500 42.57600
H  53.54200 24.74600 39.82500
H  52.69800 26.27000 39.91600
H  51.15300 25.79800 38.74600
H  50.66400 24.33800 39.54100
H  57.09300 18.77700 43.04400
H  55.57600 19.51600 42.61400
H  55.93200 18.73300 44.31000
H  60.32100 20.06900 46.68400
H  59.76100 21.63300 46.58600
H  60.83800 21.13600 45.27400
H  60.85000 25.37300 45.76400
H  59.38800 27.28600 47.33400
H  60.67200 25.48500 48.28100
H  61.07000 24.04600 47.41500
H  59.33000 24.31500 48.02900
H  59.74600 28.18500 44.59900
H  61.24700 27.37700 45.03800
H  61.67700 29.30800 46.22500
H  60.08600 29.31000 47.06400
H  60.13400 29.96700 45.50100
H  55.86100 30.18800 46.73700
H  54.29500 30.95000 46.13000
H  55.77000 31.07900 45.16500
H  51.13400 27.75900 43.26800
H  51.12800 28.52000 38.96500
H  49.64400 29.06600 39.94500
H  49.78300 27.45900 39.24000
Mg 26.74000 49.29100 26.51900
C  24.72200 50.81300 28.97800
C  28.88400 48.42100 29.02900
C  28.74900 48.25100 24.18000
C  24.56700 50.86400 24.13800
N  26.80200 49.69500 28.66700
C  25.79100 50.10100 29.43000
C  25.97600 49.93700 30.96800
C  27.38800 49.33100 30.95300
C  27.70800 49.07800 29.44500
C  28.58300 50.09800 31.59500
C  24.86200 49.00600 31.60000
C  24.09300 49.47700 32.89000
H  23.93500 48.48800 34.06400
N  28.58800 48.34100 26.63000
C  29.32800 48.05700 27.73300
C  30.59000 47.41400 27.31000
C  30.52900 47.34500 25.86400
C  29.28300 48.01900 25.46400
C  31.64000 46.89300 28.21900
C  31.54300 46.78100 24.95200
O  31.39400 46.88900 23.74800
C  32.76600 46.00600 25.41700
N  26.62200 49.49000 24.43700
C  27.68700 48.95700 23.71000
C  27.50200 49.25200 22.21500
C  26.05300 49.83500 22.20900
C  25.67800 50.09700 23.66700
C  28.51800 50.27300 21.57300
C  25.06600 48.90100 21.53500
C  24.14200 47.98000 22.37800
N  25.03400 50.64100 26.47000
C  24.32500 51.19300 25.48800
C  23.24800 52.03600 26.03600
C  23.30800 51.74200 27.41700
C  24.43700 51.00900 27.62200
C  22.17200 52.86900 25.28300
C  22.65100 52.04000 28.67300
O  21.59400 52.68300 28.89900
C  23.52200 51.38500 29.74800
C  23.99400 52.44600 30.73200
O  24.79100 53.32300 30.52100
O  23.36600 52.26800 31.93700
C  23.56800 53.33800 32.91200
H  29.60200 48.13500 29.80100
H  29.22300 47.78800 23.31200
H  23.76500 51.19800 23.47700
H  25.99900 50.92900 31.42000
H  27.29100 48.36000 31.43700
H  29.42000 50.46400 31.00000
H  29.15500 49.53000 32.32900
H  28.21000 50.97300 32.12700
H  25.42100 48.09500 31.81300
H  24.20600 48.80900 30.75200
H  23.11800 49.88300 32.62000
H  24.67600 50.29300 33.31800
H  31.85500 45.82400 28.22500
H  31.37700 47.11400 29.25400
H  32.51800 47.49000 27.97600
H  33.41300 46.79500 25.80200
H  33.18500 45.58400 24.50300
H  32.65200 45.20800 26.15000
H  27.60500 48.27200 21.75000
H  26.06300 50.82400 21.75200
H  29.28000 50.45000 22.33200
H  27.88300 51.07600 21.19600
H  28.95500 49.75200 20.72100
H  25.54000 48.31400 20.74800
H  24.37000 49.55600 21.01100
H  24.48200 47.70300 23.37500
H  24.22000 47.04400 21.82500
H  23.14100 48.41100 22.36400
H  21.98500 53.73600 25.91700
H  21.29900 52.25000 25.07700
H  22.62700 53.30100 24.39200
H  22.98000 50.58100 30.24700
H  23.46500 54.35600 32.53500
H  24.56600 53.21800 33.33400
H  22.85500 53.18400 33.72200

