158

Mg 2.13000 -2.05600 43.80900
C  5.57000 -0.91100 43.20600
C  1.09200 0.65400 42.01400
C  -0.81800 -3.49300 43.54500
C  3.48600 -4.95300 45.17200
N  3.31400 -0.44600 42.53400
C  4.64700 -0.02000 42.65600
C  4.88300 1.38600 42.04000
C  3.38600 1.88400 41.90900
C  2.51300 0.63700 42.17300
C  3.05900 2.95800 42.99600
C  5.64000 1.31300 40.64900
C  6.37000 2.63500 40.35900
H  6.38700 3.19100 38.94300
N  0.37400 -1.46100 42.91200
C  0.09900 -0.28000 42.31600
C  -1.34900 -0.15300 42.11700
C  -1.94000 -1.34000 42.62100
C  -0.74100 -2.17100 43.01100
C  -2.02600 0.92000 41.22000
C  -3.43200 -1.65000 42.56300
O  -4.15000 -0.85800 42.01000
C  -4.05500 -2.85100 43.11200
N  1.47000 -3.96600 44.25300
C  0.14100 -4.29600 44.20700
C  -0.16100 -5.70400 44.71600
C  1.17600 -6.11000 45.38200
C  2.12000 -4.94300 44.91600
C  -1.38000 -6.07100 45.54800
C  1.78700 -7.50700 44.96500
C  2.51200 -8.15100 46.21200
N  4.14200 -2.83400 44.17500
C  4.47400 -4.00400 44.79400
C  5.89700 -4.10400 44.75600
C  6.39400 -2.91700 44.25700
C  5.24100 -2.19900 43.79700
C  6.73800 -5.16100 45.30400
C  7.60600 -2.13200 44.04800
O  8.76300 -2.33800 44.39800
C  7.12400 -0.81200 43.29900
C  7.51200 0.36900 44.12900
O  7.23800 0.57300 45.27200
O  8.19600 1.30300 43.33800
C  8.47700 2.65900 43.82000
H  0.77400 1.64000 41.66900
H  -1.72100 -4.08300 43.37600
H  3.89000 -5.90600 45.51800
H  5.47900 2.02900 42.68800
H  3.31300 2.34100 40.92200
H  2.51000 2.53400 43.83700
H  2.40400 3.73200 42.59700
H  3.93500 3.32700 43.53000
H  4.96400 1.12000 39.81600
H  6.27600 0.43000 40.59700
H  7.39300 2.62500 40.73700
H  5.92700 3.37500 41.02500
H  -2.42700 0.46500 40.31400
H  -1.23900 1.64400 41.01000
H  -2.80900 1.51400 41.69300
H  -5.13900 -2.86700 43.22300
H  -3.72700 -3.11400 44.11800
H  -3.78800 -3.74600 42.55000
H  -0.29000 -6.35600 43.85200
H  1.06000 -5.98100 46.45800
H  -2.09400 -6.68700 45.00100
H  -1.91400 -5.18300 45.88600
H  -1.25100 -6.66300 46.45400
H  2.42800 -7.37100 44.09500
H  1.04200 -8.21000 44.59200
H  1.97800 -9.04900 46.52300
H  2.69100 -7.44700 47.02500
H  3.47500 -8.53900 45.88100
H  7.65400 -4.83300 45.79400
H  7.08400 -5.68500 44.41300
H  6.20400 -5.94500 45.84100
H  7.63700 -0.71100 42.34300
H  7.77400 3.02000 44.57100
H  8.49900 3.43800 43.05800
H  9.47600 2.48700 44.22000
Mg 48.37400 34.80000 26.80500
C  46.49100 33.32000 29.49100
C  48.70500 37.60900 28.70800
C  49.87300 36.15800 24.18800
C  47.46900 32.07600 24.99900
N  47.41300 35.40100 28.82200
C  46.90100 34.64600 29.78000
C  47.06400 35.32900 31.17200
C  47.39200 36.77600 30.72900
C  47.88600 36.59400 29.34000
C  46.23700 37.80000 30.99000
C  48.16600 34.47800 31.94000
C  47.98200 34.39800 33.45700
H  46.82000 35.23700 34.02700
N  49.14300 36.65700 26.51700
C  49.27000 37.63500 27.41100
C  50.04300 38.74700 26.80200
C  50.38500 38.29900 25.46800
C  49.77600 36.96800 25.36700
C  50.36200 40.14700 27.49400
C  51.27200 38.97000 24.38200
O  51.51300 38.67100 23.22500
C  52.03000 40.22300 24.82000
N  48.52400 34.30600 24.88100
C  49.24000 34.99700 23.91600
C  49.11100 34.25000 22.60100
C  48.67500 32.85400 22.92900
C  48.17700 33.02700 24.33800
C  48.32700 35.02100 21.59300
C  49.76600 31.75700 22.98700
C  50.53200 31.50700 21.66100
N  47.19900 32.99700 27.08800
C  46.93400 31.96800 26.24200
C  46.15000 30.92000 26.89100
C  45.93800 31.38800 28.13300
C  46.61400 32.67400 28.23500
C  45.74800 29.59000 26.33100
C  45.27700 31.08500 29.40100
O  44.57200 30.15300 29.66000
C  45.61300 32.30000 30.35700
C  46.28800 31.75100 31.51700
O  47.41100 31.28700 31.58200
O  45.31300 31.67900 32.51700
C  45.72600 31.00800 33.74300
H  48.93800 38.55700 29.19700
H  50.35200 36.73500 23.39400
H  47.16400 31.24700 24.35600
H  46.03700 35.23300 31.52300
H  48.13000 37.11000 31.45700
H  45.31000 37.46000 31.45300
H  45.92900 38.15500 30.00700
H  46.63700 38.68800 31.48000
H  49.03900 35.05700 31.63900
H  48.26400 33.46100 31.56000
H  48.92700 34.79100 33.83300
H  47.91400 33.34700 33.73900
H  51.40200 40.45500 27.37800
H  50.22000 40.12700 28.57400
H  49.72600 40.98900 27.22000
H  52.91500 40.40100 24.21000
H  52.59700 40.00400 25.72500
H  51.34900 41.06600 24.93700
H  50.11600 34.16200 22.18800
H  47.82600 32.57800 22.30300
H  47.88800 35.86000 22.13300
H  47.57900 34.35700 21.16000
H  48.80200 35.44700 20.71000
H  49.26900 30.86600 23.37100
H  50.51800 32.00200 23.73800
H  50.65500 30.42800 21.57100
H  51.54100 31.91900 21.64800
H  49.92600 31.90700 20.84900
H  46.47600 29.38300 25.54700
H  44.69600 29.54500 26.05200
H  45.83300 28.92400 27.19000
H  44.72300 32.78800 30.75400
H  45.40400 29.98200 33.56600
H  45.12700 31.45000 34.53900
H  46.79400 31.12600 33.92600

