158

Mg 1.24900 7.28000 26.57700
C  1.95600 9.38300 29.43300
C  0.99200 4.68600 28.90600
C  0.85700 5.33700 24.04500
C  1.86700 10.05200 24.62400
N  1.36400 7.11000 28.97500
C  1.66000 8.05100 29.88600
C  1.68200 7.45800 31.35500
C  1.57700 5.92400 31.05200
C  1.30500 5.91200 29.54200
C  2.82600 5.05000 31.35500
C  0.52300 8.06400 32.16000
C  0.69300 8.40800 33.62900
H  1.75900 7.62100 34.36900
N  0.79600 5.32800 26.48600
C  0.76100 4.40700 27.55300
C  0.35000 3.18100 26.98700
C  0.30000 3.30400 25.56700
C  0.66100 4.68100 25.29900
C  0.25700 1.92800 27.80000
C  -0.10200 2.36600 24.52100
O  -0.30800 2.68100 23.33300
C  -0.42400 0.95300 24.79700
N  1.67900 7.56500 24.61300
C  1.28100 6.58100 23.71100
C  1.39200 7.16400 22.22900
C  1.48800 8.66800 22.55200
C  1.66700 8.81800 24.09200
C  2.63100 6.70200 21.36300
C  0.14900 9.44200 22.15200
C  0.42300 10.69200 21.26200
N  1.84300 9.32000 26.89700
C  1.87900 10.34200 25.98700
C  2.14000 11.61900 26.63800
C  2.17000 11.27900 28.01000
C  2.02900 9.84900 28.08600
C  2.14700 12.97300 25.98200
C  2.27400 11.86100 29.35200
O  2.34500 13.04300 29.63600
C  2.17500 10.53900 30.33400
C  3.28600 10.49200 31.31100
O  4.29300 9.76100 31.28600
O  2.93900 11.36000 32.35300
C  3.92400 11.44100 33.41900
H  0.99300 3.79800 29.54100
H  0.54800 4.77800 23.15900
H  1.97900 10.95100 24.01500
H  2.60900 7.74800 31.85000
H  0.75000 5.51000 31.62900
H  2.64600 4.20500 32.02000
H  3.64900 5.60700 31.80400
H  3.28500 4.63700 30.45700
H  -0.32600 7.38700 32.06200
H  0.16000 8.95200 31.64300
H  -0.22900 8.26100 34.19200
H  1.07900 9.42100 33.51700
H  -0.75600 1.52500 27.79600
H  0.51100 1.89400 28.86000
H  0.83400 1.19600 27.23500
H  -0.71500 0.34900 23.93900
H  -1.32000 0.95400 25.41700
H  0.44700 0.42900 25.19100
H  0.54400 6.82900 21.63300
H  2.37400 9.19200 22.19400
H  3.05100 7.58000 20.87200
H  2.41100 5.86700 20.69800
H  3.43300 6.52700 22.08000
H  -0.38500 9.79700 23.03300
H  -0.49400 8.77700 21.57600
H  0.07300 10.41300 20.26800
H  1.42000 11.12000 21.16400
H  -0.25000 11.49700 21.55800
H  2.08000 12.92400 24.89500
H  3.03700 13.47000 26.36900
H  1.20300 13.39000 26.33100
H  1.25000 10.69800 30.88900
H  4.86000 11.66300 32.90500
H  4.20300 10.51500 33.92100
H  3.53300 12.20700 34.08900
Mg 8.86600 48.45100 27.14100
C  7.18900 48.16200 30.26800
C  11.82100 49.01700 29.04300
C  10.44900 49.28400 24.30700
C  5.76500 48.55300 25.49200
N  9.38400 48.63000 29.49700
C  8.54200 48.37700 30.55200
C  9.24000 48.50000 31.90700
C  10.73200 49.01700 31.44300
C  10.63400 48.94900 29.93900
C  11.19100 50.38000 31.99600
C  9.35700 47.15800 32.65900
C  10.16100 47.18800 33.97700
H  9.83700 46.26900 35.14400
N  10.83900 48.84900 26.69000
C  11.90000 49.07700 27.57500
C  13.14500 49.38900 26.81100
C  12.78100 49.32100 25.45600
C  11.29600 49.14200 25.40600
C  14.48600 49.63400 27.52600
C  13.68500 49.43000 24.26000
O  13.21800 49.22800 23.11000
C  15.16300 49.56600 24.38400
N  8.23100 48.76300 25.16700
C  9.05800 49.16900 24.19000
C  8.42100 49.47100 22.85200
C  6.89700 49.03600 23.24400
C  6.91900 48.70500 24.74400
C  8.59700 50.89700 22.38200
C  6.31800 47.89600 22.26600
C  5.80400 48.45600 20.89500
N  6.86800 48.29300 27.69300
C  5.71100 48.27900 26.87900
C  4.57400 47.94800 27.74500
C  5.13800 47.90200 29.02900
C  6.50200 48.18000 28.98100
C  3.14200 47.67800 27.25900
C  4.81200 47.64700 30.46400
O  3.71400 47.55100 30.99000
C  6.08400 47.73800 31.30000
C  6.29400 46.40200 31.85500
O  6.85000 45.39500 31.30200
O  5.74000 46.39200 33.13700
C  5.86500 45.16500 33.84300
H  12.79700 49.05900 29.53000
H  10.95600 49.60600 23.39500
H  4.82200 48.26000 25.02500
H  8.65600 49.22700 32.47100
H  11.48900 48.28600 31.72400
H  11.11500 50.25000 33.07500
H  10.51100 51.19100 31.73400
H  12.11600 50.74000 31.54600
H  9.71500 46.44000 31.92200
H  8.37100 46.87900 33.03000
H  10.26500 48.23300 34.26800
H  11.12600 46.77400 33.68500
H  15.18200 48.85400 27.21500
H  14.55500 49.78200 28.60300
H  14.88700 50.58700 27.18000
H  15.66900 48.87000 25.05400
H  15.50400 50.59200 24.52200
H  15.54600 49.25400 23.41300
H  8.87900 48.89300 22.04900
H  6.19600 49.86900 23.18700
H  9.19000 50.86100 21.46800
H  9.15500 51.42400 23.15600
H  7.67800 51.44500 22.17900
H  5.57400 47.31500 22.81000
H  7.10800 47.21100 21.95700
H  5.54100 49.51100 20.81200
H  4.86300 47.91900 20.78000
H  6.35900 48.10400 20.02600
H  2.46100 47.44400 28.07700
H  3.08900 46.93700 26.46000
H  2.65600 48.50600 26.74200
H  6.19600 48.36700 32.18400
H  5.13200 44.40900 33.56000
H  5.69700 45.19200 34.91900
H  6.87500 44.78300 33.69000

