158

Mg 47.86000 35.39400 27.92200
C  45.99800 33.54800 30.24300
C  47.96700 38.03700 30.18500
C  49.10600 37.23900 25.43300
C  47.18900 32.79400 25.68300
N  47.00100 35.75400 29.91100
C  46.50000 34.74100 30.74200
C  46.59200 35.24600 32.22700
C  46.81600 36.75300 32.09900
C  47.26500 36.90400 30.66100
C  45.55800 37.66100 32.39500
C  47.71000 34.54300 33.01000
C  47.57600 34.46800 34.53100
H  46.47400 35.27800 35.21100
N  48.57400 37.27900 27.88100
C  48.46500 38.24700 28.92800
C  49.13600 39.43500 28.46800
C  49.54000 39.16600 27.12200
C  49.11700 37.83100 26.76200
C  49.43200 40.70000 29.32500
C  50.33700 40.08300 26.24200
O  50.76000 39.71500 25.13300
C  50.65500 41.49900 26.63300
N  48.01100 35.11300 25.84300
C  48.60500 35.96000 25.01700
C  48.89700 35.45700 23.63300
C  48.42400 33.99200 23.74100
C  47.82300 33.94600 25.18400
C  48.34000 36.27100 22.46900
C  49.48000 32.93100 23.38600
C  50.26500 32.37000 24.58400
N  46.83200 33.49400 27.91300
C  46.65500 32.59400 26.92200
C  45.79300 31.51500 27.38700
C  45.55400 31.83100 28.71100
C  46.16200 33.09000 28.96200
C  45.35300 30.29900 26.67000
C  44.85500 31.37900 29.88300
O  44.18000 30.36400 30.08200
C  45.00700 32.56200 30.88600
C  45.43500 32.01700 32.16600
O  46.44300 31.38200 32.43800
O  44.43500 32.25900 33.08900
C  44.36500 31.26700 34.13400
H  47.90100 38.90300 30.84700
H  49.58800 37.81700 24.64100
H  47.00900 32.01900 24.93500
H  45.64000 34.99200 32.69400
H  47.61800 37.12400 32.73700
H  45.48300 38.33200 31.53900
H  45.67100 38.18500 33.34400
H  44.67700 37.02300 32.32600
H  48.62400 35.09800 32.79800
H  47.85500 33.52700 32.64200
H  48.53700 34.79500 34.92700
H  47.49600 33.40700 34.76900
H  50.51800 40.75900 29.40700
H  49.02700 40.66500 30.33700
H  49.01200 41.57600 28.83000
H  49.80400 42.18100 26.65700
H  51.37900 41.82000 25.88400
H  51.23200 41.69400 27.53600
H  49.97800 35.51900 23.51600
H  47.63100 33.77700 23.02600
H  47.66400 37.05200 22.81500
H  47.80300 35.56800 21.83300
H  49.22900 36.60400 21.93300
H  50.15900 33.39900 22.67400
H  49.06700 32.12700 22.77800
H  51.22500 32.04500 24.18200
H  49.69800 31.61600 25.13000
H  50.38600 33.15500 25.33100
H  44.70500 29.74100 27.34600
H  46.24300 29.73900 26.38200
H  44.87700 30.57600 25.72900
H  44.05400 33.08900 30.86900
H  44.57100 31.81800 35.05200
H  44.92300 30.33100 34.15700
H  43.33700 30.91300 34.21000
Mg 9.37200 48.17900 26.72000
C  7.39400 48.13400 29.57700
C  11.99200 49.27900 28.63200
C  11.21300 48.29500 23.90600
C  6.60300 47.68600 24.78900
N  9.62000 48.69500 28.97100
C  8.65600 48.56000 29.91500
C  9.29400 48.84100 31.32900
C  10.84100 49.16800 30.96100
C  10.86700 49.07000 29.39400
C  11.49900 50.44800 31.57800
C  8.97000 47.71200 32.27700
C  10.02000 47.45200 33.23400
H  9.50900 46.94100 34.63400
N  11.36000 48.62400 26.35900
C  12.24800 49.07300 27.23800
C  13.56100 49.29600 26.61100
C  13.38600 48.92900 25.24100
C  11.92200 48.62100 25.09900
C  14.80100 49.80400 27.31100
C  14.36500 48.73500 24.09400
O  14.05400 48.42800 22.93300
C  15.79500 48.79800 24.39800
N  8.99900 47.88500 24.65800
C  9.90200 48.06300 23.70900
C  9.29400 47.90800 22.27400
C  7.80900 47.54000 22.56200
C  7.77300 47.63300 24.09800
C  9.47300 49.20700 21.41600
C  7.28800 46.18500 21.87600
C  6.76400 46.33000 20.51200
N  7.45300 47.85500 27.08700
C  6.43300 47.73100 26.14400
C  5.20200 47.50900 26.86600
C  5.56800 47.54400 28.22600
C  6.94200 47.79200 28.29800
C  3.88900 47.20000 26.23500
C  5.07400 47.58700 29.58600
O  3.89600 47.52900 29.99600
C  6.20300 47.85200 30.53500
C  6.29300 46.62400 31.26400
O  6.70100 45.57400 30.87400
O  5.58800 46.81200 32.48400
C  5.28600 45.55500 33.17100
H  12.87400 49.55600 29.21400
H  11.70100 48.31600 22.93000
H  5.77400 47.64000 24.08000
H  8.80800 49.77600 31.60900
H  11.39400 48.26900 31.23500
H  11.01800 50.78800 32.49500
H  11.46000 51.25500 30.84600
H  12.53900 50.21600 31.80700
H  8.86000 46.88100 31.58100
H  8.02900 47.96600 32.76500
H  10.58600 48.35900 33.44600
H  10.69800 46.68800 32.85100
H  15.16200 50.57500 26.63000
H  15.49900 49.04600 27.66500
H  14.54800 50.34800 28.22100
H  16.41000 48.57900 23.52500
H  15.98100 48.23200 25.31000
H  16.03700 49.84800 24.56000
H  9.83000 47.11600 21.75200
H  7.18600 48.34300 22.16800
H  9.80900 48.79400 20.46500
H  10.29700 49.79300 21.82400
H  8.58900 49.83800 21.33200
H  6.50900 45.73800 22.49400
H  8.22300 45.62800 21.80200
H  6.26000 47.29500 20.44900
H  6.09200 45.51400 20.24800
H  7.62200 46.28200 19.84100
H  3.74900 46.17900 25.87900
H  3.60800 47.85400 25.40900
H  3.15200 47.41700 27.00700
H  5.90900 48.64900 31.21800
H  4.97200 45.70600 34.20400
H  6.18700 44.94600 33.24700
H  4.45200 44.97600 32.77500

