158

Mg 24.16900 -7.64000 47.09400
C  26.82800 -5.67700 46.25600
C  22.35700 -6.49100 44.48600
C  21.80600 -9.87400 47.80800
C  26.43500 -9.52500 49.28500
N  24.61600 -6.29800 45.56100
C  25.65000 -5.41100 45.46800
C  25.53700 -4.49500 44.22800
C  23.98500 -4.64700 43.87100
C  23.66400 -5.99600 44.66700
C  23.08300 -3.40800 44.12300
C  26.47900 -4.75700 43.00900
C  27.23300 -3.46300 42.53600
H  26.99500 -3.05500 41.10800
N  22.34200 -8.03000 46.30700
C  21.76500 -7.45900 45.21900
C  20.40300 -7.82100 45.14100
C  20.19600 -8.77400 46.17000
C  21.50200 -8.97300 46.82100
C  19.46200 -7.20900 44.10800
C  18.91800 -9.53800 46.42500
O  17.87600 -9.34900 45.73300
C  18.67800 -10.51300 47.62800
N  24.16100 -9.55000 48.28200
C  23.01500 -10.27900 48.37100
C  23.22000 -11.46500 49.38000
C  24.62900 -11.20800 49.96000
C  25.13600 -10.04600 49.13900
C  22.12300 -11.72300 50.40200
C  25.55900 -12.44600 49.99000
C  26.33000 -12.71200 51.36500
N  26.26500 -7.63900 47.74100
C  26.99100 -8.40000 48.56500
C  28.29300 -7.79100 48.68100
C  28.29100 -6.71900 47.81900
C  27.02700 -6.70100 47.24000
C  29.34600 -8.37400 49.55500
C  29.00500 -5.57100 47.25800
O  30.10600 -5.14600 47.47000
C  28.09600 -4.89900 46.14600
C  27.78900 -3.51900 46.55400
O  27.36200 -3.12600 47.63100
O  28.05100 -2.75500 45.52000
C  27.76000 -1.31300 45.55000
H  21.81800 -5.92900 43.72000
H  21.00700 -10.53800 48.14500
H  27.13500 -10.14800 49.84700
H  25.80500 -3.50600 44.59900
H  23.86100 -4.69600 42.78900
H  23.75500 -2.64300 44.51300
H  22.25700 -3.72500 44.75900
H  22.60100 -3.05900 43.20900
H  25.87100 -5.28500 42.27600
H  27.13900 -5.57100 43.30800
H  28.30600 -3.59200 42.68000
H  26.98100 -2.57300 43.11100
H  19.40600 -7.94200 43.30300
H  19.86400 -6.25600 43.76400
H  18.52300 -7.15300 44.65700
H  19.04700 -10.18500 48.60000
H  19.27100 -11.39600 47.38800
H  17.62700 -10.79800 47.58400
H  23.37500 -12.36100 48.78000
H  24.54600 -10.77800 50.95800
H  22.38100 -11.34400 51.39100
H  21.89800 -12.78700 50.47000
H  21.21600 -11.20800 50.08500
H  26.32600 -12.20900 49.25200
H  25.06100 -13.34700 49.63200
H  26.44400 -13.77100 51.59700
H  25.75500 -12.32300 52.20600
H  27.30900 -12.23500 51.35000
H  30.32300 -7.89000 49.52800
H  29.44700 -9.41500 49.25100
H  28.76100 -8.22600 50.46300
H  28.59600 -4.99800 45.18300
H  27.98200 -0.84700 44.59100
H  28.20800 -0.86900 46.43900
H  26.68700 -1.15400 45.44100
Mg 47.30900 24.73500 28.90600
C  48.19300 26.97000 31.37700
C  46.63100 22.38600 31.27400
C  46.89000 22.42300 26.50600
C  48.58700 26.97400 26.55900
N  47.29100 24.76700 31.11500
C  47.74500 25.75700 31.88300
C  47.50700 25.52700 33.38600
C  46.98500 24.01600 33.35900
C  46.97100 23.66900 31.79900
C  47.74200 23.05600 34.33300
C  46.59000 26.64000 34.14800
C  45.87600 26.15400 35.39400
H  45.72600 27.14700 36.57800
N  46.98300 22.63200 28.89800
C  46.57700 21.90400 29.99200
C  46.08900 20.58300 29.54500
C  46.24900 20.50300 28.14900
C  46.72300 21.86300 27.79100
C  45.54300 19.43200 30.52700
C  45.97100 19.34600 27.22100
O  46.31400 19.39600 26.01400
C  45.40900 18.12800 27.76500
N  47.69400 24.72100 26.79800
C  47.25000 23.65200 25.99400
C  47.49900 24.00300 24.45100
C  47.81800 25.50800 24.53800
C  48.06200 25.76500 26.04400
C  48.65800 23.16300 23.83000
C  46.69100 26.34000 23.88000
C  46.77500 26.57600 22.31200
N  48.20700 26.55600 28.91900
C  48.67400 27.37500 27.86700
C  49.08500 28.63600 28.36500
C  48.88400 28.53100 29.73300
C  48.37400 27.24200 30.02400
C  49.63100 29.74700 27.49300
C  49.11800 29.21500 30.97300
O  49.50100 30.35600 31.12500
C  48.70400 28.24500 32.07500
C  49.88800 28.00100 32.98800
O  50.93900 27.39200 32.67900
O  49.53200 28.47200 34.22200
C  50.48800 28.42400 35.29300
H  46.41200 21.67600 32.07500
H  46.71100 21.87200 25.58100
H  48.85300 27.66100 25.75400
H  48.41400 25.61700 33.98500
H  45.95300 23.87000 33.67900
H  48.34800 22.22600 33.97000
H  46.99400 22.61800 34.99300
H  48.35300 23.63100 35.02900
H  45.79700 27.03000 33.51000
H  47.10700 27.58000 34.34100
H  46.38200 25.26000 35.75700
H  44.88100 25.80400 35.11800
H  44.53600 19.06900 30.32500
H  45.57400 19.80600 31.55000
H  46.23800 18.59400 30.46500
H  46.14000 17.66700 28.42900
H  45.32900 17.47900 26.89300
H  44.44800 18.44100 28.17300
H  46.55800 23.61400 24.06100
H  48.76200 25.72000 24.03600
H  49.45000 23.81600 23.46300
H  48.32900 22.59300 22.96100
H  49.17200 22.52900 24.55200
H  46.57500 27.27100 24.43500
H  45.70800 25.92200 24.09600
H  45.81000 26.29700 21.88900
H  47.54500 26.01400 21.78300
H  47.02800 27.63400 22.23300
H  50.65800 29.41400 27.34600
H  49.62200 30.61500 28.15300
H  49.05300 29.89700 26.58100
H  47.86400 28.67600 32.62000
H  51.50800 28.35000 34.91800
H  50.18500 27.51000 35.80400
H  50.38100 29.27700 35.96500

