158

Mg 41.75900 9.11100 29.63600
C  43.77600 10.17400 32.27600
C  39.50200 7.83100 32.01000
C  39.98700 7.74200 27.06800
C  44.30900 9.91000 27.41900
N  41.75200 8.76600 31.94000
C  42.51600 9.61600 32.73800
C  41.98000 9.65600 34.21400
C  40.84200 8.52500 34.16000
C  40.62800 8.37900 32.66100
C  41.22500 7.24900 34.95900
C  41.67400 11.18100 34.67800
C  40.92400 11.33300 35.99600
H  41.61700 11.91400 37.23200
N  39.92100 8.05600 29.52800
C  39.16700 7.57000 30.62200
C  38.09900 6.78700 30.08500
C  38.08600 7.01600 28.64200
C  39.36300 7.68500 28.34300
C  37.18200 5.91800 30.97500
C  37.03500 6.72600 27.71100
O  37.12500 6.83200 26.48400
C  35.69100 6.27600 28.16500
N  42.18800 8.76300 27.61700
C  41.28000 8.15800 26.78500
C  41.78900 8.02200 25.28900
C  43.15200 8.77900 25.34400
C  43.23800 9.15800 26.88500
C  41.90100 6.46900 24.83800
C  43.31200 9.98900 24.37800
C  42.54400 11.30700 24.52600
N  43.65500 9.89400 29.77400
C  44.51200 10.25200 28.74500
C  45.67400 10.87200 29.35100
C  45.39000 10.90900 30.74500
C  44.14400 10.26200 30.96900
C  46.95400 11.26800 28.67000
C  45.86800 11.44500 32.04600
O  46.85200 12.11600 32.37300
C  44.78500 10.97800 33.07900
C  45.33900 10.22200 34.21000
O  45.91600 9.15600 34.19400
O  45.28600 10.97200 35.35600
C  46.01600 10.50500 36.49000
H  38.64300 7.60200 32.64400
H  39.38700 7.24400 26.30300
H  45.11100 10.19400 26.73400
H  42.70500 9.21900 34.90000
H  39.92200 9.00200 34.49700
H  42.08100 7.43800 35.60800
H  41.57800 6.38900 34.39000
H  40.39400 6.87000 35.55300
H  41.05300 11.52600 33.85200
H  42.53000 11.85300 34.72200
H  40.50600 10.36300 36.26700
H  40.04300 11.92900 35.75700
H  37.75300 5.45700 31.78100
H  36.77300 5.12100 30.35500
H  36.31400 6.35900 31.46600
H  35.39700 6.79800 29.07500
H  35.78600 5.22800 28.45200
H  34.98900 6.44000 27.34700
H  41.11600 8.49800 24.57700
H  43.95800 8.08600 25.10100
H  42.93800 6.17000 24.68800
H  41.20400 6.35100 24.00800
H  41.57200 5.74200 25.58200
H  42.88000 9.54600 23.48000
H  44.34500 10.32100 24.28100
H  41.92300 11.31200 25.42200
H  41.87100 11.44800 23.68000
H  43.21700 12.15900 24.62000
H  47.75200 10.74000 29.19200
H  47.19600 12.32100 28.81400
H  47.10900 10.87600 27.66400
H  44.33900 11.87500 33.50800
H  46.97200 10.04600 36.23800
H  45.40100 9.84100 37.09600
H  46.07000 11.44200 37.04400
Mg -10.69600 17.22100 41.01500
C  -7.15200 16.68600 40.88500
C  -10.12100 20.55500 40.32100
C  -13.94500 17.56400 40.40900
C  -11.10200 13.74000 41.13000
N  -8.85400 18.42200 40.51700
C  -7.57000 17.98400 40.60100
C  -6.65800 19.18800 40.35500
C  -7.49300 20.38100 40.80300
C  -8.90200 19.82400 40.53600
C  -7.24900 20.70000 42.31000
C  -6.26500 19.22200 38.83600
C  -4.82400 18.96700 38.42700
H  -4.55200 17.84500 37.38500
N  -11.90400 18.85300 40.49600
C  -11.45100 20.08600 40.13200
C  -12.49800 20.92500 39.80500
C  -13.71900 20.14700 40.02300
C  -13.24400 18.79600 40.33800
C  -12.28800 22.37500 39.51900
C  -15.11800 20.72800 40.00400
O  -15.34500 21.89900 39.77700
C  -16.29800 19.80600 40.25100
N  -12.26700 15.86200 40.61800
C  -13.56500 16.27100 40.62100
C  -14.54100 15.12000 40.75200
C  -13.58500 13.92800 40.72000
C  -12.20800 14.54000 40.79500
C  -15.31900 15.06200 42.13300
C  -13.80100 12.86300 39.61900
C  -12.98200 12.94800 38.31500
N  -9.44800 15.54200 41.09000
C  -9.72600 14.15100 41.11500
C  -8.46700 13.41600 41.33500
C  -7.46400 14.32900 41.14500
C  -8.09000 15.58100 40.96200
C  -8.33100 11.99800 41.65100
C  -6.06100 14.50200 41.09500
O  -5.14600 13.68600 41.20700
C  -5.77800 16.01200 40.82700
C  -4.92500 16.45300 41.89200
O  -3.76200 16.74500 41.71400
O  -5.60200 16.58500 43.07000
C  -4.79600 17.07700 44.23300
H  -9.96300 21.63300 40.24800
H  -15.02800 17.70100 40.45500
H  -11.35100 12.67900 41.18000
H  -5.81100 18.96500 41.00400
H  -7.35600 21.30800 40.24700
H  -6.85800 19.86200 42.88700
H  -8.15700 20.91600 42.87400
H  -6.57300 21.53900 42.47400
H  -6.59000 20.23100 38.58300
H  -6.94900 18.56800 38.29500
H  -4.13900 18.61100 39.19600
H  -4.34700 19.86100 38.02600
H  -11.45200 22.59700 38.85600
H  -12.10400 22.86900 40.47300
H  -13.18300 22.77400 39.04200
H  -16.21800 19.05800 39.46300
H  -17.26900 20.28700 40.12800
H  -16.14100 19.35300 41.23000
H  -15.29800 15.12000 39.96700
H  -13.57700 13.37400 41.65900
H  -15.18100 14.09500 42.61700
H  -16.34700 15.25200 41.82600
H  -14.95000 15.80300 42.84300
H  -14.85100 12.91700 39.33100
H  -13.72800 11.85100 40.01700
H  -12.56500 11.97200 38.06700
H  -12.13500 13.63400 38.28400
H  -13.65800 13.12800 37.47900
H  -8.05600 11.47000 40.73800
H  -9.24700 11.54700 42.03200
H  -7.58600 11.92500 42.44300
H  -5.39900 16.19400 39.82200
H  -5.34800 16.78900 45.12800
H  -4.66900 18.15900 44.28100
H  -3.78900 16.66300 44.29100

