158

Mg 0.76900 8.06300 26.63000
C  1.09300 10.04600 29.45200
C  0.56300 5.25100 28.43500
C  0.24500 6.35700 23.72900
C  0.68900 11.05400 24.69400
N  0.97500 7.69400 28.73600
C  0.91100 8.65500 29.70400
C  0.66200 7.99200 31.01000
C  0.83500 6.46400 30.67900
C  0.82500 6.43400 29.15100
C  2.10600 5.76400 31.22400
C  -0.76000 8.33500 31.62700
C  -0.76500 8.82100 33.18300
H  0.37100 8.31800 34.11000
N  0.55700 6.05900 26.12700
C  0.55800 5.04900 27.05200
C  0.35000 3.84200 26.42000
C  0.01800 4.15200 25.00400
C  0.27000 5.57400 24.89700
C  0.22500 2.47500 27.10900
C  -0.43700 3.20000 23.85500
O  -0.66500 3.54600 22.70000
C  -0.57000 1.68200 24.09200
N  0.64100 8.66200 24.58400
C  0.51400 7.69400 23.59800
C  0.65100 8.33700 22.21700
C  0.30400 9.77000 22.53800
C  0.52200 9.88300 24.01700
C  2.03000 8.08500 21.52600
C  -1.23400 10.03000 22.28500
C  -1.56200 10.90300 21.12100
N  1.10300 10.08500 26.95500
C  1.04700 11.19500 26.08300
C  1.35800 12.41800 26.82600
C  1.41700 11.99600 28.15200
C  1.22200 10.63900 28.15900
C  1.36200 13.83400 26.26700
C  1.55400 12.44100 29.43600
O  1.85300 13.56900 29.87500
C  1.24900 11.24100 30.37800
C  2.27700 11.14700 31.44000
O  3.41400 10.80100 31.23100
O  1.70700 11.61700 32.64000
C  2.76800 11.93600 33.59700
H  0.35800 4.38900 29.07300
H  -0.10700 5.77700 22.87400
H  0.63500 11.98300 24.12200
H  1.35500 8.35000 31.77200
H  -0.00900 5.86000 31.01400
H  2.67700 6.39100 31.90800
H  2.82200 5.42300 30.47600
H  1.93800 4.91700 31.88900
H  -1.39800 7.45300 31.67800
H  -1.11500 9.19000 31.05000
H  -1.70100 8.51300 33.64900
H  -0.78000 9.91100 33.20700
H  0.68700 2.42300 28.09500
H  0.74200 1.65400 26.61300
H  -0.79100 2.10800 27.25500
H  0.37100 1.13300 24.11000
H  -1.22900 1.30800 23.30800
H  -1.07900 1.37900 25.00700
H  -0.08400 7.92700 21.52600
H  0.93900 10.47100 21.99600
H  2.65800 7.41100 22.10900
H  2.61300 8.99200 21.36500
H  1.80800 7.66100 20.54600
H  -1.81600 10.48100 23.08900
H  -1.80600 9.10200 22.27000
H  -1.06900 10.48900 20.24100
H  -1.21400 11.92200 21.29600
H  -2.63800 11.06800 21.07400
H  1.74900 13.86300 25.24800
H  2.06500 14.33000 26.93700
H  0.36800 14.27700 26.20800
H  0.29300 11.47600 30.84600
H  3.44400 12.69500 33.20300
H  3.31700 11.04100 33.89000
H  2.40700 12.29200 34.56200
Mg 9.66000 46.96800 25.86600
C  7.78400 46.93800 28.84000
C  12.32600 48.09600 27.66700
C  11.55100 46.93800 23.02900
C  6.74200 46.42600 24.01900
N  10.00100 47.54500 28.08100
C  9.14200 47.35900 29.10400
C  9.84800 47.81700 30.46500
C  11.05900 48.66500 29.91300
C  11.14300 48.13500 28.45600
C  10.91100 50.18200 29.97700
C  10.17700 46.65200 31.51000
C  10.22400 47.05300 32.92600
H  9.71000 46.10200 34.05400
N  11.61700 47.30900 25.39600
C  12.58400 47.65600 26.35600
C  13.91300 47.61900 25.74300
C  13.64600 47.17400 24.38500
C  12.19500 47.07500 24.22800
C  15.22000 47.97400 26.33300
C  14.64600 46.83500 23.25500
O  14.32500 46.35000 22.09500
C  16.07800 47.07700 23.43900
N  9.22000 46.81400 23.82300
C  10.16900 46.75300 22.78000
C  9.56900 46.41100 21.39000
C  8.05200 46.18200 21.81900
C  7.97300 46.45500 23.25700
C  9.89800 47.40900 20.22700
C  7.59100 44.70100 21.64600
C  8.02400 43.65500 22.68000
N  7.67100 46.79000 26.30100
C  6.57500 46.55100 25.45800
C  5.39100 46.43600 26.19100
C  5.77900 46.56900 27.55900
C  7.23200 46.79700 27.55500
C  3.94600 46.20500 25.59300
C  5.38300 46.50500 28.90000
O  4.29000 46.23900 29.38900
C  6.58100 46.78100 29.83100
C  6.80300 45.65600 30.69100
O  7.45300 44.66700 30.43000
O  6.15000 45.81900 31.84200
C  5.88900 44.58400 32.61600
H  13.19900 48.47900 28.19800
H  12.09300 46.90900 22.08100
H  5.91500 46.23100 23.33200
H  9.21700 48.47300 31.06400
H  11.98300 48.36600 30.40600
H  9.97900 50.55400 30.40400
H  11.05000 50.74900 29.05600
H  11.66500 50.67500 30.58900
H  11.13100 46.16400 31.31000
H  9.49100 45.82900 31.31200
H  9.63800 47.95700 33.08900
H  11.27700 47.16500 33.18500
H  16.00500 47.21800 26.34800
H  15.04500 48.37000 27.33400
H  15.71600 48.76800 25.77500
H  16.11500 48.16200 23.54400
H  16.53900 46.83800 22.48100
H  16.48400 46.61700 24.34000
H  10.11900 45.49300 21.18500
H  7.39800 46.91700 21.34900
H  10.48400 48.25300 20.59100
H  8.99400 47.75100 19.72400
H  10.61400 46.93100 19.55800
H  7.93500 44.29200 20.69600
H  6.50600 44.73800 21.54800
H  8.63700 44.03100 23.49900
H  8.67700 42.94500 22.17300
H  7.08800 43.20400 23.00900
H  3.15000 45.93300 26.28700
H  4.09800 45.24900 25.09200
H  3.58600 47.02300 24.96900
H  6.37100 47.61100 30.50700
H  5.65600 44.70000 33.67500
H  6.84200 44.05600 32.61100
H  5.14700 43.94300 32.14000

