158

Mg 48.11400 34.60500 27.53500
C  46.33700 33.38900 30.31200
C  48.44100 37.60300 29.21100
C  49.46100 35.81300 24.79900
C  46.93100 31.77100 25.62800
N  47.60500 35.31100 29.60000
C  46.90400 34.66000 30.55300
C  46.72800 35.49500 31.78100
C  47.02600 36.91000 31.16400
C  47.76500 36.60400 29.93600
C  45.74400 37.79200 31.03700
C  47.85200 35.11300 32.88000
C  47.32500 34.64700 34.25000
H  47.68200 35.29500 35.51400
N  48.98100 36.32500 27.16600
C  49.05300 37.49000 27.94600
C  49.85400 38.53900 27.30200
C  50.37400 37.91800 26.07300
C  49.65900 36.56100 25.95800
C  50.17000 39.86200 27.94500
C  51.31200 38.39700 25.09600
O  51.70100 37.68200 24.15700
C  51.91300 39.73600 25.25100
N  48.12100 33.82300 25.41900
C  48.72400 34.61500 24.45300
C  48.76100 33.91000 23.09300
C  48.01300 32.55300 23.33900
C  47.60100 32.69300 24.85700
C  48.21100 34.76800 21.93200
C  48.81500 31.23300 23.11600
C  50.28100 31.23400 23.62800
N  46.89900 32.97300 27.81700
C  46.59600 31.83600 27.01300
C  45.69500 30.95700 27.83100
C  45.51700 31.53000 29.03400
C  46.32900 32.70600 29.03000
C  45.13100 29.65800 27.37100
C  44.90500 31.37100 30.32400
O  44.12800 30.52200 30.77200
C  45.22000 32.63900 31.12600
C  45.60000 32.20600 32.45800
O  46.60900 31.67200 32.86500
O  44.53300 32.49000 33.23500
C  44.58800 31.90400 34.57800
H  48.50100 38.58000 29.69700
H  49.81900 36.21300 23.84800
H  46.59200 30.93900 25.00700
H  45.72500 35.28100 32.15200
H  47.71500 37.40200 31.84900
H  45.68600 38.10600 29.99500
H  45.81400 38.59000 31.77600
H  44.84900 37.24000 31.32600
H  48.45000 35.97100 33.18600
H  48.46400 34.34300 32.41000
H  47.75700 33.66300 34.43700
H  46.24100 34.64300 34.13100
H  51.23300 39.89600 28.18800
H  49.42500 40.16500 28.68100
H  50.00000 40.59100 27.15200
H  51.06000 40.39600 25.09200
H  52.57900 39.91200 24.40600
H  52.33000 39.95500 26.23400
H  49.77500 33.65400 22.78700
H  47.14300 32.57200 22.68400
H  48.16700 35.84200 22.11500
H  47.20300 34.41700 21.71200
H  48.79400 34.65500 21.01800
H  48.66300 31.04200 22.05300
H  48.13700 30.49400 23.54400
H  50.64200 32.20900 23.95300
H  50.92100 30.99200 22.77900
H  50.49600 30.61200 24.49700
H  45.88500 29.00800 26.92600
H  44.39600 29.80500 26.58000
H  44.62000 29.23400 28.23500
H  44.35300 33.28900 31.23700
H  45.18900 32.55000 35.21800
H  45.04300 30.91300 34.59800
H  43.63700 31.80400 35.10000
Mg -11.42800 38.76700 42.30500
C  -9.70600 35.99600 41.21000
C  -8.85000 40.78600 40.95800
C  -13.33800 41.42400 42.72200
C  -14.17400 36.68800 42.94300
N  -9.52200 38.38500 41.01600
C  -8.96200 37.17100 40.81900
C  -7.48600 37.26000 40.39100
C  -7.29400 38.83700 40.40300
C  -8.65700 39.36700 40.84700
C  -6.15500 39.43300 41.27400
C  -7.18500 36.67400 38.99600
C  -6.16500 35.50800 39.02000
H  -5.05700 35.69300 38.00100
N  -11.03100 40.84500 42.10800
C  -9.95300 41.46400 41.52600
C  -10.16400 42.87500 41.37600
C  -11.47100 43.13700 41.91100
C  -12.03500 41.77900 42.29700
C  -9.20500 43.83200 40.72700
C  -12.22500 44.49300 42.01400
O  -11.74200 45.51600 41.57400
C  -13.58200 44.59800 42.61100
N  -13.46900 39.01800 42.69500
C  -14.00700 40.23400 42.91100
C  -15.44500 40.20300 43.47800
C  -15.58700 38.67100 43.67500
C  -14.32100 38.05200 43.04600
C  -15.52100 41.04700 44.82800
C  -16.94500 38.10900 43.17600
C  -17.66000 37.15400 44.11800
N  -11.87600 36.78000 42.13900
C  -12.99500 36.01300 42.54500
C  -12.69700 34.58200 42.44100
C  -11.47600 34.54200 41.85400
C  -10.93500 35.86900 41.83100
C  -13.71700 33.44300 42.81600
C  -10.44900 33.64400 41.39200
O  -10.51400 32.41200 41.28400
C  -9.23500 34.53500 41.11200
C  -8.19400 34.29000 42.14000
O  -7.79000 35.10500 42.93900
O  -7.44000 33.15400 41.84800
C  -6.10100 33.03800 42.36000
H  -8.00500 41.44700 40.75600
H  -14.09100 42.19400 42.90200
H  -14.97000 36.10000 43.40300
H  -6.82100 36.93300 41.19000
H  -7.05500 39.23900 39.41900
H  -5.40900 39.98600 40.70300
H  -5.64000 38.58300 41.72200
H  -6.55500 40.05500 42.07500
H  -6.73100 37.46600 38.39900
H  -8.12300 36.33100 38.55900
H  -6.63200 34.53000 38.90500
H  -5.70100 35.44400 40.00400
H  -9.62500 44.08500 39.75400
H  -8.24200 43.45300 40.38400
H  -9.17500 44.74700 41.31900
H  -14.28000 44.17700 41.88800
H  -13.82600 45.65800 42.67200
H  -13.59000 44.13100 43.59600
H  -16.19700 40.60300 42.79800
H  -15.33300 38.56600 44.73000
H  -15.96400 42.02900 44.65900
H  -14.51400 41.22400 45.20700
H  -16.13000 40.61700 45.62300
H  -16.83900 37.63300 42.20100
H  -17.58200 38.93800 42.86900
H  -18.54400 37.72600 44.39800
H  -17.07100 36.86900 44.99000
H  -17.87600 36.26400 43.52600
H  -14.07400 33.73800 43.80200
H  -13.06200 32.57600 42.90500
H  -14.53100 33.26200 42.11300
H  -8.83100 34.21200 40.15300
H  -5.59900 34.00300 42.29800
H  -5.62200 32.36900 41.64500
H  -6.13300 32.59500 43.35500

