158

Mg -1.21900 18.32700 28.03700
C  -1.87000 16.02800 30.48700
C  -1.87200 20.82200 30.21700
C  -0.75300 20.41500 25.42400
C  -1.16300 15.51600 25.66600
N  -1.73100 18.34800 30.21200
C  -1.69500 17.38000 31.02200
C  -1.88900 17.88000 32.54800
C  -2.25500 19.39600 32.36100
C  -2.02700 19.56500 30.84100
C  -3.60100 19.83300 32.95300
C  -0.63800 17.56900 33.43800
C  -0.92200 16.90600 34.86100
H  0.21200 16.79300 35.84800
N  -1.28300 20.30800 27.87300
C  -1.47900 21.17000 28.90600
C  -1.39400 22.50800 28.34800
C  -1.02200 22.41400 26.99300
C  -0.99800 21.01800 26.70600
C  -1.67600 23.78100 29.22300
C  -0.82400 23.54100 26.05600
O  -0.82600 23.33200 24.83700
C  -0.73700 24.89700 26.52500
N  -0.90600 18.01000 25.87100
C  -0.78100 19.06400 25.05400
C  -0.56800 18.69600 23.61200
C  -0.38400 17.13200 23.73600
C  -0.82500 16.80600 25.11200
C  -1.64300 19.11900 22.57100
C  1.06100 16.61800 23.50900
C  2.17100 16.97900 24.45200
N  -1.42000 16.19400 28.00200
C  -1.46000 15.20600 27.03800
C  -1.70100 13.99500 27.59600
C  -1.82000 14.18900 28.96400
C  -1.70700 15.60300 29.18300
C  -1.83400 12.74700 26.85300
C  -2.00400 13.59800 30.31100
O  -2.18900 12.43700 30.60600
C  -1.95900 14.77300 31.32900
C  -0.78600 14.49100 32.06600
O  0.41600 14.74300 31.76600
O  -1.12200 13.90800 33.30800
C  0.05400 13.44200 34.02800
H  -2.04000 21.63600 30.92500
H  -0.55200 21.10200 24.59900
H  -1.04800 14.72100 24.92700
H  -2.77200 17.35900 32.92000
H  -1.56500 19.99800 32.95100
H  -4.06000 19.00400 33.49300
H  -4.29300 20.18300 32.18800
H  -3.46000 20.64900 33.66200
H  -0.05500 18.46200 33.66600
H  0.05700 16.90400 32.92500
H  -1.46700 15.97600 34.69700
H  -1.66400 17.57300 35.30100
H  -0.75100 24.29100 29.49300
H  -2.21300 23.50500 30.13100
H  -2.26000 24.55700 28.72700
H  -0.17700 24.88600 27.46000
H  -1.67100 25.43600 26.68400
H  -0.26300 25.58700 25.82700
H  0.40800 19.07600 23.30800
H  -0.93900 16.57300 22.98200
H  -2.40900 19.62300 23.16100
H  -2.10000 18.22900 22.13700
H  -1.18100 19.83900 21.89600
H  1.52700 17.01500 22.60800
H  1.17300 15.56900 23.23500
H  2.68800 17.90200 24.18600
H  2.79000 16.09300 24.31300
H  1.86700 17.03800 25.49700
H  -2.81600 12.32400 27.06400
H  -1.16700 11.98400 27.25200
H  -1.77500 12.77500 25.76500
H  -2.82900 14.73100 31.98400
H  0.12000 12.37300 34.22900
H  -0.02800 14.01900 34.94900
H  1.02600 13.77900 33.66700
Mg 8.62300 48.52600 25.32700
C  6.23400 49.11700 27.82100
C  11.07400 49.42700 27.59700
C  10.75000 48.01600 22.95800
C  5.93800 48.16700 23.04400
N  8.60000 49.21400 27.47300
C  7.52600 49.30400 28.31500
C  8.01000 49.59000 29.73900
C  9.44500 50.28800 29.44400
C  9.77000 49.53500 28.11700
C  9.39700 51.85500 29.08200
C  8.25300 48.34700 30.62500
C  8.51100 48.71400 32.09900
H  8.09800 47.72100 33.16900
N  10.65200 48.65500 25.32800
C  11.52900 49.04900 26.35800
C  12.89300 48.94400 25.86100
C  12.86000 48.44300 24.55200
C  11.40800 48.24500 24.23000
C  14.15400 49.38900 26.68500
C  13.95000 48.19900 23.40300
O  13.73800 47.96100 22.21600
C  15.32800 48.42600 23.83000
N  8.35600 48.14800 23.35300
C  9.45700 47.98900 22.56000
C  9.05800 47.69900 21.07900
C  7.51800 47.74400 21.17100
C  7.24100 48.03500 22.56900
C  9.65500 48.75400 20.07700
C  6.78800 46.52300 20.67100
C  5.66800 46.87300 19.61900
N  6.55900 48.71500 25.33900
C  5.57100 48.44500 24.37300
C  4.28000 48.47200 24.99300
C  4.51300 48.76700 26.28600
C  5.90300 48.83200 26.48200
C  2.80800 48.34500 24.37800
C  3.78500 48.97400 27.59000
O  2.57700 48.93300 27.92100
C  4.92900 49.34000 28.57000
C  4.73400 48.54100 29.80700
O  5.05200 47.45100 30.02200
O  4.11000 49.36300 30.71600
C  3.94500 48.80700 32.13500
H  11.83900 49.78700 28.28800
H  11.41000 47.70800 22.14500
H  5.23200 48.05300 22.21800
H  7.29200 50.26200 30.20800
H  10.27200 50.08000 30.12300
H  8.35700 52.16100 29.20200
H  9.64400 51.98100 28.02800
H  10.14700 52.42200 29.63300
H  8.94700 47.65900 30.14300
H  7.29300 47.83300 30.57900
H  8.16500 49.74100 32.21600
H  9.58900 48.87800 32.09100
H  13.96100 49.39200 27.75800
H  14.46300 50.36700 26.31800
H  15.04100 48.79200 26.47400
H  15.32700 49.37900 24.35800
H  16.01500 48.26200 23.00000
H  15.56500 47.61100 24.51300
H  9.46200 46.70000 20.91900
H  7.16800 48.63700 20.65300
H  10.44300 49.28500 20.61300
H  8.79300 49.38300 19.85800
H  10.01400 48.21100 19.20300
H  6.49200 45.95700 21.55400
H  7.51700 45.96600 20.08200
H  5.51800 45.96400 19.03700
H  5.98500 47.65300 18.92600
H  4.79300 47.23600 20.15900
H  2.59300 47.31600 24.09200
H  2.80500 48.96300 23.47900
H  2.07600 48.55000 25.16000
H  4.85100 50.38600 28.86800
H  2.90500 48.50300 32.25700
H  4.24200 49.58300 32.84100
H  4.56200 47.95400 32.41300

