158

Mg 8.76800 2.64400 26.71000
C  10.11500 1.27400 29.65400
C  6.90400 4.70300 28.57400
C  7.35500 3.57100 23.87600
C  10.44400 -0.14100 25.03600
N  8.67600 2.98700 28.92900
C  9.32300 2.37500 29.91900
C  9.02600 3.04000 31.24400
C  7.89600 4.05600 30.89700
C  7.80300 3.97500 29.41200
C  6.47700 3.87800 31.64000
C  10.29000 3.63800 31.89400
C  10.20000 4.56700 33.11400
H  10.67500 3.96100 34.49800
N  7.36700 4.01400 26.30300
C  6.72500 4.80400 27.21700
C  5.78100 5.70400 26.47700
C  5.91000 5.40500 25.06200
C  6.85900 4.25400 25.02400
C  4.93200 6.66700 27.10900
C  5.13600 5.98300 23.87500
O  5.02400 5.41400 22.76300
C  4.37700 7.26900 24.07000
N  8.85900 1.68900 24.78100
C  8.17400 2.37900 23.74600
C  8.53600 1.81800 22.38900
C  9.47400 0.55400 22.69600
C  9.58900 0.68100 24.24100
C  7.25100 1.44500 21.47500
C  10.91800 0.76800 21.91000
C  11.31900 -0.36900 21.03400
N  10.11900 0.98000 27.15600
C  10.62000 -0.01900 26.39800
C  11.59800 -0.73800 27.17000
C  11.41700 -0.32600 28.45600
C  10.42900 0.71400 28.42900
C  12.41000 -1.85000 26.66500
C  11.65600 -0.67100 29.78900
O  12.30900 -1.56600 30.27100
C  10.91900 0.44400 30.71700
C  10.07100 -0.11800 31.79600
O  8.96500 -0.67300 31.61700
O  10.64700 0.05500 33.04000
C  10.04700 -0.55700 34.20700
H  6.40700 5.35500 29.29500
H  6.83800 3.62700 22.91600
H  10.86100 -0.98500 24.48200
H  8.64400 2.31200 31.96000
H  8.19800 5.09500 31.03700
H  6.60400 3.48700 32.64900
H  5.83200 3.36700 30.92400
H  6.07500 4.85500 31.90800
H  10.87000 4.06300 31.07500
H  10.80000 2.79100 32.35300
H  9.16700 4.87600 33.27500
H  10.69800 5.51000 32.88900
H  4.92000 6.73700 28.19700
H  3.88800 6.56200 26.81500
H  5.25200 7.62200 26.69200
H  3.97600 7.47900 23.07900
H  5.18600 7.97000 24.27600
H  3.58100 7.23500 24.81400
H  9.00600 2.63500 21.84000
H  8.98100 -0.39900 22.50600
H  6.32500 1.71000 21.98600
H  7.26000 0.35600 21.45000
H  7.40000 1.81900 20.46200
H  11.69600 1.02100 22.63000
H  10.88000 1.62800 21.24200
H  10.73600 -1.28500 21.13000
H  12.35900 -0.60900 21.25500
H  11.23900 -0.09900 19.98100
H  12.61600 -1.74700 25.60000
H  11.84300 -2.74200 26.93300
H  13.33700 -1.83200 27.23800
H  11.78200 0.95700 31.14200
H  8.96000 -0.53600 34.12800
H  10.23800 -0.05500 35.15600
H  10.46800 -1.53400 34.44700
Mg 25.14400 -6.75200 48.29800
C  26.35700 -3.95600 46.55100
C  22.32500 -6.63300 46.24000
C  24.10500 -9.60900 49.61600
C  28.08200 -6.77800 50.07000
N  24.51900 -5.56800 46.45200
C  25.21000 -4.52100 45.99100
C  24.55300 -3.94600 44.69200
C  23.12300 -4.69500 44.78400
C  23.23500 -5.67700 45.89600
C  21.91000 -3.75800 44.78000
C  25.32600 -4.14700 43.42200
C  25.71900 -2.85000 42.67300
H  25.33400 -2.72600 41.13700
N  23.37800 -7.99000 48.02800
C  22.41100 -7.76200 47.14400
C  21.46100 -8.87100 47.29100
C  21.96800 -9.71100 48.29000
C  23.20800 -9.16600 48.71400
C  20.19100 -8.98900 46.50800
C  21.29500 -10.95000 48.79800
O  20.18100 -11.20300 48.35700
C  21.77000 -12.02700 49.77400
N  26.04600 -8.08800 49.60100
C  25.40600 -9.20700 50.07300
C  26.37900 -10.05000 50.92600
C  27.71800 -9.13700 50.94100
C  27.20000 -7.91400 50.17700
C  25.81200 -10.35300 52.41800
C  29.01200 -9.69700 50.35000
C  30.30000 -9.57300 51.12800
N  26.85900 -5.50000 48.43100
C  27.94100 -5.63800 49.23300
C  28.82600 -4.44300 49.00500
C  28.21100 -3.77900 47.92400
C  27.05400 -4.43400 47.63300
C  30.08200 -4.06500 49.72400
C  28.32200 -2.67500 47.06900
O  29.17600 -1.81100 46.96400
C  27.08700 -2.64000 46.14700
C  26.27200 -1.32500 46.20100
O  26.63900 -0.24900 45.78400
O  25.00500 -1.63800 46.71700
C  24.22000 -0.47600 47.12000
H  21.43200 -6.50700 45.62300
H  23.89700 -10.53800 50.15200
H  28.95800 -6.80900 50.72000
H  24.28500 -2.90600 44.87500
H  22.81300 -5.23100 43.88700
H  22.25500 -2.77500 44.46100
H  21.37600 -3.78700 45.72900
H  21.12000 -4.05000 44.08800
H  24.88400 -4.82600 42.69300
H  26.25700 -4.63600 43.70600
H  26.80300 -2.73200 42.67700
H  25.18900 -2.03000 43.15700
H  19.22000 -9.06000 46.99800
H  20.40600 -9.83700 45.85800
H  19.94500 -8.15100 45.85500
H  22.70200 -12.42600 49.37300
H  21.05700 -12.84400 49.88100
H  21.89900 -11.44900 50.68900
H  26.59900 -11.01000 50.45900
H  27.95200 -8.84300 51.96500
H  24.83300 -10.80900 52.27100
H  25.50100 -9.37500 52.78400
H  26.52700 -10.86800 53.06000
H  29.04300 -9.26700 49.34900
H  28.88800 -10.77200 50.22400
H  31.11800 -9.32000 50.45400
H  30.51400 -10.47300 51.70400
H  30.11600 -8.74900 51.81700
H  30.71600 -3.38400 49.15500
H  30.76700 -4.86000 50.01800
H  29.89400 -3.58300 50.68300
H  27.43200 -2.67900 45.11300
H  24.29700 0.32400 46.38300
H  24.56000 -0.04300 48.06100
H  23.27000 -0.91800 47.41900

