158

Mg 35.92800 2.19700 30.30300
C  33.45300 3.22100 32.66900
C  38.27300 2.20800 32.79400
C  38.18800 1.41300 27.94600
C  33.50400 2.70600 27.74500
N  35.85000 2.69900 32.42500
C  34.74700 3.02200 33.18400
C  35.08400 3.13600 34.63500
C  36.64900 3.14200 34.64500
C  36.99400 2.64200 33.20400
C  37.26400 4.53600 35.16400
C  34.53200 1.94300 35.43900
C  33.78200 2.34700 36.72000
H  34.13900 3.70500 37.39800
N  37.94200 1.83200 30.38300
C  38.66300 1.80600 31.51300
C  40.01400 1.38900 31.21300
C  40.04700 1.08800 29.83200
C  38.70600 1.47200 29.27100
C  41.07500 1.05600 32.28400
C  41.20000 0.58400 29.06000
O  40.98700 0.39800 27.80100
C  42.55500 0.20100 29.73200
N  35.89300 2.05000 28.16500
C  36.93200 1.71800 27.44600
C  36.69800 1.79700 25.97200
C  35.15000 1.80900 25.90500
C  34.79500 2.23100 27.36400
C  37.50100 2.99700 25.31100
C  34.49500 0.46700 25.41500
C  33.57400 0.73700 24.19900
N  33.95500 2.89100 30.14600
C  33.09900 2.92700 29.02100
C  31.73700 3.26800 29.51800
C  31.88600 3.45600 30.93000
C  33.19000 3.13000 31.30900
C  30.46400 3.27100 28.71400
C  31.14000 3.83400 32.13700
O  30.00600 4.20400 32.32200
C  32.20600 3.62800 33.30100
C  32.38000 4.98500 33.97200
O  33.08200 5.94000 33.58700
O  31.44300 5.10400 34.91000
C  31.12500 6.42300 35.45100
H  38.98000 2.15700 33.62500
H  38.93400 1.35800 27.15100
H  32.77500 2.77500 26.93500
H  34.68000 4.07600 35.01000
H  37.00700 2.39300 35.35100
H  37.93100 4.89800 34.38200
H  37.76000 4.31300 36.10900
H  36.46900 5.26500 35.31800
H  35.28300 1.19000 35.67600
H  33.87100 1.42800 34.74100
H  33.91500 1.57000 37.47300
H  32.71700 2.23400 36.51600
H  41.12500 -0.03200 32.29600
H  40.66900 1.12600 33.29400
H  42.05900 1.48200 32.08700
H  43.16100 -0.12300 28.88600
H  42.43600 -0.69100 30.34700
H  43.03600 1.09800 30.12200
H  37.09400 0.85400 25.59700
H  34.94200 2.61800 25.20400
H  38.43700 3.19200 25.83500
H  36.87100 3.88600 25.32600
H  37.78800 2.64700 24.31900
H  33.88500 0.09000 26.23600
H  35.30200 -0.23800 25.21300
H  32.59700 0.39400 24.54100
H  33.85100 0.21200 23.28500
H  33.44800 1.80000 23.99200
H  30.46400 2.38500 28.08000
H  30.51200 4.09500 28.00100
H  29.59900 3.22800 29.37600
H  31.82900 2.92600 34.04500
H  32.01000 7.04200 35.59800
H  30.50300 6.32900 36.34000
H  30.61100 6.92300 34.62900
Mg 0.79100 43.96700 25.47500
C  2.58300 43.93800 28.50000
C  -2.10600 43.46700 27.31600
C  -0.87300 43.70600 22.53400
C  3.75400 44.61100 23.75300
N  0.29700 43.56400 27.63000
C  1.21700 43.72700 28.70700
C  0.57400 43.40300 30.03300
C  -0.91200 43.12500 29.57000
C  -0.95700 43.42900 28.09100
C  -1.43300 41.61700 29.77500
C  0.64300 44.65500 31.03500
C  1.33900 44.48900 32.40500
H  1.00000 43.25900 33.19000
N  -1.16400 43.62000 24.99300
C  -2.23200 43.61100 25.87900
C  -3.47900 43.37400 25.12900
C  -3.14400 43.31600 23.75100
C  -1.70000 43.57800 23.71400
C  -4.87600 43.38300 25.67900
C  -4.04300 43.21800 22.54900
O  -3.58400 43.07200 21.42800
C  -5.56900 43.25800 22.64400
N  1.34400 44.15200 23.45300
C  0.50000 43.90600 22.38200
C  1.29300 43.93700 21.04000
C  2.58500 44.72800 21.51500
C  2.60700 44.50200 23.01400
C  1.53200 42.56400 20.61800
C  2.61300 46.18900 21.03900
C  2.85400 46.29300 19.52300
N  2.72000 44.19000 25.96700
C  3.84000 44.42500 25.19800
C  5.09300 44.51800 25.93400
C  4.65200 44.33400 27.28500
C  3.21700 44.14000 27.21700
C  6.44900 44.76700 25.50700
C  5.06400 44.21800 28.71500
O  6.20400 44.16100 29.22400
C  3.72600 44.10200 29.51700
C  3.94800 42.88100 30.34700
O  3.60400 41.71900 30.09800
O  4.57500 43.29600 31.52200
C  4.97200 42.25500 32.55200
H  -3.00500 43.25500 27.89900
H  -1.33500 43.71900 21.54500
H  4.66100 44.79800 23.17400
H  1.05300 42.51800 30.45400
H  -1.67700 43.67500 30.11800
H  -0.64900 41.08900 30.31800
H  -1.72000 41.08500 28.86800
H  -2.32700 41.82600 30.36200
H  -0.35900 44.98700 31.30500
H  1.20300 45.39000 30.45600
H  1.01900 45.35900 32.97900
H  2.42400 44.57200 32.34100
H  -5.52500 44.17900 25.31600
H  -4.97100 43.22400 26.75300
H  -5.35500 42.46200 25.34400
H  -6.03400 42.34900 23.02600
H  -6.01900 43.32600 21.65400
H  -5.78900 44.09100 23.31200
H  0.78400 44.48300 20.24600
H  3.54300 44.25600 21.29600
H  2.26100 42.53100 19.80900
H  0.61200 42.11500 20.24100
H  1.88700 41.87800 21.38600
H  3.51900 46.53000 21.54000
H  1.72000 46.75400 21.30300
H  3.83900 46.70500 19.30300
H  2.23100 47.03700 19.02800
H  2.78700 45.28000 19.12800
H  7.12800 43.99600 25.87100
H  6.71600 45.76300 25.85900
H  6.48700 44.91800 24.42800
H  3.58700 45.03200 30.06900
H  4.55700 42.58200 33.50500
H  6.06100 42.27500 32.51800
H  4.58100 41.26500 32.31900

