158

Mg 2.38000 -0.67400 43.28800
C  5.78700 0.06300 42.85500
C  1.75900 2.25200 41.52700
C  -0.78100 -1.55300 42.95600
C  3.26900 -3.75900 44.69700
N  3.65300 0.99700 42.16500
C  4.98900 1.10400 42.18800
C  5.49800 2.24900 41.33600
C  4.21300 3.07600 41.13800
C  3.12200 2.07500 41.66600
C  4.17600 4.50700 41.78300
C  6.10600 1.63800 40.02900
C  7.15100 2.47700 39.28900
H  6.74800 3.02800 37.89400
N  0.74600 0.15900 42.33600
C  0.67900 1.43200 41.75800
C  -0.62600 1.67100 41.38500
C  -1.38900 0.50200 41.61500
C  -0.46100 -0.34800 42.34300
C  -1.10700 2.90900 40.67300
C  -2.87500 0.21600 41.16800
O  -3.45000 1.09700 40.51600
C  -3.59300 -1.11800 41.34900
N  1.34700 -2.39400 43.81000
C  0.02700 -2.49900 43.60100
C  -0.50700 -3.83500 44.15100
C  0.79400 -4.64600 44.46700
C  1.88300 -3.54600 44.32100
C  -1.48300 -3.58700 45.32600
C  1.13900 -5.82400 43.48400
C  1.63700 -7.17100 44.02400
N  4.13300 -1.61000 43.87900
C  4.38300 -2.86100 44.45900
C  5.82100 -3.01200 44.72000
C  6.38800 -1.82400 44.21600
C  5.33600 -1.06100 43.57600
C  6.50500 -4.16900 45.44600
C  7.65700 -1.08300 44.05400
O  8.78800 -1.29400 44.37000
C  7.34000 0.14000 43.18200
C  7.42300 1.24700 44.12800
O  6.65300 1.40700 45.07400
O  8.40800 2.12700 43.79200
C  8.65900 3.23400 44.75700
H  1.40300 3.19100 41.09800
H  -1.85800 -1.72200 43.01000
H  3.44800 -4.70200 45.22000
H  6.30500 2.78200 41.84000
H  4.13600 3.33100 40.08100
H  5.11900 4.59700 42.32300
H  3.33200 4.71600 42.44100
H  4.26700 5.33300 41.07800
H  5.22700 1.36200 39.44600
H  6.61400 0.68900 40.20300
H  7.99600 1.82600 39.06200
H  7.52900 3.30700 39.88500
H  -1.88200 2.78900 39.91600
H  -0.28100 3.33200 40.10100
H  -1.49700 3.62000 41.40100
H  -4.55500 -1.14200 40.83700
H  -3.77500 -1.23500 42.41700
H  -2.96600 -1.89800 40.91700
H  -1.06300 -4.30500 43.33900
H  0.80700 -5.04900 45.48000
H  -1.24500 -4.10900 46.25300
H  -2.49600 -3.85600 45.02700
H  -1.50200 -2.50700 45.47300
H  1.95300 -5.44200 42.86700
H  0.32000 -6.07300 42.80900
H  1.14100 -8.03300 43.57800
H  1.65600 -7.24000 45.11200
H  2.68100 -7.29900 43.74100
H  6.14100 -4.28400 46.46700
H  7.58400 -4.03100 45.36500
H  6.35400 -5.00700 44.76500
H  7.95600 0.18700 42.28300
H  7.69100 3.67100 45.00200
H  9.40000 3.95800 44.41600
H  8.94800 2.76500 45.69700
Mg 25.92600 0.08800 28.78200
C  27.59800 0.12200 31.97800
C  22.95800 0.58100 30.48000
C  24.38800 0.22900 25.74800
C  28.71800 -1.18000 27.20300
N  25.36800 0.40000 30.98400
C  26.19800 0.33800 32.15200
C  25.34900 0.65100 33.39900
C  23.92600 0.88700 32.87200
C  24.05600 0.58200 31.37100
C  22.76800 0.08000 33.68200
C  26.11600 1.77600 34.30800
C  25.20100 2.52500 35.32000
H  25.75300 2.70600 36.74600
N  23.92200 0.39100 28.20000
C  22.87000 0.47500 29.02300
C  21.67300 0.55900 28.18500
C  22.09300 0.58800 26.82900
C  23.51200 0.49500 26.87800
C  20.23700 0.59800 28.73800
C  21.23300 0.72800 25.55100
O  21.71200 0.73300 24.39400
C  19.70600 0.99700 25.69700
N  26.51600 -0.39300 26.77300
C  25.71300 -0.13400 25.66500
C  26.40700 -0.63000 24.37500
C  27.87200 -0.91100 24.84300
C  27.71100 -0.78500 26.34000
C  25.65700 -1.82500 23.74400
C  28.95200 -0.01100 24.30400
C  28.79800 1.50300 24.72300
N  27.68300 -0.53200 29.38200
C  28.70200 -1.12200 28.62900
C  29.84700 -1.34800 29.60400
C  29.43100 -0.84600 30.85200
C  28.12600 -0.40400 30.71300
C  31.13400 -1.90900 29.30600
C  29.90000 -0.51800 32.21400
O  30.95500 -0.81600 32.75900
C  28.69800 -0.05900 33.01800
C  28.39800 -1.18300 33.89200
O  27.96100 -2.24000 33.50700
O  28.59400 -0.73400 35.21500
C  28.37800 -1.84400 36.23500
H  21.98000 0.73200 30.94300
H  23.88200 0.22400 24.78000
H  29.68400 -1.39000 26.74100
H  25.34000 -0.23700 34.03200
H  23.86500 1.97200 32.95700
H  22.42500 -0.72700 33.03500
H  21.90900 0.72200 33.88100
H  23.13600 -0.47000 34.54800
H  26.49400 2.45700 33.54600
H  26.84400 1.17500 34.85200
H  24.29000 1.93200 35.40700
H  24.95200 3.49400 34.88700
H  19.74200 1.56200 28.61800
H  20.24400 0.32400 29.79200
H  19.69600 -0.19400 28.22000
H  19.26400 0.03500 25.95800
H  19.42500 1.27800 24.68200
H  19.46100 1.80200 26.39000
H  26.43500 0.18900 23.65600
H  28.27400 -1.90500 24.64200
H  24.67000 -2.01600 24.16600
H  26.23200 -2.74800 23.81300
H  25.42400 -1.59200 22.70400
H  28.91800 -0.12900 23.22100
H  29.93700 -0.28200 24.68300
H  29.40900 1.60100 25.62000
H  27.83700 1.85000 25.10100
H  29.30800 2.08200 23.95300
H  31.12100 -2.43100 28.34900
H  31.31800 -2.57800 30.14600
H  31.92000 -1.15400 29.31400
H  28.65900 0.85200 33.61600
H  28.77200 -2.78300 35.84700
H  27.33300 -1.90100 36.54200
H  28.94400 -1.70200 37.15500

