158

Mg 16.29300 -1.48100 27.88200
C  15.13400 0.47500 30.50300
C  18.42300 -3.10800 30.03300
C  17.90400 -3.00800 25.29600
C  14.58700 0.43600 25.58800
N  16.69000 -1.22200 30.05400
C  16.15200 -0.41300 30.97000
C  16.79200 -0.58900 32.39000
C  17.86300 -1.62100 32.08600
C  17.63700 -1.97300 30.58500
C  19.36900 -1.32200 32.31300
C  15.73200 -0.96800 33.39500
C  15.73100 -0.13300 34.75100
H  16.94200 0.66600 35.14700
N  17.75700 -3.14200 27.67900
C  18.43700 -3.67600 28.76700
C  19.22400 -4.80900 28.26600
C  19.23400 -4.66600 26.85000
C  18.22200 -3.64500 26.55200
C  20.09300 -5.66600 29.15300
C  20.04300 -5.35000 25.66100
O  19.68500 -5.35200 24.48300
C  21.08100 -6.29400 26.08200
N  16.39600 -1.20800 25.78300
C  17.06200 -2.00500 24.94300
C  16.79300 -1.63500 23.47000
C  15.60900 -0.69000 23.50400
C  15.49800 -0.50300 25.06500
C  18.08000 -1.13400 22.75900
C  14.28100 -1.15300 22.71600
C  13.49500 -0.07000 21.96800
N  14.96900 -0.06700 27.96300
C  14.35600 0.68800 26.94100
C  13.50600 1.67000 27.54100
C  13.75100 1.63600 28.90700
C  14.74900 0.61500 29.14500
C  12.65700 2.68600 26.87900
C  13.48900 2.31000 30.18700
O  12.70600 3.23300 30.45100
C  14.37000 1.55400 31.26300
C  15.21900 2.57900 31.86400
O  16.15500 3.13500 31.29300
O  14.59700 3.02700 32.99600
C  15.16000 4.20400 33.60200
H  19.17900 -3.44400 30.74500
H  18.54100 -3.39900 24.50000
H  14.05900 0.96400 24.79200
H  17.31000 0.34300 32.61500
H  17.66300 -2.57200 32.58000
H  19.45600 -0.61500 33.13800
H  19.81000 -0.94200 31.39100
H  19.90000 -2.19500 32.69300
H  15.86400 -2.01500 33.66600
H  14.74600 -0.79700 32.96300
H  15.44300 -0.75900 35.59600
H  14.96500 0.60200 34.50500
H  20.13700 -6.65600 28.69900
H  19.67100 -5.74500 30.15400
H  21.07400 -5.19100 29.19200
H  20.67800 -7.19000 26.55400
H  21.82100 -5.75300 26.67200
H  21.64600 -6.55800 25.18900
H  16.51000 -2.59300 23.03400
H  15.93300 0.28700 23.14400
H  18.55800 -0.36100 23.35900
H  17.98100 -0.63700 21.79400
H  18.86700 -1.85500 22.53700
H  13.68700 -1.58900 23.52000
H  14.57000 -1.94800 22.02800
H  13.70000 -0.21000 20.90700
H  13.91000 0.84800 22.38500
H  12.41600 -0.21500 22.03100
H  12.83800 2.62600 25.80500
H  12.92400 3.68400 27.22600
H  11.59800 2.44300 26.95500
H  13.78000 1.08000 32.04600
H  14.75200 4.23900 34.61200
H  14.81500 5.05100 33.00900
H  16.24800 4.20300 33.66700
Mg -1.45300 33.81900 26.87800
C  -3.43800 32.27800 29.34100
C  -0.05600 35.83200 29.21000
C  0.38500 35.26300 24.45000
C  -3.19300 31.99500 24.33600
N  -1.98300 34.16400 29.02100
C  -2.67900 33.30800 29.85200
C  -2.37200 33.63600 31.31500
C  -1.43000 34.90700 31.29800
C  -1.12200 34.98300 29.72000
C  -2.01000 36.23600 31.86100
C  -1.72500 32.37200 32.07300
C  -2.36700 31.96100 33.43200
H  -1.44500 31.91700 34.71800
N  -0.10000 35.42000 26.81800
C  0.41800 36.05900 27.91500
C  1.57300 36.87500 27.43700
C  1.65500 36.79800 26.04600
C  0.62300 35.82300 25.70800
C  2.40200 37.70900 28.36500
C  2.59200 37.47300 25.10100
O  2.45600 37.31700 23.93500
C  3.70200 38.41500 25.42300
N  -1.56800 33.84200 24.64900
C  -0.59900 34.48600 23.88500
C  -0.79800 34.12700 22.37700
C  -1.89100 33.02400 22.42800
C  -2.24700 32.97100 23.90100
C  -1.19300 35.49100 21.54800
C  -1.35600 31.67300 21.89000
C  -0.95400 30.62300 22.93200
N  -3.07800 32.55200 26.79700
C  -3.58300 31.90300 25.71500
C  -4.61300 31.06800 26.20200
C  -4.56400 31.06300 27.58400
C  -3.60800 32.00700 27.90600
C  -5.56400 30.20600 25.35600
C  -5.15700 30.54800 28.82200
O  -6.07800 29.75500 29.01400
C  -4.34000 31.23100 30.02400
C  -5.38900 31.85500 30.87800
O  -5.94200 32.90900 30.65000
O  -5.64300 31.01200 31.88300
C  -6.54800 31.60600 32.84700
H  0.31900 36.34200 30.09900
H  1.07100 35.59400 23.66700
H  -3.62500 31.26800 23.64500
H  -3.35500 33.89500 31.70700
H  -0.56500 34.62100 31.89700
H  -1.91700 36.97100 31.06200
H  -1.27800 36.50000 32.62400
H  -3.01200 36.22000 32.28900
H  -0.66400 32.53700 32.26200
H  -1.86600 31.58900 31.32900
H  -2.82600 30.99100 33.23800
H  -3.19500 32.61200 33.71400
H  2.49800 37.01500 29.20000
H  1.81300 38.60300 28.56900
H  3.40500 37.86200 27.96500
H  3.38000 39.28300 25.99800
H  4.14100 38.69800 24.46600
H  4.45900 37.86800 25.98600
H  0.10800 33.69800 21.95000
H  -2.82400 33.30300 21.93900
H  -0.60800 35.67900 20.64800
H  -1.07000 36.28400 22.28500
H  -2.18600 35.17100 21.23000
H  -0.54400 31.77300 21.17000
H  -2.19500 31.18700 21.39200
H  -0.77300 31.13500 23.87700
H  0.02100 30.27700 22.58800
H  -1.74100 29.87200 23.00700
H  -4.91900 29.35500 25.13700
H  -5.86900 30.73700 24.45400
H  -6.40900 29.77800 25.89400
H  -3.81800 30.59900 30.74200
H  -6.04200 32.48800 33.24100
H  -6.83200 30.93000 33.65300
H  -7.45400 31.92400 32.33200

