158

Mg 24.39900 -5.01600 45.19600
C  26.71600 -2.57000 43.89900
C  21.96600 -3.50200 43.29800
C  22.38700 -7.78000 45.68700
C  27.00000 -6.66600 46.69000
N  24.40500 -3.31500 43.62300
C  25.39000 -2.44300 43.35200
C  24.96700 -1.53000 42.23000
C  23.42900 -1.60900 42.37600
C  23.22600 -2.84400 43.18000
C  22.94500 -0.31700 43.14100
C  25.42100 -1.94500 40.75500
C  26.39800 -0.94200 40.07700
H  26.28700 -0.95700 38.49300
N  22.40500 -5.52400 44.62100
C  21.57300 -4.68900 43.94200
C  20.30100 -5.24600 43.87300
C  20.37600 -6.55100 44.46800
C  21.78000 -6.65700 44.99300
C  19.11400 -4.62400 43.18200
C  19.32900 -7.65400 44.49300
O  18.23000 -7.37000 44.03100
C  19.58100 -9.07400 44.85300
N  24.66100 -6.97200 46.05500
C  23.64700 -7.89600 46.16900
C  24.06200 -9.17100 46.95700
C  25.50300 -8.76600 47.40600
C  25.73300 -7.35700 46.76500
C  23.11200 -9.41600 48.19700
C  26.62900 -9.77300 47.03200
C  27.60400 -10.14900 48.18300
N  26.41500 -4.67400 45.30100
C  27.33500 -5.47100 45.91200
C  28.66300 -4.93100 45.71100
C  28.48000 -3.74300 44.97600
C  27.08400 -3.64600 44.73500
C  29.88100 -5.39900 46.30100
C  29.10400 -2.62500 44.27400
O  30.26700 -2.24000 44.32100
C  27.99300 -1.90300 43.49900
C  28.04100 -0.38700 43.89200
O  27.80700 0.01900 44.99100
O  28.51000 0.35000 42.86900
C  28.68700 1.78400 43.06500
H  21.13400 -2.96100 42.84200
H  21.75200 -8.62900 45.95200
H  27.90200 -7.06500 47.15900
H  25.34800 -0.53300 42.45300
H  22.85600 -1.64300 41.45000
H  23.75900 0.11000 43.72700
H  22.17400 -0.53200 43.88100
H  22.61800 0.48600 42.48000
H  24.53500 -1.93200 40.11900
H  25.83800 -2.95200 40.77900
H  27.36900 -1.36900 40.32900
H  26.33800 0.06100 40.50200
H  19.20600 -3.53800 43.16400
H  18.16800 -4.87800 43.66200
H  19.06800 -5.10800 42.20700
H  20.43300 -9.53200 44.35000
H  18.70800 -9.68600 44.62700
H  19.73400 -9.25600 45.91700
H  24.06500 -9.98700 46.23400
H  25.57200 -8.60600 48.48200
H  22.15100 -8.94900 47.98000
H  23.60700 -9.01200 49.08000
H  22.94800 -10.45200 48.49400
H  27.28000 -9.29500 46.30000
H  26.17600 -10.70300 46.68800
H  27.51200 -9.60000 49.12000
H  28.66100 -10.19400 47.92100
H  27.34800 -11.16500 48.48300
H  29.91900 -5.27300 47.38300
H  30.77100 -4.84900 45.99700
H  30.10700 -6.44200 46.08000
H  28.07300 -2.01400 42.41700
H  29.76600 1.85400 42.92500
H  28.36100 2.08400 44.06100
H  28.09700 2.38900 42.37600
Mg 41.17900 9.31200 29.15100
C  42.65000 10.31000 32.28700
C  38.74800 7.89800 31.10900
C  39.71100 8.54000 26.39800
C  43.97300 10.53800 27.49900
N  40.79600 9.25700 31.47300
C  41.50000 9.64200 32.49900
C  40.82700 9.32500 33.85800
C  39.69300 8.29900 33.41700
C  39.70600 8.50300 31.92400
C  39.78900 6.86700 33.93800
C  40.35100 10.58000 34.63200
C  40.53300 10.54100 36.16600
H  41.49900 11.46600 36.83100
N  39.50700 8.30100 28.76500
C  38.62000 7.80900 29.65100
C  37.54200 7.13900 28.95900
C  37.66700 7.50900 27.59800
C  39.00100 8.11700 27.49600
C  36.43400 6.39100 29.67800
C  36.70600 7.38700 26.47600
O  36.84400 7.94500 25.38900
C  35.40300 6.73600 26.69000
N  41.85400 9.50000 27.25900
C  40.98400 9.17400 26.24000
C  41.57900 9.44500 24.80000
C  43.00600 10.01500 25.16600
C  42.99700 9.96600 26.76500
C  41.45800 8.20600 23.82700
C  43.38500 11.41400 24.64700
C  42.60600 12.66000 25.00100
N  43.06700 10.05400 29.76200
C  44.04800 10.61700 28.92000
C  45.10400 11.13900 29.76400
C  44.56700 11.07600 31.02200
C  43.34800 10.43900 31.00300
C  46.33900 11.67800 29.33300
C  44.87200 11.39400 32.40400
O  45.84900 11.88100 32.87400
C  43.63300 10.82500 33.33700
C  44.14800 9.93600 34.35400
O  44.10700 8.70200 34.29300
O  44.81100 10.67000 35.36700
C  45.67800 9.96500 36.31500
H  37.92500 7.56400 31.74500
H  39.25000 8.18200 25.47400
H  44.72800 11.10600 26.95200
H  41.54900 8.80400 34.48800
H  38.70800 8.65700 33.71400
H  38.81900 6.50000 34.27400
H  40.46700 6.72300 34.77900
H  40.07000 6.20500 33.11900
H  39.28900 10.72100 34.43000
H  40.67400 11.49800 34.14100
H  40.74800 9.54000 36.54000
H  39.59000 10.90700 36.57200
H  36.75600 5.99100 30.63900
H  36.11700 5.59600 29.00400
H  35.58300 6.99900 29.98300
H  35.55500 5.69900 26.99100
H  34.77700 6.73800 25.79800
H  34.84000 7.20300 27.49800
H  40.94100 10.24500 24.42400
H  43.82400 9.35900 24.86600
H  41.24700 7.27000 24.34300
H  42.41600 8.29000 23.31300
H  40.66500 8.40800 23.10700
H  43.32900 11.21400 23.57700
H  44.46800 11.46200 24.76400
H  41.73700 12.49600 25.63900
H  42.15000 13.05800 24.09500
H  43.29800 13.39100 25.41700
H  46.87000 12.18700 30.13800
H  46.07400 12.45300 28.61400
H  47.01100 10.97200 28.84500
H  43.30200 11.71500 33.87100
H  46.72700 10.26000 36.35600
H  45.71500 8.90600 36.06300
H  45.29900 10.04000 37.33400

