158

Mg 47.59200 45.41500 43.37400
C  44.19400 44.61600 43.28300
C  48.26400 42.00000 43.19100
C  50.76300 46.15100 42.71300
C  46.72600 48.87200 43.19400
N  46.30900 43.56000 42.96900
C  44.95200 43.46900 42.96000
C  44.48800 42.06200 42.62600
C  45.83100 41.21000 42.82800
C  46.87300 42.31300 43.04200
C  45.81700 40.21400 44.05700
C  43.75500 41.82100 41.29200
C  44.33200 42.56000 40.01000
H  44.81100 41.51100 38.95400
N  49.24300 44.24400 42.94500
C  49.36800 42.89100 43.13700
C  50.71100 42.48700 42.91300
C  51.45000 43.64000 42.75800
C  50.47200 44.78500 42.77600
C  51.31900 41.04500 42.90500
C  52.96100 43.64400 42.66000
O  53.62100 42.61800 42.63600
C  53.71200 44.91500 42.61900
N  48.63500 47.36300 43.29400
C  50.00100 47.29800 42.94400
C  50.45200 48.75800 42.90800
C  49.11900 49.53900 42.66700
C  48.13400 48.60600 43.15800
C  51.23400 49.21100 44.17400
C  48.85100 49.95700 41.19200
C  48.02400 51.28600 41.04500
N  45.81800 46.57900 43.25800
C  45.63200 47.93600 43.27700
C  44.22900 48.18600 43.44600
C  43.61900 46.94700 43.52700
C  44.61000 45.96600 43.35500
C  43.54600 49.46100 43.45700
C  42.38400 46.23900 43.68200
O  41.23400 46.60100 43.84900
C  42.74500 44.72800 43.60600
C  42.40900 44.17600 44.96600
O  43.06600 44.28400 45.96100
O  41.18800 43.59900 44.91100
C  40.74800 43.05900 46.22100
H  48.63400 40.97600 43.10800
H  51.78100 46.39400 42.40200
H  46.40900 49.91700 43.21800
H  43.78400 41.90800 43.44300
H  46.04800 40.60600 41.94700
H  44.89100 40.31500 44.62400
H  46.63400 40.41700 44.74900
H  45.71800 39.14100 43.89000
H  42.71600 42.12900 41.40300
H  43.52900 40.77400 41.09000
H  45.26100 43.11600 40.13300
H  43.70600 43.29500 39.50300
H  51.72300 40.82500 41.91700
H  50.51800 40.39700 43.26200
H  52.07100 40.71000 43.61900
H  53.47700 45.33200 41.63900
H  54.79300 44.77900 42.64700
H  53.31500 45.57100 43.39300
H  51.02700 48.78100 41.98200
H  49.04700 50.47200 43.22600
H  52.26800 49.42500 43.90100
H  51.15600 48.36500 44.85600
H  50.88400 50.11500 44.67100
H  48.18600 49.18700 40.80000
H  49.67000 49.91100 40.47400
H  48.58800 52.01300 40.46000
H  47.76500 51.76000 41.99200
H  47.11700 51.15600 40.45600
H  42.49400 49.24500 43.26900
H  43.84600 50.05200 42.59200
H  43.66600 50.07400 44.35100
H  42.19300 44.18500 42.84000
H  40.55900 43.86900 46.92600
H  41.47600 42.30100 46.50900
H  39.89900 42.43300 45.94600
Mg 48.01000 35.29600 28.13700
C  46.34700 33.80000 30.83900
C  48.31300 38.19400 30.06300
C  49.51300 36.87800 25.42800
C  47.35700 32.64300 26.08700
N  47.36600 35.92400 30.20200
C  46.92900 35.06600 31.16400
C  46.96200 35.81100 32.52400
C  47.16000 37.36300 32.14500
C  47.78700 37.11400 30.78300
C  45.94400 38.23700 32.01100
C  48.12200 35.30000 33.47300
C  47.82100 34.98900 34.96900
H  47.35700 36.20100 35.81500
N  48.90000 37.22900 27.80400
C  48.89600 38.28500 28.78200
C  49.70600 39.34900 28.26500
C  50.08600 38.92500 26.94000
C  49.47400 37.58800 26.65100
C  49.94000 40.65900 28.92600
C  50.94500 39.66200 25.93200
O  51.32200 39.07800 24.91900
C  51.34000 41.16600 26.12000
N  48.13000 34.95700 25.91800
C  48.91800 35.68800 25.05900
C  48.89000 35.08100 23.64600
C  48.43300 33.65800 23.97400
C  47.91200 33.69300 25.41500
C  47.99400 35.97000 22.77700
C  49.60100 32.53500 23.92300
C  49.08600 31.15100 23.45700
N  47.08100 33.56500 28.47000
C  46.83400 32.57200 27.49100
C  46.02300 31.49800 28.07700
C  45.81400 31.95300 29.44000
C  46.43700 33.22400 29.56600
C  45.63000 30.13100 27.49700
C  45.29600 31.51100 30.76300
O  44.83400 30.44800 31.15900
C  45.51700 32.80800 31.67500
C  46.04900 32.29300 32.93800
O  47.10400 31.75400 33.05200
O  44.99200 32.31600 33.93800
C  45.37800 31.86700 35.29900
H  48.31300 39.17700 30.53700
H  50.08300 37.35200 24.62500
H  47.27400 31.80900 25.38700
H  45.97900 35.62800 32.95900
H  47.88000 37.89800 32.76400
H  45.63100 38.62100 32.98200
H  45.13000 37.64600 31.59100
H  46.10200 39.08200 31.34100
H  48.98000 35.95900 33.33800
H  48.54800 34.40900 33.01100
H  48.79400 34.69000 35.35900
H  47.07600 34.19500 35.01300
H  49.17700 41.38800 28.65400
H  50.90500 41.08600 28.65100
H  49.91700 40.55000 30.01100
H  52.23100 41.35600 26.71800
H  50.44100 41.64000 26.51200
H  51.57200 41.58600 25.14100
H  49.84500 35.25700 23.15000
H  47.66800 33.35100 23.26100
H  48.67000 36.32300 21.99800
H  47.80900 36.93500 23.25100
H  47.16100 35.42200 22.33700
H  49.93500 32.38900 24.95000
H  50.44600 32.86000 23.31500
H  49.63000 30.80900 22.57700
H  48.07700 31.32900 23.08500
H  48.98900 30.35100 24.19100
H  46.08600 29.34100 28.09300
H  46.10100 30.05600 26.51700
H  44.54900 30.02900 27.39900
H  44.54200 33.21600 31.94300
H  45.07100 30.85300 35.55300
H  44.81100 32.54500 35.93600
H  46.41900 32.12400 35.49300

