158

Mg 41.46600 40.54900 26.96200
C  40.92400 43.06700 29.41100
C  42.22800 38.42300 29.45000
C  42.70700 38.46900 24.59400
C  41.20300 43.10500 24.51500
N  41.59600 40.82400 29.16800
C  41.19900 41.87900 30.01400
C  41.08500 41.45800 31.52400
C  41.67900 39.97100 31.41600
C  41.87800 39.72800 29.86600
C  43.00200 39.60200 32.25300
C  39.63400 41.51200 32.11500
C  39.34200 42.76700 33.02500
H  38.62100 42.59300 34.38700
N  42.13700 38.59700 27.06600
C  42.31400 37.86900 28.15100
C  42.59100 36.51500 27.74500
C  42.99600 36.49600 26.36900
C  42.60600 37.91100 25.95100
C  42.60000 35.31400 28.73600
C  43.72200 35.48800 25.56100
O  44.14000 35.64000 24.37800
C  43.98900 34.15300 26.13800
N  41.93000 40.74200 24.90000
C  42.32000 39.69100 24.11000
C  42.18300 39.95500 22.66400
C  41.46300 41.38100 22.62000
C  41.56100 41.78700 24.09500
C  43.44800 39.83100 21.92000
C  40.02400 41.50900 22.01200
C  38.93700 40.66200 22.63100
N  41.19000 42.62500 26.90100
C  40.93700 43.45100 25.80500
C  40.34500 44.68300 26.36000
C  40.39800 44.58700 27.72900
C  40.93000 43.35200 28.00400
C  39.71800 45.83300 25.56400
C  40.00900 45.32100 28.87400
O  39.67000 46.45400 29.11800
C  40.31500 44.29300 30.05800
C  41.30400 44.92400 31.00900
O  42.49200 44.71500 30.90000
O  40.68300 45.65600 32.00400
C  41.53700 46.24000 33.03700
H  42.42300 37.68300 30.22900
H  42.88700 37.66500 23.87700
H  40.84300 43.73700 23.70000
H  41.83100 42.00900 32.09700
H  40.97700 39.21700 31.77100
H  43.88600 39.57900 31.61600
H  42.85900 38.61800 32.69800
H  43.05300 40.39200 33.00200
H  39.33800 40.67200 32.74300
H  38.97400 41.65000 31.25900
H  38.62900 43.43900 32.54700
H  40.29300 43.28900 33.13200
H  43.63300 35.01800 28.92100
H  42.06800 34.47000 28.29700
H  42.14300 35.42000 29.72100
H  44.50500 34.25800 27.09200
H  44.51300 33.37800 25.57800
H  43.01900 33.74700 26.42400
H  41.49400 39.22200 22.24400
H  42.08400 42.02300 21.99600
H  43.38300 40.54400 21.09800
H  43.46300 38.80700 21.54500
H  44.32300 40.08500 22.51800
H  40.04700 41.23800 20.95700
H  39.83600 42.58200 21.97500
H  38.52000 39.99000 21.88000
H  38.19000 41.36700 22.99400
H  39.18700 39.89600 23.36600
H  39.33700 45.45900 24.61400
H  40.52500 46.54900 25.40700
H  38.87500 46.27800 26.09200
H  39.34500 44.15200 30.53400
H  42.37500 46.66500 32.48400
H  41.72000 45.40800 33.71700
H  40.91800 47.06800 33.38300
Mg -11.25800 18.45500 43.08500
C  -7.75600 18.69300 43.93700
C  -11.50800 21.81100 42.86700
C  -14.28000 18.02500 41.83000
C  -10.72100 14.91700 43.09200
N  -9.75600 19.95900 43.36600
C  -8.43700 19.87100 43.65600
C  -7.76300 21.21800 43.37000
C  -9.01800 22.22900 43.48900
C  -10.20000 21.32000 43.16100
C  -9.17900 23.08000 44.78700
C  -7.20600 21.14100 41.89600
C  -5.72100 21.32800 41.83600
H  -5.14600 21.99200 40.62900
N  -12.73600 19.74900 42.42100
C  -12.70100 21.11200 42.40500
C  -13.82000 21.68500 41.80100
C  -14.71500 20.54000 41.44800
C  -13.97600 19.38100 41.97500
C  -13.95600 23.14900 41.58600
C  -16.10700 20.70200 40.90300
O  -16.50700 21.78700 40.55200
C  -16.96500 19.55800 40.58900
N  -12.32300 16.75800 42.50200
C  -13.59600 16.83400 41.98300
C  -14.20400 15.47500 41.75300
C  -13.13700 14.43600 42.26800
C  -11.96800 15.38500 42.61000
C  -15.68000 15.32500 42.24400
C  -12.74700 13.32600 41.17400
C  -12.58000 11.84500 41.69900
N  -9.63800 16.95100 43.57700
C  -9.60500 15.61600 43.52300
C  -8.27000 15.14800 43.83700
C  -7.49400 16.27000 44.08600
C  -8.41100 17.38100 43.93800
C  -7.83200 13.69600 43.83200
C  -6.17900 16.83100 44.41400
O  -5.13500 16.26000 44.79000
C  -6.32800 18.35700 44.35500
C  -5.91400 18.87000 45.71900
O  -6.55700 18.76800 46.71500
O  -4.57200 19.27300 45.73000
C  -4.07600 20.03200 46.86100
H  -11.48200 22.90200 42.91100
H  -15.26300 17.74400 41.44600
H  -10.51000 13.87800 42.83000
H  -7.10700 21.36000 44.22900
H  -8.83100 22.94300 42.68700
H  -9.49400 24.06900 44.45300
H  -8.19800 23.15900 45.25700
H  -9.90400 22.62000 45.45800
H  -7.66100 21.85800 41.21200
H  -7.42900 20.19300 41.40700
H  -5.25400 20.37300 42.07700
H  -5.44700 21.91500 42.71300
H  -14.36900 23.40600 40.61000
H  -12.95400 23.56900 41.50100
H  -14.55600 23.59300 42.38000
H  -16.60000 18.96300 39.75100
H  -17.92600 19.89800 40.20300
H  -17.16900 18.91400 41.44400
H  -14.16600 15.36900 40.66900
H  -13.46600 13.92600 43.17400
H  -15.96100 16.16900 42.87400
H  -15.75800 14.36300 42.74900
H  -16.33400 15.23900 41.37700
H  -11.83200 13.66800 40.69000
H  -13.48900 13.33900 40.37500
H  -12.46700 11.09000 40.92100
H  -13.53900 11.48500 42.07200
H  -11.84900 11.87400 42.50600
H  -8.05600 13.27600 42.85100
H  -8.27600 13.12700 44.64900
H  -6.74600 13.61700 43.88600
H  -5.55000 18.56500 43.62000
H  -4.28700 21.09400 46.73200
H  -3.01000 20.06500 47.08800
H  -4.67300 19.79100 47.74000

