158

Mg 9.61700 49.04200 24.11400
C  7.25100 49.70700 26.46900
C  12.13500 50.20500 26.39400
C  12.06500 48.48200 21.80900
C  7.20300 47.97400 21.89500
N  9.65600 50.05100 26.17700
C  8.51400 50.03400 26.97900
C  8.90600 50.46800 28.43800
C  10.38400 51.04900 28.21000
C  10.78000 50.35300 26.85800
C  10.51800 52.57400 28.24800
C  8.69500 49.31300 29.47500
C  9.38500 49.46200 30.88200
H  8.49000 49.55800 32.05200
N  11.76200 49.24500 24.16900
C  12.55300 49.63200 25.22000
C  13.92600 49.69400 24.81000
C  14.01000 49.27600 23.40500
C  12.55800 48.97300 23.07600
C  15.09900 50.04700 25.65700
C  15.20600 49.04300 22.53300
O  15.05500 48.91200 21.31600
C  16.57300 48.90100 23.05600
N  9.59600 48.37400 22.09900
C  10.73600 48.17100 21.40500
C  10.55000 47.56200 20.05000
C  8.94600 47.42100 20.00500
C  8.49600 47.97000 21.40800
C  11.15200 48.35200 18.94000
C  8.60000 45.90800 19.72300
C  8.44300 44.95100 20.92800
N  7.60300 48.87000 24.07900
C  6.72200 48.45100 23.14500
C  5.36900 48.55600 23.68800
C  5.54400 49.06800 24.98700
C  6.91100 49.21600 25.18600
C  4.11300 48.14800 22.96800
C  4.80000 49.47500 26.17300
O  3.60700 49.46100 26.43800
C  5.86100 49.75300 27.19200
C  5.72500 48.64600 28.20500
O  6.20100 47.50300 28.07500
O  5.12900 49.16700 29.34700
C  4.82600 48.15000 30.28200
H  12.80000 50.66200 27.12900
H  12.81400 48.23200 21.05500
H  6.55900 47.49600 21.15300
H  8.31000 51.29600 28.82200
H  11.02400 50.69500 29.01800
H  9.56200 53.09400 28.18700
H  11.25900 52.91100 27.52300
H  10.94800 52.90200 29.19400
H  9.11600 48.46000 28.94300
H  7.62000 49.26000 29.64200
H  10.02600 50.34400 30.86700
H  10.14100 48.67800 30.93000
H  14.82200 50.14400 26.70600
H  15.47200 51.02800 25.36000
H  15.90200 49.31900 25.53900
H  16.54800 48.01000 23.68300
H  16.84900 49.81900 23.57600
H  17.29100 48.74800 22.25000
H  11.11900 46.63900 20.15800
H  8.42400 47.96200 19.21600
H  11.29000 49.34500 19.36600
H  10.31300 48.34200 18.24400
H  12.09300 48.00900 18.51100
H  9.42500 45.50400 19.13500
H  7.67000 45.77900 19.16900
H  8.50200 45.42500 21.90700
H  9.13000 44.10500 20.92900
H  7.40500 44.62100 20.96900
H  3.47800 47.61200 23.67300
H  4.38300 47.38800 22.23500
H  3.54600 48.97200 22.53500
H  5.70900 50.76400 27.57000
H  4.17800 47.42100 29.79600
H  4.23100 48.56200 31.09700
H  5.74600 47.67800 30.62700
Mg -11.62400 38.10700 41.39200
C  -9.36400 35.45700 40.32800
C  -9.50600 40.29800 39.64600
C  -13.78300 40.59500 41.74600
C  -13.81300 35.70700 42.45300
N  -9.63500 37.86700 40.06500
C  -8.97300 36.74100 39.81100
C  -7.58600 37.03800 39.08500
C  -7.55400 38.57800 38.98900
C  -8.98700 38.95700 39.54700
C  -6.42600 39.25900 39.75100
C  -7.49300 36.25700 37.70900
C  -5.96700 35.89600 37.36500
H  -5.58500 35.90500 35.85200
N  -11.63500 40.16800 40.85500
C  -10.69000 40.90000 40.19400
C  -11.08000 42.23100 40.04500
C  -12.37100 42.35900 40.67100
C  -12.67900 41.01700 41.12400
C  -10.34200 43.38900 39.38400
C  -13.26800 43.66500 40.60100
O  -12.78600 44.75300 40.19000
C  -14.71700 43.62600 41.05100
N  -13.61000 38.02300 41.75600
C  -14.20800 39.28600 42.09300
C  -15.53700 39.02300 42.91400
C  -15.60200 37.43000 42.86500
C  -14.26400 37.03200 42.36100
C  -15.77300 39.68800 44.27100
C  -16.78400 36.89300 42.00600
C  -18.16500 37.18100 42.37800
N  -11.64300 35.97500 41.43000
C  -12.56600 35.21800 41.96300
C  -12.00000 33.86100 42.15500
C  -10.78000 33.90100 41.51100
C  -10.60800 35.21100 41.07000
C  -12.58500 32.87100 42.98300
C  -9.53100 33.21800 41.21900
O  -9.13900 32.09800 41.42700
C  -8.65100 34.14600 40.31500
C  -7.23700 34.17100 40.72900
O  -6.41000 33.49900 40.08900
O  -7.01200 35.18000 41.67300
C  -5.64900 35.24700 42.21800
H  -8.82300 40.97100 39.12400
H  -14.52200 41.27800 42.16900
H  -14.40600 34.93000 42.94200
H  -6.76300 36.69700 39.71400
H  -7.56400 38.93600 37.96000
H  -5.79400 38.54900 40.28500
H  -6.84100 39.86700 40.55500
H  -5.83000 39.92000 39.12200
H  -7.75500 36.98100 36.93800
H  -8.15400 35.39200 37.66600
H  -5.66900 34.87600 37.60800
H  -5.24000 36.40000 38.00200
H  -10.96300 43.73400 38.55800
H  -9.46000 42.97700 38.89300
H  -10.00800 44.25900 39.95000
H  -14.95500 43.34700 42.07700
H  -15.35800 43.02100 40.41000
H  -15.29400 44.53600 40.89100
H  -16.27300 39.49600 42.26400
H  -15.79000 37.10000 43.88700
H  -16.43800 39.07100 44.87600
H  -16.24300 40.66300 44.14100
H  -14.73800 39.82100 44.58700
H  -16.72800 35.81400 41.86200
H  -16.66800 37.44400 41.07200
H  -18.77100 36.27600 42.41000
H  -18.54700 37.70100 41.50000
H  -18.22300 37.75700 43.30100
H  -12.00500 31.94900 42.94100
H  -13.57200 32.63200 42.58700
H  -12.63900 33.17700 44.02700
H  -8.62600 33.73700 39.30500
H  -5.81000 35.55700 43.25100
H  -5.17800 36.07900 41.69600
H  -5.05700 34.33200 42.19500

