158

Mg 49.33500 45.46700 42.49400
C  45.84700 44.96600 42.14400
C  49.73900 41.89300 42.38300
C  52.69800 45.83400 42.24300
C  48.82600 48.90100 42.18200
N  48.07900 43.67400 42.05600
C  46.62600 43.71000 42.15100
C  45.94900 42.32700 42.28700
C  47.20600 41.44700 42.51400
C  48.45300 42.37000 42.28500
C  47.26800 40.71500 43.82300
C  45.01400 41.79300 41.13900
C  44.82200 42.65000 39.91100
H  44.71100 41.81400 38.61200
N  50.94100 44.02900 42.32400
C  50.93500 42.66100 42.35100
C  52.32800 42.21000 42.21100
C  53.20400 43.33600 42.09600
C  52.28700 44.48000 42.23100
C  52.63900 40.73400 42.20900
C  54.71600 43.26400 41.85500
O  55.23500 42.16800 41.72300
C  55.57000 44.43800 41.76400
N  50.59500 47.20600 42.22700
C  51.95500 47.07400 42.39300
C  52.64700 48.45800 42.45000
C  51.43500 49.44400 42.24000
C  50.19700 48.48500 42.19900
C  53.37000 48.64300 43.80700
C  51.44200 50.28200 40.92100
C  51.49500 51.83200 41.03000
N  47.77100 46.73800 42.19600
C  47.65600 48.10800 42.15100
C  46.18000 48.51200 42.04900
C  45.55600 47.25100 42.12900
C  46.47100 46.24100 42.18800
C  45.65000 49.85300 41.92000
C  44.26900 46.72000 42.17800
O  43.20600 47.31200 42.16000
C  44.40400 45.20800 42.26400
C  43.77700 44.70700 43.49600
O  42.99100 43.77100 43.57000
O  44.40900 45.32400 44.52800
C  43.91500 44.87900 45.84100
H  49.78600 40.82200 42.59200
H  53.75200 46.11400 42.27700
H  48.71200 49.98500 42.11400
H  45.48500 42.52000 43.25400
H  47.21500 40.67900 41.74100
H  46.28000 40.43000 44.18400
H  47.64400 41.41900 44.56600
H  48.02600 39.93200 43.82900
H  43.97400 41.61600 41.41200
H  45.36400 40.83300 40.75700
H  45.53600 43.47300 39.89200
H  43.80900 43.04100 40.00800
H  53.39800 40.37900 41.51200
H  51.73400 40.15600 42.02100
H  52.96000 40.38500 43.19100
H  55.33600 44.94800 40.83000
H  56.62400 44.16100 41.77600
H  55.37300 45.07100 42.63000
H  53.34000 48.56400 41.61600
H  51.34200 50.07100 43.12700
H  54.40700 48.58500 43.47500
H  53.30900 47.80300 44.49900
H  53.14500 49.61300 44.24900
H  50.57100 49.99700 40.33100
H  52.28900 49.98500 40.30100
H  52.47700 52.20100 40.73700
H  51.52500 52.24800 42.03700
H  50.76200 52.49500 40.56900
H  46.24100 50.62700 41.43000
H  45.46300 50.36300 42.86500
H  44.68200 49.82100 41.41900
H  43.83100 44.85700 41.40600
H  44.36200 45.42000 46.67500
H  44.10600 43.84900 46.14200
H  42.84700 45.09500 45.87100
Mg -6.10100 24.99800 25.56400
C  -4.16700 26.43700 28.24700
C  -7.80100 23.17300 27.85700
C  -7.74700 23.74300 23.04300
C  -4.10100 26.89000 23.43600
N  -5.93600 24.77400 27.77200
C  -5.17200 25.53200 28.67700
C  -5.62200 25.14500 30.08300
C  -6.47100 23.85700 29.95500
C  -6.77000 23.95000 28.45600
C  -5.84500 22.45700 30.33200
C  -6.21700 26.34300 30.79700
C  -6.05200 26.46600 32.38000
H  -5.58700 25.17000 33.07600
N  -7.56900 23.61800 25.50800
C  -8.16700 23.00000 26.50500
C  -9.20200 22.15000 26.04400
C  -9.20300 22.29300 24.60000
C  -8.18100 23.27300 24.31600
C  -10.06200 21.31700 27.01500
C  -10.20700 21.63200 23.55300
O  -10.36200 21.99400 22.35600
C  -11.34200 20.66300 24.02500
N  -5.84100 25.18200 23.44900
C  -6.64900 24.50700 22.63700
C  -6.18800 24.73800 21.16500
C  -5.26200 26.03900 21.29200
C  -5.05300 26.12700 22.81700
C  -5.56500 23.52300 20.45900
C  -5.94500 27.21300 20.56400
C  -5.12000 28.04900 19.62700
N  -4.41000 26.35000 25.72100
C  -3.74300 27.03800 24.79100
C  -2.72600 27.85400 25.38500
C  -2.83600 27.62600 26.76800
C  -3.89700 26.73200 26.87800
C  -1.80700 28.77700 24.68700
C  -2.36700 27.95600 28.05900
O  -1.44200 28.70400 28.34200
C  -3.21300 27.25000 29.09800
C  -2.28300 26.47900 29.98800
O  -1.46200 25.66400 29.69200
O  -2.55400 26.89900 31.27800
C  -1.81400 26.37900 32.38600
H  -8.34500 22.70100 28.67800
H  -8.10200 23.15500 22.19400
H  -3.45700 27.58400 22.89200
H  -4.66000 24.80900 30.47000
H  -7.29400 24.05000 30.64300
H  -5.75700 21.85800 29.42600
H  -6.57400 22.05400 31.03400
H  -4.85700 22.45400 30.79400
H  -7.27000 26.40600 30.52500
H  -5.74200 27.25700 30.43900
H  -7.08500 26.70800 32.63000
H  -5.47400 27.35700 32.62600
H  -11.09300 21.45500 26.69000
H  -9.93800 21.66500 28.04100
H  -9.64300 20.31300 27.08000
H  -11.95600 20.36100 23.17700
H  -11.88000 20.97800 24.91900
H  -10.68700 19.86900 24.38300
H  -7.11000 24.99300 20.64100
H  -4.28500 25.77700 20.88500
H  -6.20800 23.23800 19.62600
H  -5.27100 22.72400 21.13900
H  -4.58800 23.77300 20.04500
H  -6.19000 27.93300 21.34500
H  -6.82800 26.82500 20.05700
H  -5.70900 28.24800 18.73100
H  -4.26300 27.50600 19.22800
H  -4.90500 29.04700 20.00800
H  -1.02900 28.29600 24.09400
H  -1.21100 29.28400 25.44600
H  -2.29200 29.51500 24.04800
H  -3.70800 28.01800 29.69300
H  -0.79900 26.71200 32.16600
H  -1.76900 25.29000 32.38900
H  -2.17800 26.79300 33.32600

