158

Mg 40.83100 9.36800 29.07500
C  42.47300 10.53100 32.00300
C  38.50400 7.75900 31.27900
C  39.45800 8.05000 26.41300
C  43.40900 10.73600 27.17700
N  40.52700 9.15100 31.47800
C  41.26000 9.88200 32.39700
C  40.65700 9.73100 33.76900
C  39.56200 8.63500 33.60000
C  39.50900 8.48600 32.04400
C  39.76200 7.28100 34.42000
C  40.15500 11.01700 34.48000
C  39.68500 11.02600 36.09400
H  40.48100 11.97300 37.02600
N  39.23500 8.08600 28.83900
C  38.40000 7.59500 29.83000
C  37.34600 6.85500 29.21500
C  37.44600 7.04300 27.82900
C  38.76700 7.73400 27.61600
C  36.37000 5.95700 29.92000
C  36.58800 6.59700 26.64000
O  36.85100 6.90900 25.49400
C  35.32400 5.88900 26.93300
N  41.32500 9.41900 27.10100
C  40.53400 8.81800 26.17500
C  41.22000 8.91700 24.81900
C  42.37600 10.04600 24.98900
C  42.38000 10.13700 26.49200
C  41.58600 7.53700 24.08600
C  42.03900 11.41600 24.36500
C  40.86200 12.22600 24.83300
N  42.59000 10.42100 29.49700
C  43.55100 10.86200 28.59000
C  44.63600 11.48700 29.32500
C  44.15700 11.48700 30.64800
C  42.95100 10.72200 30.69500
C  45.89300 12.04800 28.69600
C  44.53300 11.86700 31.99400
O  45.44700 12.60500 32.36300
C  43.33200 11.40600 32.87400
C  43.84600 10.75200 34.11400
O  44.53200 9.73000 34.04200
O  43.34900 11.43600 35.24300
C  43.71300 10.72900 36.48500
H  37.70800 7.40000 31.93500
H  39.09100 7.73000 25.43600
H  44.22300 11.04600 26.51900
H  41.41200 9.24300 34.38600
H  38.56800 8.99300 33.86900
H  38.91600 7.08200 35.07800
H  40.50800 7.39700 35.20600
H  39.96700 6.32100 33.94800
H  39.27200 11.36000 33.94100
H  40.99900 11.69400 34.35200
H  39.72900 10.05800 36.59200
H  38.62000 11.25700 36.11800
H  35.34300 6.32100 29.93500
H  36.55000 5.82700 30.98700
H  36.23200 5.00500 29.40700
H  34.71400 6.43100 27.65500
H  35.59000 4.87500 27.23100
H  34.72300 5.88300 26.02400
H  40.46300 9.40700 24.20700
H  43.25800 9.55400 24.57800
H  41.70500 6.78800 24.86800
H  42.45900 7.48100 23.43600
H  40.72500 7.14700 23.54400
H  41.94800 11.19600 23.30200
H  42.92400 12.02300 24.55500
H  40.11200 12.22300 24.04200
H  41.24300 13.23300 25.00000
H  40.40800 11.87300 25.75900
H  46.25400 11.39000 27.90500
H  46.63400 12.08600 29.49400
H  45.87400 13.07200 28.32300
H  42.80500 12.32100 33.14600
H  43.76700 11.49800 37.25500
H  44.58900 10.09100 36.36400
H  42.88400 10.06200 36.71900
Mg 53.69000 24.32500 43.75700
C  50.91200 26.64400 43.17000
C  51.54100 21.81900 42.91100
C  56.37700 22.48200 43.28900
C  55.66500 27.07800 44.26400
N  51.58200 24.31300 42.88300
C  50.59900 25.27300 42.90100
C  49.19900 24.75700 42.69000
C  49.37000 23.26700 42.91300
C  50.94100 23.13200 43.05200
C  48.64000 22.82700 44.23100
C  48.62000 25.06900 41.27800
C  49.61200 24.83300 40.07000
H  48.95500 24.33000 38.77000
N  53.95900 22.40100 43.24800
C  52.94900 21.55300 42.90000
C  53.52800 20.23300 42.72500
C  54.97800 20.40100 42.81500
C  55.21200 21.80100 43.10400
C  52.63400 19.04100 42.46200
C  55.96100 19.38900 42.46400
O  55.60000 18.23200 42.19800
C  57.44700 19.63000 42.47700
N  55.70400 24.82400 43.54400
C  56.68100 23.85500 43.59400
C  58.14700 24.34900 43.86000
C  57.91900 25.82600 44.24100
C  56.32500 25.95700 43.94000
C  58.97900 23.48200 44.85300
C  58.70600 26.88300 43.41400
C  60.04600 27.19800 43.95500
N  53.42200 26.46800 43.85300
C  54.29900 27.39100 44.18700
C  53.63700 28.65500 44.44200
C  52.29200 28.40400 44.07600
C  52.22700 27.09200 43.66100
C  54.24600 29.94700 45.07100
C  50.91200 28.95800 44.00300
O  50.48600 30.07200 44.43900
C  50.04300 27.86600 43.33800
C  49.51200 28.40400 42.04900
O  50.13300 28.76600 41.07800
O  48.13100 28.38500 42.14600
C  47.44200 28.60200 40.88300
H  50.84100 20.98600 42.81400
H  57.29800 21.89900 43.34600
H  56.23500 27.90100 44.69900
H  48.66900 25.27000 43.49200
H  48.91500 22.67200 42.12100
H  49.29700 23.10100 45.05600
H  48.57000 21.75500 44.04700
H  47.69800 23.34300 44.42000
H  48.32500 26.11200 41.39300
H  47.62100 24.69900 41.04900
H  50.29200 24.01700 40.31500
H  50.15300 25.77200 39.95000
H  51.87300 19.26100 41.71400
H  52.15900 18.69100 43.37900
H  53.19200 18.19400 42.06400
H  57.88800 18.66400 42.23000
H  57.76000 19.80700 43.50600
H  57.70800 20.38200 41.73300
H  58.69600 24.33700 42.91800
H  58.01800 26.04200 45.30500
H  58.29400 22.83000 45.39500
H  59.65600 24.05100 45.48900
H  59.57000 22.80600 44.23500
H  58.18400 27.83200 43.29500
H  58.68100 26.44400 42.41600
H  60.28400 26.48900 44.74800
H  60.16000 28.25600 44.18900
H  60.74300 26.91400 43.16700
H  53.97900 29.94900 46.12800
H  53.74500 30.75200 44.53200
H  55.31100 30.15500 44.96900
H  49.14900 27.66000 43.92600
H  47.68500 29.61400 40.56000
H  46.36200 28.45500 40.90500
H  47.74600 27.93700 40.07400

