158

Mg 26.80100 49.26300 26.68600
C  24.70800 50.34300 29.27700
C  29.19800 48.64700 29.16500
C  28.92200 48.16500 24.25800
C  24.42500 50.30700 24.41900
N  26.76500 49.17800 28.98300
C  25.74300 49.60800 29.80100
C  26.09000 49.28900 31.28300
C  27.62800 48.96900 31.18600
C  27.93000 48.86500 29.65400
C  28.47700 49.89800 32.11000
C  25.10200 48.21900 32.01300
C  24.29900 48.77500 33.19400
H  25.10500 49.34500 34.35200
N  28.73900 48.54200 26.66400
C  29.55600 48.44200 27.76000
C  30.89900 48.06000 27.39500
C  30.92200 47.89500 26.01200
C  29.48000 48.13400 25.58300
C  31.99900 47.72500 28.30500
C  32.04700 47.64100 25.10200
O  31.88700 47.61500 23.88300
C  33.38100 47.41500 25.66600
N  26.66600 49.25600 24.63700
C  27.61800 48.62800 23.83700
C  27.13000 48.59100 22.37400
C  25.61700 49.10300 22.46700
C  25.56400 49.59100 23.93200
C  27.98000 49.37200 21.31800
C  24.63600 47.97700 22.15100
C  23.58100 48.28000 21.06100
N  24.99200 50.15600 26.72600
C  24.11600 50.60200 25.75400
C  23.01800 51.37000 26.29700
C  23.25400 51.24600 27.64000
C  24.45600 50.54000 27.88100
C  21.84300 51.99000 25.46200
C  22.69000 51.65700 28.89100
O  21.64900 52.35800 29.15000
C  23.62000 51.11800 30.03200
C  24.20300 52.24000 30.81700
O  25.02400 53.09000 30.52800
O  23.59400 52.28400 32.10000
C  23.79300 53.51000 32.93600
H  29.92800 48.36300 29.92700
H  29.65900 47.93400 23.48600
H  23.68700 50.40300 23.62000
H  26.03700 50.27100 31.75400
H  27.72700 47.99300 31.66000
H  29.53100 49.78900 31.85200
H  28.45800 49.52000 33.13300
H  28.17800 50.94500 32.06200
H  25.80600 47.40500 32.18800
H  24.32700 47.87500 31.32800
H  23.58700 48.03100 33.55300
H  23.77400 49.63900 32.78800
H  32.83500 48.42500 28.31200
H  32.42500 46.78800 27.94600
H  31.79400 47.63600 29.37100
H  34.17100 47.29300 24.92500
H  33.30200 46.43900 26.14500
H  33.71600 48.19000 26.35500
H  27.19400 47.54800 22.06300
H  25.58300 49.94800 21.78000
H  28.67300 50.03800 21.83200
H  27.44500 50.07700 20.68000
H  28.64000 48.74300 20.72100
H  24.08100 47.53400 22.97700
H  25.15800 47.06800 21.85200
H  23.71300 47.55800 20.25500
H  23.72400 49.32900 20.80100
H  22.56500 48.15300 21.43500
H  20.95000 51.66800 25.99700
H  22.09400 51.57700 24.48500
H  21.86000 53.07500 25.35100
H  23.07900 50.48100 30.73200
H  23.71800 54.42200 32.34500
H  24.55300 53.48900 33.71700
H  22.95200 53.53200 33.62900
Mg 17.25800 50.88000 25.99100
C  19.07900 49.48400 28.64600
C  14.91600 51.91000 28.24400
C  15.34400 51.93100 23.36700
C  19.49700 49.53800 23.81000
N  16.99300 50.60800 28.17000
C  17.93200 50.17200 29.04800
C  17.57700 50.54100 30.46600
C  16.06800 50.98300 30.29300
C  16.01700 51.23100 28.85000
C  14.98400 50.03100 30.83800
C  18.43400 51.76400 30.96400
C  18.26000 52.11400 32.49500
H  17.28800 51.19800 33.37100
N  15.40800 51.82100 25.87200
C  14.62600 52.17500 26.91500
C  13.48900 53.00500 26.48000
C  13.69000 53.06800 25.01400
C  14.87800 52.28100 24.68700
C  12.49400 53.65600 27.48800
C  12.90400 53.82100 24.01300
O  13.18700 53.91900 22.79600
C  11.65300 54.50400 24.41400
N  17.33600 50.68900 23.84000
C  16.45200 51.14100 22.96500
C  17.08300 51.19400 21.59000
C  18.51400 50.45700 21.73600
C  18.45500 50.33300 23.22500
C  16.23800 50.43800 20.53000
C  19.77000 51.30000 21.28700
C  20.87200 50.43300 20.68200
N  19.02800 49.88800 26.13900
C  19.81100 49.26700 25.18100
C  20.95000 48.59700 25.75700
C  20.75400 48.70000 27.11400
C  19.54400 49.40900 27.32500
C  21.94700 47.78100 24.97200
C  21.14700 48.24100 28.38800
O  22.05100 47.51700 28.69300
C  20.23700 48.89600 29.42500
C  19.68000 47.90200 30.32700
O  18.72800 47.15700 30.01400
O  20.36800 47.88200 31.54000
C  19.76300 47.06800 32.66200
H  14.34400 52.43900 29.00900
H  14.83900 52.45300 22.55100
H  20.27300 49.17400 23.13300
H  17.74200 49.61200 31.01100
H  15.90400 51.85300 30.92900
H  15.30500 49.21300 31.48300
H  14.62600 49.45500 29.98500
H  14.11900 50.59700 31.18600
H  18.10600 52.61600 30.36900
H  19.48400 51.61700 30.71100
H  17.72500 53.05100 32.34000
H  19.19400 52.25900 33.03700
H  11.60800 53.86200 26.88800
H  12.88000 54.59000 27.89600
H  12.33000 52.94700 28.30000
H  11.04800 54.79800 23.55700
H  11.94800 55.41800 24.92900
H  11.16100 53.74000 25.01600
H  17.16300 52.21900 21.23100
H  18.44200 49.44400 21.34000
H  15.22200 50.26400 20.88500
H  16.69100 49.50200 20.20400
H  16.26600 51.15500 19.70900
H  20.21700 51.74900 22.17300
H  19.46300 52.04000 20.54700
H  21.81900 50.51500 21.21600
H  21.04600 50.90900 19.71700
H  20.59700 49.40100 20.46800
H  22.20700 48.18500 23.99400
H  21.41100 46.84000 24.84100
H  22.80800 47.59800 25.61500
H  20.79000 49.62900 30.01200
H  18.68900 47.25100 32.69100
H  20.16200 47.39100 33.62300
H  20.07000 46.03800 32.48100

