158

Mg 7.44000 2.29300 28.06400
C  9.05100 0.93400 30.78600
C  5.91800 4.59600 30.13900
C  5.93700 3.53500 25.38700
C  9.02100 -0.16300 26.01700
N  7.42300 2.74000 30.30300
C  8.18600 2.02800 31.13800
C  7.89300 2.51600 32.61800
C  6.68900 3.58200 32.34000
C  6.66700 3.68100 30.83600
C  5.31700 3.18200 32.94000
C  9.12300 2.91600 33.39400
C  9.03700 4.03000 34.50200
H  9.96900 3.78100 35.67400
N  6.05500 3.72400 27.85400
C  5.59300 4.60800 28.80700
C  4.72400 5.66800 28.17800
C  4.78600 5.40900 26.81800
C  5.61800 4.15600 26.65100
C  3.98300 6.70200 28.95100
C  4.17000 6.25500 25.68500
O  4.28500 5.96100 24.49600
C  3.55600 7.52900 25.90100
N  7.59800 1.79200 25.99500
C  6.85600 2.49200 25.14000
C  6.95300 1.80100 23.74800
C  8.06800 0.81800 23.90200
C  8.23500 0.72700 25.41400
C  5.60200 1.06900 23.30400
C  9.45500 1.18500 23.29300
C  10.52800 1.88000 24.18600
N  8.65000 0.60200 28.31700
C  9.17200 -0.23900 27.34600
C  10.11100 -1.12700 28.14900
C  10.10700 -0.64600 29.43200
C  9.17200 0.34500 29.49800
C  11.17200 -2.20500 27.54800
C  10.77900 -0.81700 30.74300
O  11.64400 -1.53500 31.17100
C  9.92600 0.11700 31.71000
C  9.06600 -0.79000 32.46600
O  7.99100 -1.31000 32.15000
O  9.49600 -0.75100 33.82500
C  8.50700 -1.18100 34.76200
H  5.61800 5.45400 30.74500
H  5.43000 3.94600 24.51200
H  9.77800 -0.81500 25.57700
H  7.43400 1.66800 33.12500
H  6.90100 4.60900 32.63600
H  4.73700 2.71000 32.14600
H  4.85000 4.10300 33.28600
H  5.31700 2.49100 33.78300
H  9.99500 3.05800 32.75600
H  9.22300 2.09200 34.10000
H  8.02600 4.17000 34.88500
H  9.22500 4.96500 33.97500
H  3.94500 6.48500 30.01900
H  3.03300 6.61300 28.42400
H  4.45200 7.67000 28.77700
H  3.31400 7.98200 24.93900
H  4.17400 8.17200 26.52700
H  2.60600 7.37500 26.41400
H  7.22000 2.49400 22.95000
H  7.85400 -0.23800 23.73400
H  4.84300 1.42600 23.99900
H  5.63900 -0.02000 23.26800
H  5.27200 1.49500 22.35700
H  9.24700 1.82100 22.43300
H  9.72300 0.18900 22.93900
H  9.99700 2.55100 24.86100
H  11.23400 2.53300 23.67200
H  11.09600 1.14400 24.75400
H  11.83300 -2.50800 28.36000
H  11.75400 -1.76000 26.74100
H  10.70400 -3.12900 27.20700
H  10.48500 0.77300 32.37800
H  7.56000 -0.65600 34.63300
H  8.92000 -1.00200 35.75500
H  8.41100 -2.25900 34.63500
Mg -5.03600 24.99700 26.12000
C  -3.77400 26.21300 29.09200
C  -7.07200 22.82100 27.95600
C  -6.06500 23.45700 23.25800
C  -2.90800 26.95500 24.31300
N  -5.32200 24.61100 28.28800
C  -4.78100 25.37500 29.30200
C  -5.28400 24.94200 30.67300
C  -6.14500 23.66800 30.23400
C  -6.19700 23.69900 28.74100
C  -5.67100 22.28800 30.82600
C  -6.12400 26.09700 31.42300
C  -6.19100 26.02800 32.95600
H  -5.53100 24.78300 33.66800
N  -6.45200 23.47800 25.65100
C  -7.23500 22.74800 26.56500
C  -8.08200 21.79900 25.86100
C  -7.81300 22.03400 24.53400
C  -6.70600 22.97500 24.41800
C  -9.19700 21.01700 26.46600
C  -8.60600 21.36500 23.44100
O  -8.18900 21.50000 22.29500
C  -9.87000 20.62000 23.62400
N  -4.52600 25.14000 24.05000
C  -5.09700 24.41000 23.07200
C  -4.38000 24.71500 21.68300
C  -3.60500 25.99700 22.01400
C  -3.61700 26.02200 23.55800
C  -3.48200 23.52400 21.16200
C  -4.19700 27.32800 21.43600
C  -3.28400 28.12700 20.43000
N  -3.52500 26.23100 26.57100
C  -2.84700 27.14700 25.71000
C  -2.02500 27.97700 26.59200
C  -2.40300 27.69200 27.90100
C  -3.22400 26.52600 27.85900
C  -1.06500 29.05600 26.20600
C  -2.15400 28.02500 29.26900
O  -1.50600 28.95800 29.77900
C  -3.04300 27.04300 30.11000
C  -2.09300 26.38400 31.09600
O  -1.26100 25.52400 30.85800
O  -2.27800 26.93000 32.29500
C  -1.54500 26.49600 33.46800
H  -7.73900 22.22700 28.58400
H  -6.35300 22.98300 22.31700
H  -2.34700 27.77900 23.86700
H  -4.35300 24.70300 31.18600
H  -7.20500 23.81600 30.44400
H  -6.45800 21.65800 31.24000
H  -5.00500 22.49500 31.66300
H  -5.22400 21.67000 30.04700
H  -7.14800 26.18500 31.06000
H  -5.73900 27.08900 31.18400
H  -7.24700 25.97000 33.21900
H  -5.71000 26.90300 33.39300
H  -9.07900 21.06000 27.54900
H  -9.12000 19.94200 26.30500
H  -10.19600 21.40400 26.26500
H  -9.70600 19.65700 24.10800
H  -10.30100 20.47700 22.63400
H  -10.62900 21.04500 24.28000
H  -5.07800 24.99500 20.89400
H  -2.55300 25.82200 21.79000
H  -4.02300 23.31600 20.23900
H  -3.57400 22.68500 21.85000
H  -2.41200 23.71700 21.07500
H  -4.41800 28.04100 22.23000
H  -5.13700 27.05100 20.96000
H  -3.55800 28.08500 19.37600
H  -2.27900 27.70400 20.44400
H  -3.31200 29.19400 20.64800
H  -0.69300 28.87800 25.19700
H  -0.20800 29.19700 26.86400
H  -1.59900 30.00300 26.12000
H  -3.77300 27.61600 30.68200
H  -1.37900 27.29800 34.18800
H  -0.67500 25.92100 33.15200
H  -2.10500 25.72200 33.99200

