158

Mg 23.32300 -6.26400 45.18500
C  25.59000 -3.98000 43.70800
C  20.78200 -4.72500 43.41200
C  21.26200 -8.86200 46.03100
C  25.98700 -7.80700 46.73200
N  23.17300 -4.47200 43.81400
C  24.24600 -3.72500 43.38200
C  23.78700 -2.54700 42.49600
C  22.23500 -2.64100 42.64700
C  22.00900 -3.95500 43.34500
C  21.49600 -1.44300 43.38400
C  24.23100 -2.83900 41.05600
C  24.61100 -1.57100 40.21100
H  23.98700 -1.43900 38.87900
N  21.31700 -6.71900 44.71700
C  20.43600 -5.92100 44.01700
C  19.11200 -6.52900 43.97200
C  19.24400 -7.70700 44.77700
C  20.65600 -7.78500 45.24600
C  17.90300 -5.92300 43.25400
C  18.08300 -8.66100 45.03900
O  16.93900 -8.37600 44.59400
C  18.26300 -9.88200 45.94100
N  23.54800 -8.07700 46.36800
C  22.59400 -9.00400 46.48500
C  23.05600 -10.15200 47.38900
C  24.52300 -9.74600 47.78700
C  24.74400 -8.50400 46.86000
C  22.19200 -10.49800 48.58500
C  25.54600 -10.96400 47.69000
C  26.18300 -11.34100 49.06900
N  25.41600 -6.03500 45.24400
C  26.34400 -6.70000 45.95300
C  27.61600 -6.04100 45.81300
C  27.40100 -5.05700 44.88900
C  26.00400 -5.09500 44.55200
C  28.85600 -6.32500 46.54400
C  28.07200 -3.92300 44.22500
O  29.24400 -3.52100 44.25700
C  26.87800 -3.15200 43.39400
C  26.89100 -1.72800 43.82700
O  26.26100 -1.29200 44.75800
O  27.79500 -1.01500 43.14000
C  27.95800 0.39000 43.55000
H  19.97900 -4.26800 42.82900
H  20.70100 -9.73700 46.36500
H  26.82700 -8.36500 47.15100
H  24.22400 -1.61500 42.85500
H  21.70700 -2.73200 41.69800
H  22.15700 -0.60700 43.61600
H  21.22400 -1.71900 44.40300
H  20.59500 -1.11200 42.86800
H  23.40400 -3.23100 40.46500
H  25.09000 -3.50900 41.02500
H  25.68100 -1.64300 40.01700
H  24.38600 -0.62000 40.69400
H  17.25800 -6.64200 42.74900
H  18.09900 -5.13100 42.53200
H  17.33200 -5.42900 44.04100
H  17.24600 -10.26600 46.02600
H  18.59800 -9.57800 46.93300
H  18.93900 -10.63500 45.53800
H  22.98000 -11.02200 46.73600
H  24.51400 -9.36800 48.80900
H  22.01100 -11.56700 48.47300
H  21.23400 -9.98400 48.66100
H  22.75400 -10.39600 49.51300
H  26.29200 -10.91600 46.89700
H  24.96400 -11.80100 47.30500
H  25.76400 -12.27500 49.44500
H  26.01400 -10.50700 49.74900
H  27.27000 -11.26800 49.09700
H  29.19600 -5.35100 46.89700
H  29.64600 -6.82600 45.98600
H  28.69600 -6.83500 47.49500
H  27.07600 -3.09000 42.32400
H  27.04900 0.90300 43.23600
H  28.84200 0.88300 43.14500
H  28.07600 0.34300 44.63200
Mg 47.18900 16.16200 27.95000
C  45.25800 15.82600 30.97900
C  49.32600 18.13900 29.85000
C  48.39500 17.41000 25.17800
C  44.41200 14.79600 26.28200
N  47.31900 16.87600 30.22400
C  46.47300 16.54900 31.21500
C  47.01700 17.02700 32.56800
C  48.30000 17.83300 32.16700
C  48.38200 17.52400 30.63800
C  48.18800 19.38000 32.44300
C  47.45000 15.90800 33.53800
C  46.75200 16.01000 34.93700
H  46.33800 17.46000 35.46200
N  48.75800 17.52400 27.50500
C  49.47100 18.21200 28.45400
C  50.56100 18.93800 27.78400
C  50.30700 18.77900 26.37300
C  49.11300 17.84000 26.30000
C  51.79500 19.56900 28.43800
C  50.97300 19.39900 25.13400
O  50.82200 18.99000 24.02700
C  51.89600 20.57600 25.28600
N  46.58600 16.02800 26.08400
C  47.28500 16.55500 25.08000
C  46.66600 16.15000 23.69100
C  45.68900 15.01100 24.10600
C  45.50500 15.29200 25.59800
C  46.09200 17.43500 22.95100
C  46.12200 13.53900 23.85200
C  47.45700 13.16200 24.39000
N  45.30100 15.38600 28.46800
C  44.24100 14.84000 27.67000
C  43.08900 14.51900 28.44900
C  43.46000 14.87400 29.73500
C  44.78000 15.34800 29.72300
C  41.90100 13.98600 27.90600
C  43.03700 14.80700 31.14400
O  41.96900 14.37300 31.55700
C  44.16700 15.48900 31.97000
C  43.57100 16.59800 32.69400
O  43.82800 17.76400 32.54200
O  42.76400 16.16800 33.71100
C  41.98300 17.14700 34.47000
H  49.97000 18.83400 30.39200
H  48.67600 17.81700 24.20400
H  43.61200 14.39000 25.66000
H  46.21900 17.65800 32.96000
H  49.26000 17.51900 32.57600
H  47.39600 19.51600 33.17900
H  47.77300 19.80300 31.52800
H  49.17000 19.81800 32.62500
H  48.50900 15.87700 33.79400
H  47.20100 14.93500 33.11400
H  47.34500 15.45200 35.66200
H  45.78600 15.50700 34.92200
H  51.69800 19.48400 29.52000
H  51.74600 20.63500 28.21500
H  52.75800 19.22700 28.06100
H  51.51100 21.23000 26.06800
H  51.87200 21.13900 24.35300
H  52.93900 20.28300 25.40800
H  47.44300 15.73700 23.04800
H  44.72200 15.13500 23.61800
H  46.91700 17.97300 22.48300
H  45.48300 17.98700 23.66600
H  45.35700 17.11800 22.21200
H  46.09200 13.29200 22.79100
H  45.34100 12.91100 24.28100
H  48.11300 12.81900 23.59000
H  47.36100 12.25900 24.99300
H  47.91900 13.95000 24.98500
H  41.48900 14.55000 27.07000
H  41.10600 14.06900 28.64600
H  42.07600 12.95400 27.60000
H  44.33200 14.60300 32.58300
H  41.43300 17.75300 33.75000
H  42.62900 17.67200 35.17300
H  41.32800 16.47400 35.02500

