158

Mg 53.93900 24.41900 44.22200
C  51.14700 26.70400 43.86800
C  51.61500 21.92400 43.31500
C  56.39400 22.39000 43.85300
C  56.06300 27.15300 44.50500
N  51.66000 24.39800 43.36300
C  50.69100 25.37900 43.49500
C  49.30400 24.82700 43.13100
C  49.50000 23.28600 43.41600
C  51.03500 23.14500 43.39800
C  48.93800 22.76400 44.79900
C  49.01900 25.18000 41.68300
C  47.56100 25.14100 41.22900
H  47.40200 24.65000 39.77600
N  54.04600 22.48400 43.68200
C  53.03500 21.62000 43.30900
C  53.53100 20.26300 43.20500
C  54.93000 20.30000 43.46100
C  55.20900 21.73200 43.67100
C  52.58700 19.01700 42.91900
C  55.78600 19.08800 43.41300
O  55.30200 17.96700 43.17600
C  57.27900 19.13500 43.81600
N  55.98800 24.78700 43.95900
C  56.80400 23.72700 44.06500
C  58.24300 24.12400 44.31400
C  58.12600 25.62100 44.41400
C  56.62200 25.88800 44.28000
C  58.94100 23.38400 45.46000
C  58.95400 26.39400 43.32200
C  59.84600 27.52600 43.88400
N  53.71100 26.48900 44.34200
C  54.66200 27.47200 44.51100
C  53.94600 28.72200 44.71300
C  52.61100 28.48000 44.53200
C  52.50600 27.09200 44.21800
C  54.52300 30.01300 45.07400
C  51.36600 29.10200 44.57300
O  51.11600 30.25200 44.84100
C  50.34600 28.04700 44.09500
C  49.92900 28.47700 42.72300
O  50.65200 28.75100 41.75300
O  48.58500 28.72000 42.68400
C  47.86900 29.20200 41.43700
H  50.83400 21.20200 43.06800
H  57.28200 21.75500 43.89600
H  56.80900 27.93200 44.67700
H  48.53100 25.37100 43.67300
H  49.06300 22.71100 42.60000
H  49.00900 23.47000 45.62600
H  49.37400 21.80600 45.08000
H  47.86800 22.61100 44.65800
H  49.63700 24.52800 41.06500
H  49.33700 26.19900 41.46100
H  47.05400 26.08600 41.42400
H  47.14500 24.34300 41.84300
H  53.01200 18.48800 42.06500
H  51.58000 19.28700 42.60100
H  52.57500 18.39300 43.81300
H  57.62900 18.11800 43.99800
H  57.23600 19.70500 44.74300
H  57.83700 19.62600 43.01900
H  58.80800 23.68200 43.49400
H  58.25000 26.01000 45.42400
H  59.15800 24.11400 46.24000
H  59.79600 22.77400 45.16700
H  58.31400 22.68300 46.01200
H  58.32000 26.86100 42.56800
H  59.55800 25.66400 42.78400
H  59.80500 28.42800 43.27300
H  60.88100 27.19400 43.80000
H  59.50700 27.79600 44.88400
H  54.20700 30.39200 46.04600
H  54.07700 30.72200 44.37600
H  55.58600 29.89000 44.86700
H  49.46500 27.96000 44.73000
H  46.84500 29.49700 41.66500
H  47.89200 28.40300 40.69700
H  48.45800 30.00600 40.99500
Mg -0.76500 34.06600 26.86900
C  -2.58100 32.35700 29.30500
C  0.78500 35.80600 29.25400
C  0.60100 35.86800 24.35600
C  -2.55100 32.22400 24.35000
N  -1.04800 34.23600 29.09200
C  -1.72100 33.31600 29.88800
C  -1.41600 33.63200 31.41500
C  -0.48800 34.83800 31.34300
C  -0.18200 34.99000 29.83600
C  -1.16900 36.10200 31.96300
C  -0.68400 32.38300 32.03400
C  -1.52200 31.65500 33.09600
H  -0.94200 31.42300 34.51900
N  0.49100 35.55100 26.79700
C  1.12500 36.07800 27.87800
C  2.00100 37.12100 27.48200
C  1.88900 37.24000 26.05000
C  0.93400 36.19600 25.66600
C  2.91500 37.85600 28.45900
C  2.68400 38.16100 25.09900
O  2.72900 38.15500 23.82700
C  3.62600 39.14500 25.73400
N  -1.06100 34.18700 24.55900
C  -0.32400 35.03300 23.80800
C  -0.74200 34.84400 22.29800
C  -1.65900 33.58600 22.39900
C  -1.78900 33.28500 23.86700
C  -1.43800 36.03400 21.69200
C  -0.97300 32.38200 21.67300
C  -0.11200 31.29500 22.36500
N  -2.15900 32.56300 26.76000
C  -2.78000 31.92300 25.65700
C  -3.69500 30.96800 26.18000
C  -3.64300 31.09400 27.58900
C  -2.69100 32.06800 27.89500
C  -4.46000 29.95000 25.44600
C  -4.13600 30.52000 28.78400
O  -4.88500 29.56900 28.93700
C  -3.43700 31.30000 30.00800
C  -4.55100 31.81100 30.86000
O  -5.43300 32.58200 30.51100
O  -4.61500 31.12000 32.04200
C  -5.61700 31.42800 33.02200
H  1.40400 36.21900 30.05300
H  1.04400 36.50300 23.58600
H  -2.98600 31.50300 23.65500
H  -2.44400 33.71100 31.76700
H  0.40100 34.74000 31.96600
H  -2.02300 35.70700 32.51400
H  -1.51300 36.79300 31.19400
H  -0.54500 36.62900 32.68400
H  0.31700 32.59700 32.40900
H  -0.54100 31.63300 31.25600
H  -1.63800 30.67900 32.62300
H  -2.50800 32.11400 33.17200
H  3.93200 37.64400 28.12900
H  2.92900 37.56800 29.51000
H  2.65600 38.91200 28.37700
H  2.98100 39.59900 26.48600
H  3.92600 39.83900 24.94900
H  4.58000 38.74400 26.07600
H  0.15100 34.79900 21.67600
H  -2.67000 33.81100 22.05900
H  -1.24600 35.95600 20.62100
H  -1.10600 37.01500 22.03200
H  -2.51200 35.95700 21.85900
H  -0.33700 32.78700 20.88600
H  -1.77800 31.76100 21.28000
H  0.15500 31.45600 23.40900
H  0.89600 31.43100 21.97300
H  -0.51200 30.29000 22.23000
H  -3.81900 29.59700 24.63800
H  -5.39300 30.39800 25.10500
H  -4.76300 29.10300 26.06100
H  -2.87700 30.52900 30.53900
H  -5.08800 31.59000 33.96100
H  -6.25400 30.54700 33.10600
H  -6.26500 32.28300 32.82900

