158

Mg 8.29500 4.40800 27.38200
C  9.61600 2.83700 30.29600
C  6.36300 6.24700 29.65000
C  6.97300 5.85100 24.76400
C  10.18000 2.21900 25.41900
N  7.93200 4.41200 29.74900
C  8.68300 3.80000 30.68000
C  8.29300 4.24500 32.11800
C  7.15600 5.24000 31.87400
C  7.09400 5.27100 30.33900
C  5.72600 5.06400 32.50900
C  9.55500 4.77000 32.85000
C  9.19500 5.30300 34.23200
H  9.60600 4.64000 35.48300
N  6.81500 5.78400 27.27700
C  6.22900 6.52300 28.24000
C  5.33000 7.51700 27.64700
C  5.43700 7.39500 26.23500
C  6.45100 6.35700 26.02300
C  4.57800 8.55800 28.42300
C  4.57700 7.99300 25.08000
O  4.62300 7.70500 23.90600
C  3.76400 9.10600 25.41300
N  8.47500 4.04800 25.40300
C  7.80600 4.82500 24.48400
C  8.10900 4.29100 23.03000
C  9.29300 3.35600 23.24900
C  9.33900 3.14400 24.76400
C  6.87600 3.56900 22.37800
C  10.68500 3.86000 22.76200
C  11.61200 2.84600 22.11900
N  9.56600 2.78100 27.70400
C  10.29900 2.03400 26.82800
C  11.17300 1.16900 27.53700
C  10.99100 1.40800 28.92600
C  9.98800 2.43900 28.95600
C  12.07800 0.13600 26.88500
C  11.40500 1.06600 30.27500
O  12.15100 0.21300 30.68300
C  10.53600 2.06300 31.20000
C  9.83100 1.07100 32.09100
O  9.11700 0.14300 31.74300
O  10.05500 1.45700 33.41700
C  9.35800 0.69900 34.46500
H  5.75000 6.94900 30.22000
H  6.62400 6.36600 23.86600
H  10.86600 1.70900 24.74000
H  7.90300 3.35800 32.61700
H  7.51600 6.25700 32.02400
H  5.02700 4.88000 31.69200
H  5.50900 5.97300 33.07000
H  5.66400 4.09800 33.01100
H  10.12200 5.44000 32.20300
H  10.21300 4.00700 33.26400
H  8.11000 5.26700 34.32800
H  9.52800 6.34100 34.25700
H  3.52500 8.34600 28.60900
H  4.67200 9.55000 27.98000
H  5.12700 8.89500 29.30200
H  3.17300 9.39800 24.54500
H  4.28000 9.99400 25.77800
H  2.99200 8.88100 26.14900
H  8.38300 5.14500 22.41100
H  9.12000 2.34900 22.87000
H  6.07200 3.73400 23.09600
H  7.14100 2.52600 22.20000
H  6.57000 3.90100 21.38600
H  11.32400 4.23900 23.55900
H  10.57700 4.75900 22.15500
H  11.83800 3.20100 21.11300
H  11.20800 1.83400 22.08000
H  12.61000 2.87100 22.55600
H  11.57900 -0.77000 26.54000
H  12.83800 -0.15900 27.60800
H  12.57300 0.53600 26.00000
H  11.11700 2.75700 31.80700
H  8.99800 -0.22900 34.02100
H  8.49700 1.16100 34.94800
H  10.17000 0.45600 35.15100
Mg -6.06900 25.51200 27.19700
C  -4.58000 26.72000 30.14300
C  -7.84100 23.43300 28.82400
C  -7.22200 24.32900 24.26100
C  -3.84200 27.67100 25.41900
N  -6.15300 25.06800 29.22000
C  -5.49200 25.63000 30.37500
C  -6.09100 25.19600 31.67100
C  -6.97300 23.98100 31.26500
C  -7.00300 24.17300 29.70800
C  -6.38700 22.57700 31.57600
C  -6.87700 26.35300 32.44500
C  -6.63100 26.56200 33.94300
H  -5.94200 25.45800 34.78300
N  -7.38100 24.10900 26.61400
C  -8.07500 23.36200 27.47300
C  -8.99900 22.46600 26.82700
C  -8.81700 22.67100 25.43700
C  -7.79700 23.72500 25.39000
C  -9.87600 21.50400 27.50100
C  -9.45800 21.91500 24.27200
O  -9.30400 22.26800 23.12900
C  -10.25000 20.64600 24.41500
N  -5.59700 25.95500 25.14600
C  -6.19300 25.26600 24.16100
C  -5.51600 25.54000 22.78300
C  -4.62600 26.74600 23.18300
C  -4.67300 26.82200 24.66600
C  -4.78100 24.29500 22.23500
C  -5.24400 28.05300 22.50300
C  -6.51100 28.68000 22.99000
N  -4.49600 26.90200 27.65100
C  -3.67700 27.66700 26.85100
C  -2.82400 28.56000 27.65900
C  -3.24300 28.29500 28.99900
C  -4.13000 27.19300 28.89200
C  -1.83600 29.68000 27.10000
C  -3.00700 28.62000 30.32700
O  -2.29300 29.47300 30.82000
C  -3.91900 27.60400 31.18400
C  -3.02000 26.97100 32.17500
O  -2.66000 25.75800 32.09200
O  -2.95500 27.76500 33.30400
C  -2.29500 27.21200 34.48700
H  -8.42200 22.87200 29.56000
H  -7.71400 23.93400 23.36900
H  -3.19200 28.35000 24.86200
H  -5.28000 24.81800 32.29300
H  -7.97200 23.86700 31.68700
H  -5.65700 22.79600 32.35500
H  -5.95600 22.18800 30.65300
H  -7.08400 21.85700 32.00400
H  -7.95000 26.21800 32.30700
H  -6.78500 27.35100 32.01800
H  -7.62400 26.66900 34.37900
H  -5.96500 27.41700 34.06500
H  -9.70100 20.45900 27.24400
H  -10.93400 21.71500 27.34500
H  -9.69800 21.57800 28.57400
H  -11.03800 20.81800 25.14800
H  -9.68000 19.80900 24.81900
H  -10.52300 20.33900 23.40500
H  -6.14200 25.82700 21.93800
H  -3.56200 26.56200 23.02900
H  -5.15800 23.38400 22.70000
H  -3.69400 24.35800 22.29200
H  -4.97100 24.09800 21.18000
H  -5.54300 27.75000 21.49900
H  -4.43900 28.78700 22.44500
H  -7.30000 28.56400 22.24700
H  -6.38900 29.69500 23.36900
H  -6.96200 28.06300 23.76800
H  -0.83900 29.27300 26.92700
H  -1.71600 30.52700 27.77600
H  -2.29900 30.04300 26.18300
H  -4.62600 28.31700 31.60800
H  -1.67500 27.90500 35.05600
H  -1.48400 26.49600 34.35500
H  -3.04300 26.90100 35.21700

