158

Mg 2.12400 -0.30200 43.89000
C  5.58800 0.39400 43.27500
C  1.37500 2.48800 42.08200
C  -1.12000 -1.07800 44.09300
C  2.99700 -3.51100 44.85300
N  3.35500 1.22200 42.86000
C  4.74500 1.34100 42.63200
C  5.12100 2.48000 41.74000
C  3.75300 3.28900 41.58100
C  2.75100 2.29800 42.30700
C  3.73700 4.68900 42.29600
C  5.65100 1.96500 40.32600
C  6.99000 2.37400 39.94700
H  7.04200 3.26000 38.71100
N  0.33400 0.59700 43.25600
C  0.28400 1.72400 42.50000
C  -1.06500 2.05500 42.25000
C  -1.84600 0.99600 42.80400
C  -0.89000 0.08500 43.35600
C  -1.45200 3.17200 41.28100
C  -3.37500 0.97100 42.66600
O  -3.87700 1.91800 42.10900
C  -4.27200 -0.08500 43.17700
N  1.14300 -1.94700 44.48700
C  -0.17400 -1.93800 44.60300
C  -0.58500 -3.32600 45.01900
C  0.59600 -4.19100 44.76100
C  1.67900 -3.13500 44.69700
C  -1.22000 -3.41500 46.44000
C  0.57000 -5.05600 43.42900
C  -0.18900 -6.46400 43.45500
N  3.87800 -1.28700 44.28000
C  4.08600 -2.59000 44.71000
C  5.45200 -2.78700 44.82900
C  6.10800 -1.57200 44.36300
C  5.05800 -0.77000 44.02100
C  6.04900 -4.00300 45.35600
C  7.42400 -0.99700 44.14000
O  8.56500 -1.44200 44.36900
C  7.17400 0.41500 43.47200
C  7.59600 1.43300 44.57000
O  7.20500 1.47600 45.72100
O  8.09800 2.57500 43.95200
C  8.16100 3.91400 44.62100
H  1.16100 3.45300 41.61900
H  -2.17200 -1.33900 44.22400
H  3.07900 -4.53600 45.22000
H  5.81400 3.14600 42.25500
H  3.46700 3.46500 40.54400
H  4.68100 5.09000 42.66600
H  3.10000 4.64800 43.18000
H  3.08200 5.43000 41.83800
H  4.83400 2.09900 39.61700
H  5.68600 0.89600 40.53700
H  7.56700 1.47300 39.73700
H  7.45200 3.00900 40.70300
H  -2.17600 2.83100 40.54000
H  -0.61400 3.63100 40.75600
H  -1.94700 3.92600 41.89300
H  -5.28900 0.22500 42.93700
H  -4.11200 0.10300 44.23900
H  -4.04200 -1.10500 42.86700
H  -1.45600 -3.55900 44.40700
H  0.76500 -4.94800 45.52700
H  -0.48100 -3.67300 47.20000
H  -2.03000 -4.13900 46.52900
H  -1.62000 -2.42400 46.65100
H  1.55800 -5.16900 42.98200
H  0.08400 -4.36700 42.73900
H  -0.26200 -6.73100 44.50900
H  0.45900 -7.18500 42.95600
H  -1.14400 -6.46600 42.93100
H  5.36500 -4.45300 46.07600
H  6.89800 -3.78900 46.00500
H  6.35000 -4.72500 44.59700
H  7.76000 0.58500 42.56900
H  9.03500 3.83000 45.26700
H  7.27500 4.09500 45.23000
H  8.22600 4.63400 43.80600
Mg 53.28000 23.38400 45.03300
C  50.91400 25.75500 44.26400
C  51.25600 21.00100 43.69800
C  55.85900 21.22400 45.00500
C  55.42400 25.99200 45.89900
N  51.34500 23.39600 43.92700
C  50.46500 24.48000 43.78900
C  49.05000 24.08300 43.20000
C  49.12400 22.52100 43.51100
C  50.69900 22.25500 43.67800
C  48.26500 21.90200 44.71200
C  48.82700 24.53000 41.68100
C  48.83700 23.49000 40.52800
H  48.77800 23.94100 39.12800
N  53.51400 21.36100 44.47100
C  52.54300 20.57400 43.93400
C  53.09900 19.19400 43.87700
C  54.36100 19.22800 44.39800
C  54.65100 20.65100 44.65100
C  52.26800 18.10000 43.50700
C  55.21600 17.93700 44.61200
O  54.79500 16.78700 44.38600
C  56.73300 18.09100 45.08800
N  55.33900 23.55000 45.43100
C  56.20700 22.51300 45.39700
C  57.69800 23.01000 45.63600
C  57.49000 24.46000 45.97000
C  55.99700 24.68000 45.71300
C  58.48500 22.14000 46.70500
C  58.41200 25.48700 45.35000
C  59.75000 25.80700 46.08900
N  53.23300 25.43100 45.19800
C  54.08200 26.33700 45.68900
C  53.42100 27.63800 45.84300
C  52.19800 27.47900 45.22300
C  52.11400 26.12000 44.87900
C  53.90500 28.90500 46.42000
C  50.93500 28.14600 44.97400
O  50.54500 29.29300 45.28400
C  50.02100 27.06700 44.23400
C  49.60400 27.54600 42.89600
O  50.43900 27.96200 42.08500
O  48.27000 27.57500 42.61300
C  47.91300 28.11100 41.32500
H  50.51500 20.20400 43.78800
H  56.71200 20.54600 44.92900
H  56.06700 26.83800 46.15100
H  48.25400 24.55200 43.77800
H  48.92200 21.94900 42.60600
H  48.82600 21.33000 45.45100
H  47.50500 21.20900 44.35100
H  47.75900 22.71000 45.24200
H  49.45800 25.37000 41.39100
H  47.84700 25.00700 41.65600
H  48.02300 22.76900 40.59700
H  49.70000 22.82900 40.61000
H  51.55200 17.82200 44.28100
H  52.70900 17.20500 43.06800
H  51.76200 18.60400 42.68400
H  57.39700 18.39000 44.27700
H  57.15100 17.16300 45.47900
H  56.76000 18.77200 45.93800
H  58.22400 22.92500 44.68500
H  57.58700 24.43400 47.05600
H  58.98500 22.71900 47.48100
H  59.29000 21.67300 46.13900
H  57.79300 21.38300 47.07700
H  57.94800 26.39400 44.96400
H  58.87900 24.91700 44.54700
H  60.59300 25.94200 45.41200
H  60.05200 24.94500 46.68400
H  59.53900 26.71100 46.66100
H  53.25300 29.71200 46.08700
H  54.92300 29.09600 46.07900
H  53.97000 28.92300 47.50800
H  49.06600 27.04300 44.75800
H  48.09300 27.47800 40.45600
H  48.28100 29.13300 41.24100
H  46.82400 28.08200 41.29300

