158

Mg 49.56400 46.52200 42.55500
C  46.19600 47.02800 41.63000
C  49.29200 43.37400 41.36800
C  52.91000 46.14000 42.98200
C  49.75300 49.82400 43.60900
N  47.89100 45.38300 41.50300
C  46.61600 45.73400 41.29600
C  45.78600 44.62000 40.69000
C  46.70700 43.40500 40.97500
C  48.06900 44.05600 41.31000
C  46.07900 42.38600 41.96300
C  45.51300 44.99100 39.21700
C  44.31000 44.29700 38.59600
H  44.47200 43.68300 37.22100
N  50.94300 44.93800 42.15100
C  50.64800 43.72800 41.63900
C  51.83900 42.89400 41.58000
C  52.89700 43.69000 42.08500
C  52.28000 45.00400 42.44100
C  51.93600 41.53100 40.96300
C  54.28000 43.17200 42.25000
O  54.55900 41.99300 42.09500
C  55.38500 44.07100 42.81900
N  51.12700 47.80300 43.28900
C  52.43200 47.43900 43.36100
C  53.33700 48.55900 43.81300
C  52.30800 49.71300 44.04100
C  50.97000 49.06300 43.65700
C  54.16800 48.26400 45.14600
C  52.70900 51.05600 43.43000
C  52.85200 52.10100 44.50100
N  48.28000 48.05900 42.70500
C  48.50200 49.32400 43.19600
C  47.28800 50.14200 43.09800
C  46.34600 49.18700 42.53700
C  46.98400 48.00500 42.21500
C  47.17400 51.56500 43.43400
C  44.97100 49.03800 42.18000
O  44.04900 49.86700 42.39400
C  44.82800 47.66200 41.49800
C  43.72100 46.93000 42.17800
O  43.64700 46.65200 43.37200
O  42.82700 46.62100 41.21200
C  41.57100 45.95200 41.69400
H  49.24800 42.32700 41.05800
H  53.99600 46.17300 43.09200
H  49.76400 50.89000 43.84600
H  44.84500 44.44700 41.21200
H  46.78900 42.82400 40.05600
H  44.99700 42.28700 41.87900
H  46.28900 42.77500 42.96000
H  46.53000 41.42500 41.71400
H  46.28100 44.84000 38.45800
H  45.36100 46.06900 39.15200
H  43.40300 44.89300 38.70100
H  44.12300 43.41600 39.21100
H  52.78700 41.41700 40.29100
H  51.02200 41.22700 40.45300
H  52.05600 40.73000 41.69200
H  56.21200 43.40700 43.07000
H  54.87200 44.34000 43.74200
H  55.44300 44.80600 42.01600
H  54.03800 48.65800 42.98400
H  52.22700 49.78700 45.12500
H  55.11600 48.78700 45.02300
H  54.45300 47.22400 45.31000
H  53.77300 48.64800 46.08700
H  52.11500 51.46300 42.61200
H  53.72600 50.97900 43.04800
H  53.89800 52.40600 44.53700
H  52.69100 51.82600 45.54300
H  52.19300 52.91300 44.19100
H  47.59100 52.08800 42.57300
H  47.73500 51.72700 44.35400
H  46.16200 51.84600 43.72600
H  44.58300 47.91700 40.46700
H  41.76100 44.98700 42.16600
H  40.96200 45.73400 40.81700
H  40.86300 46.58300 42.23000
Mg 42.71100 41.65100 26.68800
C  41.62100 43.67100 29.19300
C  43.98000 39.50800 28.97500
C  43.64700 39.73900 24.07100
C  41.95700 44.19800 24.20200
N  42.87500 41.66700 28.83600
C  42.06400 42.40200 29.64300
C  42.13900 41.95900 31.09000
C  43.07400 40.75800 30.98800
C  43.40900 40.68300 29.51200
C  44.29000 40.79900 31.96800
C  40.75400 41.70400 31.73200
C  40.45200 42.46800 33.05900
H  39.67400 41.80300 34.14700
N  43.66400 39.82900 26.48700
C  44.05800 39.06800 27.62400
C  44.49100 37.77200 27.10700
C  44.31500 37.77800 25.69800
C  43.88300 39.17800 25.36500
C  45.12100 36.76100 27.98800
C  44.52000 36.67900 24.69700
O  44.32800 36.83300 23.49300
C  44.95800 35.24200 25.18600
N  42.89000 41.96300 24.46100
C  43.32500 41.03700 23.68000
C  43.08400 41.29600 22.21800
C  42.60400 42.79500 22.22300
C  42.44500 43.01200 23.74400
C  44.34500 41.04700 21.41200
C  41.40700 42.92400 21.34700
C  40.11600 42.49700 22.06800
N  42.08200 43.52800 26.64900
C  41.73700 44.44800 25.60000
C  41.17500 45.64300 26.18900
C  41.10700 45.38500 27.59600
C  41.65500 44.11100 27.81800
C  40.54000 46.83800 25.47000
C  40.66000 45.93700 28.82200
O  40.13400 47.01200 29.07500
C  40.93300 44.79700 29.93600
C  41.79200 45.44100 30.95600
O  42.97500 45.54500 30.90000
O  41.05100 45.92400 31.97100
C  41.52600 46.60600 33.17300
H  44.35200 38.82500 29.74200
H  43.93300 39.12000 23.21900
H  41.65300 44.93700 23.45900
H  42.64200 42.80100 31.56500
H  42.52300 39.85100 31.23600
H  44.11100 41.47700 32.80300
H  45.10100 41.18000 31.34700
H  44.61600 39.79900 32.25300
H  40.67000 40.67900 32.09400
H  39.94100 41.77600 31.00900
H  39.87100 43.36500 32.84600
H  41.42600 42.83500 33.38200
H  44.42000 35.94400 28.15900
H  45.39400 37.21200 28.94200
H  45.96700 36.40900 27.39800
H  45.96500 35.07200 25.56800
H  44.78500 34.76100 24.22300
H  44.19400 34.91700 25.89300
H  42.34200 40.57600 21.87000
H  43.33800 43.53000 21.89400
H  45.22200 40.92300 22.04800
H  44.64900 41.93900 20.86400
H  44.19200 40.24300 20.69200
H  41.62500 42.33500 20.45600
H  41.37600 43.95600 20.99900
H  39.70700 41.76500 21.37200
H  39.46800 43.36700 22.17500
H  40.23900 41.95100 23.00300
H  39.84500 46.44100 24.73000
H  41.23900 47.54100 25.01800
H  39.99800 47.43300 26.20600
H  40.03500 44.55500 30.50400
H  42.08000 45.86900 33.75400
H  40.63200 47.01000 33.64700
H  42.31200 47.33900 32.98700

