158

Mg 25.68100 -0.75900 29.16400
C  27.61900 -1.12900 32.05100
C  23.02400 -0.02900 31.21000
C  23.74100 -0.83500 26.40800
C  28.44500 -1.60400 27.29300
N  25.44100 -0.45700 31.33300
C  26.37600 -0.61600 32.33100
C  25.80300 -0.27400 33.73900
C  24.32100 0.06400 33.43900
C  24.18600 -0.21200 31.90100
C  23.42800 -0.79200 34.40900
C  26.58400 0.88300 34.48100
C  27.08800 0.53500 35.91000
H  26.45200 1.29400 37.06100
N  23.73800 -0.39800 28.86900
C  22.78100 -0.04100 29.80300
C  21.52500 0.21900 29.13400
C  21.67900 0.05500 27.70900
C  23.10600 -0.47600 27.60800
C  20.26100 0.50100 29.88600
C  20.65500 0.19300 26.55900
O  20.96400 -0.01500 25.42300
C  19.29100 0.80900 26.76900
N  26.00900 -1.30300 27.16200
C  25.09500 -1.08600 26.22900
C  25.62200 -1.68300 24.93500
C  27.13700 -1.63300 25.10000
C  27.20600 -1.48000 26.62000
C  25.08900 -3.13100 24.51500
C  27.90700 -0.59000 24.32000
C  29.03800 -1.03900 23.43200
N  27.65000 -1.31700 29.53200
C  28.65900 -1.62700 28.68400
C  29.85300 -1.96700 29.45000
C  29.46300 -1.74200 30.77800
C  28.13200 -1.33100 30.77700
C  31.16600 -2.34800 29.00100
C  29.94900 -1.70900 32.16600
O  31.06000 -1.82000 32.70600
C  28.78300 -1.29300 33.03800
C  28.51800 -2.35100 34.03900
O  27.93300 -3.37100 33.76700
O  29.00400 -2.02000 35.30400
C  28.69700 -2.98200 36.39800
H  22.27400 0.31800 31.92500
H  23.12400 -1.07300 25.53900
H  29.29500 -1.79100 26.63300
H  25.94800 -1.23400 34.23600
H  24.10700 1.12200 33.59300
H  23.95900 -0.88500 35.35600
H  23.16900 -1.71800 33.89600
H  22.53500 -0.20700 34.62400
H  25.90600 1.73600 34.51300
H  27.37800 1.31900 33.87300
H  28.09400 0.94000 35.80200
H  26.96500 -0.54000 36.03900
H  20.34500 0.61300 30.96700
H  19.52700 -0.27300 29.66400
H  19.78700 1.38700 29.46300
H  19.40400 1.86100 27.03100
H  18.69000 0.26000 27.49400
H  18.76100 0.62000 25.83600
H  25.33500 -1.01700 24.12200
H  27.53000 -2.61100 24.82000
H  25.79700 -3.78900 25.02000
H  25.04900 -3.32100 23.44200
H  24.12800 -3.32200 24.99100
H  28.28000 0.08600 25.09000
H  27.20200 -0.00900 23.72600
H  29.17200 -0.49500 22.49600
H  28.81000 -2.07600 23.18500
H  29.99500 -1.14000 23.94300
H  31.62900 -3.04300 29.70200
H  31.69000 -1.39300 29.03400
H  31.21500 -2.76400 27.99500
H  29.07200 -0.38100 33.56000
H  27.88100 -2.69900 37.06400
H  29.54400 -2.93700 37.08200
H  28.60700 -4.02900 36.10600
Mg 43.88000 3.14200 47.88800
C  41.63700 5.65900 47.03600
C  41.29300 0.83400 47.61600
C  46.09200 0.58300 47.90000
C  46.43700 5.45200 47.52500
N  41.82000 3.27500 47.39100
C  41.11000 4.34300 47.07100
C  39.61600 4.11700 46.94100
C  39.46500 2.64200 47.32700
C  40.95600 2.24700 47.55200
C  38.66000 2.44900 48.69800
C  39.11500 4.38000 45.51500
C  37.73900 5.08400 45.35800
H  37.71500 6.19900 44.24000
N  43.65500 0.93600 47.99100
C  42.48800 0.25600 47.86100
C  42.86100 -1.14900 48.02800
C  44.29700 -1.26900 48.18600
C  44.76500 0.09600 48.05100
C  41.87300 -2.26500 47.85100
C  45.07700 -2.52300 48.42200
O  44.53700 -3.66300 48.46400
C  46.56100 -2.52200 48.71600
N  45.99900 2.97700 47.60700
C  46.70700 1.82300 47.77600
C  48.20000 2.08000 47.88200
C  48.27900 3.67100 47.69200
C  46.79300 4.08400 47.63500
C  48.69600 1.77400 49.26300
C  49.09600 4.14400 46.44300
C  48.60600 3.83400 45.05900
N  44.10700 5.16200 47.40400
C  45.16800 5.98300 47.47500
C  44.77200 7.36700 47.38100
C  43.35500 7.29700 47.23700
C  43.04800 5.89200 47.19200
C  45.69900 8.48200 47.49400
C  42.08300 8.05800 47.09800
O  41.76100 9.24300 47.16900
C  40.91000 6.97600 46.87600
C  39.90600 7.27700 47.87700
O  40.06500 7.03000 49.09500
O  38.81100 7.85700 47.31900
C  37.87300 8.41300 48.34400
H  40.43500 0.17500 47.46500
H  46.92600 -0.10400 48.05700
H  47.25400 6.17600 47.56200
H  39.12900 4.79600 47.64100
H  38.95300 2.03900 46.57700
H  39.29200 2.43100 49.58600
H  38.23500 1.44600 48.72000
H  37.83100 3.14100 48.85000
H  38.99300 3.45300 44.95500
H  39.85900 4.87200 44.88800
H  37.38600 5.51600 46.29400
H  37.13000 4.22200 45.08500
H  40.90000 -1.77300 47.86500
H  41.94200 -3.00000 48.65300
H  42.08900 -2.77400 46.91100
H  47.03100 -2.54300 47.73200
H  46.77100 -3.46100 49.22700
H  46.90300 -1.67100 49.30500
H  48.72100 1.51900 47.10600
H  48.58300 4.24600 48.56700
H  49.08200 0.76000 49.35900
H  47.92600 1.91300 50.02200
H  49.53800 2.43800 49.46200
H  50.06800 3.65400 46.49500
H  49.18300 5.22200 46.57300
H  48.36200 4.79500 44.60500
H  47.73000 3.18600 45.06500
H  49.34400 3.29700 44.46300
H  46.42800 8.57400 48.29900
H  45.01300 9.32600 47.43300
H  46.13100 8.68000 46.51300
H  40.42900 7.06300 45.90100
H  38.23000 9.37600 48.70900
H  37.60600 7.69800 49.12200
H  36.90400 8.62500 47.89100

