158

Mg 35.79200 2.66300 30.66300
C  33.20700 3.70300 32.67100
C  37.91100 2.65000 33.46600
C  38.39200 1.68200 28.66800
C  33.68000 2.55900 28.04400
N  35.51900 3.10700 32.79300
C  34.41800 3.59600 33.37100
C  34.74100 3.61700 34.95600
C  36.26400 3.74600 35.03200
C  36.62700 3.07300 33.66300
C  36.74200 5.20700 35.16300
C  34.00100 2.36800 35.53100
C  33.95100 2.27600 37.09400
H  34.07400 3.55400 37.86000
N  37.89200 2.21400 31.03400
C  38.53600 2.24800 32.22300
C  39.92500 1.80700 32.06300
C  40.08500 1.62800 30.64800
C  38.78600 1.79800 30.04300
C  40.89800 1.64400 33.20000
C  41.32400 1.24800 29.87600
O  41.33100 1.16100 28.64200
C  42.68800 1.03700 30.50500
N  36.10000 2.41200 28.63100
C  37.20100 1.91400 28.01400
C  36.92100 1.69800 26.46800
C  35.38900 1.67300 26.39000
C  35.00000 2.24500 27.79200
C  37.56400 2.86900 25.66300
C  34.62900 0.31700 26.03700
C  33.53900 0.54200 24.94000
N  33.80900 3.22200 30.32100
C  33.10700 3.13100 29.18900
C  31.68600 3.51600 29.39800
C  31.64300 3.72100 30.79300
C  32.97000 3.50200 31.27900
C  30.66100 3.62700 28.29400
C  30.83400 4.03400 31.94400
O  29.68000 4.27100 32.08200
C  31.85700 3.96800 33.20500
C  31.76600 5.22200 33.98100
O  31.90800 6.35400 33.54000
O  31.53000 4.93700 35.35700
C  31.33400 6.19200 36.13200
H  38.43500 2.67600 34.42400
H  39.05600 1.22500 27.93200
H  33.03400 2.70600 27.17600
H  34.24500 4.48400 35.39300
H  36.65400 3.20100 35.89200
H  37.32000 5.41800 34.26300
H  37.37100 5.27400 36.05000
H  35.96600 5.96900 35.24600
H  34.64300 1.52200 35.28700
H  33.00900 2.26600 35.09200
H  34.58300 1.55900 37.61800
H  32.96100 1.88200 37.32400
H  41.49600 0.73300 33.15800
H  40.40800 1.64800 34.17400
H  41.58500 2.48800 33.13000
H  43.47200 1.15300 29.75600
H  42.62100 0.00800 30.85800
H  42.81400 1.73700 31.33100
H  37.41400 0.78400 26.13600
H  35.06700 2.48800 25.74200
H  36.92000 3.22100 24.85700
H  38.50900 2.47700 25.28600
H  37.92200 3.61800 26.36900
H  34.16300 -0.14800 26.90500
H  35.34400 -0.41400 25.65800
H  33.76500 0.03400 24.00200
H  33.37100 1.59600 24.71800
H  32.61900 0.08100 25.29900
H  29.88400 2.89100 28.49900
H  31.12100 3.66200 27.30600
H  30.07600 4.54700 28.30200
H  31.60500 3.14500 33.87400
H  32.23200 6.79100 36.28200
H  30.93600 5.85900 37.09100
H  30.53700 6.83100 35.75300
Mg 0.19800 44.20800 25.34500
C  2.14500 43.91600 28.27100
C  -2.53100 43.13100 27.16900
C  -1.51800 43.87800 22.46200
C  3.12800 44.64000 23.57700
N  -0.14700 43.65900 27.45600
C  0.77000 43.70800 28.46500
C  0.10200 43.39200 29.81700
C  -1.41700 43.22500 29.42600
C  -1.36500 43.31800 27.93700
C  -2.10600 41.86000 29.98100
C  0.26200 44.71200 30.71400
C  1.05500 44.60900 32.06200
H  0.55800 43.43400 33.01100
N  -1.79500 43.59100 24.86500
C  -2.74700 43.22900 25.78200
C  -3.93800 43.01900 25.03800
C  -3.67700 43.00100 23.69500
C  -2.28900 43.52100 23.58800
C  -5.25600 42.67600 25.74200
C  -4.63500 42.72700 22.50500
O  -4.20900 42.92500 21.33900
C  -6.12000 42.44100 22.74900
N  0.69800 44.51400 23.27400
C  -0.13900 44.19500 22.29100
C  0.54200 44.20800 20.94600
C  1.99800 44.69700 21.34300
C  1.96600 44.63400 22.84200
C  0.51400 42.94100 20.12000
C  2.32800 46.08300 20.59000
C  1.62600 47.33600 21.13500
N  2.24600 44.34000 25.73400
C  3.31300 44.53800 24.91500
C  4.53900 44.66300 25.69400
C  4.10300 44.38000 26.97900
C  2.69200 44.22000 27.03500
C  5.99100 44.88200 25.26100
C  4.61600 44.15000 28.30100
O  5.72700 44.20200 28.75100
C  3.33500 43.97000 29.24500
C  3.54500 42.69100 29.99800
O  3.58600 41.56100 29.51400
O  3.80600 43.00600 31.29000
C  4.44700 41.98300 32.07200
H  -3.42000 42.86200 27.74300
H  -1.98500 43.78600 21.47900
H  4.06100 44.78200 23.02700
H  0.48200 42.49100 30.29700
H  -2.07300 44.00300 29.81500
H  -2.93800 42.17700 30.61000
H  -1.44700 41.21500 30.56100
H  -2.52300 41.27700 29.16000
H  -0.69300 45.15300 31.00200
H  0.66900 45.43900 30.01200
H  0.84300 45.54900 32.57100
H  2.13800 44.56600 31.95000
H  -5.53000 41.62900 25.61800
H  -6.00100 43.27900 25.22400
H  -5.21900 42.95800 26.79500
H  -6.60700 43.31600 23.18100
H  -6.08700 41.55600 23.38500
H  -6.69100 42.14600 21.86800
H  0.03100 44.94900 20.33200
H  2.69700 43.93500 20.99800
H  0.19800 42.14600 20.79700
H  1.49000 42.58600 19.79000
H  -0.23300 42.97400 19.32700
H  2.12000 46.09600 19.52000
H  3.41400 46.13200 20.65900
H  0.67300 47.12400 21.61900
H  1.44200 47.99500 20.28700
H  2.31100 47.87400 21.79000
H  6.49600 45.42200 26.06200
H  6.13000 45.45300 24.34300
H  6.43400 43.89500 25.12700
H  3.05900 44.76800 29.93500
H  5.26400 41.49400 31.54100
H  3.69700 41.23600 32.33400
H  4.72600 42.43800 33.02200

