158

Mg 16.71200 -1.17400 28.09200
C  15.46000 0.65200 30.92800
C  19.02300 -2.48400 30.16300
C  18.25700 -2.38100 25.36700
C  14.42000 0.70400 26.12900
N  17.12000 -0.91600 30.25500
C  16.50200 -0.21500 31.26600
C  17.07500 -0.54800 32.63900
C  18.44100 -1.39200 32.22600
C  18.15400 -1.64200 30.76500
C  19.79600 -0.68700 32.56100
C  16.09900 -1.30800 33.61900
C  15.74300 -0.65900 34.97300
H  16.87500 0.13800 35.71300
N  18.33800 -2.41100 27.78200
C  19.10300 -2.89000 28.78100
C  20.08400 -3.82000 28.23500
C  19.91400 -3.74700 26.81900
C  18.76000 -2.89800 26.56600
C  21.02800 -4.50700 29.04100
C  20.67000 -4.44300 25.64800
O  20.22400 -4.63200 24.52400
C  22.07300 -4.92500 25.88000
N  16.46500 -0.82700 26.14700
C  17.14600 -1.51500 25.14900
C  16.71600 -1.04600 23.76300
C  15.42800 -0.20600 23.98900
C  15.40700 -0.09900 25.48800
C  17.91600 -0.35300 23.02100
C  14.10700 -0.74400 23.35900
C  13.24200 0.02100 22.33300
N  15.17100 0.35700 28.44700
C  14.32700 1.04000 27.52400
C  13.41800 1.96400 28.22800
C  13.79000 1.77700 29.61700
C  14.91600 0.89600 29.66500
C  12.22200 2.74000 27.66100
C  13.49600 2.17900 31.00500
O  12.74700 3.01200 31.45300
C  14.56600 1.38500 31.93600
C  15.29400 2.38700 32.75500
O  16.44400 2.82900 32.53900
O  14.48100 2.82600 33.76700
C  15.10300 3.97900 34.40300
H  19.75000 -2.81400 30.90800
H  18.70200 -2.78000 24.45300
H  13.72800 1.14400 25.40800
H  17.41300 0.38300 33.09300
H  18.52400 -2.39300 32.65000
H  20.57900 -0.92100 31.84000
H  20.11200 -1.05300 33.53800
H  19.64900 0.39100 32.62500
H  16.52400 -2.29800 33.78300
H  15.31500 -1.66200 32.94900
H  15.47000 -1.43700 35.68500
H  14.91700 0.04700 34.87400
H  22.03100 -4.22700 28.71800
H  20.89700 -5.56700 28.82400
H  20.96000 -4.38300 30.12200
H  22.57100 -4.11600 26.41500
H  22.39700 -5.07400 24.85000
H  21.95500 -5.85700 26.43300
H  16.50300 -2.00300 23.28600
H  15.59300 0.82100 23.66500
H  18.89200 -0.27700 23.50100
H  17.68100 0.61100 22.56800
H  18.12300 -1.05900 22.21700
H  13.36900 -0.89800 24.14700
H  14.36400 -1.75200 23.03600
H  12.20300 -0.09300 22.64100
H  13.20600 -0.42100 21.33800
H  13.57900 1.05500 22.26400
H  11.38800 2.43800 28.29500
H  12.06000 2.47400 26.61700
H  12.48500 3.79700 27.68700
H  14.19900 0.71400 32.71300
H  15.31200 4.77900 33.69400
H  16.01800 3.73000 34.94200
H  14.34300 4.30000 35.11500
Mg 1.53100 41.99300 25.24000
C  2.82900 42.03100 28.62400
C  -1.33900 40.52300 26.45700
C  0.66200 41.51500 22.07200
C  4.80000 42.84000 24.29600
N  0.71000 41.67700 27.37700
C  1.45000 41.59600 28.56200
C  0.56000 41.16500 29.75400
C  -0.71500 40.69100 28.99000
C  -0.43200 40.95400 27.48300
C  -1.09400 39.20100 29.25900
C  0.24000 42.23800 30.83300
C  -0.14200 41.83700 32.22500
H  -1.19800 40.69500 32.41400
N  -0.08100 41.27900 24.32100
C  -1.21300 40.76700 24.99100
C  -2.14100 40.21600 24.03300
C  -1.64500 40.52100 22.72900
C  -0.30200 41.17700 23.00100
C  -3.39900 39.56000 24.49100
C  -2.10200 40.10500 21.35400
O  -1.47700 40.36700 20.29600
C  -3.36100 39.34600 21.22600
N  2.64800 42.05900 23.48300
C  2.02500 41.87800 22.23200
C  2.95100 42.18000 21.07500
C  4.11900 42.85600 21.82600
C  3.86400 42.56700 23.29300
C  3.30700 40.86600 20.24800
C  4.19600 44.34800 21.55300
C  3.04500 45.22400 21.97100
N  3.45100 42.33100 26.22700
C  4.65800 42.68200 25.66800
C  5.72100 42.75900 26.70000
C  5.00300 42.55400 27.91600
C  3.64100 42.26500 27.56100
C  7.18400 42.93600 26.55900
C  5.20600 42.37500 29.30400
O  6.17800 42.49900 30.02800
C  3.75300 42.03200 29.88700
C  3.74200 40.69400 30.55600
O  4.43800 39.71000 30.21200
O  2.90500 40.69600 31.65000
C  2.94400 39.47800 32.45200
H  -2.23600 40.02400 26.83200
H  0.38300 41.23100 21.05500
H  5.72900 43.25300 23.89800
H  0.98200 40.21600 30.08400
H  -1.50700 41.43600 29.06800
H  -0.37700 38.76700 29.95500
H  -0.93300 38.52200 28.42200
H  -2.06900 39.06600 29.72700
H  -0.56500 42.87600 30.47000
H  1.13400 42.85700 30.91100
H  -0.38500 42.73000 32.80000
H  0.79200 41.50800 32.68000
H  -3.66600 39.77600 25.52600
H  -3.28100 38.48200 24.38000
H  -4.27700 39.84500 23.91100
H  -3.25000 38.39700 21.75000
H  -3.39900 39.15600 20.15300
H  -4.26800 39.87500 21.51700
H  2.43100 42.75600 20.30900
H  5.03100 42.32900 21.54800
H  4.31000 40.51100 20.48400
H  3.27800 41.26500 19.23400
H  2.61800 40.03500 20.40300
H  4.45800 44.62400 20.53200
H  5.09200 44.71300 22.05700
H  2.63300 45.69900 21.08100
H  3.39700 45.93400 22.71900
H  2.24000 44.70200 22.48800
H  7.75800 42.12400 27.00600
H  7.38700 43.82100 27.16200
H  7.42200 43.07400 25.50400
H  3.43500 42.84700 30.53800
H  3.61400 38.70100 32.08200
H  1.91400 39.12900 32.51200
H  3.30300 39.64200 33.46800

