158

Mg 17.23500 -2.15500 27.58800
C  16.26300 0.13300 29.96600
C  19.53800 -3.51500 29.72100
C  18.51500 -3.94600 24.98400
C  15.46000 -0.17500 25.21400
N  17.79300 -1.74900 29.59600
C  17.16100 -0.83400 30.42500
C  17.58300 -0.97900 31.94600
C  18.69700 -2.09600 31.85400
C  18.73000 -2.49600 30.33800
C  20.12900 -1.71300 32.34000
C  16.35700 -1.41600 32.80800
C  16.24400 -0.66900 34.11800
H  17.52700 -0.32000 34.81800
N  18.71000 -3.65400 27.46100
C  19.57900 -4.07900 28.43200
C  20.32200 -5.15200 27.88900
C  19.93900 -5.37300 26.54900
C  19.00300 -4.30400 26.26300
C  21.46000 -5.91400 28.65800
C  20.33000 -6.52400 25.61500
O  19.92100 -6.55300 24.44300
C  21.29100 -7.71600 26.09000
N  17.15300 -1.92500 25.35600
C  17.75000 -2.85500 24.55000
C  17.29600 -2.59100 23.08900
C  16.24300 -1.43800 23.17700
C  16.23500 -1.14800 24.67500
C  18.47800 -2.34800 22.12900
C  14.78800 -1.79800 22.66800
C  14.34600 -1.27000 21.34500
N  16.07900 -0.36300 27.55900
C  15.40400 0.26400 26.56200
C  14.65600 1.39800 27.02800
C  14.98000 1.44500 28.36400
C  15.82900 0.33800 28.67600
C  13.66500 2.25400 26.19700
C  14.89100 2.09800 29.55600
O  14.35400 3.12500 29.81300
C  15.57000 1.32300 30.68800
C  16.44300 2.24700 31.44700
O  17.53500 2.68000 31.10900
O  15.75300 2.59200 32.59400
C  16.39800 3.50100 33.60200
H  20.21700 -4.07200 30.37100
H  18.87900 -4.57200 24.16700
H  14.95500 0.40600 24.43900
H  17.90100 0.05200 32.10300
H  18.42300 -2.95800 32.46200
H  20.12000 -0.68800 32.71100
H  20.79300 -1.61100 31.48200
H  20.59700 -2.42800 33.01600
H  16.41000 -2.48600 33.00700
H  15.38500 -1.21500 32.35800
H  15.58500 -1.16500 34.83100
H  15.66100 0.23000 33.91700
H  22.34400 -5.90300 28.02000
H  21.21200 -6.93400 28.94900
H  21.95200 -5.27600 29.39200
H  21.04600 -8.15000 27.06000
H  22.28100 -7.26100 26.13300
H  21.23500 -8.46900 25.30400
H  16.79300 -3.51100 22.79100
H  16.62300 -0.56100 22.65400
H  18.16400 -1.65800 21.34700
H  18.91800 -3.23600 21.67400
H  19.32600 -1.87300 22.62400
H  13.99600 -1.50700 23.35700
H  14.69200 -2.87200 22.50600
H  13.56400 -1.84700 20.85000
H  15.17600 -1.07900 20.66500
H  13.88500 -0.33400 21.65900
H  12.81100 1.66600 25.86300
H  14.09600 2.54900 25.24100
H  13.32800 3.12500 26.75900
H  14.85900 0.91500 31.40600
H  17.13700 4.15900 33.14500
H  16.81500 2.95700 34.44900
H  15.62600 4.17200 33.97800
Mg 0.42000 43.29600 25.08700
C  2.85900 42.74200 27.69500
C  -1.92300 42.35000 27.32600
C  -1.53700 42.97700 22.43200
C  3.19500 43.85800 22.85800
N  0.45600 42.70300 27.29200
C  1.53800 42.47100 28.08000
C  1.00800 42.15600 29.46600
C  -0.49000 41.90800 29.33700
C  -0.66600 42.37300 27.87700
C  -0.95400 40.38300 29.62100
C  1.24900 43.38400 30.34200
C  0.92800 43.30200 31.82900
H  0.32000 41.92900 32.39600
N  -1.52500 42.75900 24.93000
C  -2.38700 42.43400 25.96300
C  -3.67800 42.03800 25.42900
C  -3.58800 42.23900 24.00500
C  -2.15500 42.66300 23.70100
C  -4.84400 41.58900 26.18000
C  -4.63700 42.02900 22.95100
O  -4.35700 42.16900 21.76800
C  -5.99900 41.55800 23.31900
N  0.76900 43.30100 23.01600
C  -0.24900 43.41300 22.12200
C  0.17700 43.82800 20.73200
C  1.64800 44.14000 20.91900
C  1.91000 43.68300 22.34300
C  -0.22700 42.87400 19.61500
C  2.10000 45.54800 20.54800
C  2.19300 46.65000 21.62100
N  2.57900 43.39600 25.20300
C  3.52000 43.66300 24.21300
C  4.83300 43.66000 24.81900
C  4.65900 43.31300 26.17000
C  3.24700 43.11400 26.36400
C  6.12300 43.84000 24.06100
C  5.36100 43.06400 27.43100
O  6.58000 43.07700 27.72100
C  4.15600 42.78200 28.47500
C  4.44800 41.63400 29.41100
O  4.53200 40.44900 29.12000
O  4.48600 42.16100 30.67700
C  4.64400 41.23900 31.72000
H  -2.70600 42.16600 28.06500
H  -2.20100 42.89500 21.56900
H  4.06200 44.25800 22.32800
H  1.46700 41.25300 29.86700
H  -1.03000 42.68500 29.87700
H  -0.22600 39.87700 30.25400
H  -1.08300 39.89200 28.65600
H  -1.80400 40.37300 30.30400
H  0.82100 44.33000 30.00900
H  2.31000 43.63500 30.35300
H  0.21400 44.07000 32.12800
H  1.83500 43.59300 32.36100
H  -5.25900 40.68600 25.73200
H  -5.55700 42.40400 26.30300
H  -4.52700 41.34200 27.19300
H  -6.48400 42.23100 24.02600
H  -5.90000 40.52100 23.63900
H  -6.61600 41.53000 22.42100
H  -0.38700 44.74700 20.57200
H  2.19800 43.36900 20.38100
H  -0.31100 41.84900 19.97500
H  0.57900 42.92800 18.88200
H  -1.15100 43.17700 19.12200
H  1.42100 45.95100 19.79600
H  3.08100 45.32900 20.12700
H  1.37200 46.42000 22.30000
H  2.22300 47.70100 21.33300
H  3.09300 46.56800 22.23000
H  6.92900 43.27300 24.52500
H  6.36000 44.89300 24.21700
H  5.96600 43.57600 23.01500
H  4.17800 43.64100 29.14600
H  4.04600 41.60700 32.55400
H  5.69100 41.19500 32.02000
H  4.28700 40.23300 31.49600

