158

Mg 47.50100 14.76600 27.52200
C  45.53400 14.86600 30.49500
C  49.48600 17.28000 28.81100
C  49.10700 14.84300 24.61000
C  45.06000 12.64700 26.22800
N  47.48400 15.87600 29.42300
C  46.71800 15.68000 30.58600
C  47.23100 16.40700 31.77900
C  48.44800 17.28300 31.23200
C  48.48000 16.85700 29.71800
C  48.39200 18.83000 31.49500
C  47.57700 15.44700 32.86400
C  47.31400 15.94000 34.26700
H  48.38400 15.71100 35.36000
N  49.16300 15.90500 26.79000
C  49.79000 16.93300 27.44400
C  50.75400 17.57400 26.53200
C  50.81100 16.65700 25.34900
C  49.66600 15.75700 25.52100
C  51.61800 18.82200 26.83100
C  51.76200 16.76700 24.15200
O  51.67000 16.01700 23.14900
C  52.92700 17.79400 24.15700
N  47.11400 13.85800 25.69700
C  47.92600 14.02200 24.65700
C  47.57100 13.06000 23.51100
C  46.36000 12.25900 24.09000
C  46.17700 12.89400 25.44800
C  47.21600 13.84200 22.16400
C  46.71700 10.66600 24.24400
C  47.28900 9.95300 22.99000
N  45.55600 13.99700 28.14800
C  44.74400 13.14800 27.47100
C  43.54500 12.97200 28.33100
C  43.89300 13.56600 29.54000
C  45.12100 14.18900 29.35700
C  42.28800 12.15400 27.99200
C  43.36700 13.84300 30.85700
O  42.31200 13.53400 31.37000
C  44.38300 14.68000 31.55400
C  43.77100 15.96000 31.94900
O  43.48100 16.87100 31.23500
O  43.56000 15.91900 33.27700
C  42.81700 16.99300 33.90400
H  50.15000 18.04100 29.22600
H  49.71900 14.65000 23.72600
H  44.39500 11.95000 25.71300
H  46.45200 17.06100 32.17100
H  49.34800 16.79800 31.61000
H  48.49900 19.37900 30.56000
H  49.20800 19.03500 32.18800
H  47.48000 19.22300 31.94500
H  48.61400 15.13500 32.74400
H  47.12600 14.45600 32.80700
H  46.37700 15.53400 34.64900
H  47.18800 17.02200 34.29500
H  51.26500 19.59300 26.14500
H  52.70500 18.78200 26.76200
H  51.50900 19.22200 27.83900
H  53.26200 17.76500 23.12000
H  53.72100 17.37300 24.77300
H  52.48100 18.76000 24.39400
H  48.46400 12.50000 23.23400
H  45.47800 12.53100 23.51100
H  47.92300 14.55600 21.74200
H  46.21900 14.27300 22.25100
H  47.01100 13.13100 21.36400
H  45.81100 10.21600 24.64900
H  47.40100 10.33900 25.02700
H  46.75000 9.06700 22.65500
H  48.26800 9.51300 23.17600
H  47.23500 10.61800 22.12800
H  42.56200 11.19000 27.56300
H  41.84600 12.70100 27.16000
H  41.65800 12.15400 28.88100
H  44.85500 14.18900 32.40500
H  43.46100 17.42300 34.67200
H  41.87700 16.68400 34.36000
H  42.66000 17.84500 33.24300
Mg 29.31800 58.73300 40.73700
C  26.12800 57.51800 39.74700
C  30.77700 56.00600 39.28900
C  32.30300 60.42300 40.78700
C  27.57700 61.83500 41.32500
N  28.53000 56.96900 39.70100
C  27.19900 56.68500 39.41900
C  27.14600 55.48700 38.38100
C  28.53900 54.82600 38.58900
C  29.39000 56.03400 39.12500
C  28.64400 53.60400 39.51500
C  26.78600 55.91700 36.89600
C  25.49800 55.27100 36.28200
H  25.66200 54.63300 34.84800
N  31.30600 58.20900 40.18600
C  31.74900 56.97200 39.71400
C  33.16700 56.94700 39.69200
C  33.63900 58.27800 40.08800
C  32.42200 59.03700 40.50000
C  33.85500 55.70600 39.24700
C  35.08500 58.64800 40.14500
O  35.87600 57.80900 39.86500
C  35.64900 59.99800 40.77200
N  29.83500 60.77500 40.95500
C  31.13800 61.19900 41.08800
C  31.21100 62.73000 41.38200
C  29.72600 63.01700 41.74700
C  28.96500 61.78200 41.29100
C  32.33200 63.16400 42.40500
C  29.21800 64.38000 41.11100
C  28.33500 65.31700 42.00100
N  27.28700 59.47600 40.91500
C  26.70700 60.76500 41.16100
C  25.25200 60.62200 41.27400
C  24.99000 59.35700 40.76100
C  26.27700 58.77200 40.44800
C  24.25600 61.72000 41.62400
C  23.90100 58.39300 40.49900
O  22.69700 58.54600 40.67700
C  24.59200 57.35100 39.66000
C  24.18200 56.11500 40.29900
O  24.41100 55.81900 41.47900
O  23.63000 55.26300 39.35800
C  23.10700 54.06100 39.96000
H  31.25400 55.05100 39.05800
H  33.25100 60.96300 40.75500
H  27.12600 62.79400 41.58700
H  26.39700 54.81300 38.79700
H  29.02100 54.46400 37.68100
H  29.41900 53.83000 40.24700
H  28.85200 52.68400 38.96800
H  27.67600 53.43600 39.98600
H  27.70800 55.78900 36.32800
H  26.58100 56.98600 36.83300
H  24.66800 55.97200 36.19200
H  25.09400 54.49800 36.93500
H  34.76800 56.05600 38.76500
H  33.21200 55.08800 38.62100
H  34.28600 55.06000 40.01300
H  35.38800 60.76600 40.04400
H  36.72700 59.94800 40.92700
H  35.08200 60.10600 41.69700
H  31.56400 63.27100 40.50400
H  29.56100 63.00100 42.82400
H  32.91100 63.90200 41.85000
H  32.84100 62.27200 42.76900
H  31.93000 63.75900 43.22600
H  28.48800 64.17700 40.32900
H  30.14400 64.92300 40.91900
H  28.04300 64.85500 42.94400
H  27.51200 65.59500 41.34300
H  28.98700 66.16200 42.22100
H  23.98400 62.17100 40.66900
H  24.74900 62.38500 42.33300
H  23.31300 61.33400 42.01000
H  24.25900 57.50200 38.63300
H  22.45300 54.24400 40.81300
H  23.88800 53.34500 40.21400
H  22.44100 53.65800 39.19700

