158

Mg 9.28000 4.57200 26.97000
C  10.21300 3.17500 30.13500
C  6.73400 6.19300 28.69000
C  8.07800 5.59800 24.07500
C  11.36700 2.30000 25.44200
N  8.56200 4.58900 29.22300
C  9.06300 4.03500 30.32400
C  8.44400 4.65400 31.61000
C  7.10900 5.25800 31.11900
C  7.49400 5.40300 29.62800
C  5.84200 4.29800 31.09700
C  9.36000 5.66500 32.39200
C  9.36100 5.46700 33.90200
H  10.64700 5.55200 34.72200
N  7.75000 5.90200 26.47200
C  6.86000 6.43900 27.29600
C  5.99100 7.36600 26.54900
C  6.52800 7.34600 25.22500
C  7.51500 6.27600 25.20300
C  4.90000 8.22300 27.21700
C  6.17600 8.20100 24.11400
O  6.83500 8.22900 23.08100
C  5.08400 9.24500 24.18700
N  9.62400 3.94200 24.98400
C  9.01700 4.58700 23.99200
C  9.58600 4.09300 22.58900
C  10.69700 3.07100 23.04900
C  10.57400 3.04200 24.61200
C  8.46400 3.55500 21.63300
C  12.14900 3.40000 22.49000
C  12.77000 2.71800 21.20100
N  10.62500 3.14900 27.62000
C  11.38400 2.32200 26.83800
C  12.11500 1.41500 27.76000
C  11.83500 1.90700 28.98800
C  10.79100 2.85800 28.91900
C  13.04300 0.27200 27.37800
C  12.14000 1.70000 30.40100
O  12.89200 0.88800 30.93900
C  11.20600 2.59400 31.21700
C  10.45000 1.70600 32.15300
O  9.57700 0.97300 31.79700
O  10.79300 1.96400 33.47400
C  9.81800 1.49600 34.47600
H  5.92900 6.71100 29.21600
H  7.71100 5.91300 23.09600
H  12.12500 1.62300 25.04300
H  8.20600 3.75900 32.18400
H  6.76600 6.12000 31.69200
H  5.46800 4.03200 30.10800
H  5.01700 4.84900 31.54900
H  6.19700 3.36800 31.54100
H  9.07200 6.61800 31.94800
H  10.38500 5.44300 32.09600
H  8.75700 4.58600 34.12300
H  8.92700 6.40500 34.24900
H  4.74100 8.03100 28.27800
H  3.94700 7.96900 26.75400
H  4.95400 9.29900 27.04900
H  5.44700 10.11100 24.74100
H  4.30100 8.84600 24.83100
H  4.78400 9.54100 23.18200
H  10.10400 4.99700 22.27000
H  10.35600 2.07200 22.77700
H  8.68500 2.57500 21.20900
H  8.39200 4.22900 20.77900
H  7.51300 3.51400 22.16300
H  12.89100 3.51400 23.28000
H  12.15600 4.43200 22.14000
H  12.03700 2.13800 20.64000
H  13.53200 1.98600 21.47100
H  13.12200 3.50100 20.53100
H  13.12800 0.12100 26.30200
H  12.73400 -0.68400 27.80300
H  14.05200 0.45300 27.74800
H  11.61800 3.35700 31.87800
H  9.28700 2.31200 34.96500
H  10.26600 0.88600 35.26100
H  9.08500 0.83200 34.01800
Mg 34.90700 47.97600 24.88300
C  35.51300 46.17900 27.81000
C  33.46600 50.40500 26.83600
C  34.06700 49.52600 22.10100
C  35.95600 45.07700 23.11100
N  34.38000 48.12100 27.07200
C  34.88500 47.34100 28.14600
C  34.57700 48.05500 29.51700
C  33.86000 49.34900 29.09400
C  33.87400 49.27600 27.54200
C  32.41600 49.48100 29.72600
C  35.89400 48.24800 30.34500
C  35.77100 48.14400 31.89800
H  34.33900 48.08600 32.43500
N  34.09800 49.79000 24.49600
C  33.58600 50.65800 25.42000
C  33.18500 51.93800 24.75300
C  33.34200 51.65100 23.34000
C  33.90400 50.26900 23.23200
C  32.56800 53.19500 25.49200
C  33.02000 52.59800 22.14700
O  33.17000 52.26400 20.98700
C  32.41900 53.98500 22.36900
N  35.03300 47.37700 22.88900
C  34.53500 48.18300 21.95500
C  34.73900 47.57900 20.55700
C  35.65600 46.39400 20.82400
C  35.60600 46.24400 22.36900
C  33.36900 47.12200 19.89800
C  37.13400 46.69500 20.48700
C  37.92500 47.72600 21.29900
N  35.53700 46.04400 25.35800
C  35.95600 45.00400 24.50800
C  36.53500 43.92500 25.24000
C  36.34000 44.28900 26.62200
C  35.72200 45.59200 26.62700
C  36.99300 42.64400 24.75700
C  36.50400 43.95600 28.04000
O  37.09200 43.01800 28.52200
C  35.92900 45.10900 28.83600
C  34.72500 44.61100 29.67400
O  33.57400 44.60600 29.31700
O  35.14500 44.32800 30.91400
C  34.12800 44.14600 31.93900
H  33.04700 51.16300 27.50100
H  33.80300 49.96600 21.13700
H  36.40100 44.21200 22.61600
H  33.88200 47.43700 30.08400
H  34.46700 50.22100 29.33700
H  32.44800 50.37500 30.34900
H  32.13700 48.65500 30.38100
H  31.63700 49.48100 28.96400
H  36.27500 49.24900 30.14000
H  36.60800 47.50100 30.00100
H  36.33300 48.93800 32.39100
H  36.35300 47.25900 32.15400
H  33.28200 53.99900 25.66600
H  32.27400 52.88700 26.49600
H  31.66400 53.60400 25.04000
H  31.37300 53.83900 22.63800
H  32.59100 54.67200 21.54100
H  32.95500 54.49200 23.17100
H  35.26700 48.25100 19.88100
H  35.39100 45.52600 20.22100
H  33.28200 46.08000 20.20700
H  33.42700 47.19900 18.81300
H  32.48600 47.66100 20.24200
H  37.29400 46.72900 19.40900
H  37.58900 45.73500 20.73000
H  37.17900 48.35000 21.79100
H  38.63900 48.25400 20.66700
H  38.54800 47.28300 22.07600
H  37.76800 42.75200 23.99800
H  36.10200 42.24100 24.27600
H  37.30600 42.02700 25.59900
H  36.75500 45.40200 29.48500
H  33.70400 43.14200 31.97500
H  33.36700 44.90800 31.77400
H  34.68600 44.33200 32.85700

