158

Mg -2.14200 17.23200 25.94100
C  -2.46200 15.00800 28.86100
C  -3.49400 19.76900 28.03800
C  -2.20300 19.09800 23.37800
C  -1.73300 14.34000 24.04300
N  -3.07000 17.24900 28.18000
C  -2.90200 16.34200 29.15000
C  -3.37300 16.91700 30.52800
C  -3.96300 18.31000 30.15500
C  -3.44600 18.50300 28.72600
C  -5.47100 18.33000 30.23100
C  -2.20800 17.03200 31.50900
C  -2.25300 16.06100 32.67300
H  -2.73300 16.52700 34.05900
N  -2.52800 19.17600 25.69800
C  -3.07300 20.06300 26.68800
C  -3.19400 21.39000 26.12500
C  -2.86600 21.24500 24.69200
C  -2.52700 19.81400 24.49500
C  -3.37000 22.62200 26.94100
C  -2.86000 22.35900 23.60600
O  -2.68100 22.04700 22.43800
C  -3.06500 23.77100 23.93100
N  -1.89600 16.80000 24.02900
C  -1.95500 17.76900 23.08800
C  -1.65000 17.15900 21.71300
C  -1.32500 15.68200 21.94500
C  -1.65400 15.56900 23.38300
C  -2.81400 17.43600 20.64700
C  0.11000 15.32600 21.61900
C  1.24500 15.86300 22.55100
N  -2.00100 15.12900 26.32500
C  -1.82900 14.11500 25.39900
C  -1.77600 12.85300 26.08300
C  -1.94100 13.18500 27.44900
C  -2.15500 14.53100 27.55900
C  -1.68200 11.50700 25.47200
C  -2.09900 12.60100 28.77600
O  -1.98600 11.45400 29.21400
C  -2.44400 13.72000 29.65700
C  -1.38300 13.76800 30.66200
O  -0.31100 14.38500 30.59300
O  -1.67100 13.00200 31.74900
C  -0.76200 12.79600 32.86600
H  -3.81400 20.62000 28.64300
H  -2.07900 19.64400 22.44000
H  -1.59400 13.46200 23.40800
H  -4.14000 16.23200 30.89000
H  -3.46300 19.11200 30.69700
H  -5.96400 17.42400 30.58400
H  -6.07800 18.46400 29.33600
H  -5.85800 19.12000 30.87500
H  -2.14500 18.02100 31.96400
H  -1.25300 16.91200 30.99800
H  -1.22800 15.73500 32.84500
H  -2.87100 15.18600 32.47500
H  -3.60900 22.47700 27.99400
H  -4.21900 23.18000 26.54500
H  -2.42900 23.16500 26.85300
H  -2.17200 24.35900 24.14200
H  -3.89800 24.00900 24.59300
H  -3.24700 24.25900 22.97300
H  -0.84600 17.78200 21.32100
H  -1.96500 15.02000 21.36100
H  -2.51900 18.08200 19.82100
H  -3.71000 17.82300 21.13300
H  -3.09900 16.46000 20.25400
H  0.32000 15.84300 20.68300
H  0.17900 14.24800 21.47800
H  0.82400 16.46500 23.35600
H  1.95100 16.44300 21.95600
H  1.69100 14.96600 22.98100
H  -1.09700 11.68600 24.57000
H  -2.61900 10.97600 25.30700
H  -1.01400 10.97000 26.14500
H  -3.37300 13.48600 30.17700
H  0.26000 13.04500 32.57900
H  -0.78400 11.79200 33.29000
H  -1.11500 13.53400 33.58600
Mg -6.23500 24.72100 26.06800
C  -4.49100 26.21800 28.72500
C  -7.41000 22.34700 28.42400
C  -7.68700 23.13800 23.51900
C  -4.54100 26.80600 23.87300
N  -5.92500 24.31800 28.28100
C  -5.32800 25.20500 29.18700
C  -5.69600 24.87700 30.66600
C  -6.19300 23.40800 30.45800
C  -6.56800 23.34700 28.96900
C  -5.23400 22.27400 30.80700
C  -6.80200 25.86700 31.22900
C  -6.34200 26.56600 32.53200
H  -5.61400 25.78300 33.65000
N  -7.35200 22.90600 25.94100
C  -7.69000 22.12100 26.99400
C  -8.42900 20.97900 26.39000
C  -8.56900 21.15900 24.97600
C  -7.91600 22.45600 24.74400
C  -8.95600 19.80900 27.29700
C  -9.29700 20.35600 23.84600
O  -9.36600 20.74000 22.69400
C  -10.21600 19.21600 24.29500
N  -6.17400 24.97900 24.00200
C  -6.99700 24.30800 23.15700
C  -6.92000 24.78600 21.69200
C  -5.81200 25.87600 21.87100
C  -5.53600 25.92500 23.34400
C  -6.69700 23.84000 20.49600
C  -6.09700 27.28900 21.27400
C  -4.97200 27.72900 20.25600
N  -4.73700 26.16500 26.15700
C  -4.10300 26.98300 25.20200
C  -3.17800 27.84000 25.81200
C  -3.21000 27.55500 27.17100
C  -4.17400 26.53200 27.34900
C  -2.34800 28.83900 25.03400
C  -2.74500 27.94000 28.41800
O  -1.81600 28.73600 28.79400
C  -3.58900 27.14700 29.50200
C  -2.52100 26.52300 30.37800
O  -1.74000 25.65000 30.07800
O  -2.60000 27.02800 31.66100
C  -1.68000 26.40000 32.68300
H  -7.64000 21.59600 29.18200
H  -8.12400 22.66400 22.63700
H  -4.16900 27.48000 23.09800
H  -4.83800 24.81800 31.33500
H  -7.05300 23.32200 31.12300
H  -5.87800 21.70800 31.48200
H  -4.43100 22.69700 31.41000
H  -4.96500 21.75800 29.88600
H  -7.75300 25.38100 31.44700
H  -6.87700 26.66200 30.48700
H  -7.22300 27.04900 32.95500
H  -5.74500 27.43700 32.26200
H  -8.82600 18.84300 26.81100
H  -10.01700 20.05900 27.29700
H  -8.57600 19.67600 28.31100
H  -9.47300 18.46800 24.57100
H  -10.70100 18.78600 23.41900
H  -10.98100 19.51200 25.01300
H  -7.87400 25.26800 21.47700
H  -4.95100 25.54800 21.28800
H  -6.31100 22.92200 20.93700
H  -5.98300 24.21000 19.76000
H  -7.64300 23.59400 20.01300
H  -6.16300 28.07800 22.02400
H  -7.03600 27.20700 20.72800
H  -4.83600 28.80400 20.37100
H  -5.48600 27.61400 19.30200
H  -4.03200 27.17700 20.29400
H  -2.29500 29.75000 25.63000
H  -2.78100 29.06300 24.05900
H  -1.36100 28.44700 24.79000
H  -4.20500 27.84800 30.06600
H  -1.87100 25.32800 32.72300
H  -1.84400 26.95200 33.60900
H  -0.65500 26.48700 32.32200

