158

Mg -1.42200 17.17100 26.59800
C  -1.82400 15.11800 29.44600
C  -1.99600 19.87900 28.54700
C  -1.78900 18.83300 23.74600
C  -1.46300 14.17200 24.66100
N  -1.69300 17.38900 28.74100
C  -1.67900 16.46200 29.71700
C  -1.69500 17.14600 31.07700
C  -2.09500 18.61900 30.75200
C  -1.94800 18.64600 29.26100
C  -3.59900 18.99500 31.12900
C  -0.25500 16.98900 31.61600
C  0.06700 17.81500 32.91100
H  -0.05900 17.15600 34.30800
N  -1.65000 19.15600 26.20500
C  -1.85700 20.13400 27.17200
C  -2.01800 21.43500 26.42900
C  -2.21700 21.09500 25.05400
C  -1.87600 19.61600 24.94000
C  -2.19500 22.73300 27.21700
C  -2.58100 21.91400 23.95300
O  -2.62100 21.53600 22.77800
C  -3.00600 23.24200 24.23100
N  -1.37400 16.65600 24.51000
C  -1.50000 17.51100 23.54200
C  -1.48400 16.93100 22.07100
C  -1.33000 15.39700 22.42300
C  -1.40600 15.38200 23.94700
C  -2.68100 17.33500 21.12300
C  -0.08700 14.71800 21.87100
C  0.39200 15.09700 20.40100
N  -1.52600 15.08600 26.92800
C  -1.51800 14.02500 26.07900
C  -1.68800 12.73100 26.83700
C  -1.84100 13.18600 28.16300
C  -1.70900 14.63000 28.13600
C  -1.70000 11.41200 26.23700
C  -2.10700 12.69300 29.48300
O  -2.35900 11.55100 29.89800
C  -2.12200 13.93200 30.41900
C  -1.12500 13.67000 31.43000
O  0.05300 13.51400 31.19000
O  -1.72400 13.51100 32.65700
C  -0.86500 12.95000 33.68500
H  -2.15600 20.78500 29.13400
H  -1.86700 19.29200 22.75800
H  -1.42400 13.23800 24.09600
H  -2.42000 16.74000 31.78200
H  -1.33800 19.33900 31.06200
H  -3.97500 18.28000 31.86100
H  -4.24900 19.19900 30.27800
H  -3.45200 19.92400 31.67900
H  0.48200 17.09100 30.81900
H  -0.29500 15.92600 31.85100
H  -0.73200 18.55300 32.97800
H  1.01500 18.35100 32.86400
H  -3.26500 22.92500 27.30500
H  -1.90400 23.64100 26.69000
H  -1.90200 22.74400 28.26700
H  -3.29800 23.81500 23.35100
H  -2.16000 23.82500 24.59200
H  -3.83300 23.20200 24.94100
H  -0.56000 17.21200 21.56600
H  -2.18900 14.90700 21.96500
H  -3.28500 16.47400 20.83700
H  -2.32300 17.84800 20.23000
H  -3.27000 18.16800 21.50700
H  -0.31300 13.65500 21.78700
H  0.79000 14.82300 22.51000
H  1.26300 15.74700 20.48300
H  -0.42100 15.52600 19.81500
H  0.60700 14.13500 19.93700
H  -0.98100 10.94600 26.91000
H  -1.33600 11.41300 25.21000
H  -2.72300 11.04600 26.32300
H  -3.07900 14.01900 30.93300
H  -0.70400 13.75400 34.40400
H  0.08100 12.52000 33.35500
H  -1.20500 12.09200 34.26500
Mg 9.16500 3.47100 27.53800
C  10.45600 2.21700 30.52200
C  7.46200 5.85500 29.42900
C  8.11100 4.96400 24.69900
C  10.84100 1.11400 25.77600
N  8.93600 3.93200 29.77600
C  9.61400 3.29700 30.79200
C  9.28400 3.84800 32.19800
C  8.28800 4.98900 31.81400
C  8.18700 4.96300 30.22400
C  6.87400 4.89400 32.36400
C  10.67400 4.18000 32.99700
C  10.89400 3.50900 34.39400
H  11.36300 4.35000 35.58600
N  7.95500 5.16200 27.08000
C  7.32100 5.94300 28.01700
C  6.47300 6.87300 27.34800
C  6.67500 6.68400 25.97900
C  7.58900 5.60400 25.90100
C  5.68400 7.81100 28.12700
C  6.05700 7.47100 24.82300
O  6.37600 7.19700 23.65900
C  5.15300 8.72200 25.08000
N  9.55200 3.14800 25.54300
C  8.91700 3.82800 24.59000
C  9.18400 3.16700 23.20800
C  10.28300 2.12000 23.56100
C  10.14400 2.08000 25.02200
C  7.91200 2.48200 22.53600
C  11.73600 2.61900 23.17700
C  12.64900 1.71400 22.35000
N  10.34100 1.87300 27.97900
C  10.98300 0.99500 27.11500
C  11.81100 0.11000 27.90800
C  11.58200 0.55400 29.22400
C  10.67300 1.63200 29.25000
C  12.57200 -1.11800 27.43600
C  11.97600 0.28000 30.53800
O  12.74900 -0.57600 31.00900
C  11.22200 1.29300 31.46800
C  10.40900 0.53500 32.48300
O  9.32700 0.11800 32.26400
O  11.01500 0.44800 33.69900
C  10.12600 -0.24600 34.69400
H  6.99600 6.57300 30.10700
H  7.68000 5.35700 23.77500
H  11.18400 0.20700 25.27400
H  8.71400 3.09900 32.74600
H  8.87500 5.89100 31.98400
H  6.52200 5.92300 32.42700
H  6.85300 4.34400 33.30500
H  6.10300 4.35300 31.81500
H  10.70100 5.26900 33.01200
H  11.50700 3.85700 32.37300
H  11.64900 2.73800 34.23700
H  9.97700 3.05600 34.77000
H  4.62300 7.69200 27.90800
H  5.88500 8.84500 27.84500
H  5.93500 7.87300 29.18600
H  5.71900 9.46900 25.63800
H  4.15500 8.48800 25.45000
H  4.99500 9.24100 24.13400
H  9.58900 3.95600 22.57400
H  10.10500 1.16400 23.06900
H  8.05600 1.44000 22.25000
H  7.69300 3.13900 21.69400
H  6.99800 2.42100 23.12600
H  12.35600 2.78200 24.05900
H  11.67900 3.55900 22.62800
H  12.87300 2.26900 21.44000
H  12.13500 0.80200 22.04500
H  13.54200 1.47300 22.92600
H  12.32000 -1.22100 26.38100
H  12.09100 -1.96100 27.93300
H  13.65200 -1.00800 27.53200
H  12.03700 1.81300 31.97100
H  9.60600 -1.08400 34.23000
H  9.34400 0.35500 35.15800
H  10.73500 -0.66200 35.49700

