158

Mg 54.38000 24.32400 44.14600
C  51.69900 26.53200 43.41700
C  52.52100 21.69700 43.28800
C  57.32200 22.70500 43.80300
C  56.27600 27.31500 44.80200
N  52.34900 24.14100 43.31500
C  51.38000 25.14400 43.16700
C  50.02100 24.45100 42.89900
C  50.29500 22.94600 43.18600
C  51.80300 22.91400 43.22800
C  49.58600 22.48700 44.49800
C  49.51900 24.73600 41.37800
C  47.97700 24.94600 41.20400
H  47.45100 25.06700 39.80300
N  54.81700 22.35600 43.73100
C  53.87500 21.39900 43.42400
C  54.59200 20.14900 43.23500
C  55.96400 20.41800 43.53200
C  56.10500 21.88900 43.77400
C  53.94500 18.81900 42.87900
C  57.10800 19.42000 43.43700
O  56.85300 18.29000 43.03900
C  58.50600 19.69400 43.94700
N  56.56400 24.97300 44.18700
C  57.58200 24.08400 44.02000
C  58.96700 24.69600 44.30500
C  58.58500 26.22000 44.59100
C  57.07500 26.20700 44.54300
C  60.00400 24.05600 45.31900
C  59.20500 27.26800 43.58400
C  59.70800 28.63000 44.09000
N  54.07600 26.46800 44.26300
C  54.88000 27.51200 44.69900
C  54.09000 28.64600 44.92200
C  52.84700 28.39400 44.35700
C  52.89700 27.04600 43.96800
C  54.49700 29.97500 45.59800
C  51.52500 28.85600 44.09400
O  51.03000 29.90100 44.42600
C  50.82100 27.72000 43.29600
C  50.67100 28.17400 41.88400
O  51.57400 28.54200 41.20100
O  49.37700 28.13700 41.54900
C  48.87300 28.71900 40.31300
H  51.87900 20.82600 43.14300
H  58.28800 22.19600 43.78900
H  56.80400 28.19000 45.18700
H  49.19600 24.83700 43.49800
H  50.10500 22.24700 42.37200
H  50.30700 22.30200 45.29400
H  49.05600 21.57500 44.22500
H  48.78100 23.19600 44.69400
H  49.77500 23.84300 40.80700
H  50.03300 25.57700 40.91400
H  47.75600 25.79000 41.85800
H  47.34700 24.14700 41.59300
H  53.06400 19.14500 42.32600
H  53.62500 18.25100 43.75300
H  54.55200 18.16400 42.25400
H  59.10700 20.20500 43.19500
H  58.95900 18.71500 44.10100
H  58.38700 20.21600 44.89700
H  59.45600 24.64100 43.33300
H  58.88400 26.56300 45.58200
H  59.62100 23.10500 45.68800
H  60.05300 24.75400 46.15400
H  61.01300 23.92000 44.92700
H  58.51600 27.28800 42.74000
H  60.10100 26.82800 43.14800
H  60.67300 28.94100 43.69100
H  59.81700 28.64900 45.17400
H  59.01400 29.46300 43.97000
H  53.93500 29.96200 46.53200
H  54.07900 30.79600 45.01500
H  55.57600 30.11100 45.67000
H  49.86000 27.37200 43.67300
H  49.61100 29.18100 39.65800
H  48.15100 29.49300 40.57300
H  48.41000 27.91800 39.73500
Mg -12.64400 17.00100 42.32200
C  -9.72700 15.14200 41.83600
C  -10.95800 19.62900 40.98900
C  -15.65900 18.62700 41.88600
C  -14.27700 13.99400 43.08300
N  -10.60400 17.22700 41.26400
C  -9.60600 16.36800 41.26400
C  -8.28900 17.06000 40.71800
C  -8.62300 18.60700 40.80400
C  -10.11900 18.49300 40.99800
C  -7.88000 19.42300 41.85400
C  -7.85800 16.54500 39.32700
C  -6.47900 15.86900 39.41400
H  -6.02500 14.82200 38.40200
N  -13.23900 18.87100 41.75500
C  -12.32300 19.83000 41.26000
C  -13.07900 20.98200 40.97700
C  -14.47600 20.72300 41.15500
C  -14.53500 19.37000 41.64500
C  -12.41300 22.25500 40.41900
C  -15.55900 21.72800 40.76900
O  -15.32300 22.83700 40.44600
C  -17.03400 21.43100 41.01700
N  -14.71400 16.38500 42.25200
C  -15.73100 17.23500 42.21300
C  -17.01900 16.51500 42.59800
C  -16.53700 15.13700 43.12400
C  -15.05800 15.12900 42.81400
C  -17.95000 17.34300 43.50000
C  -17.32800 13.86500 42.60800
C  -17.91100 12.80800 43.65900
N  -12.18000 14.96600 42.46400
C  -12.84500 13.84500 42.91300
C  -12.03500 12.72400 43.13500
C  -10.78400 13.14400 42.72600
C  -10.89700 14.51500 42.30400
C  -12.50600 11.41000 43.61500
C  -9.48800 12.71500 42.57900
O  -9.03200 11.60300 42.79600
C  -8.63900 14.03100 41.99600
C  -7.60400 14.40800 42.99500
O  -7.85700 14.70600 44.18700
O  -6.37500 14.23800 42.49000
C  -5.28700 14.66300 43.41400
H  -10.48700 20.51100 40.54900
H  -16.64200 19.10100 41.91000
H  -14.86300 13.16600 43.48700
H  -7.43500 16.87200 41.36900
H  -8.31500 19.06400 39.86400
H  -7.27300 18.75600 42.46600
H  -8.50500 19.96100 42.56700
H  -7.23100 20.16400 41.38800
H  -7.83300 17.31300 38.55400
H  -8.68000 15.91600 38.98400
H  -6.26200 15.37900 40.36300
H  -5.83800 16.74900 39.36800
H  -13.05100 23.12900 40.54600
H  -11.90600 22.16900 39.45800
H  -11.55000 22.34100 41.07800
H  -17.17200 21.30600 42.09100
H  -17.23400 20.50000 40.48600
H  -17.72800 22.17900 40.63200
H  -17.64300 16.22200 41.75500
H  -16.49000 14.97900 44.20200
H  -17.41200 18.19300 43.92000
H  -18.41700 16.70200 44.24700
H  -18.65500 17.81500 42.81500
H  -16.60800 13.34300 41.97800
H  -18.11100 14.17600 41.91800
H  -17.91700 13.13100 44.70000
H  -17.28900 11.94300 43.43100
H  -18.92800 12.54600 43.36600
H  -13.18400 11.57700 44.45200
H  -11.56100 10.97700 43.94300
H  -12.95200 10.84000 42.79900
H  -8.21100 13.84600 41.01100
H  -4.35100 14.14100 43.21400
H  -5.44400 14.37500 44.45300
H  -5.18600 15.74800 43.42100

