158

Mg 44.78200 5.38600 46.19600
C  42.89100 8.38000 46.43100
C  41.90600 3.79000 45.21700
C  46.75000 2.61200 45.45600
C  47.70300 7.35700 46.19600
N  42.62400 6.08400 45.68200
C  42.10800 7.30100 45.99700
C  40.53900 7.28200 45.90300
C  40.28300 5.78300 45.45000
C  41.68900 5.15700 45.41000
C  39.26700 5.04000 46.35900
C  39.86900 8.36500 44.94500
C  40.62300 8.64800 43.63800
H  39.96800 8.37800 42.38300
N  44.39900 3.43000 45.46800
C  43.11300 2.98300 45.23200
C  43.28900 1.48400 45.06400
C  44.69500 1.18000 44.90800
C  45.34600 2.43100 45.26200
C  42.15000 0.58300 44.96300
C  45.22900 -0.15100 44.59500
O  44.49200 -1.13700 44.61900
C  46.63300 -0.46000 44.29000
N  46.93600 4.95000 46.05700
C  47.47300 3.71900 45.77400
C  49.00700 3.83800 45.59000
C  49.36800 5.34800 45.59200
C  47.90200 5.96400 45.94600
C  49.79800 3.00400 46.64400
C  49.97800 5.79300 44.21300
C  48.96500 6.02300 43.02200
N  45.25200 7.40000 46.53800
C  46.44500 8.03400 46.42900
C  46.20600 9.40200 46.85600
C  44.86300 9.62200 46.84700
C  44.28800 8.36500 46.60800
C  47.30200 10.38800 47.08100
C  43.81400 10.63400 46.96600
O  43.80900 11.79300 47.15500
C  42.47200 9.76500 46.78900
C  41.49700 9.89400 47.84300
O  41.46200 9.14500 48.84900
O  40.47100 10.80100 47.57100
C  39.49700 10.85700 48.64800
H  41.00800 3.16800 45.23000
H  47.43500 1.77500 45.30500
H  48.61200 7.96100 46.25400
H  40.17200 7.41900 46.92000
H  39.86500 5.72200 44.44500
H  38.41300 4.63600 45.81500
H  38.90900 5.81300 47.03900
H  39.71600 4.21200 46.90600
H  39.59900 9.20700 45.58200
H  38.87800 7.97700 44.70700
H  41.55600 8.08600 43.61300
H  40.94300 9.69000 43.65700
H  42.14100 0.12000 43.97700
H  41.22100 1.15300 44.93700
H  42.07400 -0.13100 45.78200
H  46.73200 -1.46000 43.86800
H  47.29000 -0.43800 45.16000
H  46.89200 0.21100 43.47100
H  49.29200 3.55500 44.57700
H  49.93100 5.63800 46.47900
H  50.47500 2.30300 46.15600
H  49.04800 2.51300 47.26300
H  50.34800 3.58400 47.38500
H  50.69300 5.09700 43.77400
H  50.49500 6.74500 44.33000
H  47.96000 6.20200 43.40500
H  48.82500 5.16200 42.36800
H  49.29800 6.78600 42.31800
H  48.28000 9.94200 47.25900
H  47.10400 11.06900 47.90800
H  47.35700 10.92000 46.13100
H  41.96700 10.13000 45.89500
H  38.95000 9.91500 48.69700
H  38.67600 11.50100 48.33500
H  39.88100 11.11000 49.63600
Mg 6.65200 53.06500 41.60500
C  5.74100 49.77400 41.15700
C  9.73400 52.41000 40.16900
C  7.23700 56.44800 41.27800
C  3.32200 53.78100 42.72400
N  7.60200 51.33000 40.83400
C  7.08600 50.02100 40.78200
C  8.01100 49.06600 40.21000
C  9.40400 49.88400 40.23300
C  8.88700 51.31200 40.47300
C  10.47600 49.44100 41.40400
C  7.67700 48.48200 38.82900
C  7.28400 49.38000 37.67000
H  6.64300 48.81500 36.36000
N  8.32400 54.22600 41.02700
C  9.48500 53.76500 40.41300
C  10.41000 54.89200 40.24700
C  9.71600 56.16100 40.61800
C  8.38700 55.60200 40.99100
C  11.80400 54.70900 39.70400
C  10.27500 57.58100 40.48400
O  11.39300 57.68600 40.07400
C  9.54100 58.78800 40.95000
N  5.44100 54.89900 41.97100
C  5.94700 56.12200 41.76100
C  4.92700 57.24900 42.02300
C  3.59300 56.40400 42.51500
C  4.10000 54.95900 42.47400
C  5.33000 58.28100 43.10500
C  2.34300 56.61400 41.54500
C  1.10600 57.28200 42.06500
N  4.99600 52.02400 41.98500
C  3.73200 52.43700 42.49200
C  2.94700 51.34200 42.61000
C  3.67300 50.21500 42.10800
C  4.90400 50.67700 41.70100
C  1.48500 51.36300 43.10900
C  3.53600 48.81900 41.84800
O  2.62400 48.03100 41.98400
C  4.96500 48.49500 41.21100
C  4.59000 47.82400 39.97500
O  4.14700 48.36400 38.98200
O  4.82200 46.48400 40.06900
C  4.75200 45.62200 38.92000
H  10.66100 52.03400 39.73200
H  7.42300 57.51600 41.14400
H  2.27200 53.79000 43.02600
H  8.06300 48.20900 40.88200
H  9.93400 49.66700 39.30500
H  10.50200 50.15600 42.22600
H  11.47400 49.44600 40.96600
H  10.22600 48.45800 41.80400
H  6.93800 47.69300 38.96800
H  8.63700 48.03400 38.57200
H  8.19600 49.90800 37.39200
H  6.51900 50.03400 38.08700
H  12.47500 55.13100 40.45300
H  11.94500 55.15000 38.71700
H  12.10100 53.66700 39.81800
H  10.26900 59.59800 41.00100
H  9.29900 58.56900 41.99000
H  8.61000 59.01600 40.43100
H  4.71000 57.74500 41.07600
H  3.29000 56.58600 43.54600
H  6.21700 57.89400 43.60700
H  4.57800 58.40600 43.88400
H  5.55700 59.21800 42.59500
H  2.15000 55.63400 41.10800
H  2.72300 57.34200 40.82800
H  0.85200 58.19000 41.51900
H  1.13000 57.60500 43.10500
H  0.35600 56.49200 42.02400
H  1.57400 51.55500 44.17900
H  1.02000 50.39100 42.94300
H  0.89900 52.14300 42.62300
H  5.57400 47.84900 41.84400
H  3.90900 44.94900 39.07800
H  5.67400 45.03900 38.91400
H  4.70900 46.12900 37.95600

