158

Mg 54.52400 23.73600 44.06600
C  52.01400 26.01700 43.35500
C  52.36800 21.19500 43.37100
C  57.22000 21.71700 43.76400
C  56.69200 26.46900 44.72100
N  52.39500 23.61600 43.21600
C  51.53900 24.69000 42.99800
C  50.07500 24.22400 42.73600
C  50.24800 22.66200 43.09900
C  51.77100 22.42100 43.25800
C  49.54400 22.02000 44.28900
C  49.35600 24.56700 41.41200
C  50.29400 24.63100 40.13700
H  49.71200 25.40200 38.94200
N  54.78900 21.72400 43.69400
C  53.75600 20.83800 43.49000
C  54.30300 19.54400 43.27000
C  55.69200 19.63600 43.62800
C  55.96800 21.07800 43.67500
C  53.43200 18.33500 43.02400
C  56.61000 18.51600 43.96300
O  56.28800 17.32700 43.82500
C  58.02200 18.78400 44.57400
N  56.62300 24.12100 44.11800
C  57.51200 23.10600 44.00200
C  59.00900 23.50400 44.27600
C  58.83800 25.02700 44.32000
C  57.28500 25.21600 44.46100
C  59.64300 22.88400 45.54000
C  59.58400 25.83600 43.21200
C  58.79700 25.81800 41.86400
N  54.46900 25.79400 44.16700
C  55.34100 26.77000 44.55100
C  54.69700 28.05700 44.55800
C  53.32100 27.84900 44.23200
C  53.28800 26.43400 43.85600
C  55.30800 29.37200 44.86200
C  51.91000 28.39000 44.05400
O  51.45900 29.53500 44.22700
C  51.12800 27.23800 43.40900
C  50.72200 27.68000 42.02900
O  51.44600 27.56600 41.04000
O  49.43100 28.17600 42.02600
C  49.02200 28.69000 40.72600
H  51.74400 20.31900 43.18400
H  58.03800 21.02800 43.54400
H  57.35600 27.29400 44.98700
H  49.48500 24.62200 43.56200
H  49.95000 22.05000 42.24800
H  49.06700 21.10300 43.94300
H  48.86500 22.68600 44.82200
H  50.27400 21.63900 45.00300
H  48.88400 25.53100 41.60000
H  48.50000 23.91700 41.22800
H  50.32500 23.63600 39.69300
H  51.30700 24.83000 40.48600
H  54.03100 17.45400 42.79200
H  52.81200 18.43600 42.13200
H  52.84400 18.13200 43.91900
H  58.75500 18.82400 43.76800
H  58.19900 17.85700 45.11900
H  58.18800 19.56600 45.31500
H  59.51200 23.09000 43.40200
H  59.20100 25.40900 45.27400
H  58.92200 22.21500 46.00900
H  59.85700 23.74500 46.17300
H  60.52300 22.28500 45.31000
H  60.57600 25.40500 43.07900
H  59.72500 26.72600 43.82600
H  58.15800 24.93500 41.87900
H  59.49700 25.75200 41.03000
H  58.06900 26.62700 41.82400
H  55.78900 29.84400 44.00500
H  56.13700 29.25400 45.55900
H  54.55600 30.03900 45.28500
H  50.25100 27.09100 44.03900
H  48.18100 29.36800 40.86900
H  48.65900 27.97200 39.99100
H  49.77600 29.28700 40.21200
Mg -0.74100 34.83000 26.84200
C  -2.77900 33.13000 29.35300
C  0.42300 36.85700 29.29100
C  0.71300 36.68200 24.40900
C  -2.29900 32.89900 24.39800
N  -1.30400 35.07400 29.02900
C  -1.95500 34.15600 29.87400
C  -1.86100 34.54500 31.37600
C  -0.90800 35.79200 31.18900
C  -0.50100 35.91000 29.69000
C  -1.54000 37.11100 31.72600
C  -1.23900 33.39300 32.29500
C  -1.83600 33.18100 33.67700
H  -1.00600 32.96600 34.96000
N  0.47100 36.49500 26.84900
C  0.93500 37.07500 27.99000
C  1.94300 37.99200 27.65700
C  2.01000 38.09100 26.21200
C  1.05200 37.00800 25.75400
C  2.69000 38.77400 28.72400
C  2.91200 38.89900 25.41500
O  2.92100 38.69500 24.20500
C  3.85300 39.93000 25.98800
N  -0.88300 34.89600 24.74700
C  -0.16400 35.69500 23.96700
C  -0.36300 35.44300 22.39400
C  -1.16400 34.14400 22.42600
C  -1.46800 33.93300 23.91800
C  -1.10000 36.60200 21.64700
C  -0.50500 32.84600 21.82800
C  0.54600 32.04900 22.65100
N  -2.16900 33.28600 26.80300
C  -2.65300 32.57500 25.71200
C  -3.53800 31.52700 26.23600
C  -3.57700 31.63700 27.64500
C  -2.81300 32.81500 27.91500
C  -4.12200 30.40200 25.44500
C  -4.14000 31.16000 28.93500
O  -4.82400 30.19200 29.26000
C  -3.56400 32.07100 30.10200
C  -4.69500 32.56400 30.94200
O  -5.52800 33.41900 30.58000
O  -4.56100 31.99900 32.13200
C  -5.56600 32.42000 33.12800
H  0.80400 37.34900 30.18900
H  1.28200 37.10700 23.58000
H  -2.63500 32.16100 23.66800
H  -2.81700 34.76400 31.85200
H  -0.04800 35.56500 31.82000
H  -2.57500 36.93000 31.43600
H  -1.24300 38.04900 31.25700
H  -1.49200 37.30800 32.79700
H  -0.21200 33.71400 32.47200
H  -1.13700 32.47900 31.71000
H  -2.41400 32.25800 33.64500
H  -2.57000 33.96900 33.84500
H  2.95100 38.15700 29.58300
H  2.11100 39.65700 28.99600
H  3.64400 39.12200 28.32800
H  4.34000 40.49900 25.19600
H  4.66200 39.45600 26.54300
H  3.31800 40.64900 26.60800
H  0.57800 35.19800 21.90100
H  -2.11900 34.28300 21.92000
H  -0.46500 36.93500 20.82700
H  -1.14200 37.36100 22.42900
H  -2.10500 36.33600 21.31800
H  -0.10600 33.00200 20.82600
H  -1.27200 32.11900 21.56300
H  0.65200 32.46800 23.65100
H  1.54700 31.99900 22.22100
H  0.14500 31.04800 22.81300
H  -3.57100 30.32100 24.50900
H  -5.16600 30.58000 25.18800
H  -4.02300 29.42200 25.91400
H  -2.89100 31.45500 30.69800
H  -5.76800 31.50000 33.67700
H  -6.45800 32.77900 32.61400
H  -5.08600 33.07900 33.85100

