158

Mg 0.04900 7.77700 26.01100
C  1.15400 9.71600 28.56200
C  0.07000 4.98300 28.06300
C  -0.35000 5.85200 23.20500
C  0.60800 10.46500 23.84900
N  0.48200 7.41300 28.07300
C  0.84800 8.39500 28.95200
C  0.86500 7.78500 30.39400
C  0.74800 6.27800 30.10500
C  0.37500 6.20800 28.69900
C  2.07600 5.55000 30.42200
C  -0.42100 8.33800 31.11200
C  -0.40000 8.00800 32.62900
H  0.85700 7.95100 33.38200
N  -0.21200 5.67300 25.70300
C  -0.27300 4.73400 26.68900
C  -0.58700 3.46500 26.07400
C  -0.65500 3.63300 24.64300
C  -0.43100 5.11600 24.46900
C  -0.78500 2.18100 26.90100
C  -0.86200 2.60300 23.51000
O  -1.14600 2.80900 22.32600
C  -0.78200 1.13700 23.81700
N  0.25400 8.07900 23.77300
C  -0.00500 7.14800 22.86900
C  -0.23100 7.71600 21.44900
C  0.12200 9.22400 21.66500
C  0.31300 9.29500 23.15600
C  0.63200 7.12100 20.32500
C  -1.01400 10.23800 21.11900
C  -2.27500 10.43700 22.00400
N  0.68000 9.69300 26.09600
C  0.74800 10.70600 25.19000
C  1.12000 11.99600 25.79600
C  1.34200 11.64300 27.17700
C  1.07000 10.22800 27.29600
C  1.22900 13.30800 25.13900
C  1.64200 12.15800 28.37000
O  2.12000 13.25100 28.65200
C  1.50100 10.94700 29.40000
C  2.66600 10.76500 30.22600
O  3.75100 10.34300 29.86900
O  2.40700 11.21000 31.46000
C  3.52600 11.19900 32.42700
H  -0.07000 4.15800 28.76500
H  -0.51000 5.24900 22.30900
H  0.67500 11.29000 23.13700
H  1.76600 8.06100 30.94200
H  -0.03700 5.87200 30.74200
H  1.94300 5.02600 31.36900
H  2.84200 6.32500 30.44400
H  2.29100 4.84700 29.61800
H  -1.27200 7.86000 30.62700
H  -0.55700 9.41400 31.00100
H  -0.93000 7.06600 32.76900
H  -0.96500 8.74300 33.20200
H  -1.40100 2.36400 27.78200
H  0.18700 1.71400 27.06400
H  -1.30000 1.42800 26.30500
H  -1.61000 0.67400 24.35300
H  0.10700 0.97300 24.42600
H  -0.59500 0.60100 22.88600
H  -1.28000 7.54400 21.20700
H  1.06200 9.36900 21.13100
H  0.03200 6.45500 19.70500
H  1.46500 6.54000 20.72100
H  0.96800 7.80300 19.54300
H  -1.57900 9.91100 20.24600
H  -0.44100 11.16300 21.06200
H  -3.23700 10.38200 21.49500
H  -2.22000 11.40700 22.49900
H  -2.35300 9.67500 22.77900
H  0.60700 14.00300 25.70500
H  0.75700 13.17300 24.16600
H  2.29000 13.55200 25.17400
H  0.60100 11.23100 29.94500
H  3.41600 12.21900 32.79500
H  4.56900 11.12200 32.11800
H  3.35400 10.51500 33.25800
Mg 17.11900 51.51900 25.72200
C  19.11500 50.24100 28.39100
C  14.72700 52.34100 28.09000
C  15.06400 52.05100 23.20800
C  19.67800 50.28000 23.55400
N  17.02700 51.33600 28.03000
C  17.99500 50.87100 28.98000
C  17.53500 51.04600 30.40200
C  16.02000 51.52300 30.15400
C  15.95000 51.83700 28.64700
C  14.89100 50.44100 30.56600
C  18.44800 51.85700 31.35600
C  18.41500 51.48500 32.84700
H  17.59600 52.36700 33.89000
N  15.14000 52.08600 25.66300
C  14.33800 52.45800 26.74200
C  13.07200 52.97500 26.24700
C  13.16600 52.84000 24.83600
C  14.50900 52.36100 24.48700
C  11.95500 53.56500 27.11400
C  12.13100 53.23900 23.78000
O  12.21200 52.98700 22.59600
C  10.83700 53.94400 24.23400
N  17.33100 51.10700 23.67800
C  16.34800 51.59200 22.83100
C  16.92900 51.64000 21.41000
C  18.40600 51.17200 21.54000
C  18.49900 50.79500 23.00500
C  16.01800 50.70300 20.46600
C  19.45100 52.31600 21.25000
C  20.72800 51.94400 20.46400
N  19.02600 50.50200 25.86400
C  19.91500 50.06800 24.92700
C  21.01700 49.34200 25.56000
C  20.80900 49.45400 26.92000
C  19.56600 50.12200 27.04200
C  22.20900 48.63600 24.89300
C  21.30100 48.96900 28.15300
O  22.27300 48.25100 28.36300
C  20.37500 49.62600 29.23900
C  19.88800 48.69700 30.31100
O  19.06500 47.82000 30.11700
O  20.38400 49.02300 31.53300
C  19.96700 48.18300 32.67600
H  13.91100 52.50200 28.79700
H  14.50200 52.34000 22.31800
H  20.51400 49.97300 22.92200
H  17.50300 50.02400 30.77900
H  15.75800 52.43500 30.69000
H  13.95700 50.97200 30.75100
H  15.15800 50.04700 31.54600
H  14.72400 49.76200 29.73000
H  17.89900 52.79200 31.23800
H  19.46500 51.92100 30.96900
H  19.47600 51.47900 33.09800
H  18.12000 50.44300 32.97200
H  11.64000 54.52300 26.69900
H  12.26000 53.77000 28.14100
H  11.22300 52.76100 27.18300
H  10.17000 54.16600 23.40100
H  11.15200 54.92200 24.59700
H  10.28600 53.29300 24.91200
H  16.87700 52.67800 21.08300
H  18.66600 50.33000 20.90000
H  15.05200 50.62500 20.96500
H  16.43400 49.70500 20.33200
H  15.77400 51.18200 19.51800
H  19.77900 52.63100 22.24000
H  18.89800 53.14900 20.81700
H  20.89600 52.63000 19.63400
H  20.73300 50.98200 19.95000
H  21.55800 51.97600 21.16900
H  23.07400 48.39700 25.51100
H  22.50700 49.29000 24.07300
H  21.69700 47.75900 24.49700
H  20.97200 50.43700 29.65700
H  19.92600 48.81600 33.56200
H  20.72200 47.42900 32.89600
H  18.98500 47.72200 32.57300

