158

Mg 17.26400 -2.35900 27.76700
C  15.94900 -0.29100 30.54700
C  19.05100 -4.03000 30.23400
C  18.79100 -3.76400 25.32200
C  15.85000 0.03200 25.60500
N  17.34500 -2.20900 30.10000
C  16.71500 -1.39000 30.96300
C  17.12800 -1.64500 32.42600
C  18.17700 -2.76600 32.31500
C  18.28500 -2.98600 30.77300
C  19.52700 -2.57500 32.98900
C  15.87200 -2.11100 33.26500
C  15.92400 -1.84900 34.79900
H  17.13300 -1.22700 35.56200
N  18.52700 -3.86200 27.74100
C  19.14600 -4.47200 28.84200
C  19.89300 -5.62400 28.33300
C  19.83800 -5.56400 26.91600
C  18.97600 -4.40100 26.57900
C  20.56200 -6.70700 29.17800
C  20.58900 -6.43100 25.92600
O  20.39800 -6.10000 24.77900
C  21.42300 -7.64300 26.26000
N  17.20500 -1.95700 25.70800
C  18.05100 -2.66600 24.92700
C  17.98700 -2.07700 23.37500
C  17.07500 -0.82800 23.53100
C  16.68200 -0.93900 24.98900
C  19.47000 -1.65800 22.85400
C  15.81200 -0.72800 22.50400
C  16.27400 -0.42000 21.11000
N  16.02500 -0.61800 27.93300
C  15.48600 0.24300 27.01700
C  14.64200 1.21200 27.58900
C  14.83800 1.07300 29.00100
C  15.65400 -0.08500 29.19300
C  13.88900 2.25200 26.92100
C  14.56300 1.69400 30.29700
O  13.89900 2.62800 30.52900
C  15.30300 0.77900 31.38800
C  16.19600 1.63300 32.15800
O  17.43600 1.65000 32.08500
O  15.48700 2.30100 33.15900
C  16.26400 2.94500 34.16900
H  19.71100 -4.60900 30.88300
H  19.20600 -4.19900 24.41000
H  15.42300 0.77400 24.92600
H  17.40900 -0.67400 32.83300
H  17.82100 -3.72500 32.69000
H  20.29100 -2.78900 32.24000
H  19.65100 -3.19900 33.87400
H  19.46400 -1.56500 33.39100
H  15.67100 -3.15100 33.00800
H  14.96800 -1.62300 32.90100
H  15.68300 -2.84600 35.16800
H  15.04500 -1.23800 35.00400
H  21.63300 -6.72000 28.97600
H  19.96400 -7.55200 28.83600
H  20.28500 -6.52200 30.21600
H  21.67400 -8.15600 25.33200
H  20.97200 -8.28500 27.01600
H  22.32400 -7.27000 26.74700
H  17.54300 -2.81700 22.70900
H  17.59200 0.12400 23.41100
H  20.21000 -1.89900 23.61700
H  19.55100 -0.63200 22.49600
H  19.69300 -2.28200 21.98800
H  15.13200 0.08800 22.74800
H  15.27100 -1.67300 22.56500
H  17.26900 0.01300 21.21800
H  15.59100 0.12600 20.45900
H  16.50100 -1.38400 20.65600
H  12.82700 2.00500 26.89400
H  14.15600 2.64400 25.93900
H  14.04700 3.07800 27.61300
H  14.42700 0.45800 31.95100
H  16.40200 3.98100 33.86000
H  17.22700 2.50800 34.43200
H  15.60000 2.98400 35.03300
Mg 43.40200 2.81100 48.02400
C  41.23000 5.48200 47.15000
C  40.95200 0.50600 47.65000
C  45.73800 0.41100 48.28200
C  46.05500 5.26000 47.84100
N  41.32000 3.01000 47.23100
C  40.58700 4.18100 47.20800
C  39.06500 3.82100 47.05900
C  39.02000 2.26800 47.38300
C  40.53200 1.87100 47.47000
C  38.18100 2.02300 48.80200
C  38.55900 4.19500 45.59500
C  37.66500 5.45300 45.60800
H  37.77100 6.38600 44.35600
N  43.38800 0.75500 47.90000
C  42.24700 0.00800 47.74800
C  42.57500 -1.38400 47.97300
C  43.97100 -1.44300 48.21500
C  44.49000 -0.11400 48.10100
C  41.67300 -2.47900 47.89300
C  44.75300 -2.72900 48.56200
O  44.16400 -3.79000 48.60300
C  46.22000 -2.82200 48.61600
N  45.52800 2.83300 47.82600
C  46.20500 1.72000 48.13100
C  47.71000 2.03500 48.34800
C  47.83600 3.42500 47.73100
C  46.40000 3.90100 47.79300
C  48.14600 1.98900 49.83000
C  48.33500 3.41800 46.25700
C  49.79800 3.65100 46.04300
N  43.64400 5.03100 47.70600
C  44.76400 5.80300 47.77100
C  44.33000 7.25100 47.72100
C  42.97600 7.15700 47.46200
C  42.61400 5.78000 47.34600
C  45.21600 8.43800 48.06500
C  41.79400 7.96400 47.35000
O  41.51500 9.16300 47.29400
C  40.60100 6.84800 47.10600
C  39.60400 7.00300 48.14900
O  39.70500 6.58300 49.31600
O  38.66200 7.89000 47.70900
C  37.81200 8.40000 48.77900
H  40.11200 -0.19200 47.64600
H  46.60100 -0.22200 48.49500
H  46.86000 5.98900 47.72700
H  38.47900 4.35800 47.80500
H  38.46500 1.70400 46.63300
H  37.50300 2.84600 49.02600
H  38.84400 1.99000 49.66700
H  37.71200 1.03900 48.78300
H  37.97400 3.39000 45.15200
H  39.42400 4.38400 44.95800
H  37.67900 6.12600 46.46500
H  36.62600 5.12600 45.57300
H  41.82900 -2.94700 46.92100
H  40.62600 -2.21500 48.03600
H  41.83200 -3.23400 48.66400
H  46.52900 -2.30700 47.70600
H  46.48700 -3.87700 48.68500
H  46.54200 -2.35400 49.54600
H  48.30400 1.38400 47.70600
H  48.52900 4.06400 48.27900
H  47.28800 1.69000 50.43200
H  48.74800 2.81900 50.20100
H  48.83700 1.15100 49.92300
H  47.71400 4.14700 45.73700
H  47.98200 2.51300 45.76300
H  49.84800 4.43700 45.28900
H  50.33800 2.98700 45.36800
H  50.42600 3.86200 46.90800
H  45.97700 8.54200 47.29100
H  45.59400 8.17900 49.05300
H  44.56000 9.30200 47.95200
H  40.22700 7.03100 46.09800
H  37.09100 8.97000 48.19300
H  38.28000 9.09200 49.47900
H  37.25600 7.58900 49.25000

