158

Mg 26.92600 51.13600 27.14900
C  24.52600 52.12900 29.45600
C  28.95200 50.22800 29.53500
C  29.12000 50.60700 24.78300
C  24.57300 52.24600 24.63500
N  26.73300 51.27500 29.33500
C  25.64100 51.51200 30.06000
C  25.84200 51.23400 31.50700
C  27.33400 50.56000 31.52900
C  27.69600 50.66800 30.04700
C  28.18900 51.31500 32.54500
C  24.76100 50.29800 32.07700
C  24.04400 50.72400 33.41000
H  24.19000 49.76500 34.58700
N  28.83000 50.56000 27.18200
C  29.53400 50.26700 28.26500
C  30.89700 49.93600 27.90200
C  30.96200 50.17300 26.47500
C  29.59500 50.46400 26.06300
C  31.96500 49.58000 28.81400
C  32.12100 50.08800 25.56200
O  32.14000 50.40300 24.34600
C  33.46700 49.60700 26.07600
N  26.78900 51.36700 25.01500
C  27.86400 51.00700 24.26700
C  27.69500 51.02100 22.82300
C  26.13200 51.31900 22.74900
C  25.73000 51.64800 24.23000
C  28.57100 52.05000 22.05200
C  25.16400 50.22000 22.19600
C  23.81200 50.75300 21.64700
N  24.95700 52.01700 27.02400
C  24.21400 52.45700 25.98300
C  23.01700 53.05300 26.41700
C  23.07100 52.91200 27.81700
C  24.26700 52.25500 28.10700
C  22.04200 53.74700 25.51400
C  22.38200 53.24400 29.05500
O  21.31500 53.77400 29.28500
C  23.24900 52.57200 30.12600
C  23.59800 53.62000 31.14600
O  24.42200 54.51200 31.08300
O  22.75000 53.45900 32.21400
C  23.00900 54.44000 33.31500
H  29.61500 49.89000 30.33400
H  29.79100 50.21700 24.01400
H  23.76100 52.33800 23.91100
H  25.81700 52.17500 32.05600
H  27.41000 49.50000 31.77300
H  29.14400 50.79600 32.63700
H  27.89600 51.28500 33.59500
H  28.38200 52.34500 32.24700
H  25.26500 49.36300 32.32000
H  23.90600 50.05300 31.44700
H  22.98900 50.87600 33.18100
H  24.37800 51.66800 33.84000
H  31.60400 49.74900 29.82800
H  32.88900 50.15200 28.72900
H  32.22100 48.54600 28.58100
H  34.14600 49.51500 25.22800
H  33.42000 48.62200 26.54000
H  33.82800 50.36000 26.77600
H  27.93500 50.02500 22.45300
H  26.00600 52.18900 22.10400
H  29.54200 52.03900 22.54700
H  28.15500 53.05600 22.10100
H  28.67000 51.74500 21.01000
H  24.88000 49.64900 23.08000
H  25.66100 49.52000 21.52400
H  23.67100 50.56600 20.58300
H  23.69500 51.79500 21.94600
H  22.99100 50.26300 22.17000
H  21.07500 53.74100 26.01800
H  21.79300 53.05800 24.70700
H  22.40100 54.75200 25.29500
H  22.64200 51.78100 30.56700
H  23.99700 54.39000 33.77300
H  22.30600 54.34700 34.14300
H  22.85100 55.47400 33.00700
Mg 9.74200 48.57400 26.26900
C  7.50700 48.43200 29.04900
C  12.24100 49.43200 28.41700
C  11.72700 48.56000 23.64300
C  6.92600 47.76700 24.21800
N  9.75100 49.13300 28.45600
C  8.81200 48.81600 29.37500
C  9.38600 48.94400 30.79300
C  10.72100 49.73100 30.55900
C  10.92200 49.44300 29.01700
C  10.60800 51.26700 30.82700
C  9.47700 47.53800 31.59800
C  10.63700 47.29300 32.59400
H  10.35000 46.36500 33.76700
N  11.74100 49.02200 26.06200
C  12.60500 49.33200 27.02900
C  13.86400 49.29200 26.53800
C  13.80500 48.99200 25.11900
C  12.43900 48.90600 24.85000
C  15.14700 49.61000 27.29800
C  14.94900 48.81500 23.94300
O  14.71500 48.58300 22.78200
C  16.30400 48.58400 24.54000
N  9.29500 48.40600 24.18500
C  10.36000 48.33300 23.28800
C  9.83100 48.04400 21.89600
C  8.37500 47.66000 22.15300
C  8.13300 48.04700 23.56900
C  10.14900 49.22200 20.89900
C  8.16800 46.15400 21.96500
C  6.93400 45.78900 21.04600
N  7.58000 48.24900 26.49400
C  6.59100 47.89900 25.59000
C  5.37600 47.60000 26.29000
C  5.63200 47.75300 27.63800
C  7.02100 48.20700 27.68300
C  4.05500 47.16000 25.64700
C  5.11100 47.81700 28.97900
O  3.95900 47.65100 29.37200
C  6.27400 48.09400 29.92600
C  6.42900 46.81100 30.74100
O  6.85800 45.74100 30.24700
O  5.91000 46.94500 31.98100
C  6.08400 45.87500 32.92900
H  13.05900 49.65000 29.10700
H  12.28300 48.45000 22.71000
H  6.06300 47.48500 23.61000
H  8.56500 49.52100 31.21900
H  11.64400 49.33500 30.98300
H  11.05400 51.86000 30.02800
H  11.12500 51.57200 31.73700
H  9.58200 51.46300 31.13600
H  9.20100 46.75700 30.88900
H  8.63400 47.68200 32.27300
H  10.94300 48.22800 33.06300
H  11.53900 46.99700 32.05800
H  15.04200 49.97600 28.32000
H  15.75000 50.35000 26.77200
H  15.68700 48.66600 27.36900
H  16.64700 49.54200 24.93200
H  17.04200 48.36600 23.76800
H  16.27800 47.78200 25.27700
H  10.41500 47.21300 21.50000
H  7.61600 48.12200 21.52100
H  10.68400 48.81800 20.03900
H  10.70100 49.94400 21.50000
H  9.26600 49.63500 20.41000
H  8.01400 45.59000 22.88500
H  9.08200 45.73000 21.54800
H  7.18900 45.65300 19.99500
H  6.10300 46.49200 21.10600
H  6.53900 44.81800 21.34400
H  4.27300 46.55000 24.77000
H  3.47700 48.03100 25.33900
H  3.39000 46.60000 26.30500
H  6.07300 48.99800 30.50100
H  5.05800 45.57900 33.14600
H  6.60500 46.24200 33.81300
H  6.55200 44.96300 32.55900

