158

Mg 17.02800 -1.29100 27.57500
C  16.00500 0.83800 30.12900
C  19.11100 -2.90300 29.68900
C  18.50800 -2.73900 24.84100
C  15.30300 0.87700 25.28700
N  17.64100 -0.90800 29.56500
C  17.00200 -0.08800 30.51800
C  17.29000 -0.51300 31.94000
C  18.46900 -1.52900 31.74100
C  18.54500 -1.73900 30.17900
C  19.85500 -1.05000 32.31800
C  16.06400 -1.21800 32.68200
C  15.81500 -0.69800 34.12600
H  16.90100 0.15100 34.82900
N  18.49900 -2.75600 27.34200
C  19.14400 -3.34000 28.35100
C  19.96300 -4.36800 27.81100
C  19.84900 -4.33300 26.34700
C  18.93900 -3.21700 26.10600
C  20.84100 -5.34400 28.60000
C  20.54200 -5.18500 25.31100
O  20.28200 -5.04800 24.11100
C  21.53300 -6.30300 25.69100
N  16.97000 -0.89200 25.37400
C  17.65000 -1.69700 24.52600
C  17.61000 -1.08800 23.11100
C  16.31700 -0.24400 23.18100
C  16.17100 -0.07600 24.66400
C  18.88400 -0.31400 22.70400
C  15.11900 -0.94400 22.62500
C  14.96600 -0.63000 21.07100
N  15.78600 0.48900 27.63600
C  15.14000 1.24600 26.71200
C  14.32800 2.19400 27.41700
C  14.59600 2.05600 28.76900
C  15.56000 1.10300 28.82400
C  13.42100 3.24300 26.82700
C  14.31100 2.56100 30.07800
O  13.53400 3.45200 30.41400
C  15.30000 1.89400 31.05200
C  16.17600 3.07300 31.50400
O  16.77800 3.85900 30.76600
O  16.16900 3.20800 32.88800
C  16.74700 4.47600 33.34700
H  19.70200 -3.35200 30.48900
H  18.92500 -3.18200 23.93400
H  14.70500 1.48700 24.60600
H  17.77600 0.33400 32.42300
H  18.19200 -2.47900 32.19800
H  20.37200 -0.42100 31.59300
H  20.39900 -1.97400 32.51000
H  19.62600 -0.50600 33.23500
H  16.10400 -2.27500 32.94500
H  15.19000 -1.03500 32.05700
H  15.68600 -1.53700 34.80900
H  14.87500 -0.14700 34.13000
H  21.87700 -5.12200 28.34400
H  20.66200 -6.36800 28.27200
H  20.64800 -5.32700 29.67200
H  21.12100 -7.05200 26.36700
H  22.42800 -5.91000 26.17200
H  21.67300 -6.78500 24.72300
H  17.36600 -1.91400 22.44200
H  16.36800 0.76000 22.76000
H  19.75800 -0.29900 23.35500
H  18.57400 0.69300 22.42500
H  19.29700 -0.72000 21.78100
H  14.20900 -0.81200 23.21000
H  15.29200 -2.01500 22.73500
H  14.02200 -0.10700 20.91600
H  15.04000 -1.57000 20.52500
H  15.89500 -0.16000 20.75000
H  12.86400 2.82300 25.99000
H  13.97800 4.06500 26.37800
H  12.70500 3.49300 27.61000
H  14.71700 1.36400 31.80500
H  17.65400 4.76700 32.81800
H  16.77600 4.55100 34.43400
H  16.06100 5.28400 33.08800
Mg 36.56400 49.44900 24.87800
C  36.83100 47.41600 27.69600
C  35.63100 52.02200 27.05900
C  36.40000 51.35800 22.22100
C  37.97100 46.80000 23.00900
N  36.12000 49.61400 27.18200
C  36.46400 48.70100 28.10600
C  36.45200 49.34800 29.47000
C  35.86200 50.75700 29.26500
C  35.86400 50.85400 27.72300
C  34.44700 51.08500 29.91500
C  37.92200 49.33200 30.04300
C  38.06600 49.26600 31.54000
H  36.90600 49.00600 32.50600
N  35.82800 51.37100 24.72500
C  35.57100 52.31300 25.66500
C  35.08300 53.57400 24.97800
C  35.33100 53.40000 23.56700
C  35.91900 52.03200 23.41600
C  34.38000 54.54600 25.77300
C  34.99100 54.33900 22.36800
O  35.23600 54.00300 21.21000
C  34.27100 55.69200 22.45400
N  36.80500 48.97500 22.72700
C  36.80000 50.05300 21.90500
C  37.30100 49.62300 20.54100
C  38.12800 48.36300 20.87200
C  37.64900 47.98400 22.28400
C  36.13100 49.49700 19.49800
C  39.63500 48.54900 20.71300
C  40.33600 47.21900 20.40600
N  37.06500 47.43500 25.18300
C  37.58200 46.46400 24.31300
C  37.85900 45.27000 25.07400
C  37.49000 45.57900 26.35400
C  37.11100 46.94500 26.42100
C  38.60900 44.11200 24.67900
C  37.50100 45.00700 27.63500
O  37.68000 43.87800 27.99200
C  37.19300 46.26000 28.58900
C  36.06900 45.94800 29.54100
O  34.90000 46.15700 29.32300
O  36.59000 45.51400 30.70700
C  35.64800 44.97300 31.65600
H  35.47100 52.82900 27.77700
H  36.48100 51.98400 21.32900
H  38.71300 46.11200 22.59700
H  35.81100 48.76000 30.12700
H  36.51400 51.58500 29.54400
H  33.78600 51.33700 29.08600
H  34.45500 51.92800 30.60500
H  33.87000 50.25400 30.32100
H  38.24500 50.33200 29.75400
H  38.54100 48.59100 29.53600
H  38.59700 50.17400 31.82300
H  38.83500 48.50300 31.66200
H  33.71100 54.11300 26.51700
H  33.78600 55.25700 25.19800
H  35.16300 55.11000 26.27900
H  34.88800 56.36900 23.04500
H  33.33000 55.42700 22.93700
H  34.16300 56.09100 21.44500
H  38.03200 50.37800 20.25300
H  37.82400 47.67200 20.08500
H  35.23300 49.40300 20.10900
H  36.01100 48.63000 18.84900
H  36.10600 50.38800 18.87100
H  40.09900 48.73000 21.68300
H  39.99300 49.24400 19.95400
H  39.75700 46.69000 19.64900
H  40.35400 46.65100 21.33600
H  41.34900 47.42200 20.05700
H  38.91500 44.17700 23.63500
H  37.95600 43.24300 24.75600
H  39.57700 43.86800 25.11600
H  38.00700 46.64100 29.20500
H  35.24600 44.01100 31.33800
H  34.82300 45.66400 31.83200
H  36.17900 45.00800 32.60700

