158

Mg 25.14800 1.44600 30.40800
C  27.27900 1.57500 33.42400
C  22.46800 1.55900 32.50600
C  23.27500 1.53500 27.70400
C  28.07000 1.18300 28.57700
N  24.97900 1.68800 32.73000
C  25.93500 1.75400 33.70100
C  25.27100 1.99900 35.03600
C  23.69100 1.92400 34.75100
C  23.69500 1.73100 33.24600
C  22.81900 1.00500 35.52900
C  25.82500 3.35300 35.72900
C  26.37100 3.12800 37.20000
H  25.90500 4.05900 38.30100
N  23.08900 1.57000 30.07100
C  22.12500 1.55900 31.09600
C  20.86900 1.72100 30.47900
C  21.05200 1.74700 29.06400
C  22.52800 1.65200 28.88100
C  19.54200 1.89500 31.16100
C  20.09000 1.81200 27.87800
O  20.48000 1.83300 26.70000
C  18.61100 1.72700 28.22200
N  25.63200 1.25100 28.48900
C  24.63600 1.49700 27.51700
C  25.25200 1.72100 26.10900
C  26.79400 1.43800 26.34700
C  26.88400 1.28400 27.87600
C  24.51600 0.84200 24.94100
C  27.73500 2.53400 25.71500
C  28.90200 1.95900 24.88700
N  27.29200 1.26900 30.84600
C  28.36700 1.15200 29.97300
C  29.53400 1.13000 30.73200
C  29.14900 1.28600 32.09300
C  27.77600 1.36200 32.09600
C  30.91600 1.08700 30.20200
C  29.72600 1.47800 33.46400
O  30.85700 1.61400 33.84700
C  28.47700 1.65300 34.40400
C  28.43000 0.53200 35.37000
O  27.98400 -0.56600 35.12200
O  28.93900 0.93100 36.54800
C  28.90700 0.17100 37.78700
H  21.66900 1.77500 33.21800
H  22.79400 1.47800 26.72500
H  28.93200 1.15000 27.90700
H  25.50700 1.10400 35.61200
H  23.26900 2.86300 35.10900
H  22.19300 0.35700 34.91600
H  22.14100 1.61400 36.12700
H  23.43700 0.38600 36.18100
H  25.04900 4.11800 35.69700
H  26.70500 3.82900 35.29800
H  27.39600 3.48100 37.08700
H  26.27900 2.05500 37.36800
H  19.04000 2.82900 30.90500
H  19.67100 2.08600 32.22600
H  18.83100 1.07200 31.08200
H  18.45700 0.81700 28.80200
H  17.96000 1.79200 27.35000
H  18.35200 2.58600 28.84000
H  25.09200 2.76300 25.83400
H  27.01500 0.46900 25.89900
H  23.88900 0.06300 25.37600
H  25.28600 0.32200 24.37100
H  23.94400 1.44600 24.23700
H  28.21400 3.15500 26.47200
H  27.11200 3.21500 25.13500
H  28.98500 0.87300 24.90200
H  29.85800 2.38200 25.19600
H  28.79800 2.20100 23.83000
H  31.48800 1.55700 31.00200
H  31.09500 1.59000 29.25100
H  31.13200 0.02200 30.12000
H  28.53800 2.62700 34.88900
H  28.05200 0.47300 38.39100
H  29.78500 0.21400 38.43100
H  28.90000 -0.88200 37.50500
Mg 7.78300 52.61100 41.95500
C  7.16500 49.17100 41.48100
C  10.61800 52.26400 40.08200
C  7.91100 55.86300 41.68100
C  4.53100 52.73500 43.33700
N  8.73800 50.82500 40.89200
C  8.37800 49.58900 40.87700
C  9.51200 48.71500 40.23500
C  10.76600 49.66900 40.26800
C  10.05900 50.99600 40.42100
C  11.77600 49.44600 41.48400
C  9.05200 48.27000 38.74500
C  7.85900 49.02600 38.04400
H  7.25500 48.42300 36.81300
N  9.14100 53.92400 40.99300
C  10.27900 53.59300 40.28000
C  11.04300 54.81000 40.10000
C  10.27100 55.87400 40.53400
C  9.04000 55.23600 41.08400
C  12.49100 54.91900 39.56600
C  10.64200 57.37500 40.58400
O  11.66300 57.76700 40.06500
C  9.83900 58.39100 41.20600
N  6.39100 54.09200 42.53600
C  6.71400 55.40900 42.28100
C  5.57500 56.32500 42.72100
C  4.58900 55.33100 43.37200
C  5.21300 53.96800 43.11300
C  5.86000 57.54900 43.62700
C  3.08600 55.46700 43.03400
C  2.08600 55.69600 44.17000
N  6.15600 51.25300 42.40500
C  4.88300 51.45600 42.92100
C  4.39700 50.16700 43.33800
C  5.22400 49.20700 42.72800
C  6.21700 49.90200 42.10700
C  3.30100 49.86200 44.09200
C  5.44100 47.78200 42.48800
O  4.80400 46.85100 42.92700
C  6.69300 47.72300 41.56900
C  6.36900 46.96900 40.29500
O  5.31400 47.14300 39.67200
O  7.32000 46.04800 39.94100
C  6.96500 44.98100 38.97300
H  11.68000 52.20700 39.83400
H  7.91300 56.94900 41.56200
H  3.61500 52.89800 43.90900
H  9.62400 47.85500 40.89500
H  11.38400 49.60300 39.37200
H  11.40500 48.78600 42.26800
H  12.02900 50.39700 41.95300
H  12.68700 49.02600 41.05700
H  9.02900 47.19100 38.59100
H  9.81900 48.70300 38.10300
H  7.94500 50.11200 38.00100
H  7.10700 48.87600 38.81800
H  12.53900 55.77800 38.89700
H  12.75200 54.04100 38.97600
H  13.27000 55.02500 40.32100
H  9.68200 58.02400 42.22100
H  8.88200 58.44800 40.68700
H  10.34100 59.35800 41.23600
H  5.07900 56.69100 41.82200
H  4.64100 55.40000 44.45900
H  5.17700 57.76700 44.44800
H  6.03300 58.49600 43.11600
H  6.78200 57.34500 44.17200
H  2.72700 54.74900 42.29700
H  3.03500 56.43300 42.53200
H  2.71400 55.87700 45.04200
H  1.54100 54.80300 44.47600
H  1.43400 56.56500 44.08000
H  3.70100 49.57500 45.06400
H  2.64100 49.11900 43.64300
H  2.67800 50.74500 44.23500
H  7.51200 47.12500 41.97000
H  7.71000 44.86500 38.18600
H  6.05400 45.04000 38.37700
H  6.84100 44.05000 39.52600

