158

Mg 44.31100 4.73700 46.89600
C  42.28500 7.60800 46.37700
C  41.42500 2.76400 46.54700
C  46.39500 2.10200 46.53100
C  47.10200 6.95400 46.95800
N  42.10900 5.15000 46.43600
C  41.52300 6.39400 46.30900
C  39.95800 6.23000 46.17300
C  39.78700 4.69500 46.68700
C  41.22500 4.16700 46.48400
C  39.19300 4.52100 48.12600
C  39.44500 6.57200 44.77200
C  38.49800 7.75500 44.52200
H  38.94100 8.77000 43.47300
N  43.96600 2.73300 46.43500
C  42.71600 2.13400 46.42900
C  42.86200 0.69300 46.31900
C  44.25500 0.47100 46.21100
C  44.98800 1.77900 46.28000
C  41.66500 -0.24700 46.28200
C  44.89000 -0.95000 45.96700
O  44.30800 -2.03500 46.17900
C  46.31900 -1.02300 45.47500
N  46.40300 4.55500 46.72900
C  47.00700 3.32200 46.76600
C  48.47300 3.40400 47.02700
C  48.68800 4.97500 47.05400
C  47.23600 5.61700 46.90400
C  48.75700 2.73300 48.40800
C  49.70300 5.46300 45.90100
C  50.85700 6.36400 46.27200
N  44.67600 6.85900 46.84500
C  45.90300 7.59400 46.81000
C  45.62800 8.98000 46.77300
C  44.20800 9.06300 46.65400
C  43.68000 7.70300 46.57900
C  46.59000 10.07700 46.88900
C  43.11100 9.94100 46.51600
O  43.17000 11.16200 46.37800
C  41.85300 9.01900 46.33200
C  40.88600 9.39100 47.46100
O  41.03100 9.02900 48.63100
O  40.12400 10.50900 47.17000
C  39.40700 11.17100 48.24500
H  40.47400 2.22800 46.57600
H  46.96800 1.17800 46.64200
H  47.99100 7.57500 47.08000
H  39.61700 7.02400 46.83800
H  39.24100 4.00900 46.04000
H  38.32500 3.86400 48.06500
H  38.85200 5.51400 48.41900
H  39.91600 4.25800 48.89800
H  38.79600 5.75400 44.45800
H  40.31500 6.53300 44.11600
H  38.35600 8.40900 45.38300
H  37.49800 7.45000 44.21300
H  41.64300 -0.90900 47.14800
H  41.60400 -0.83500 45.36700
H  40.69100 0.23900 46.22300
H  47.10200 -0.91800 46.22500
H  46.44700 -0.08500 44.93400
H  46.43300 -1.94300 44.90200
H  48.93600 2.80000 46.24700
H  49.07600 5.15900 48.05600
H  49.76000 2.93700 48.78200
H  48.59200 1.66300 48.28400
H  48.18000 3.18900 49.21200
H  49.14500 6.05400 45.17400
H  50.03600 4.51400 45.48200
H  51.07600 7.14400 45.54300
H  51.77000 5.76900 46.26800
H  50.68400 6.80400 47.25400
H  47.15700 10.30100 45.98500
H  47.18700 9.82300 47.76400
H  45.93400 10.92000 47.11000
H  41.38400 9.21300 45.36700
H  40.00900 12.04800 48.48100
H  39.18600 10.63500 49.16800
H  38.48300 11.59900 47.85500
Mg -11.03300 38.85600 41.12600
C  -9.23800 35.93400 40.50200
C  -8.37900 40.64000 39.72500
C  -12.98700 41.57100 41.23800
C  -13.82000 36.87000 42.14900
N  -9.08200 38.36600 40.01300
C  -8.53500 37.10300 39.96500
C  -7.24800 37.09200 39.17700
C  -6.81800 38.61600 39.23700
C  -8.16100 39.25100 39.71900
C  -5.58900 39.00300 40.18700
C  -7.34600 36.36900 37.84000
C  -6.34800 35.14400 37.66800
H  -5.09300 35.58000 36.86200
N  -10.71300 40.93200 40.60600
C  -9.51400 41.41600 40.05600
C  -9.71500 42.85400 39.90100
C  -11.07100 43.14000 40.25400
C  -11.71100 41.85100 40.68900
C  -8.70600 43.82400 39.27800
C  -11.79400 44.57200 40.08600
O  -11.19600 45.53700 39.65800
C  -13.17500 44.78100 40.41800
N  -13.14800 39.20400 41.56500
C  -13.64500 40.45400 41.63800
C  -15.20600 40.46400 41.82000
C  -15.48200 38.93500 41.99900
C  -14.10500 38.26200 41.85800
C  -15.69500 41.40300 42.98800
C  -16.47900 38.52400 40.90000
C  -17.06100 37.10200 40.95600
N  -11.42600 36.85900 41.42900
C  -12.55200 36.21300 41.92800
C  -12.24700 34.84100 42.00800
C  -10.97700 34.70400 41.41000
C  -10.51900 35.96700 41.08000
C  -13.17300 33.79200 42.38800
C  -9.91000 33.76700 41.03200
O  -9.89600 32.55200 41.02900
C  -8.78100 34.58000 40.32600
C  -7.53600 34.24300 41.06200
O  -7.11300 33.12500 41.03300
O  -7.05300 35.17200 41.87100
C  -5.93200 34.83300 42.70600
H  -7.66400 41.34800 39.30100
H  -13.55800 42.48400 41.41900
H  -14.65800 36.24300 42.46000
H  -6.43900 36.57600 39.69400
H  -6.53800 38.81800 38.20300
H  -4.96000 39.82300 39.84000
H  -5.09700 38.06700 40.44900
H  -5.98400 39.44100 41.10400
H  -7.07900 37.10900 37.08600
H  -8.36300 36.07900 37.57600
H  -6.82400 34.40400 37.02500
H  -6.00700 34.71200 38.60900
H  -9.14600 44.21100 38.35900
H  -7.85500 43.16900 39.09200
H  -8.56500 44.63800 39.99000
H  -13.38500 44.63800 41.47800
H  -13.56700 43.92300 39.87100
H  -13.72700 45.64700 40.05200
H  -15.64500 40.77300 40.87100
H  -15.94700 38.82400 42.97800
H  -16.64100 41.89900 42.76900
H  -15.02700 42.23700 43.20100
H  -15.90000 40.81400 43.88300
H  -16.09200 38.38700 39.89000
H  -17.41600 39.07900 40.84700
H  -18.14300 37.18200 41.06500
H  -16.53800 36.50500 41.70300
H  -16.73400 36.63100 40.02900
H  -13.23800 33.73500 43.47500
H  -12.80400 32.84400 41.99700
H  -14.15300 34.13700 42.05800
H  -8.62600 34.27200 39.29200
H  -5.63400 33.78500 42.65200
H  -6.23000 35.03800 43.73400
H  -5.13100 35.56900 42.63600

