158

Mg 54.63000 24.84300 44.07900
C  51.87900 26.97100 43.73300
C  52.44200 22.17500 43.62200
C  57.30300 22.95200 43.89100
C  56.75800 27.72400 43.95700
N  52.38200 24.63200 43.54900
C  51.46200 25.64400 43.64800
C  50.07900 25.05000 43.76400
C  50.32600 23.57100 43.95700
C  51.78000 23.42800 43.64100
C  49.90600 22.98500 45.35600
C  49.03500 25.45400 42.76500
C  49.31800 24.87700 41.33200
H  49.49100 25.88400 40.20100
N  54.85500 22.85200 43.69500
C  53.81500 21.89700 43.62600
C  54.39800 20.57700 43.36200
C  55.81400 20.80000 43.37900
C  56.04200 22.23100 43.61600
C  53.53400 19.33400 43.04000
C  56.80600 19.59300 43.30800
O  56.44600 18.43200 43.17000
C  58.30200 19.85900 43.36300
N  56.67500 25.23700 43.96200
C  57.61500 24.23800 44.00000
C  59.05800 24.73900 44.09300
C  58.88500 26.28000 44.14200
C  57.30900 26.44300 44.00600
C  59.84400 24.16400 45.34300
C  59.82000 26.95200 43.06800
C  60.77400 28.05000 43.61500
N  54.43900 26.92400 43.95900
C  55.38800 27.94400 44.08500
C  54.59900 29.17600 44.37000
C  53.24800 28.88000 44.25300
C  53.19500 27.49000 43.92800
C  55.24100 30.45700 44.81500
C  51.86700 29.38000 44.30100
O  51.46600 30.50200 44.55400
C  50.89500 28.16900 43.92000
C  50.24400 28.53000 42.68300
O  50.76200 28.44400 41.58400
O  48.94100 28.91500 43.00200
C  47.98800 29.13900 41.92100
H  51.71300 21.36200 43.62600
H  58.16800 22.28700 43.83400
H  57.52700 28.49700 44.01000
H  49.72200 25.35100 44.74900
H  49.75100 22.96900 43.25300
H  49.53800 23.64000 46.14600
H  50.75200 22.51300 45.85600
H  49.20600 22.16600 45.19200
H  48.86700 26.53000 42.74500
H  48.14200 25.01900 43.21500
H  48.52800 24.21000 40.98600
H  50.17900 24.21000 41.38700
H  54.09400 18.39900 43.03000
H  53.33000 19.32600 41.96900
H  52.61500 19.29100 43.62400
H  58.59000 20.44100 42.48800
H  58.78900 18.88600 43.30000
H  58.66900 20.30500 44.28700
H  59.60500 24.39900 43.21300
H  59.17800 26.63600 45.13000
H  59.13500 23.87000 46.11700
H  60.61500 24.76300 45.82700
H  60.28600 23.25500 44.93500
H  59.26000 27.47300 42.29200
H  60.49400 26.21200 42.63600
H  60.70800 28.03400 44.70300
H  60.43800 29.03100 43.27900
H  61.82300 27.93100 43.34400
H  54.53400 31.28100 44.72000
H  56.05100 30.64800 44.11000
H  55.65700 30.58300 45.81400
H  50.18700 28.05100 44.74000
H  47.24000 29.83000 42.31000
H  47.39100 28.28600 41.60000
H  48.54800 29.47700 41.04900
Mg 16.98500 53.08600 26.08900
C  19.11900 51.50900 28.46500
C  14.86200 53.87300 28.70800
C  15.03000 54.51900 23.91400
C  19.21300 52.13500 23.58300
N  16.94400 52.60500 28.28800
C  17.99100 52.11900 29.04600
C  17.76700 52.31400 30.55500
C  16.31400 52.88500 30.57900
C  16.00400 53.18500 29.09600
C  15.16800 51.99500 31.24400
C  18.75900 53.25900 31.25500
C  19.12900 53.07400 32.74700
H  18.13600 52.43800 33.71200
N  15.15900 54.01500 26.24000
C  14.52900 54.35900 27.37700
C  13.44000 55.27400 27.07400
C  13.40200 55.42100 25.69100
C  14.57300 54.58500 25.19900
C  12.43700 55.77100 28.13100
C  12.37500 56.19500 24.84100
O  12.44500 56.25800 23.63500
C  11.32800 56.85700 25.52700
N  17.01400 53.15200 23.95700
C  16.11700 53.92800 23.32000
C  16.50600 54.14900 21.84900
C  17.93600 53.42800 21.75400
C  18.05500 52.82100 23.14000
C  15.53500 53.52800 20.84000
C  19.17100 54.34700 21.43200
C  20.31300 53.82600 20.57800
N  18.70900 51.81600 25.96400
C  19.45900 51.54100 24.86000
C  20.56900 50.76100 25.32700
C  20.54300 50.71400 26.75100
C  19.35900 51.40200 27.04400
C  21.77600 50.24500 24.47400
C  21.22400 50.28900 27.92500
O  22.19800 49.61900 28.13100
C  20.22700 50.81000 29.10600
C  19.78200 49.68500 29.94200
O  19.42200 48.60200 29.50500
O  20.10700 49.86200 31.28700
C  19.65500 48.71000 32.11800
H  14.37100 54.38200 29.54000
H  14.39000 55.09500 23.24200
H  19.98100 51.99300 22.82000
H  17.70000 51.32800 31.01500
H  16.31100 53.91400 30.93700
H  14.40300 52.74800 31.43300
H  15.55500 51.52100 32.14700
H  14.86400 51.14100 30.63900
H  18.61100 54.30700 30.99200
H  19.71200 53.04100 30.77300
H  19.36800 54.08100 33.08700
H  20.04400 52.48200 32.72400
H  12.46500 56.86100 28.13400
H  12.77600 55.53800 29.14000
H  11.45800 55.30500 28.23900
H  10.72000 56.14500 26.08600
H  10.66200 57.47300 24.92300
H  11.80300 57.63900 26.11900
H  16.44400 55.20400 21.58000
H  17.85800 52.61600 21.03100
H  14.76100 54.24800 20.57700
H  15.17100 52.58400 21.24600
H  16.08500 53.26800 19.93500
H  19.54400 54.48200 22.44800
H  18.89200 55.31600 21.01900
H  20.33700 54.41100 19.65900
H  20.30100 52.81700 20.16600
H  21.27800 54.03300 21.04200
H  22.70200 50.34500 25.04000
H  21.91200 50.82400 23.56000
H  21.64500 49.19700 24.20400
H  20.89700 51.40200 29.72900
H  20.08600 47.75100 31.83000
H  18.57300 48.74700 31.98800
H  19.77000 48.85600 33.19200

