158

Mg 47.96200 16.41900 29.42100
C  45.48100 15.64400 31.70300
C  49.78000 17.84200 31.75800
C  49.88600 17.26800 26.95100
C  45.66800 15.08200 26.89400
N  47.55700 16.77500 31.45600
C  46.59100 16.20500 32.23000
C  46.82600 16.45300 33.76100
C  48.21700 17.18200 33.75600
C  48.52200 17.29600 32.20800
C  48.17200 18.61000 34.46400
C  46.75200 15.23000 34.73700
C  47.53500 15.31100 36.07000
H  47.45100 16.65200 36.76800
N  49.58500 17.48900 29.30800
C  50.20000 18.00700 30.42400
C  51.48800 18.67000 29.96100
C  51.51000 18.56800 28.55000
C  50.31000 17.73100 28.19900
C  52.47600 19.37900 30.97600
C  52.57800 18.96600 27.63000
O  52.56900 18.55700 26.43600
C  53.70700 19.82600 28.01500
N  47.70600 16.22600 27.20400
C  48.78600 16.59300 26.47600
C  48.62000 16.19700 25.03400
C  47.30700 15.34300 24.99000
C  46.89100 15.42100 26.46900
C  48.62000 17.27600 23.88600
C  47.40600 13.84400 24.47600
C  47.11800 13.71700 22.91200
N  45.91800 15.55900 29.24600
C  45.11300 15.15200 28.22600
C  43.85300 14.59200 28.78200
C  43.90300 14.86800 30.18500
C  45.18000 15.46200 30.31700
C  42.72400 13.96400 27.97800
C  43.20600 14.77100 31.45800
O  42.13000 14.33200 31.81700
C  44.24800 15.25400 32.48300
C  43.68900 16.36400 33.36000
O  43.53300 17.55800 33.07900
O  43.27100 15.73800 34.57000
C  42.57400 16.68500 35.46600
H  50.47500 18.11800 32.55500
H  50.60400 17.38200 26.13600
H  45.02100 14.65000 26.12800
H  46.05800 17.17700 34.03200
H  49.04400 16.59200 34.15200
H  47.21300 18.79700 34.94700
H  48.32000 19.26200 33.60300
H  49.04000 18.76600 35.10400
H  47.20900 14.39700 34.20300
H  45.68500 15.08700 34.91300
H  48.59900 15.12400 35.92400
H  47.10800 14.50800 36.67000
H  53.11600 18.69500 31.53400
H  51.78900 19.73800 31.74200
H  53.03300 20.29200 30.76200
H  53.32600 20.78600 28.36100
H  54.43300 19.85500 27.20200
H  54.20500 19.35300 28.86100
H  49.44800 15.51300 24.84900
H  46.43600 15.72500 24.45900
H  48.52900 18.21300 24.43500
H  47.78600 17.15700 23.19500
H  49.54900 17.16200 23.32700
H  46.70900 13.29500 25.11000
H  48.38000 13.47300 24.79500
H  46.97500 14.66200 22.38800
H  46.23100 13.08700 22.83800
H  47.94800 13.23900 22.39200
H  42.70600 12.87600 28.03200
H  42.93300 14.30600 26.96400
H  41.72400 14.37300 28.12100
H  44.51800 14.32900 32.99200
H  41.69100 17.10600 34.98400
H  43.31400 17.40900 35.80600
H  42.31200 16.15600 36.38300
Mg 49.39300 45.09200 43.81700
C  46.42300 46.05100 42.13200
C  49.09300 41.98400 42.36000
C  52.76600 44.74900 44.13800
C  49.73300 48.54600 44.66800
N  48.04200 44.24700 42.26900
C  46.85400 44.74100 41.87700
C  46.07200 43.76700 40.99000
C  46.86900 42.46100 41.08800
C  48.03900 42.84600 42.03300
C  46.08200 41.20900 41.58800
C  45.73900 44.28600 39.48600
C  44.26500 44.32500 39.07500
H  43.67000 43.43200 37.97600
N  50.72500 43.49400 43.43600
C  50.43100 42.30100 42.83500
C  51.62200 41.49800 42.76600
C  52.69100 42.28600 43.29000
C  52.09300 43.59200 43.64000
C  51.67200 40.09900 42.15100
C  54.11000 41.80200 43.64400
O  54.45700 40.70200 43.29900
C  55.11200 42.54400 44.42000
N  51.00400 46.48900 44.34000
C  52.22700 46.01300 44.59200
C  53.18600 47.07700 45.18500
C  52.13400 48.12200 45.55700
C  50.89100 47.72700 44.79000
C  54.16200 46.54000 46.34800
C  52.53900 49.69400 45.48800
C  52.71300 50.34000 46.86900
N  48.30900 46.92600 43.64200
C  48.54600 48.14800 44.11900
C  47.43900 49.02300 43.74600
C  46.55200 48.23700 43.08500
C  47.19200 46.98100 42.94000
C  47.32500 50.54300 43.94400
C  45.30000 48.20600 42.44300
O  44.48100 49.12000 42.40100
C  45.15100 46.80400 41.72400
C  43.98700 46.07200 42.16100
O  43.83200 45.38300 43.14000
O  43.03900 46.37000 41.21700
C  41.65800 45.84800 41.36500
H  49.00800 41.01800 41.85700
H  53.85100 44.69200 44.24400
H  49.87300 49.56100 45.04400
H  45.07900 43.55900 41.39100
H  47.14300 42.27100 40.05000
H  46.29700 41.01100 42.63800
H  46.49100 40.37900 41.01200
H  45.00900 41.27300 41.40800
H  46.19900 43.66100 38.72100
H  46.32700 45.19200 39.33900
H  44.19600 45.37600 38.79400
H  43.60700 44.25900 39.94100
H  50.64900 39.73600 42.04500
H  52.19900 39.27400 42.63100
H  52.05700 40.18000 41.13500
H  54.78200 42.98600 45.36000
H  55.71200 43.09600 43.69700
H  55.76600 41.75300 44.78900
H  53.76700 47.55400 44.39600
H  51.64500 48.02200 46.52600
H  53.95300 46.95900 47.33300
H  55.18100 46.73000 46.01100
H  54.09400 45.49200 46.64000
H  51.79300 50.28900 44.96200
H  53.45900 49.94300 44.96000
H  53.75300 50.66600 46.84300
H  52.53100 49.60500 47.65300
H  52.15600 51.26300 47.03400
H  47.89100 50.96400 43.11300
H  47.73000 50.83200 44.91400
H  46.28700 50.83600 43.79100
H  45.09700 46.86500 40.63800
H  41.67200 44.78100 41.58700
H  41.02600 45.92700 40.48000
H  41.06600 46.33100 42.14200

