158

Mg -1.49400 16.99200 26.04600
C  -1.79600 15.02400 28.92600
C  -1.86400 19.82500 28.10500
C  -1.67300 18.90600 23.33100
C  -1.55900 14.18800 24.11300
N  -1.78900 17.33900 28.27800
C  -1.92400 16.32500 29.23400
C  -2.32800 16.93000 30.59800
C  -2.35100 18.48800 30.29600
C  -2.00000 18.57400 28.79300
C  -3.78900 19.24000 30.47800
C  -1.41500 16.50300 31.71200
C  -1.83000 17.04800 33.04700
H  -1.63400 16.28100 34.33200
N  -1.49900 19.10000 25.81100
C  -1.68300 20.12000 26.77600
C  -1.63600 21.36400 26.05500
C  -1.34600 21.14100 24.70000
C  -1.57300 19.65100 24.55700
C  -1.71500 22.68300 26.77800
C  -0.95700 22.11000 23.65900
O  -0.97200 21.86000 22.46900
C  -0.58200 23.47600 23.98000
N  -1.76000 16.62000 24.03500
C  -1.65300 17.59300 23.09700
C  -1.81100 17.01000 21.70800
C  -1.30800 15.51100 21.97300
C  -1.59600 15.39900 23.45300
C  -3.27500 17.04800 21.10400
C  0.18500 15.25800 21.57000
C  0.44200 15.12300 20.09500
N  -1.57800 15.03500 26.40200
C  -1.68200 14.01500 25.49000
C  -1.92000 12.79200 26.17100
C  -1.88100 13.13400 27.50600
C  -1.68600 14.54400 27.62800
C  -2.22700 11.53800 25.50300
C  -2.06500 12.51000 28.78000
O  -2.14300 11.32100 29.15300
C  -2.04500 13.77300 29.75700
C  -0.90900 13.33700 30.60800
O  0.18600 13.77300 30.46200
O  -1.39400 12.59900 31.68300
C  -0.47400 12.32100 32.79600
H  -2.05700 20.72900 28.68800
H  -1.57000 19.59600 22.49100
H  -1.53400 13.35100 23.41200
H  -3.30500 16.62200 30.97000
H  -1.62400 19.08900 30.84300
H  -3.52100 20.21600 30.88100
H  -4.61200 18.79800 31.04000
H  -4.25800 19.28900 29.49600
H  -0.41100 16.67000 31.32000
H  -1.49000 15.42900 31.88300
H  -2.87100 17.33600 32.90400
H  -1.23400 17.96000 33.07300
H  -2.12500 22.55300 27.77900
H  -2.36800 23.37800 26.25100
H  -0.72300 23.11100 26.92500
H  -1.15900 24.07000 24.69000
H  -0.29000 24.04500 23.09700
H  0.35900 23.17800 24.44100
H  -1.16600 17.58300 21.04200
H  -1.90900 14.82900 21.37200
H  -3.75800 16.07300 21.04700
H  -3.14400 17.53900 20.13900
H  -3.92300 17.72600 21.66000
H  0.56700 14.44000 22.18200
H  0.74200 16.13500 21.90000
H  1.41800 15.58400 19.94500
H  -0.32100 15.59600 19.47700
H  0.40000 14.05700 19.87100
H  -1.35000 10.89200 25.45700
H  -2.52400 11.73700 24.47300
H  -2.92000 10.91400 26.06700
H  -2.95300 13.79000 30.36000
H  0.57200 12.23000 32.50500
H  -0.86900 11.46000 33.33600
H  -0.53500 13.21200 33.42200
Mg -1.61900 34.77000 26.33400
C  -3.02000 33.00200 29.04400
C  -0.55700 37.17500 28.56100
C  -0.97200 36.75700 23.76100
C  -2.92400 32.33700 24.10500
N  -1.76900 35.04000 28.56500
C  -2.29200 34.15100 29.48900
C  -2.04900 34.64700 30.86000
C  -1.28800 36.00200 30.71900
C  -1.10500 36.08000 29.15900
C  -2.14200 37.28600 31.32400
C  -1.30000 33.52000 31.60200
C  -2.19900 32.96600 32.78500
H  -1.56100 32.82400 34.18800
N  -0.74000 36.59400 26.17100
C  -0.35300 37.41300 27.20200
C  0.24300 38.63500 26.66300
C  0.17600 38.49000 25.25200
C  -0.56400 37.29500 24.96100
C  0.85100 39.65800 27.58700
C  0.79300 39.41500 24.15300
O  0.66100 39.14000 23.00800
C  1.63300 40.53500 24.39500
N  -2.04300 34.58600 24.21600
C  -1.50600 35.52200 23.38400
C  -1.32900 34.96400 21.88800
C  -1.93600 33.56900 22.00600
C  -2.37100 33.48900 23.52700
C  -1.95100 35.88000 20.84400
C  -1.02600 32.32200 21.78100
C  0.04600 31.88500 22.87000
N  -2.77900 33.09300 26.54400
C  -3.11500 32.13800 25.52500
C  -3.81400 31.01300 26.10900
C  -3.84600 31.31700 27.51900
C  -3.18400 32.58600 27.71900
C  -4.43600 29.85000 25.38200
C  -4.32400 30.91500 28.80500
O  -5.13700 30.03700 29.10000
C  -3.73400 31.89800 29.84300
C  -4.78600 32.43900 30.74300
O  -5.46500 33.45800 30.61900
O  -4.97500 31.49400 31.81400
C  -6.05000 31.85000 32.77400
H  -0.25300 37.97300 29.24200
H  -0.53700 37.32600 22.93700
H  -3.19900 31.52600 23.42900
H  -3.07100 34.84700 31.18300
H  -0.31400 36.07800 31.20100
H  -2.83200 37.77300 30.63500
H  -1.39400 38.02000 31.62400
H  -2.58000 36.82400 32.20900
H  -0.31800 33.82500 31.96300
H  -1.06800 32.72000 30.89900
H  -2.53200 31.95700 32.54000
H  -3.12700 33.50900 32.96500
H  1.80200 39.39300 28.05000
H  0.17500 39.80900 28.42900
H  0.68400 40.62600 27.11400
H  2.65600 40.21700 24.59200
H  1.30400 41.19300 25.20000
H  1.64700 41.23400 23.55900
H  -0.28000 34.86100 21.61100
H  -2.80100 33.45800 21.35200
H  -1.94500 36.92200 21.16400
H  -2.97200 35.53600 20.67700
H  -1.47500 35.80300 19.86700
H  -0.40700 32.31300 20.88400
H  -1.63000 31.42700 21.63400
H  -0.31900 30.96400 23.32400
H  0.12200 32.70500 23.58300
H  1.02500 31.67200 22.44100
H  -4.53000 28.98900 26.04500
H  -3.89000 29.54600 24.49000
H  -5.43100 30.15000 25.05200
H  -3.09700 31.19900 30.38600
H  -6.91200 32.36400 32.34900
H  -5.65500 32.42100 33.61400
H  -6.51300 30.91500 33.09000

