158

Mg 24.18200 -6.87400 46.62800
C  25.85800 -4.20100 45.33700
C  21.50000 -5.98800 44.32600
C  22.68100 -9.85000 47.14900
C  26.85800 -7.84800 48.34700
N  23.75300 -5.27500 44.98800
C  24.63800 -4.25400 44.70600
C  24.03700 -3.35600 43.62400
C  22.51700 -3.80600 43.52600
C  22.58100 -5.08900 44.31900
C  21.45000 -2.73600 43.91800
C  24.86800 -3.48800 42.31100
C  25.14300 -2.20500 41.47900
H  24.65100 -2.17600 40.02200
N  22.25100 -7.82100 45.99300
C  21.32200 -7.30400 45.00200
C  20.16800 -8.15600 45.05000
C  20.46300 -9.21300 45.96600
C  21.81100 -8.99800 46.42000
C  18.93500 -7.91900 44.18200
C  19.49100 -10.33200 46.37200
O  18.40400 -10.45200 45.77300
C  19.84000 -11.32800 47.49600
N  24.66600 -8.59800 47.62200
C  23.83900 -9.62000 47.77300
C  24.42500 -10.63900 48.79000
C  25.82700 -10.05000 49.12600
C  25.77300 -8.72600 48.36000
C  23.53900 -11.01800 49.96200
C  27.13700 -10.92800 48.85700
C  28.03000 -11.16700 50.14500
N  25.99100 -6.26200 46.76300
C  27.05900 -6.70400 47.55300
C  28.10700 -5.71100 47.56800
C  27.68000 -4.74600 46.68500
C  26.37200 -5.11800 46.24000
C  29.31400 -5.76700 48.49200
C  28.02100 -3.43600 46.18500
O  28.90100 -2.62700 46.41800
C  26.85300 -3.06100 45.23500
C  26.35600 -1.79300 45.68400
O  26.87400 -0.71900 45.26900
O  25.17100 -1.90900 46.37300
C  24.73400 -0.68500 47.11300
H  20.61900 -5.77800 43.71500
H  22.28300 -10.84000 47.38200
H  27.68500 -8.09600 49.01500
H  24.01900 -2.29200 43.85700
H  22.27800 -4.07300 42.49700
H  20.88500 -3.11200 44.77000
H  20.73100 -2.58600 43.11300
H  21.84500 -1.80300 44.32100
H  24.37600 -4.18500 41.63300
H  25.80100 -3.99800 42.55200
H  26.22400 -2.27500 41.36400
H  24.99100 -1.29500 42.06100
H  18.83700 -8.78700 43.52900
H  19.02400 -7.11600 43.45100
H  17.98800 -7.82100 44.71300
H  20.40600 -12.07000 46.93200
H  18.94200 -11.79100 47.90600
H  20.40900 -10.78700 48.25300
H  24.55000 -11.59100 48.27600
H  25.75500 -9.81700 50.18900
H  22.73900 -10.28000 50.03200
H  23.99200 -11.05200 50.95200
H  23.13100 -12.00600 49.74900
H  27.82300 -10.52400 48.11300
H  26.70300 -11.86400 48.50500
H  28.00400 -12.23700 50.35300
H  27.66300 -10.66200 51.03800
H  29.05500 -10.82500 50.00100
H  29.35200 -4.83400 49.05500
H  30.21000 -5.87400 47.88100
H  29.12200 -6.56000 49.21400
H  27.18100 -3.02500 44.19600
H  24.07500 -0.07600 46.49400
H  25.59700 -0.06600 47.36000
H  24.28800 -1.00400 48.05500
Mg 47.50400 14.71700 27.90300
C  45.37900 15.12500 30.57800
C  49.58900 17.07900 29.23800
C  49.18000 14.75100 25.06000
C  44.90500 12.90200 26.31500
N  47.36100 16.09300 29.67500
C  46.51900 15.92700 30.74800
C  47.09200 16.51300 32.03100
C  48.17100 17.43100 31.43400
C  48.42600 16.92100 29.98500
C  47.85600 18.93100 31.49100
C  47.54100 15.55700 33.09300
C  47.20500 15.98200 34.53500
H  48.40000 16.47000 35.34300
N  49.21600 15.65500 27.30900
C  49.93000 16.54300 28.01200
C  51.33200 16.67500 27.44000
C  51.20100 16.05600 26.10800
C  49.80200 15.45800 26.11000
C  52.54200 17.31200 28.17900
C  52.20600 16.03300 24.94500
O  51.97000 15.52900 23.87700
C  53.46200 16.85000 25.05200
N  47.07900 14.03200 26.05400
C  47.91700 14.18500 25.03500
C  47.45600 13.51100 23.74100
C  46.18900 12.72900 24.20100
C  46.00700 13.28000 25.58800
C  47.10100 14.42100 22.50500
C  46.47100 11.22300 24.14900
C  47.38900 10.53000 25.17400
N  45.50900 14.07200 28.34200
C  44.59200 13.26300 27.67500
C  43.48700 12.96700 28.53600
C  43.82600 13.61300 29.74300
C  45.00700 14.33300 29.53500
C  42.30500 12.11100 28.20700
C  43.29100 13.82600 31.07500
O  42.25000 13.45300 31.61800
C  44.35600 14.86500 31.68400
C  43.59700 16.10300 32.08700
O  43.31100 17.05800 31.38200
O  43.10000 15.93300 33.31000
C  42.47300 17.01300 33.99800
H  50.42900 17.59500 29.70800
H  49.67900 14.76100 24.08900
H  44.17300 12.26400 25.81600
H  46.27500 17.08500 32.47100
H  49.09700 17.29100 31.99000
H  47.68000 19.27500 30.47100
H  48.74800 19.45300 31.83700
H  46.98500 19.14600 32.11100
H  48.62200 15.41400 33.07400
H  47.12600 14.58200 32.83600
H  46.62400 15.23700 35.07800
H  46.63300 16.91000 34.54800
H  53.43800 16.77000 27.87800
H  52.25700 17.02100 29.18900
H  52.56300 18.40200 28.18600
H  54.07400 16.42700 25.84900
H  53.22700 17.89500 25.25500
H  53.93700 16.83900 24.07100
H  48.33300 12.94000 23.43700
H  45.27900 12.92600 23.63400
H  46.22600 13.97100 22.03500
H  47.96800 14.57800 21.86400
H  46.85000 15.32000 23.06800
H  46.82500 10.99700 23.14400
H  45.49300 10.75200 24.24700
H  47.66100 11.03000 26.10400
H  48.31800 10.17200 24.73000
H  46.85900 9.66200 25.56500
H  41.40100 12.65900 27.94100
H  42.03600 11.49200 29.06300
H  42.56100 11.57600 27.29300
H  44.72700 14.30600 32.54300
H  42.84000 17.98700 33.67500
H  42.76000 16.80000 35.02800
H  41.38700 16.92000 34.03000

