158

Mg 35.61200 48.57300 26.15400
C  36.02700 46.54500 28.95200
C  34.89500 51.19600 28.17400
C  34.77200 50.24400 23.36500
C  36.60200 45.84100 24.16400
N  35.55300 48.82600 28.37200
C  35.70500 47.88200 29.32500
C  35.46500 48.41300 30.69700
C  34.94400 49.82300 30.42000
C  35.12400 49.99700 28.90500
C  33.42800 50.12600 30.77200
C  36.86100 48.41300 31.43700
C  36.83200 47.82400 32.80400
H  36.80600 48.84300 33.88100
N  35.01500 50.41700 25.81800
C  34.89900 51.40300 26.77000
C  34.66900 52.67400 26.11300
C  34.57100 52.40100 24.66000
C  34.70500 50.97500 24.60700
C  34.41700 53.90200 26.92200
C  34.33900 53.44400 23.48400
O  34.27200 53.17300 22.32500
C  34.12500 54.87200 23.92000
N  35.37400 48.02600 24.02300
C  35.21600 49.00600 23.08400
C  35.24500 48.37400 21.67500
C  35.99000 47.05900 21.96700
C  35.99900 46.95300 23.47000
C  33.92700 48.20800 20.99400
C  37.46200 46.97100 21.47700
C  38.66000 47.60500 22.31200
N  36.02200 46.62200 26.45500
C  36.53100 45.65800 25.57600
C  36.92300 44.46900 26.35400
C  36.62000 44.75500 27.65900
C  36.22300 46.13600 27.62500
C  37.49400 43.14400 25.96100
C  36.66300 44.22100 28.94800
O  36.91000 43.12000 29.35200
C  36.22500 45.41200 29.86700
C  34.99400 44.93600 30.51800
O  33.93000 44.85800 29.93800
O  35.36700 44.46500 31.74300
C  34.27000 43.91100 32.57100
H  34.66000 52.01200 28.86000
H  34.55000 50.79900 22.45000
H  37.06500 45.08100 23.53100
H  34.68200 47.75600 31.07400
H  35.58400 50.58500 30.86500
H  32.98700 49.34300 31.38900
H  32.77600 50.17100 29.89900
H  33.26600 50.95500 31.46100
H  37.36700 49.37800 31.45800
H  37.47500 47.77300 30.80400
H  37.65300 47.11600 32.91200
H  35.94000 47.21900 32.96800
H  34.94300 53.86100 27.87700
H  33.34400 54.06100 27.02800
H  34.87000 54.77500 26.45200
H  33.46100 55.14000 23.09900
H  35.01200 55.50500 23.93200
H  33.63000 54.92300 24.89000
H  35.94800 48.96600 21.09000
H  35.54300 46.14700 21.57100
H  33.72800 49.03600 20.31400
H  33.10500 48.20000 21.71000
H  33.81700 47.39800 20.27400
H  37.47100 47.62700 20.60600
H  37.81600 45.98500 21.18000
H  39.01700 48.41700 21.68000
H  39.39800 46.80500 22.35800
H  38.51500 47.96300 23.33200
H  38.30600 42.89300 26.64300
H  37.79200 43.10300 24.91300
H  36.77200 42.34300 26.11600
H  37.07700 45.52700 30.53700
H  34.07800 42.87800 32.27900
H  33.37700 44.53600 32.58900
H  34.70800 43.88800 33.56800
Mg 9.67400 47.60000 25.52100
C  7.39800 48.28000 28.08800
C  12.27100 48.69400 27.66400
C  11.90300 47.28200 23.04900
C  7.03000 47.46600 23.26500
N  9.79900 48.24900 27.60200
C  8.74300 48.44400 28.43100
C  9.20500 48.60500 29.91700
C  10.61300 49.24200 29.64900
C  10.96200 48.65800 28.18800
C  10.78200 50.81000 29.68100
C  9.17500 47.39700 30.79200
C  8.90600 47.63000 32.30200
H  9.11400 46.39400 33.16600
N  11.81000 47.78300 25.39000
C  12.66400 48.24100 26.37100
C  14.04800 48.17700 25.91800
C  14.00600 47.57500 24.56800
C  12.52500 47.50900 24.28600
C  15.16500 48.72800 26.60300
C  15.15600 47.12600 23.60200
O  14.94900 46.56800 22.55600
C  16.46600 47.42900 24.03900
N  9.42000 47.33400 23.46100
C  10.53300 47.22500 22.64900
C  10.07600 47.19500 21.17300
C  8.51800 47.20300 21.22900
C  8.30000 47.33300 22.73000
C  10.61800 48.39500 20.33000
C  7.75200 46.01000 20.56600
C  8.31800 44.62400 20.93400
N  7.64800 47.75700 25.63100
C  6.71300 47.56400 24.64700
C  5.36200 47.69500 25.22600
C  5.61300 47.85900 26.60600
C  7.01400 47.90000 26.80000
C  4.06400 47.71600 24.49900
C  4.92700 48.14300 27.75500
O  3.78400 48.24600 28.05500
C  6.07900 48.30200 28.87200
C  5.89600 47.12200 29.76200
O  6.04400 45.97200 29.53000
O  5.43200 47.65100 30.97900
C  5.13400 46.73100 32.04600
H  13.10800 49.06700 28.25700
H  12.62100 47.25000 22.22700
H  6.18900 47.57200 22.57600
H  8.50500 49.30000 30.38100
H  11.33500 48.92400 30.40100
H  11.52400 50.99300 30.45800
H  9.75100 51.06700 29.92500
H  10.99600 51.11600 28.65700
H  10.09600 46.82500 30.67400
H  8.37600 46.69700 30.54800
H  7.95200 48.12300 32.49100
H  9.67800 48.33000 32.62200
H  16.11000 48.23200 26.38600
H  15.08600 48.87000 27.68100
H  15.21000 49.68800 26.08800
H  17.10700 47.14600 23.20400
H  16.56100 46.69600 24.84000
H  16.69500 48.44800 24.35300
H  10.35800 46.22400 20.76500
H  8.12500 48.04700 20.66300
H  11.27100 48.99300 20.96500
H  9.83200 49.07500 20.00000
H  11.16100 47.94900 19.49600
H  7.90300 45.91600 19.49100
H  6.66800 46.12000 20.54900
H  8.83000 44.74100 21.88900
H  9.06500 44.46500 20.15600
H  7.63100 43.77800 20.94900
H  4.10600 48.21600 23.53200
H  3.23500 48.06000 25.11800
H  3.74100 46.68300 24.36800
H  5.93700 49.16800 29.51700
H  4.71500 45.75600 31.79700
H  4.48500 47.22700 32.76800
H  6.09200 46.44800 32.48100

