158

Mg -1.95300 17.60700 27.94500
C  -2.48700 15.69000 30.75800
C  -2.71700 20.42400 29.97700
C  -1.69900 19.43400 25.19800
C  -1.37100 14.63500 26.02200
N  -2.52900 18.00200 30.06800
C  -2.55700 17.05000 31.07800
C  -2.75400 17.68600 32.41900
C  -3.07900 19.17100 32.14500
C  -2.77900 19.22200 30.62600
C  -4.55200 19.54700 32.43300
C  -1.57900 17.45300 33.42300
C  -1.99700 17.01100 34.85000
H  -0.89400 16.96900 35.94700
N  -2.05400 19.65200 27.61200
C  -2.45200 20.60700 28.56200
C  -2.37300 21.90000 27.87300
C  -2.02100 21.61800 26.51100
C  -1.89800 20.23500 26.37500
C  -2.39800 23.19000 28.70500
C  -1.74800 22.53700 25.35000
O  -1.47600 22.19300 24.24700
C  -1.73300 24.06500 25.50200
N  -1.77700 17.10200 25.85800
C  -1.50700 18.07300 24.96300
C  -1.11100 17.40000 23.63300
C  -0.84800 15.90900 23.89900
C  -1.27300 15.88700 25.36700
C  -2.15700 17.66700 22.55200
C  0.64500 15.44800 23.73200
C  1.73000 16.04500 24.66200
N  -2.02900 15.58600 28.21900
C  -1.81700 14.48800 27.35700
C  -1.98500 13.28200 28.11400
C  -2.28000 13.71700 29.40700
C  -2.18000 15.13700 29.45100
C  -1.81600 11.82600 27.67600
C  -2.55500 13.27000 30.74000
O  -2.65500 12.14300 31.16900
C  -2.57400 14.51000 31.65500
C  -1.43000 14.28000 32.52400
O  -0.27400 14.51000 32.23000
O  -1.82500 13.74300 33.74300
C  -0.78100 13.19300 34.63900
H  -3.06900 21.27400 30.56500
H  -1.57100 20.01300 24.28200
H  -1.25500 13.79800 25.33200
H  -3.70300 17.30200 32.79200
H  -2.28400 19.77400 32.58300
H  -4.89600 20.15700 31.59800
H  -4.55100 20.20600 33.30100
H  -5.20100 18.67200 32.45900
H  -1.01800 18.38500 33.48800
H  -0.96900 16.65300 33.00400
H  -2.49000 16.04100 34.90400
H  -2.71400 17.75900 35.18600
H  -3.20000 23.91300 28.55400
H  -1.49800 23.80100 28.63600
H  -2.33300 22.96000 29.76800
H  -1.95000 24.41100 24.49100
H  -0.80100 24.47000 25.89500
H  -2.60400 24.38500 26.07400
H  -0.20400 17.83200 23.21100
H  -1.39700 15.20600 23.27200
H  -2.98200 16.95600 22.53200
H  -1.73000 17.55500 21.55500
H  -2.59500 18.65000 22.72600
H  1.00000 15.75400 22.74800
H  0.68500 14.36800 23.87400
H  2.04600 16.99500 24.23100
H  2.64200 15.44800 24.68200
H  1.29000 16.13500 25.65500
H  -1.10300 11.67200 26.86500
H  -2.84100 11.63600 27.35800
H  -1.57400 11.16600 28.50900
H  -3.46000 14.51500 32.28900
H  0.25500 13.35800 34.34200
H  -0.94600 12.13700 34.85400
H  -1.05200 13.67600 35.57800
Mg -2.53200 34.28000 26.62500
C  -4.44100 32.89700 29.25900
C  -1.72900 36.94500 28.64400
C  -0.88700 35.73200 24.07300
C  -4.06900 31.98000 24.55800
N  -3.21500 34.81200 28.68000
C  -3.76700 33.99200 29.63600
C  -3.75400 34.73200 30.98700
C  -2.97300 36.09600 30.62100
C  -2.65300 35.97400 29.17200
C  -3.75800 37.36100 30.97400
C  -3.09600 34.02600 32.15700
C  -2.67200 34.84800 33.42500
H  -3.19700 34.53000 34.83800
N  -1.45300 36.12100 26.37100
C  -1.22100 37.06000 27.29400
C  -0.29000 38.09400 26.82300
C  0.00600 37.71800 25.48200
C  -0.83400 36.53300 25.20900
C  0.30800 39.23400 27.72000
C  0.93500 38.34900 24.42200
O  1.03500 37.96100 23.28500
C  1.76000 39.51200 24.86600
N  -2.62500 33.98500 24.63600
C  -1.79300 34.67700 23.79600
C  -1.69100 33.95400 22.40900
C  -2.65800 32.73100 22.57400
C  -3.15200 32.93000 24.04700
C  -2.02300 34.75800 21.10300
C  -1.82300 31.40800 22.46500
C  -2.59600 30.24800 21.90200
N  -3.99300 32.75400 26.80900
C  -4.49100 31.87500 25.88500
C  -5.38100 30.85500 26.50000
C  -5.40200 31.27800 27.89900
C  -4.56200 32.40300 27.98200
C  -6.03000 29.71000 25.76700
C  -5.94600 30.95600 29.21600
O  -6.67400 30.04100 29.47700
C  -5.26900 31.93700 30.19500
C  -6.29900 32.60200 31.04700
O  -7.11100 33.40200 30.57600
O  -6.26900 32.15700 32.32600
C  -7.39400 32.50700 33.25200
H  -1.41400 37.72600 29.34000
H  -0.31000 36.01100 23.18900
H  -4.45400 31.19800 23.90000
H  -4.81200 34.89900 31.18700
H  -2.00200 36.14500 31.11300
H  -3.47800 38.19000 30.32400
H  -3.56900 37.63900 32.01000
H  -4.81900 37.19900 30.77900
H  -2.35600 33.31200 31.79500
H  -3.78200 33.29500 32.58600
H  -2.84900 35.91900 33.33100
H  -1.58800 34.77100 33.50500
H  1.34100 38.94800 27.91400
H  -0.30700 39.32100 28.61700
H  0.23000 40.19500 27.21200
H  2.21100 39.35900 25.84600
H  1.11400 40.38500 24.95600
H  2.55500 39.75700 24.16100
H  -0.65400 33.65200 22.26100
H  -3.55800 32.78300 21.96200
H  -2.37100 35.78000 21.25500
H  -2.68900 34.27300 20.39000
H  -1.14400 34.90200 20.47500
H  -1.54700 31.21800 23.50200
H  -0.87700 31.55500 21.94600
H  -1.96100 29.72500 21.18700
H  -3.55800 30.49500 21.45200
H  -2.73500 29.56100 22.73700
H  -7.02500 29.90300 25.36600
H  -6.10200 28.86600 26.45400
H  -5.38500 29.55400 24.90300
H  -4.57600 31.45500 30.88400
H  -8.03200 33.19800 32.70000
H  -7.04400 32.89100 34.21000
H  -7.98300 31.61600 33.47200

