158

Mg 47.66300 24.78800 28.32500
C  48.69300 27.10600 30.96700
C  46.49900 22.70000 30.78400
C  47.15600 22.65200 25.91600
C  49.19100 27.13100 26.06000
N  47.58600 24.93400 30.54400
C  47.91900 25.96400 31.33000
C  47.41200 25.80200 32.83400
C  46.99800 24.25900 32.80400
C  46.96000 23.90900 31.28700
C  47.98100 23.24100 33.57300
C  46.21100 26.75200 33.33000
C  46.48700 27.62800 34.63400
H  46.76400 26.83900 35.87300
N  46.84200 22.94200 28.31800
C  46.40400 22.26600 29.44500
C  45.89200 21.00200 28.95800
C  46.05600 20.97300 27.54900
C  46.69800 22.19700 27.18000
C  45.39900 19.98800 29.89600
C  45.69300 19.91700 26.52700
O  46.03200 20.04100 25.36700
C  45.01900 18.69800 27.03300
N  48.23800 24.84800 26.35800
C  47.78700 23.85500 25.53200
C  48.18300 24.11600 24.04700
C  48.57800 25.61200 24.10500
C  48.74000 25.90200 25.55300
C  49.40000 23.18100 23.55000
C  47.51400 26.54900 23.37400
C  46.14500 26.45200 23.88300
N  48.85600 26.74200 28.43400
C  49.26700 27.53700 27.38800
C  49.83900 28.76300 27.92700
C  49.66500 28.59300 29.32400
C  49.07900 27.36400 29.56500
C  50.59000 29.86700 27.08600
C  49.87400 29.23800 30.57700
O  50.40800 30.33400 30.77300
C  49.20200 28.32000 31.65300
C  50.08500 28.16100 32.85300
O  51.04100 27.41300 32.88800
O  49.68700 28.99600 33.81500
C  50.31000 28.98800 35.11600
H  46.13400 22.02200 31.55900
H  46.98500 22.02500 25.03700
H  49.53400 27.83900 25.30300
H  48.29500 25.97700 33.45000
H  45.97700 24.06700 33.13400
H  48.95000 23.15900 33.08200
H  47.51400 22.28000 33.79200
H  48.18200 23.65100 34.56300
H  45.34100 26.12700 33.53400
H  45.66900 27.39500 32.63700
H  45.60700 28.23000 34.85900
H  47.37100 28.25100 34.50000
H  46.25900 19.41200 30.23900
H  44.57600 19.34300 29.59000
H  44.96600 20.61700 30.67400
H  45.47900 18.28300 27.93000
H  45.17700 17.89700 26.31000
H  43.96800 18.95900 27.15900
H  47.30100 23.89900 23.44500
H  49.58500 25.70200 23.69700
H  50.34700 23.71500 23.62500
H  49.16400 22.92900 22.51700
H  49.51000 22.30300 24.18800
H  47.50900 26.19500 22.34300
H  47.96800 27.53600 23.46300
H  45.85300 27.35000 24.42800
H  46.00200 25.57500 24.51500
H  45.46100 26.21600 23.06800
H  51.24500 29.38700 26.35900
H  51.37300 30.36700 27.65600
H  49.92800 30.60600 26.63400
H  48.33300 28.88700 31.98800
H  50.42200 30.05100 35.32900
H  51.28100 28.49300 35.11800
H  49.64600 28.63100 35.90400
Mg 1.08000 42.91700 26.01000
C  3.25300 42.89800 28.86800
C  -1.47400 42.03100 28.17800
C  -0.72200 42.19100 23.38500
C  3.84600 43.46500 24.00200
N  0.93900 42.56300 28.23500
C  1.87400 42.73700 29.22200
C  1.21200 42.74300 30.59000
C  -0.14500 42.06800 30.30000
C  -0.26300 42.30400 28.78600
C  -0.18500 40.52500 30.74500
C  1.09600 44.13600 31.20400
C  1.32600 44.26600 32.70600
H  0.96000 43.12700 33.66000
N  -0.84000 42.35000 25.82800
C  -1.74800 42.03400 26.76200
C  -3.02400 41.84200 26.22000
C  -2.86700 41.91000 24.76800
C  -1.38500 42.05700 24.61900
C  -4.20200 41.62700 27.08100
C  -4.04800 41.84700 23.73500
O  -3.82200 41.93900 22.54600
C  -5.52500 41.77400 24.03800
N  1.49400 42.76600 24.03300
C  0.55100 42.61500 23.12800
C  1.17100 42.70900 21.75900
C  2.51100 43.57100 21.92200
C  2.67600 43.25600 23.38100
C  1.33900 41.34900 21.04600
C  2.50400 45.02500 21.62100
C  1.22000 45.81100 21.72500
N  3.16100 43.20500 26.28100
C  4.13400 43.40600 25.41200
C  5.42300 43.50700 26.05100
C  5.18200 43.26900 27.43600
C  3.71700 43.12300 27.52000
C  6.71000 43.62100 25.21600
C  5.73500 43.08800 28.73100
O  6.90200 42.97600 29.10400
C  4.49100 42.95600 29.72700
C  4.70800 41.77300 30.56200
O  4.72500 40.56700 30.22100
O  4.96000 42.20000 31.79100
C  5.04400 41.29700 32.93500
H  -2.25400 41.76800 28.89500
H  -1.39300 41.97200 22.55200
H  4.64400 43.83900 23.35800
H  1.84500 42.18100 31.27700
H  -0.98800 42.51300 30.82900
H  -0.45800 39.94700 29.86200
H  -1.01400 40.40200 31.44200
H  0.77800 40.13000 31.06800
H  0.11600 44.51000 30.90900
H  1.85100 44.68000 30.63700
H  0.91300 45.20800 33.06700
H  2.38900 44.43400 32.87900
H  -4.54600 42.64800 27.24500
H  -4.02100 41.28900 28.10100
H  -5.02300 40.99800 26.73500
H  -5.76400 42.67200 24.60800
H  -5.58000 40.82100 24.56300
H  -6.14100 41.94200 23.15500
H  0.54300 43.21100 21.02300
H  3.43100 43.12300 21.54700
H  2.32100 41.04600 20.68200
H  0.73400 41.44100 20.14400
H  0.95200 40.51700 21.63400
H  2.75500 45.14400 20.56700
H  3.30700 45.56100 22.12500
H  0.99300 46.01900 20.68000
H  1.36500 46.72500 22.30100
H  0.41900 45.20300 22.14600
H  6.56800 44.25000 24.33700
H  7.06000 42.62600 24.94500
H  7.42600 44.03300 25.92800
H  4.50400 43.82700 30.38200
H  5.68300 41.88000 33.59700
H  5.50500 40.35700 32.63200
H  4.12600 40.91800 33.38400

