158

Mg 25.41900 1.83700 30.00700
C  27.65100 2.00600 32.73000
C  22.87800 2.05600 32.31400
C  23.23600 1.77700 27.49200
C  27.98900 1.00500 27.95700
N  25.31200 2.17300 32.33300
C  26.35400 2.28600 33.21300
C  25.88000 2.52100 34.64000
C  24.34500 2.42100 34.46100
C  24.14300 2.11000 32.94500
C  23.51400 1.50500 35.45500
C  26.39300 3.78600 35.36200
C  26.85500 3.51700 36.81500
H  26.36400 4.51800 37.95600
N  23.39100 1.86200 29.90900
C  22.52100 2.01500 30.94100
C  21.10400 1.98400 30.45200
C  21.19100 1.95000 29.03500
C  22.65000 1.89100 28.77900
C  19.84800 2.25600 31.29600
C  20.08900 2.05300 27.93700
O  20.25300 1.86100 26.72200
C  18.68800 2.14400 28.39000
N  25.54200 1.30300 27.97800
C  24.53000 1.44100 27.16300
C  25.02800 1.32300 25.68100
C  26.54500 0.91000 25.82000
C  26.69900 1.11000 27.35800
C  24.20300 0.30000 24.81100
C  27.53700 1.80100 24.93700
C  27.75300 3.30000 25.25100
N  27.43600 1.49400 30.27000
C  28.36500 1.24300 29.31200
C  29.63400 0.99500 29.93900
C  29.40700 1.29900 31.26000
C  28.02000 1.61000 31.39700
C  30.89200 0.49900 29.19700
C  30.00400 1.39500 32.62700
O  31.12900 1.08100 32.90700
C  28.89400 1.88500 33.61000
C  28.79500 0.85800 34.68500
O  28.08100 -0.09300 34.77400
O  29.79800 1.09100 35.59700
C  29.67400 0.26100 36.83600
H  22.06000 2.24900 33.01100
H  22.55700 1.83800 26.63800
H  28.76500 0.72900 27.24100
H  26.19300 1.67000 35.24500
H  23.84900 3.38600 34.55500
H  22.49400 1.28900 35.13900
H  23.46600 2.00300 36.42400
H  23.96000 0.52700 35.63300
H  25.67300 4.59400 35.49100
H  27.19800 4.19700 34.75400
H  27.91800 3.75900 36.80700
H  26.75500 2.48000 37.13600
H  20.15900 2.33600 32.33700
H  19.15700 1.42500 31.44000
H  19.33600 3.16300 30.97400
H  17.87000 1.83100 27.74000
H  18.67200 3.19600 28.67500
H  18.54600 1.46900 29.23300
H  24.90300 2.25200 25.12500
H  26.71300 -0.15300 25.65000
H  23.91900 0.86100 23.92000
H  23.26400 0.16200 25.34700
H  24.44500 -0.73800 24.58300
H  27.14700 1.85000 23.92100
H  28.46500 1.23600 24.85800
H  27.58500 3.97200 24.40900
H  28.80200 3.49500 25.47600
H  27.06100 3.54300 26.05700
H  30.92100 0.89300 28.18100
H  30.76200 -0.56300 29.40600
H  31.72900 0.80000 29.82700
H  28.99500 2.89200 34.01500
H  29.95800 -0.79000 36.88700
H  28.62700 0.30600 37.13600
H  30.22100 0.88300 37.54400
Mg 47.57400 25.53700 28.28400
C  48.49100 27.87100 30.74900
C  46.78000 23.33200 30.78600
C  46.98600 23.17600 25.91800
C  48.88700 27.80600 25.77600
N  47.75600 25.53600 30.47700
C  48.09000 26.60600 31.30600
C  47.71200 26.45500 32.75300
C  47.41000 24.91300 32.75200
C  47.24700 24.56400 31.26400
C  48.52000 24.05700 33.36800
C  46.38100 27.24400 33.08500
C  46.47600 28.14700 34.34400
H  45.56000 27.71700 35.45700
N  47.08700 23.48800 28.33300
C  46.72600 22.83600 29.51200
C  46.27300 21.49600 29.16100
C  46.24000 21.44300 27.72100
C  46.86000 22.72500 27.24700
C  45.87500 20.50200 30.22500
C  45.67800 20.30900 26.80400
O  45.73100 20.39100 25.61900
C  45.13000 19.04900 27.40300
N  48.06300 25.44400 26.13000
C  47.60500 24.35000 25.40400
C  47.94100 24.51400 23.91000
C  48.43000 26.03300 23.92000
C  48.48200 26.51800 25.36800
C  49.01600 23.57600 23.39200
C  47.47600 26.95900 23.05700
C  48.17600 27.80800 22.02800
N  48.40400 27.38400 28.19100
C  48.96800 28.13000 27.13300
C  49.56300 29.35000 27.65500
C  49.37600 29.25200 29.12700
C  48.64200 28.06100 29.36400
C  50.36200 30.44700 26.86000
C  49.66500 29.99500 30.34000
O  50.24000 31.06400 30.40300
C  49.06100 29.12500 31.49100
C  50.15000 28.78900 32.43600
O  51.13600 28.09500 32.18300
O  49.78200 29.31700 33.67900
C  50.64600 29.04700 34.79000
H  46.33300 22.75900 31.60100
H  46.80600 22.48100 25.09600
H  49.29300 28.55400 25.09300
H  48.60100 26.64100 33.35600
H  46.49200 24.60700 33.25500
H  48.05000 23.16000 33.77100
H  49.10100 24.58200 34.12500
H  49.30300 23.71100 32.69300
H  45.64200 26.45000 33.19000
H  46.06700 27.75900 32.17700
H  46.28200 29.15900 33.99000
H  47.48500 28.21000 34.75200
H  46.38200 19.58000 29.93900
H  44.84400 20.17300 30.09100
H  46.03200 20.75200 31.27400
H  44.39800 19.19700 28.19600
H  46.02800 18.58800 27.81300
H  44.71100 18.46900 26.58000
H  46.97200 24.25200 23.48400
H  49.44000 26.03800 23.51000
H  48.49200 22.85900 22.76100
H  49.36800 23.03200 24.26900
H  49.81700 24.13500 22.90700
H  46.97700 27.62000 23.76600
H  46.69400 26.40700 22.53500
H  49.25800 27.76100 22.15000
H  47.75800 28.81400 22.06400
H  47.92700 27.37800 21.05800
H  49.84900 30.85200 25.98800
H  51.39500 30.17500 26.64500
H  50.37500 31.20700 27.64200
H  48.29600 29.78200 31.90400
H  50.24300 28.14400 35.25000
H  50.54100 29.81700 35.55400
H  51.68400 28.78000 34.59400

