158

Mg -1.80500 17.18600 27.15400
C  -2.13800 14.99100 29.78800
C  -2.44200 19.77300 29.36000
C  -1.83500 19.33600 24.47400
C  -1.71400 14.56300 24.93800
N  -2.49300 17.28600 29.29600
C  -2.29300 16.27000 30.21100
C  -2.42200 16.76100 31.69500
C  -2.54200 18.31500 31.52700
C  -2.46900 18.49200 29.95000
C  -3.80400 18.97400 32.28200
C  -1.28900 16.30600 32.72400
C  -0.86800 17.10700 33.92100
H  -0.49900 16.30200 35.12700
N  -2.03500 19.30400 26.99200
C  -2.24900 20.17300 28.03200
C  -2.32500 21.46200 27.46200
C  -2.06900 21.43200 26.06900
C  -1.97300 19.94300 25.74800
C  -2.49300 22.63800 28.28300
C  -1.98900 22.51800 24.96500
O  -2.00600 22.15900 23.77600
C  -2.07900 23.95000 25.36400
N  -2.02900 16.96600 25.03600
C  -1.88600 18.00300 24.17700
C  -1.70300 17.52300 22.77100
C  -1.35100 16.00500 22.95600
C  -1.79900 15.80100 24.36700
C  -2.93800 17.81300 21.89100
C  0.13800 15.54000 22.57800
C  1.37500 16.23500 23.37700
N  -1.81400 15.16300 27.25000
C  -1.80700 14.18000 26.28000
C  -1.83900 12.85300 26.86800
C  -1.94100 13.13300 28.25400
C  -1.93600 14.51500 28.42400
C  -1.82900 11.61100 26.17200
C  -2.03700 12.52600 29.59200
O  -1.88200 11.35800 29.91800
C  -2.11500 13.67800 30.59100
C  -0.83500 13.58800 31.38300
O  0.28000 13.99600 31.05600
O  -1.12000 13.10900 32.64200
C  0.02500 13.20800 33.58600
H  -2.48600 20.60600 30.06400
H  -1.72300 19.88700 23.53800
H  -1.58400 13.83000 24.13900
H  -3.32800 16.19800 31.91700
H  -1.65800 18.76200 31.98100
H  -3.54000 19.89400 32.80300
H  -4.32200 18.24100 32.90100
H  -4.60300 19.27900 31.60500
H  -0.45200 16.02800 32.08300
H  -1.70600 15.36900 33.09500
H  -1.71700 17.69200 34.27300
H  0.07600 17.61200 33.71500
H  -2.74200 22.29900 29.28800
H  -3.38400 23.14700 27.91400
H  -1.70900 23.39400 28.28500
H  -3.03800 24.02100 25.87900
H  -2.02500 24.58000 24.47600
H  -1.34100 24.28900 26.09100
H  -0.80500 17.99200 22.36700
H  -1.97700 15.29200 22.42000
H  -3.54900 18.58200 22.36400
H  -3.40800 16.83300 21.80100
H  -2.61500 18.15000 20.90600
H  0.34200 15.78000 21.53500
H  0.22300 14.45300 22.55100
H  1.85000 17.00400 22.76800
H  2.15000 15.51000 23.62400
H  0.92600 16.57800 24.31000
H  -1.38300 11.76300 25.18900
H  -2.87700 11.44900 25.92000
H  -1.42200 10.77000 26.73400
H  -2.84000 13.76200 31.40100
H  0.65600 14.06400 33.34800
H  0.70600 12.38000 33.38600
H  -0.21600 13.23900 34.64900
Mg -10.55600 38.73900 41.40900
C  -9.33000 35.54400 40.61400
C  -7.76600 40.06300 39.96300
C  -12.26400 41.62800 40.85100
C  -13.64100 37.14100 42.31500
N  -8.87800 37.86800 40.24100
C  -8.58800 36.53700 40.08700
C  -7.27600 36.44900 39.30900
C  -6.61800 37.84600 39.48400
C  -7.81000 38.68400 39.91700
C  -5.45200 37.94900 40.62900
C  -7.68100 36.03900 37.85200
C  -7.12600 34.67300 37.36700
H  -6.56800 34.57200 35.94800
N  -10.00800 40.62100 40.66100
C  -8.77400 41.03500 40.20900
C  -8.79600 42.44600 39.88200
C  -10.11600 42.89900 40.09600
C  -10.91400 41.67600 40.58000
C  -7.56900 43.12400 39.43400
C  -10.67600 44.27400 39.82900
O  -9.89600 45.15300 39.51200
C  -12.09000 44.61700 39.75600
N  -12.70700 39.24500 41.54700
C  -13.06600 40.59000 41.36200
C  -14.54000 40.67500 41.75500
C  -14.91400 39.35400 42.37400
C  -13.69300 38.52700 42.04100
C  -15.06300 41.95300 42.59700
C  -16.29100 38.63300 42.09200
C  -17.10200 38.27500 43.41500
N  -11.35500 36.80700 41.57300
C  -12.50300 36.31200 42.07100
C  -12.41300 34.90300 42.25400
C  -11.28200 34.54300 41.69700
C  -10.57500 35.70900 41.27400
C  -13.43800 34.04600 42.75000
C  -10.42500 33.37300 41.30100
O  -10.56100 32.20400 41.53700
C  -9.17800 34.00800 40.52100
C  -7.95900 33.47700 41.09600
O  -7.05200 32.87300 40.52800
O  -7.97600 33.62200 42.43000
C  -6.86200 32.95800 43.25500
H  -6.77300 40.37800 39.63500
H  -12.85500 42.54700 40.84300
H  -14.57200 36.79600 42.76900
H  -6.68700 35.70400 39.84400
H  -6.18700 38.13200 38.52400
H  -5.77500 38.51100 41.50600
H  -4.52000 38.37600 40.25900
H  -5.28000 36.91500 40.92500
H  -7.27000 36.75400 37.13900
H  -8.76900 36.06900 37.79900
H  -7.86900 33.89400 37.53800
H  -6.28000 34.44100 38.01400
H  -6.87700 43.19700 40.27300
H  -7.66000 44.12900 39.02300
H  -7.08800 42.45400 38.72100
H  -12.78700 43.92300 39.28500
H  -12.18200 45.63900 39.38800
H  -12.50300 44.65500 40.76400
H  -15.18900 40.72200 40.88100
H  -14.78100 39.50600 43.44500
H  -15.45400 41.63200 43.56200
H  -15.82000 42.51100 42.04700
H  -14.28000 42.65500 42.88500
H  -16.03400 37.75500 41.50000
H  -16.86100 39.40300 41.57300
H  -16.62500 38.47300 44.37500
H  -17.31900 37.21300 43.30200
H  -18.06400 38.77300 43.29300
H  -12.97000 33.11900 43.08100
H  -14.12500 33.85500 41.92600
H  -13.92000 34.47700 43.62800
H  -9.20500 33.67900 39.48200
H  -7.30800 32.58800 44.17800
H  -6.05200 33.66900 43.41600
H  -6.40800 32.09600 42.76600

