158

Mg 46.70000 16.32600 28.46300
C  44.64700 15.51400 31.22500
C  48.47400 18.18500 30.40100
C  48.69100 16.63400 25.84000
C  44.45300 14.36100 26.47900
N  46.63700 16.74700 30.55300
C  45.69600 16.37500 31.53300
C  46.13100 16.94000 32.89800
C  47.18000 17.95900 32.50000
C  47.51000 17.56300 31.13600
C  46.72400 19.47600 32.41600
C  46.67100 15.77700 33.77600
C  46.58500 16.02000 35.27400
H  47.96300 16.01600 36.04000
N  48.40900 17.35100 28.20700
C  49.01600 18.10300 29.13200
C  50.26600 18.65600 28.63300
C  50.37900 18.18400 27.27900
C  49.18600 17.29800 27.07300
C  51.18300 19.58700 29.42800
C  51.47300 18.48400 26.25600
O  51.49600 17.91500 25.19100
C  52.62600 19.44000 26.59200
N  46.54800 15.50700 26.48400
C  47.57100 15.86100 25.62100
C  47.24800 15.44400 24.23100
C  45.86400 14.75300 24.40600
C  45.56800 14.86400 25.87600
C  47.26400 16.60400 23.24100
C  45.77500 13.34400 23.83300
C  46.39000 12.15500 24.70200
N  44.85600 15.20000 28.76900
C  44.11900 14.46300 27.84100
C  43.03200 13.87800 28.52300
C  43.22600 14.16800 29.86700
C  44.34200 14.98900 29.93700
C  41.85700 13.28300 27.81900
C  42.66600 14.09400 31.23200
O  41.65600 13.53900 31.64500
C  43.62400 14.85500 32.15500
C  42.86700 15.90300 32.96200
O  42.65100 17.07200 32.63200
O  42.38100 15.41100 34.18900
C  41.49600 16.27900 35.04400
H  49.10200 18.75500 31.08900
H  49.38200 16.72300 25.00000
H  43.78600 13.80500 25.81700
H  45.29100 17.40500 33.41500
H  48.08500 17.99100 33.10700
H  47.34000 20.10800 33.05600
H  45.75700 19.48200 32.91700
H  46.68400 19.95500 31.43700
H  47.67500 15.55800 33.41300
H  46.19000 14.81800 33.58400
H  45.95400 15.23100 35.68400
H  46.12300 17.00200 35.37100
H  52.18600 19.17400 29.53400
H  50.65700 19.77900 30.36300
H  51.28600 20.54900 28.92500
H  52.24400 20.36800 27.01500
H  53.11500 19.63600 25.63800
H  53.18500 18.98600 27.41000
H  48.04700 14.72000 24.07200
H  45.07900 15.30300 23.88700
H  46.65400 17.41700 23.63300
H  46.83400 16.30000 22.28700
H  48.30300 16.89800 23.08900
H  46.45300 13.34300 22.97900
H  44.75500 13.17600 23.48500
H  47.24800 11.70400 24.20200
H  45.67000 11.33900 24.76300
H  46.79800 12.41600 25.67900
H  42.29400 12.43000 27.30100
H  41.29100 13.97300 27.19200
H  41.23200 13.01200 28.67000
H  44.05000 14.11400 32.83200
H  42.23400 16.91000 35.53800
H  40.73900 15.85100 35.70100
H  40.94600 16.85000 34.29600
Mg 16.10000 52.16500 25.86800
C  17.95700 51.01100 28.73100
C  13.44900 52.85900 28.10000
C  14.41900 53.01500 23.15100
C  18.75700 50.85000 23.90600
N  15.75000 51.88500 28.18900
C  16.71800 51.57500 29.11400
C  16.30300 51.89400 30.48800
C  14.69800 52.07600 30.30600
C  14.62800 52.29300 28.83100
C  13.75700 50.87900 30.75400
C  16.93000 53.21200 30.96400
C  16.94700 53.24500 32.52700
H  16.18100 52.22000 33.36200
N  14.16600 52.84400 25.63800
C  13.26700 53.07900 26.67800
C  12.14700 53.71200 26.10000
C  12.39600 53.88700 24.67900
C  13.67400 53.27100 24.41200
C  10.98000 54.23800 26.94700
C  11.60900 54.63600 23.64600
O  11.92600 54.73100 22.46900
C  10.28500 55.26800 24.04400
N  16.55300 52.07500 23.85800
C  15.62700 52.46400 22.89800
C  16.27800 52.22600 21.44000
C  17.65300 51.67400 21.80700
C  17.69600 51.55100 23.27800
C  15.41600 51.33700 20.53100
C  18.81300 52.52500 21.27200
C  18.94500 52.39300 19.74100
N  17.99700 51.21600 26.18500
C  18.88900 50.65100 25.31300
C  20.05400 50.05500 26.01300
C  19.73700 50.24800 27.34100
C  18.43300 50.83000 27.42800
C  21.34200 49.45800 25.39200
C  20.10200 50.01000 28.68900
O  21.04900 49.32800 29.13000
C  19.00000 50.52700 29.66900
C  18.53700 49.48100 30.64200
O  17.52800 48.84500 30.59200
O  19.33300 49.41700 31.76000
C  19.04800 48.41900 32.90000
H  12.57600 53.08200 28.71800
H  14.00600 53.36500 22.20300
H  19.56200 50.33000 23.38200
H  16.32900 51.04000 31.16600
H  14.29200 52.94900 30.81700
H  12.89500 50.76900 30.09600
H  13.26800 51.24600 31.65700
H  14.37400 49.98100 30.78500
H  16.30800 54.03800 30.62100
H  17.97600 53.27300 30.66300
H  16.67400 54.25700 32.82600
H  17.98200 53.11100 32.84200
H  10.01700 54.17400 26.44000
H  11.19500 55.24100 27.31500
H  10.91400 53.72800 27.90700
H  10.04200 55.95000 23.22900
H  10.42500 55.87300 24.94000
H  9.47100 54.57600 24.26000
H  16.51400 53.17200 20.95300
H  17.63600 50.67400 21.37500
H  15.55800 51.71200 19.51800
H  14.38500 51.34600 20.88600
H  15.67100 50.28100 20.43900
H  19.61100 51.97600 21.77100
H  18.62000 53.52300 21.66500
H  18.08400 51.80900 19.41700
H  19.80700 51.84700 19.35700
H  19.06700 53.34300 19.21900
H  21.20200 48.37700 25.37700
H  22.13400 49.64400 26.11800
H  21.44800 49.87600 24.39100
H  19.49200 51.28400 30.28100
H  19.67300 47.54800 32.70400
H  18.07400 47.95200 33.04500
H  19.40800 48.86100 33.82900

