158

Mg 0.47600 7.38600 26.00200
C  0.99600 9.63200 28.67900
C  0.60200 4.79000 28.04800
C  0.22200 5.58700 23.28600
C  0.69500 10.26900 23.76300
N  0.72100 7.27100 28.18300
C  0.89800 8.27300 29.07100
C  1.00900 7.76300 30.53400
C  0.94900 6.12400 30.29700
C  0.71500 6.00700 28.73100
C  2.20600 5.32800 30.81600
C  -0.12200 8.34300 31.39100
C  0.26800 9.29100 32.50100
H  -0.20600 9.04300 33.92400
N  0.31900 5.49100 25.72500
C  0.35900 4.52000 26.73100
C  0.19600 3.21400 26.16500
C  0.10900 3.41500 24.74900
C  0.17800 4.89700 24.48200
C  0.32200 1.94300 26.96300
C  0.11200 2.44300 23.51900
O  0.13900 2.81600 22.33500
C  0.06000 1.00500 23.83100
N  0.49600 7.89900 23.76800
C  0.32000 6.93200 22.89200
C  0.20600 7.53700 21.44100
C  -0.04800 9.00400 21.69800
C  0.35000 9.13100 23.11500
C  1.48900 7.17900 20.65600
C  -1.51300 9.43100 21.59100
C  -1.81800 10.25300 20.31800
N  0.80600 9.57800 26.18800
C  0.95300 10.56200 25.18600
C  1.24200 11.86100 25.89100
C  1.22200 11.53500 27.26700
C  1.00600 10.14800 27.40500
C  1.24400 13.17800 25.19600
C  1.37000 12.08400 28.59600
O  1.56600 13.23400 28.95800
C  1.14000 10.79900 29.59200
C  2.31300 10.82800 30.45600
O  3.30400 10.16500 30.24100
O  2.19000 11.78300 31.47400
C  3.28900 11.87200 32.38400
H  0.58800 3.91200 28.69800
H  0.23000 5.01900 22.35300
H  0.68300 11.14600 23.11300
H  1.97500 8.03000 30.96400
H  0.14900 5.64600 30.86300
H  2.64200 4.81900 29.95700
H  1.77800 4.61700 31.52400
H  2.93600 5.95600 31.32600
H  -0.56900 7.52000 31.94900
H  -0.85900 8.78600 30.72200
H  -0.24800 10.20700 32.21300
H  1.33600 9.50900 32.49200
H  0.87400 2.04500 27.89700
H  0.87100 1.12500 26.49700
H  -0.64200 1.49000 27.19500
H  -0.84100 0.90100 24.43500
H  0.85500 0.62700 24.47400
H  -0.11400 0.27700 23.03800
H  -0.69700 7.04600 21.07800
H  0.66800 9.54100 21.07500
H  1.86400 8.03100 20.09000
H  1.34200 6.30000 20.02700
H  2.27900 6.94200 21.36900
H  -1.75500 9.98400 22.49900
H  -2.13400 8.55500 21.77800
H  -0.88800 10.26400 19.75000
H  -2.24200 11.21200 20.61500
H  -2.60200 9.75900 19.74400
H  1.21000 14.04100 25.86100
H  0.38300 13.12800 24.53100
H  2.12200 13.16400 24.55000
H  0.25300 11.04600 30.17500
H  3.40600 12.93700 32.58200
H  4.23200 11.46800 32.01500
H  2.96100 11.25100 33.21800
Mg 24.81100 -3.85800 45.89800
C  27.01000 -1.50500 44.31600
C  22.43700 -2.73000 43.80900
C  23.19100 -6.52800 46.69700
C  27.57900 -4.91400 47.79700
N  24.78100 -2.48400 44.01400
C  25.72900 -1.49200 43.70000
C  25.25300 -0.58200 42.63300
C  23.67600 -0.80600 42.81600
C  23.64700 -2.11100 43.58700
C  22.89700 0.26100 43.59000
C  25.81700 -1.03500 41.33700
C  25.99000 0.11000 40.31400
H  26.10000 -0.21400 38.79600
N  23.00700 -4.56400 45.28900
C  22.15700 -3.92500 44.46100
C  20.92300 -4.68300 44.41200
C  21.13200 -5.89400 45.19800
C  22.47000 -5.68900 45.79800
C  19.71700 -4.11800 43.70700
C  20.16700 -6.97200 45.33600
O  19.03800 -6.87400 44.88900
C  20.46700 -8.22500 46.08800
N  25.41400 -5.54700 47.01300
C  24.48300 -6.49400 47.23100
C  25.04700 -7.58600 48.18200
C  26.30500 -6.89000 48.75000
C  26.50800 -5.75000 47.76200
C  24.12500 -8.27500 49.18800
C  27.49000 -7.88900 48.78800
C  28.45700 -7.75700 49.96300
N  26.96000 -3.36200 46.05100
C  27.90200 -3.85800 46.87500
C  29.10200 -3.10900 46.61800
C  28.83700 -2.14500 45.64800
C  27.52900 -2.39400 45.31500
C  30.38300 -3.31600 47.37400
C  29.30700 -1.02800 44.92800
O  30.35200 -0.40500 44.93200
C  28.24300 -0.62100 43.99300
C  27.98900 0.79900 44.20200
O  27.58400 1.22800 45.27100
O  28.37500 1.39600 43.01300
C  28.15400 2.86500 43.00000
H  21.55000 -2.32200 43.31900
H  22.70400 -7.46700 46.97100
H  28.31500 -5.12500 48.57500
H  25.58400 0.42600 42.88300
H  23.20000 -0.94200 41.84500
H  23.57700 1.06400 43.87400
H  22.44400 -0.18900 44.47400
H  22.12600 0.64500 42.92200
H  25.15000 -1.74500 40.84700
H  26.81000 -1.47500 41.42800
H  26.80500 0.69600 40.73700
H  25.06300 0.64200 40.53000
H  19.97200 -4.13100 42.64800
H  19.53000 -3.04600 43.76000
H  18.77800 -4.61200 43.96100
H  21.38000 -8.70600 45.73700
H  19.77400 -9.02600 45.83200
H  20.58300 -8.09800 47.16400
H  25.45100 -8.31400 47.48000
H  26.08600 -6.43700 49.71600
H  24.43100 -8.07100 50.21400
H  24.19100 -9.35500 49.05100
H  23.12200 -7.96100 48.90000
H  27.99800 -7.77000 47.83100
H  27.06600 -8.89300 48.80700
H  28.10700 -8.39600 50.77400
H  28.29500 -6.77600 50.41000
H  29.50400 -7.91700 49.70400
H  31.02800 -4.09900 46.97600
H  30.14500 -3.51100 48.41900
H  30.90300 -2.36400 47.48200
H  28.58300 -0.93900 43.00700
H  27.12800 3.19900 42.84800
H  28.73600 3.30600 42.19100
H  28.51900 3.26700 43.94500

