158

Mg -2.12500 17.14300 27.06900
C  -2.79400 14.94100 29.61700
C  -2.85100 19.73500 29.25500
C  -2.31500 19.18300 24.46600
C  -2.36300 14.34400 24.79900
N  -2.76500 17.27100 29.23100
C  -2.75600 16.22600 30.08900
C  -3.02900 16.74800 31.56300
C  -3.40600 18.25400 31.25200
C  -2.96300 18.44600 29.80000
C  -4.83500 18.74100 31.60300
C  -1.83000 16.45700 32.49400
C  -1.52600 17.45600 33.56700
H  -1.02300 16.99700 34.93100
N  -2.24700 19.19900 26.93300
C  -2.55500 20.06900 27.95500
C  -2.43700 21.41100 27.43200
C  -2.23800 21.29100 25.98200
C  -2.25400 19.81900 25.71700
C  -2.61200 22.82400 28.25200
C  -2.06800 22.35700 24.91100
O  -1.90800 22.06300 23.73100
C  -2.00100 23.73100 25.30700
N  -2.39000 16.79200 24.91000
C  -2.27500 17.85700 24.08100
C  -2.24400 17.37000 22.61700
C  -1.96100 15.88100 22.74400
C  -2.30300 15.61400 24.21700
C  -3.57900 17.69100 21.86600
C  -0.51500 15.41200 22.42600
C  0.62400 16.01600 23.25900
N  -2.37200 15.01400 27.10000
C  -2.52900 14.04600 26.15000
C  -2.88200 12.81600 26.75700
C  -2.94400 13.08700 28.09700
C  -2.73000 14.47900 28.24800
C  -3.21000 11.49300 26.09300
C  -3.15600 12.51700 29.43100
O  -3.28900 11.33200 29.74900
C  -3.19100 13.76300 30.46200
C  -2.28000 13.33300 31.60400
O  -1.04000 13.19900 31.47400
O  -3.04700 13.02300 32.76700
C  -2.30900 12.43500 33.87600
H  -2.93200 20.56600 29.95900
H  -2.31800 19.91000 23.65000
H  -2.41900 13.58200 24.01900
H  -3.84800 16.17600 32.00100
H  -2.77500 18.95000 31.80600
H  -5.57500 17.98900 31.87700
H  -5.09900 19.30600 30.70900
H  -4.76700 19.53700 32.34600
H  -0.93800 16.38000 31.87200
H  -2.15400 15.50200 32.90600
H  -2.44100 17.97100 33.85800
H  -0.80200 18.18800 33.20700
H  -1.97800 23.62200 27.86600
H  -2.49800 22.63400 29.31900
H  -3.59000 23.16300 27.90900
H  -2.90700 24.02500 25.83600
H  -2.07100 24.21900 24.33400
H  -1.13500 24.01600 25.90400
H  -1.43500 17.87800 22.09100
H  -2.51800 15.23100 22.06900
H  -4.18600 18.35300 22.48300
H  -4.27300 16.85800 21.74700
H  -3.37400 18.23000 20.94100
H  -0.35400 15.66300 21.37700
H  -0.57300 14.32400 22.46400
H  0.22900 16.56200 24.11500
H  1.20000 16.74000 22.68300
H  1.30100 15.22300 23.57500
H  -3.21900 11.66300 25.01600
H  -4.23400 11.31000 26.41600
H  -2.46300 10.84400 26.55000
H  -4.23400 13.80400 30.77500
H  -2.20800 13.32500 34.49600
H  -1.39800 11.88900 33.63200
H  -2.94900 11.68000 34.33200
Mg 47.18400 16.71900 28.24600
C  45.27500 16.40600 31.27200
C  49.74000 18.09700 30.08600
C  48.74500 17.24600 25.33600
C  44.33000 15.50200 26.54100
N  47.36300 17.38000 30.46200
C  46.53900 17.00100 31.54400
C  47.12400 17.50000 32.89600
C  48.51400 18.11200 32.42600
C  48.56100 17.86700 30.87900
C  48.93400 19.64500 32.71000
C  47.23600 16.41200 33.97800
C  47.04600 16.72900 35.38100
H  46.92500 18.24300 35.60900
N  48.99700 17.52900 27.75500
C  49.96000 17.97700 28.65900
C  51.18900 18.31300 27.91100
C  50.82500 18.25700 26.53400
C  49.44900 17.57500 26.47300
C  52.44100 18.74200 28.63000
C  51.63400 18.66500 25.28000
O  51.25400 18.45000 24.12000
C  52.98600 19.21300 25.48500
N  46.71100 16.12300 26.22800
C  47.47200 16.71000 25.20900
C  46.71500 16.37800 23.91400
C  45.59700 15.40300 24.27900
C  45.48800 15.70500 25.71700
C  46.31300 17.66900 23.07800
C  45.95900 13.82200 24.16900
C  44.80300 12.97900 23.58500
N  45.20700 16.20500 28.75400
C  44.17700 15.75400 27.90300
C  42.93600 15.51900 28.66100
C  43.39100 15.65600 30.03400
C  44.70000 16.11200 30.01200
C  41.57400 15.14800 28.19400
C  42.95700 15.56100 31.44200
O  41.91900 15.18600 31.87900
C  44.12500 16.10300 32.26700
C  43.67900 17.33100 33.00200
O  43.54400 18.46400 32.54600
O  43.39100 16.92100 34.26500
C  42.73800 17.97100 35.02300
H  50.58500 18.45500 30.67800
H  49.25400 17.31800 24.37300
H  43.45600 15.17600 25.97200
H  46.49200 18.34200 33.18000
H  49.31500 17.46300 32.78000
H  48.12600 20.09100 33.28900
H  48.96400 20.26400 31.81300
H  49.90400 19.64600 33.20700
H  48.21100 15.93700 33.86500
H  46.55100 15.59600 33.74900
H  47.91300 16.39500 35.95100
H  46.12800 16.29700 35.78000
H  53.30700 18.34600 28.09900
H  52.53700 18.24200 29.59400
H  52.67900 19.77900 28.86200
H  53.37300 19.57000 24.53100
H  53.55900 18.40100 25.93300
H  52.95200 20.05700 26.17400
H  47.43500 15.93700 23.22400
H  44.67900 15.62400 23.73500
H  45.24200 17.84800 23.16800
H  46.70600 17.66100 22.06100
H  46.79000 18.48200 23.62500
H  46.19300 13.30400 25.10000
H  46.82200 13.67600 23.51900
H  43.90300 13.59100 23.52200
H  44.59000 12.07100 24.14900
H  45.14900 12.64100 22.60800
H  40.86900 15.71200 28.80500
H  41.50500 14.07300 28.36000
H  41.35600 15.46600 27.17400
H  44.29100 15.29300 32.97700
H  41.84700 18.41800 34.58300
H  43.39500 18.79000 35.31400
H  42.27600 17.64100 35.95300

