158

Mg 46.95100 34.75300 26.71600
C  45.20900 33.27700 29.47800
C  47.28300 37.57700 28.69900
C  48.07500 36.37000 24.05600
C  46.45800 31.90200 24.81200
N  46.42500 35.29900 29.05600
C  45.64200 34.58600 29.89500
C  45.29800 35.38700 31.13500
C  45.94600 36.84600 30.80400
C  46.52400 36.60300 29.40800
C  44.95700 38.10600 30.85900
C  45.91700 34.80100 32.43200
C  45.84400 35.71000 33.66200
H  47.07000 36.28800 34.20900
N  47.59300 36.69200 26.47800
C  47.77700 37.65500 27.41800
C  48.51900 38.77200 26.82100
C  48.80300 38.32700 25.51200
C  48.11400 37.11900 25.25800
C  48.82500 39.99100 27.62800
C  49.79300 39.02800 24.53600
O  49.99100 38.57700 23.34900
C  50.53900 40.16900 25.04100
N  47.16900 34.23200 24.69400
C  47.66400 35.09000 23.78100
C  47.70200 34.35800 22.34200
C  47.51200 32.79300 22.67100
C  47.03200 32.93200 24.17900
C  46.60800 35.00300 21.43800
C  48.67700 31.82400 22.49100
C  49.86600 31.84400 23.45100
N  46.08300 32.96900 26.97100
C  46.02800 31.87400 26.18200
C  45.32300 30.75700 26.90400
C  44.91700 31.31100 28.09000
C  45.46700 32.62000 28.16900
C  44.86400 29.46100 26.27700
C  44.23200 31.03400 29.30900
O  43.58500 29.99600 29.66700
C  44.32700 32.31600 30.21600
C  44.75700 31.90900 31.51700
O  45.91800 31.73200 31.82500
O  43.69900 31.73100 32.32600
C  44.02900 31.12200 33.64400
H  47.46600 38.41800 29.37100
H  48.49500 36.92400 23.21400
H  46.45700 30.85500 24.49900
H  44.22000 35.35000 31.29100
H  46.69900 37.07700 31.55700
H  45.44700 38.88200 31.44700
H  44.02800 37.80100 31.34100
H  44.64500 38.40900 29.85900
H  46.91700 34.42300 32.21900
H  45.28800 33.97600 32.76700
H  45.53000 35.09600 34.50600
H  45.10700 36.49200 33.47600
H  48.39500 40.86200 27.13400
H  49.90300 40.12800 27.70100
H  48.34100 39.97700 28.60500
H  49.84500 40.84900 25.53500
H  51.15500 40.60300 24.25400
H  51.19400 39.60400 25.70400
H  48.67100 34.50200 21.86400
H  46.78500 32.30000 22.02600
H  46.08000 35.83400 21.90700
H  45.85500 34.27000 21.15000
H  47.12200 35.27900 20.51800
H  49.16900 32.12500 21.56600
H  48.30000 30.82700 22.26600
H  50.81600 31.52400 23.02300
H  49.55200 31.24500 24.30700
H  49.97900 32.87500 23.78700
H  43.84800 29.34100 26.65400
H  45.49800 28.66600 26.66900
H  44.77300 29.55400 25.19500
H  43.31400 32.71800 30.22900
H  43.20600 30.62900 34.16200
H  44.18300 31.99900 34.27300
H  44.88500 30.44900 33.70400
Mg 7.25200 53.96000 40.88400
C  7.16200 50.46400 40.52200
C  10.52200 54.00800 39.92800
C  7.00500 57.39800 40.51600
C  3.82600 53.97200 41.68000
N  8.66900 52.40700 40.22400
C  8.44200 51.08800 40.16800
C  9.71500 50.35500 39.85100
C  10.80800 51.42100 39.87000
C  10.01200 52.70500 40.07000
C  11.92000 51.29900 40.98600
C  9.62600 49.52200 38.57200
C  9.31900 50.26800 37.24800
H  8.13800 49.83400 36.39300
N  8.60700 55.48800 40.39400
C  9.94600 55.30600 39.99300
C  10.52800 56.53900 39.63600
C  9.48900 57.54300 39.65500
C  8.30200 56.80700 40.19800
C  11.97500 56.61300 39.17400
C  9.58900 59.03100 39.18700
O  10.53600 59.45600 38.67700
C  8.46100 59.96600 39.26500
N  5.46900 55.47300 40.75900
C  5.72600 56.83200 40.80500
C  4.53500 57.63500 41.27900
C  3.47000 56.46700 41.44900
C  4.32200 55.18300 41.34500
C  4.64300 58.68600 42.38400
C  2.27900 56.47500 40.44800
C  1.60500 57.83400 40.12400
N  5.78800 52.57700 41.17000
C  4.47500 52.74500 41.53200
C  3.84400 51.43300 41.67800
C  4.85700 50.50700 41.32200
C  6.04300 51.23000 40.95100
C  2.44100 51.16400 42.00700
C  5.13900 49.10200 41.14900
O  4.51700 48.07800 41.39000
C  6.56800 49.07800 40.44000
C  6.24800 48.51800 39.11300
O  5.76800 49.15500 38.21800
O  6.59900 47.14500 39.14700
C  5.97600 46.32300 38.17800
H  11.56500 53.84300 39.65000
H  7.00200 58.48900 40.57400
H  2.88600 53.98800 42.23400
H  9.86000 49.72100 40.72600
H  11.28900 51.29000 38.90100
H  11.57300 52.02800 41.71800
H  12.89100 51.47300 40.52100
H  11.95700 50.29200 41.40100
H  9.03700 48.61900 38.73100
H  10.62900 49.09900 38.52300
H  10.20900 50.19200 36.62300
H  9.24100 51.32300 37.50800
H  11.99900 56.53400 38.08700
H  12.51900 55.79700 39.65000
H  12.49400 57.54800 39.38300
H  7.51600 59.57500 38.88900
H  8.61100 60.91600 38.75100
H  8.36500 60.13700 40.33700
H  4.23900 58.17100 40.37700
H  3.06500 56.54800 42.45800
H  5.71100 58.74100 42.59200
H  4.10200 58.59400 43.32600
H  4.26600 59.63200 41.99600
H  1.41400 56.04400 40.95400
H  2.48200 55.91800 39.53300
H  2.04100 58.69200 40.63500
H  0.56700 57.71600 40.43600
H  1.56700 58.02700 39.05200
H  2.50600 50.63700 42.95900
H  1.96600 50.51500 41.27100
H  1.81400 52.03400 42.20300
H  7.10100 48.37100 41.07600
H  6.66100 46.22600 37.33600
H  5.06200 46.79200 37.81400
H  5.88300 45.38000 38.71700

