158

Mg 42.44900 41.97100 25.78800
C  41.91600 44.44100 28.45800
C  43.60500 39.98200 28.35900
C  43.30700 39.93600 23.44600
C  41.86400 44.60200 23.53300
N  42.73000 42.25600 28.14800
C  42.34600 43.24800 29.06200
C  42.25000 42.70000 30.52500
C  43.08100 41.38200 30.36500
C  43.19600 41.20000 28.84400
C  44.55000 41.40500 31.00600
C  40.81000 42.59200 31.04400
C  40.57600 41.89800 32.41700
H  39.87500 42.79000 33.48900
N  43.21700 40.15200 25.89600
C  43.59400 39.41400 27.05100
C  44.01000 38.11800 26.60500
C  43.86700 38.04300 25.21300
C  43.50300 39.39500 24.80300
C  44.52400 37.06000 27.59300
C  44.08900 36.80700 24.30200
O  44.10400 36.82900 23.11200
C  44.41000 35.50800 25.01100
N  42.66900 42.26700 23.79400
C  43.04700 41.23700 22.98000
C  43.10800 41.75900 21.51500
C  42.69400 43.27500 21.54300
C  42.29900 43.35200 23.03400
C  44.49100 41.37200 20.90900
C  41.57000 43.74300 20.51000
C  40.18100 43.12700 20.66000
N  41.97800 44.07700 25.93500
C  41.80000 44.99700 24.93000
C  41.32900 46.23500 25.50700
C  41.33700 46.02200 26.87000
C  41.89400 44.77000 27.07800
C  40.93100 47.52200 24.71100
C  41.15500 46.71100 28.08200
O  40.83800 47.89200 28.27500
C  41.44600 45.68100 29.19600
C  42.47800 46.19300 30.15400
O  43.54200 46.71800 29.87800
O  41.91100 46.14900 31.44000
C  42.84600 46.39800 32.55700
H  43.91600 39.31500 29.16600
H  43.52700 39.17900 22.69100
H  41.65700 45.36600 22.78100
H  42.72600 43.47600 31.12400
H  42.60100 40.45800 30.68700
H  44.98400 42.40400 31.01400
H  45.24400 40.78100 30.44100
H  44.56700 41.04300 32.03400
H  40.14400 42.03000 30.38900
H  40.41400 43.60600 31.10700
H  41.51800 41.49300 32.78700
H  39.89800 41.04500 32.42800
H  43.93200 36.17700 27.35200
H  44.39100 37.40000 28.61900
H  45.56500 36.78700 27.41600
H  44.65000 34.81400 24.20600
H  43.52900 35.13100 25.53100
H  45.30000 35.61400 25.63200
H  42.24800 41.28400 21.04300
H  43.59200 43.87900 21.41300
H  44.92000 42.29600 20.52300
H  44.36400 40.66200 20.09200
H  45.16600 40.91100 21.63000
H  41.95700 43.51300 19.51700
H  41.48500 44.82100 20.64700
H  39.84500 42.49000 19.84200
H  39.47100 43.91000 20.92500
H  40.05900 42.59200 21.60200
H  41.04700 47.43000 23.63100
H  41.56500 48.32600 25.08400
H  39.88600 47.78500 24.87600
H  40.45500 45.61000 29.64400
H  42.71700 47.46600 32.73400
H  43.87900 46.19800 32.27400
H  42.52700 45.71200 33.34100
Mg 16.99200 52.31000 26.43500
C  18.86500 51.02900 29.10900
C  14.72300 53.47000 28.76800
C  15.34700 53.58400 23.86300
C  19.19300 50.69200 24.21400
N  16.70700 52.05500 28.67100
C  17.74700 51.69500 29.53900
C  17.30500 51.94400 31.00800
C  15.79100 52.34700 30.80600
C  15.70600 52.67900 29.32500
C  14.69800 51.32400 31.36700
C  18.17800 53.05900 31.66000
C  18.47300 53.00200 33.11500
H  17.51300 52.08900 33.87000
N  15.21800 53.32100 26.32900
C  14.41200 53.76100 27.38300
C  13.38900 54.63600 26.80400
C  13.53600 54.65900 25.44400
C  14.77600 53.87300 25.15500
C  12.36600 55.36500 27.63300
C  12.67300 55.31000 24.32100
O  12.95900 55.37900 23.09200
C  11.29900 55.87300 24.82600
N  17.12800 52.09100 24.37000
C  16.41800 52.82100 23.51200
C  16.77800 52.60100 22.08200
C  18.21500 51.94200 22.23800
C  18.18900 51.51600 23.72300
C  15.71000 51.69700 21.25000
C  19.41100 52.89300 21.86100
C  19.85100 52.85200 20.39700
N  18.74200 51.14500 26.55700
C  19.49400 50.45400 25.62300
C  20.62900 49.71700 26.26000
C  20.43300 49.96000 27.65900
C  19.24100 50.79100 27.75400
C  21.72300 49.00500 25.48100
C  21.00400 49.86400 28.96600
O  22.13800 49.49200 29.29100
C  19.98300 50.55500 30.02700
C  19.51700 49.45200 30.87100
O  18.58200 48.68700 30.58900
O  20.28600 49.33700 32.02900
C  20.00200 48.27400 32.91700
H  14.06400 53.98100 29.47400
H  14.92600 54.06900 22.97900
H  19.98800 50.18300 23.66600
H  17.32800 50.97200 31.50100
H  15.63000 53.24900 31.39800
H  14.10000 51.67100 32.21000
H  15.19500 50.40600 31.68000
H  14.03100 50.84300 30.65100
H  17.74200 54.04300 31.49200
H  19.13000 53.10300 31.13200
H  18.36900 54.00400 33.52900
H  19.48900 52.62300 33.22100
H  11.33700 55.13700 27.35300
H  12.56700 56.40400 27.37300
H  12.43400 55.12500 28.69400
H  10.84400 56.33200 23.94900
H  11.42900 56.71500 25.50700
H  10.63000 55.04100 25.04400
H  16.76900 53.54900 21.54400
H  18.18000 51.09800 21.54900
H  15.72100 51.71000 20.16000
H  14.66600 51.83200 21.53400
H  16.00400 50.67400 21.48500
H  20.26300 52.64600 22.49400
H  19.06900 53.88000 22.17300
H  20.89400 52.58200 20.55900
H  19.97700 53.83500 19.94200
H  19.36400 52.08100 19.79900
H  22.17800 49.79900 24.88900
H  21.29500 48.15000 24.95700
H  22.47800 48.72500 26.21600
H  20.35600 51.39900 30.60700
H  19.71800 47.32600 32.46000
H  19.14200 48.53400 33.53500
H  20.88300 48.14700 33.54600

