158

Mg 52.69900 23.93000 44.79900
C  49.81800 25.69600 44.07800
C  51.35300 21.18800 43.36700
C  55.80000 22.69700 44.70400
C  54.16800 27.02700 46.04600
N  50.74400 23.48900 43.94400
C  49.73500 24.37900 43.67800
C  48.67600 23.65800 42.74700
C  49.08600 22.14500 42.99600
C  50.45100 22.25700 43.51800
C  48.19900 21.36000 43.99800
C  48.97500 24.02100 41.30300
C  47.90300 24.57200 40.39700
H  47.98800 24.04100 38.96900
N  53.42900 22.18600 44.19700
C  52.76500 21.15200 43.68100
C  53.61900 20.02900 43.48200
C  54.86300 20.35700 44.03400
C  54.76900 21.83200 44.37400
C  53.18700 18.71500 42.98100
C  56.03600 19.46700 44.02900
O  56.12500 18.33000 43.41700
C  57.22100 19.83100 44.92600
N  54.75200 24.89800 45.12800
C  55.79900 24.05400 45.11000
C  57.08400 24.76600 45.68800
C  56.50800 26.20900 46.07900
C  55.07800 26.10800 45.65100
C  57.81800 23.93500 46.80900
C  57.29200 27.38500 45.44900
C  57.67900 28.59000 46.34300
N  52.10300 25.98500 45.09800
C  52.81700 27.11000 45.63500
C  51.85700 28.23000 45.73800
C  50.64900 27.67500 45.17100
C  50.88400 26.39100 44.74200
C  52.03600 29.54200 46.40100
C  49.24200 28.03100 44.87600
O  48.50500 29.00500 45.19900
C  48.65600 26.77800 44.16800
C  48.27400 27.37500 42.85600
O  48.99400 27.42200 41.86100
O  46.96700 27.53600 42.75000
C  46.43300 28.13100 41.54800
H  51.02600 20.31900 42.79300
H  56.82700 22.33400 44.63300
H  54.42900 27.91000 46.63300
H  47.65400 23.87400 43.05800
H  49.31000 21.51800 42.13300
H  47.24400 21.85400 44.17200
H  48.68900 21.27700 44.96900
H  48.08800 20.34900 43.60600
H  49.36400 23.13800 40.79600
H  49.78500 24.74200 41.19900
H  48.08600 25.64100 40.29300
H  46.93000 24.32400 40.82200
H  53.67600 18.68200 42.00700
H  52.13300 18.47200 42.85000
H  53.59000 17.93300 43.62400
H  57.96200 20.48700 44.46800
H  57.56800 18.84800 45.24300
H  56.89900 20.36300 45.82100
H  57.85800 24.88200 44.92900
H  56.41000 26.25900 47.16400
H  58.18100 24.60400 47.59000
H  58.71900 23.51000 46.36800
H  57.17100 23.25600 47.36400
H  56.54700 27.84300 44.79800
H  58.07700 27.00600 44.79500
H  58.74400 28.72300 46.53200
H  57.24500 28.56500 47.34300
H  57.24800 29.43500 45.80700
H  52.56600 29.40400 47.34300
H  51.04200 29.97400 46.52300
H  52.56800 30.29200 45.81500
H  47.82300 26.35500 44.73100
H  45.46500 28.55600 41.81300
H  46.34900 27.38200 40.76100
H  47.07100 28.95300 41.22400
Mg -0.45600 44.03000 26.59100
C  1.83400 43.69500 29.17600
C  -2.98200 43.10900 28.87400
C  -2.68700 44.22700 24.07700
C  2.29400 44.51700 24.38800
N  -0.53500 43.39500 28.70000
C  0.47200 43.63500 29.61700
C  0.05900 43.47600 31.04400
C  -1.46200 43.08200 30.90900
C  -1.69700 43.27300 29.41100
C  -1.87100 41.74600 31.49300
C  0.33600 44.77300 31.90000
C  0.45100 44.57700 33.43600
H  -0.12800 43.33100 34.08200
N  -2.60200 43.70200 26.50400
C  -3.40900 43.29600 27.54500
C  -4.77200 43.13400 27.01200
C  -4.71300 43.57800 25.63200
C  -3.28000 43.88400 25.35900
C  -5.88900 42.69200 27.88100
C  -5.83300 43.57700 24.62600
O  -5.78900 43.98400 23.48900
C  -7.12000 42.85000 24.91900
N  -0.21100 44.32700 24.56600
C  -1.31600 44.41800 23.74100
C  -0.93400 44.77500 22.30100
C  0.64300 45.07200 22.51400
C  0.97900 44.65100 23.89400
C  -1.35400 43.74800 21.19700
C  1.03100 46.57200 22.39500
C  1.12600 47.22100 20.96000
N  1.64400 43.98800 26.71400
C  2.59900 44.19800 25.73400
C  3.90200 44.09300 26.36500
C  3.66100 43.87300 27.72300
C  2.28100 43.82100 27.86700
C  5.17900 44.44400 25.74500
C  4.27000 43.77100 29.00300
O  5.43500 43.85000 29.35500
C  3.14800 43.61300 29.99700
C  3.30600 42.30100 30.54400
O  3.27700 41.22700 29.95900
O  3.40900 42.40900 31.95700
C  3.41200 41.07400 32.54600
H  -3.71500 42.88300 29.65100
H  -3.35600 44.37300 23.22600
H  3.13400 44.68100 23.70900
H  0.46500 42.52500 31.39000
H  -1.98100 43.89500 31.41700
H  -2.37800 41.10500 30.77200
H  -2.54000 42.00300 32.31500
H  -1.01700 41.16400 31.84000
H  -0.49800 45.43300 31.66200
H  1.32300 45.08400 31.55900
H  0.06200 45.44100 33.97400
H  1.47600 44.58600 33.80800
H  -5.53800 42.25800 28.81700
H  -6.57600 41.98400 27.41700
H  -6.48400 43.57300 28.12200
H  -7.60200 43.43900 25.70000
H  -6.82700 41.87400 25.30600
H  -7.70700 42.76100 24.00500
H  -1.45000 45.70400 22.05800
H  1.23600 44.52000 21.78400
H  -0.46000 43.31900 20.74500
H  -2.03600 44.24400 20.50600
H  -1.88300 42.90100 21.63300
H  2.03400 46.76300 22.77700
H  0.31000 47.15800 22.96500
H  0.85400 46.49100 20.19700
H  2.17000 47.49000 20.79600
H  0.48400 48.10000 21.01400
H  5.50100 45.37700 26.20800
H  5.13400 44.61300 24.67000
H  5.86800 43.61800 25.92900
H  3.18800 44.32800 30.81900
H  4.41300 40.80300 32.21000
H  2.62400 40.43200 32.15300
H  3.22700 41.24500 33.60700

