158

Mg 2.01400 -1.35300 45.51000
C  5.37000 -0.34700 44.65100
C  0.87000 1.42400 43.67600
C  -0.93900 -2.78200 45.31300
C  3.42700 -4.36600 46.71100
N  2.98000 0.36000 44.28300
C  4.36800 0.59100 44.22700
C  4.66600 1.92200 43.52900
C  3.26100 2.50800 43.42000
C  2.31800 1.38500 43.83800
C  3.07400 3.76800 44.36300
C  5.34300 1.77900 42.06200
C  6.77700 2.18400 41.68800
H  7.06000 2.65800 40.21900
N  0.22800 -0.75000 44.54500
C  -0.09400 0.48200 43.95700
C  -1.51900 0.61700 43.81500
C  -2.11700 -0.56000 44.36500
C  -0.96900 -1.49100 44.74300
C  -2.19700 1.79000 43.21700
C  -3.64600 -0.96400 44.49200
O  -4.50300 -0.19600 44.13500
C  -4.18700 -2.24400 44.90900
N  1.40900 -3.37000 45.67600
C  0.12000 -3.58000 45.82100
C  -0.18900 -4.87800 46.61700
C  1.19800 -5.47200 46.87500
C  2.08000 -4.38900 46.31700
C  -1.05100 -4.65700 47.87300
C  1.48500 -6.83600 46.09200
C  0.52400 -8.07500 46.42500
N  3.90900 -2.22200 45.72500
C  4.30500 -3.42000 46.28900
C  5.80200 -3.39600 46.37600
C  6.21900 -2.20200 45.76700
C  5.05800 -1.54200 45.33000
C  6.84500 -4.46700 46.92600
C  7.42900 -1.48300 45.29400
O  8.67700 -1.63100 45.42000
C  6.89600 -0.20400 44.69200
C  7.33700 1.00300 45.51300
O  7.07700 1.25100 46.68700
O  8.17100 1.82700 44.72200
C  8.61000 3.11200 45.35000
H  0.60800 2.43100 43.34300
H  -1.84200 -3.38500 45.42600
H  3.91200 -5.13800 47.31200
H  5.40200 2.40900 44.16700
H  3.00200 2.85400 42.41900
H  2.72400 4.58800 43.73600
H  3.98600 4.08500 44.86900
H  2.25900 3.67600 45.08100
H  4.74900 2.23700 41.27100
H  5.39500 0.72300 41.79800
H  7.40100 1.30900 41.87200
H  7.02200 3.01900 42.34400
H  -3.18300 1.63300 42.78200
H  -1.59000 2.23900 42.43100
H  -2.31100 2.57800 43.96100
H  -4.08500 -2.56200 45.94700
H  -3.73400 -2.93000 44.19400
H  -5.24000 -2.16600 44.63600
H  -0.63100 -5.61100 45.94200
H  1.44600 -5.61300 47.92700
H  -0.56800 -4.76200 48.84400
H  -1.93900 -5.29000 47.87100
H  -1.41300 -3.63200 47.94900
H  2.51500 -7.11400 46.31400
H  1.54500 -6.57400 45.03600
H  0.33500 -8.45600 45.42100
H  -0.40800 -7.71800 46.86400
H  1.05000 -8.87800 46.94200
H  7.81300 -3.97200 47.00600
H  6.85400 -5.27100 46.19100
H  6.39000 -4.90900 47.81200
H  7.28900 -0.13000 43.67800
H  8.45800 3.89300 44.60500
H  9.69600 3.05300 45.41600
H  8.15500 3.40000 46.29800
Mg 28.51100 58.80900 42.54400
C  25.87200 56.89200 41.03400
C  30.73500 56.99500 40.83600
C  30.72700 61.06900 43.39800
C  25.89000 60.99600 43.63300
N  28.23100 57.11500 41.12800
C  27.17000 56.50700 40.61000
C  27.52100 55.39500 39.59000
C  29.09800 55.35100 39.74100
C  29.39300 56.59800 40.64800
C  29.63300 54.07200 40.38100
C  26.99500 55.64200 38.14300
C  26.47400 54.48400 37.35900
H  27.08600 54.29500 35.98900
N  30.49300 58.98400 42.17100
C  31.29100 58.13600 41.45700
C  32.63900 58.55200 41.47100
C  32.65500 59.71800 42.23400
C  31.24600 59.96400 42.69300
C  33.77200 57.83300 40.77200
C  33.84700 60.53000 42.61800
O  34.94200 60.12500 42.30400
C  33.81300 61.70000 43.49200
N  28.31500 60.68500 43.57400
C  29.40200 61.36100 43.92200
C  29.04000 62.69800 44.57800
C  27.54800 62.66200 44.49600
C  27.17800 61.29600 43.90600
C  29.57600 62.75700 46.04400
C  26.99200 63.94500 43.78400
C  25.80100 64.61900 44.48000
N  26.31100 58.87100 42.58800
C  25.39200 59.78800 43.09300
C  24.05600 59.40900 42.94900
C  24.20200 58.30300 42.11300
C  25.56500 57.96400 41.91900
C  22.84400 60.10000 43.34800
C  23.36500 57.34800 41.46700
O  22.12300 57.18600 41.55800
C  24.48800 56.38200 40.70900
C  24.23600 54.96500 41.19600
O  24.07200 54.52100 42.32000
O  24.35200 54.15700 40.04100
C  24.47900 52.67900 40.22100
H  31.47100 56.29200 40.43900
H  31.48300 61.79200 43.71100
H  25.11100 61.69000 43.95300
H  26.94900 54.52100 39.90400
H  29.51000 55.32800 38.73200
H  30.40400 53.67500 39.72000
H  28.90800 53.28300 40.57900
H  30.18400 54.22000 41.30900
H  27.85800 56.09000 37.65100
H  26.17800 56.35600 38.24300
H  25.38500 54.50300 37.30100
H  26.68200 53.51600 37.81500
H  33.30900 56.96000 40.31000
H  34.69400 57.67400 41.33000
H  34.13900 58.44100 39.94500
H  33.41400 62.59900 43.02300
H  34.86900 61.89100 43.68500
H  33.35000 61.51600 44.46200
H  29.62300 63.49500 44.11800
H  27.03400 62.69400 45.45700
H  29.53500 63.77000 46.44400
H  30.62300 62.46700 45.96200
H  29.07800 62.10000 46.75800
H  26.58400 63.55500 42.85100
H  27.78300 64.64600 43.51700
H  25.70900 65.70300 44.41800
H  25.76300 64.32000 45.52800
H  24.89400 64.13700 44.11300
H  22.97100 60.73600 44.22300
H  21.99200 59.43200 43.47200
H  22.58000 60.69800 42.47600
H  24.18900 56.54100 39.67300
H  23.44900 52.32100 40.22000
H  24.94400 52.45200 41.18000
H  24.86500 52.18800 39.32700

