158

Mg 35.29100 3.47800 29.61400
C  32.76500 4.02600 32.15200
C  37.63300 3.63400 31.96500
C  37.48100 2.40400 27.26800
C  32.86900 3.80900 27.11900
N  35.17700 4.04700 31.75700
C  34.12500 4.05000 32.61900
C  34.58100 3.99700 34.06700
C  36.14000 4.26700 33.92800
C  36.32800 3.91400 32.46800
C  36.61900 5.67900 34.33200
C  34.35800 2.56600 34.68300
C  34.33000 2.50900 36.17700
H  35.15100 3.56400 36.85900
N  37.30300 3.08000 29.59600
C  38.06400 3.17100 30.70100
C  39.42600 2.86200 30.32700
C  39.47100 2.40600 28.94000
C  38.05300 2.53400 28.54400
C  40.41400 2.75400 31.48300
C  40.59300 1.67800 28.11400
O  40.44800 1.12400 26.98700
C  42.04000 1.61200 28.70400
N  35.18300 3.30000 27.52100
C  36.20200 2.79500 26.76200
C  35.81400 2.58100 25.28500
C  34.27500 3.06200 25.23300
C  34.10600 3.38800 26.65900
C  36.72700 3.42700 24.29800
C  33.36400 1.91600 24.68700
C  32.35700 2.45800 23.66100
N  33.16300 3.88600 29.55700
C  32.33300 3.92500 28.51900
C  30.99100 4.18400 28.90700
C  31.10600 4.23900 30.36000
C  32.45100 4.03300 30.73900
C  29.75600 4.28500 28.04400
C  30.34500 4.22900 31.58500
O  29.12600 4.17100 31.68900
C  31.40100 4.16800 32.80200
C  31.42000 5.47800 33.62300
O  31.72300 6.58000 33.22300
O  31.02000 5.18500 34.91100
C  31.20600 6.15600 36.03000
H  38.33700 3.86100 32.76700
H  38.18300 2.05900 26.50600
H  32.17200 3.72900 26.28200
H  33.97100 4.66500 34.67500
H  36.67400 3.51000 34.50300
H  36.60700 5.73900 35.42000
H  35.84000 6.32400 33.92600
H  37.57600 5.87100 33.84600
H  35.18200 1.93900 34.34000
H  33.40200 2.25100 34.26400
H  34.74300 1.54400 36.47200
H  33.30000 2.56000 36.52900
H  40.35500 3.56200 32.21300
H  41.46600 2.79900 31.20200
H  40.10900 1.81900 31.95200
H  42.38100 2.63500 28.86500
H  42.67300 1.10500 27.97600
H  42.06900 1.15000 29.69100
H  35.82900 1.51200 25.07300
H  34.17900 4.05100 24.78400
H  37.48700 2.84700 23.77400
H  37.32200 4.16900 24.83200
H  36.24100 4.06400 23.55900
H  32.79300 1.54300 25.53800
H  33.89800 1.10000 24.20100
H  32.55600 3.46200 23.28800
H  31.33300 2.41000 24.03400
H  32.34600 1.73900 22.84200
H  28.89200 4.02600 28.65600
H  29.75400 3.38600 27.42800
H  29.64700 5.15900 27.40200
H  31.26000 3.30000 33.44700
H  30.25300 6.62900 36.26600
H  31.88500 7.00300 35.93000
H  31.55800 5.64000 36.92300
Mg 1.80800 41.43800 26.80200
C  3.36600 42.25200 29.92200
C  -0.79000 40.14800 28.54900
C  0.48400 40.62300 23.87100
C  4.83700 42.22400 25.28500
N  1.34700 41.25400 29.03300
C  2.07300 41.71700 30.10300
C  1.21400 41.71300 31.37200
C  -0.07600 40.84200 30.91300
C  0.14500 40.77300 29.41100
C  -0.14500 39.44400 31.63600
C  0.95600 43.15600 31.93700
C  1.31700 43.41400 33.38100
H  1.18800 42.35300 34.45200
N  0.05800 40.57300 26.21700
C  -0.85300 40.05800 27.08900
C  -1.98300 39.52500 26.22600
C  -1.53500 39.54500 24.88800
C  -0.27500 40.28500 24.97300
C  -3.18600 38.76200 26.81900
C  -2.20600 38.95100 23.64500
O  -1.63300 39.05200 22.57800
C  -3.56100 38.15200 23.76200
N  2.63000 41.32800 24.96100
C  1.84700 40.99200 23.88100
C  2.60800 41.24500 22.51100
C  3.99000 41.74800 22.95100
C  3.85900 41.68600 24.50200
C  2.63100 39.99700 21.61800
C  4.36700 43.19600 22.34900
C  3.75300 44.35200 23.05000
N  3.71000 42.12200 27.41000
C  4.81100 42.46800 26.66400
C  5.91300 42.85700 27.56300
C  5.30500 42.76800 28.82600
C  4.02000 42.35900 28.73100
C  7.33000 43.18200 27.32500
C  5.65400 42.80000 30.20500
O  6.73600 42.99500 30.66700
C  4.37600 42.57300 31.02600
C  4.75100 41.39400 31.82100
O  4.89100 40.25900 31.37200
O  4.71400 41.75800 33.11600
C  4.86700 40.69500 34.10300
H  -1.68500 39.79700 29.06800
H  0.04300 40.54200 22.87600
H  5.78200 42.53400 24.83300
H  1.69800 41.19200 32.19900
H  -1.03400 41.29200 31.17200
H  0.56100 39.35300 32.46200
H  -0.18000 38.62600 30.91700
H  -1.13400 39.19000 32.01500
H  -0.12600 43.28900 31.94500
H  1.39100 43.89500 31.26500
H  0.66200 44.24600 33.63900
H  2.37100 43.67900 33.46800
H  -3.34400 38.86300 27.89300
H  -3.13000 37.67400 26.83000
H  -4.15600 39.16500 26.52700
H  -3.57100 37.36100 24.51200
H  -3.70700 37.77600 22.74900
H  -4.43500 38.78600 23.90900
H  2.12100 42.04700 21.95600
H  4.82900 41.12500 22.64100
H  2.24100 39.17900 22.22300
H  3.67300 39.80900 21.35700
H  2.09400 40.17600 20.68600
H  3.84100 43.31700 21.40200
H  5.41300 43.36700 22.09500
H  3.05100 43.89400 23.74600
H  3.19400 45.10100 22.49000
H  4.57400 44.88200 23.53200
H  7.63600 42.84900 26.33300
H  7.82700 42.56800 28.07600
H  7.45000 44.24900 27.50800
H  4.11400 43.51900 31.50100
H  4.53000 39.76800 33.63900
H  4.40800 40.93800 35.06200
H  5.89400 40.66800 34.46700

