158

Mg 48.21100 44.18400 43.20500
C  44.77800 44.22000 42.72200
C  48.07000 40.70700 42.52700
C  51.46200 44.19400 43.46200
C  48.22800 47.66000 42.98300
N  46.54900 42.56300 42.47800
C  45.23400 42.86300 42.57800
C  44.40600 41.61700 42.52300
C  45.49600 40.46000 42.61000
C  46.80500 41.24700 42.45200
C  45.44300 39.61600 43.87500
C  43.55300 41.55100 41.23400
C  44.12200 42.23500 40.00800
H  43.77600 41.54600 38.71300
N  49.61200 42.62600 42.97300
C  49.32900 41.27100 42.81800
C  50.59500 40.59500 42.75700
C  51.62900 41.55300 43.07200
C  50.94600 42.89000 43.17600
C  50.81200 39.12000 42.50500
C  53.15200 41.27300 43.34000
O  53.64300 40.18300 43.37100
C  54.06500 42.40900 43.72500
N  49.61300 45.71100 43.07500
C  50.85700 45.44200 43.41500
C  51.77400 46.68000 43.52800
C  50.78000 47.83900 43.16600
C  49.46900 47.07700 43.07100
C  52.55500 46.95600 44.78200
C  51.09400 48.61500 41.85000
C  51.87000 49.97100 42.07400
N  46.84500 45.69300 42.89600
C  46.97800 47.05600 42.93400
C  45.68700 47.71300 42.87300
C  44.74700 46.62500 42.87400
C  45.52400 45.40700 42.85800
C  45.46700 49.21600 42.92400
C  43.29800 46.24900 42.92600
O  42.34500 46.96200 43.00100
C  43.27800 44.65400 42.75500
C  42.24400 44.18400 43.69100
O  41.25900 43.60500 43.28800
O  42.53100 44.47800 44.97700
C  41.63400 44.06600 46.02600
H  47.95400 39.62500 42.43000
H  52.51200 44.35400 43.71200
H  48.30800 48.74700 42.90700
H  43.68400 41.75000 43.33000
H  45.51700 39.77800 41.76000
H  46.01700 38.70400 43.70800
H  44.41600 39.28900 44.03700
H  45.85600 40.11100 44.75400
H  42.61800 42.04600 41.49500
H  43.40200 40.48600 41.05600
H  45.20400 42.30000 40.12100
H  43.75500 43.26100 39.97200
H  51.39600 38.85400 41.62300
H  49.93300 38.49600 42.34300
H  51.05700 38.65100 43.45800
H  54.33800 43.20000 43.02600
H  55.05300 42.00900 43.95800
H  53.66700 42.86200 44.63300
H  52.51600 46.59300 42.73500
H  50.71900 48.60900 43.93400
H  52.22100 46.28600 45.57400
H  52.42300 47.95400 45.20100
H  53.60000 46.70700 44.59700
H  50.16100 48.85600 41.34100
H  51.79600 48.04200 41.24400
H  51.23100 50.83800 41.90500
H  52.63900 49.92400 41.30300
H  52.30600 50.11100 43.06300
H  44.63200 49.46400 42.26900
H  46.37900 49.70900 42.58800
H  45.26000 49.53200 43.94700
H  42.81300 44.37300 41.81000
H  42.10200 43.27500 46.61100
H  40.68200 43.65800 45.68700
H  41.38600 44.87900 46.70800
Mg 42.22400 41.43200 26.51500
C  41.37900 43.82400 29.06000
C  43.02300 39.21900 29.00900
C  43.33200 39.45000 24.17900
C  41.77000 44.04400 24.12100
N  42.11600 41.51000 28.74700
C  41.76300 42.55000 29.58600
C  41.92200 42.15000 31.06900
C  42.41000 40.70100 30.97800
C  42.62500 40.48700 29.45100
C  43.67000 40.19100 31.75900
C  40.65300 42.37900 31.97000
C  40.87400 41.95400 33.44100
H  40.40800 43.00500 34.52200
N  43.09800 39.56800 26.60600
C  43.24600 38.77700 27.67900
C  43.55000 37.44500 27.33200
C  43.70900 37.43300 25.87600
C  43.39400 38.88400 25.51100
C  43.73200 36.27300 28.36800
C  43.90800 36.27600 24.83900
O  44.07500 36.49300 23.70600
C  43.97000 34.84500 25.36200
N  42.40500 41.66600 24.38200
C  42.90900 40.64800 23.63100
C  42.77400 40.98300 22.11500
C  42.17500 42.42900 22.16600
C  42.16800 42.80700 23.65100
C  44.08700 40.86500 21.32100
C  40.74200 42.52600 21.66900
C  39.62900 41.62600 22.24200
N  41.74100 43.44400 26.52800
C  41.57400 44.36100 25.46000
C  41.19600 45.67700 26.03100
C  41.10900 45.48800 27.38700
C  41.44400 44.13800 27.67000
C  40.94500 46.95900 25.31100
C  40.84000 46.18800 28.64000
O  40.53500 47.29700 28.91000
C  41.00100 45.11400 29.76900
C  42.04300 45.66200 30.61800
O  43.21500 45.88300 30.28000
O  41.54100 45.72900 31.89100
C  42.49500 46.33900 32.78300
H  43.30200 38.50300 29.78500
H  43.61000 38.69800 23.43700
H  41.51400 44.78000 23.35700
H  42.66200 42.79100 31.55000
H  41.65300 39.93200 31.13200
H  43.29300 39.44600 32.45800
H  44.03800 41.03100 32.34800
H  44.49400 39.81400 31.15300
H  39.83700 41.75200 31.61000
H  40.35700 43.42600 31.91300
H  41.93600 41.75000 33.57900
H  40.39000 40.99300 33.61800
H  44.25400 35.42300 27.92700
H  42.78000 35.85800 28.69800
H  44.34800 36.62200 29.19600
H  43.17500 34.62000 26.07400
H  44.98100 34.71000 25.74500
H  43.99600 34.09500 24.57200
H  42.17000 40.18800 21.67800
H  42.84200 42.97100 21.49500
H  44.90000 40.54100 21.97000
H  44.27700 41.67700 20.61800
H  43.87900 40.02500 20.65800
H  40.82900 42.29200 20.60800
H  40.42500 43.56600 21.75600
H  39.99000 41.16600 23.16200
H  39.24100 40.87900 21.54900
H  38.90800 42.38100 22.55300
H  40.01300 47.40200 25.66000
H  40.94000 46.69700 24.25300
H  41.80100 47.59700 25.53100
H  40.05000 45.02000 30.29300
H  42.59000 47.39500 32.53000
H  43.50900 45.95400 32.67400
H  42.14300 46.21600 33.80700

