158

Mg 0.51600 7.55000 26.26900
C  1.58200 9.40800 29.00000
C  0.85300 4.69000 28.25400
C  0.07200 5.71200 23.54000
C  0.21300 10.44600 24.47600
N  1.00700 7.06700 28.32200
C  1.30400 8.07100 29.29000
C  1.24200 7.42300 30.67100
C  1.39800 5.85400 30.41100
C  1.04100 5.84400 28.87800
C  2.72500 5.14600 30.70100
C  0.01900 7.91700 31.49900
C  0.39200 8.29200 33.00900
H  1.12700 7.26800 33.79100
N  0.32100 5.45000 25.94600
C  0.49800 4.43100 26.90000
C  0.42500 3.16400 26.16200
C  0.12300 3.40500 24.82700
C  0.14000 4.92500 24.70800
C  0.66400 1.84100 26.87100
C  -0.14400 2.45100 23.74600
O  -0.20300 2.80500 22.59200
C  -0.27400 0.95900 23.98200
N  0.42100 8.00500 24.25600
C  0.09300 7.10600 23.32400
C  -0.41700 7.78200 22.01800
C  -0.58400 9.25800 22.45400
C  0.03800 9.26300 23.82600
C  0.58800 7.59100 20.90900
C  -2.05100 9.85800 22.41800
C  -2.89200 9.60000 21.16600
N  0.93200 9.56000 26.62300
C  0.74300 10.62000 25.79300
C  1.12600 11.82100 26.41600
C  1.52700 11.40300 27.71400
C  1.42900 10.02700 27.71400
C  1.18400 13.22800 25.81000
C  2.13000 11.71900 29.03100
O  2.42700 12.79300 29.54500
C  2.03800 10.44700 29.88400
C  3.34300 10.20100 30.56200
O  4.23800 9.40200 30.29000
O  3.34900 10.93100 31.73200
C  4.38700 10.73000 32.72400
H  0.99500 3.77000 28.82500
H  0.09900 5.25200 22.54900
H  0.05100 11.30400 23.82000
H  2.15800 7.65100 31.21700
H  0.56900 5.30800 30.86200
H  2.66000 4.56000 31.61700
H  3.48500 5.89800 30.91600
H  3.15400 4.55200 29.89400
H  -0.62400 7.03700 31.52500
H  -0.59500 8.64600 30.97200
H  -0.60000 8.56400 33.37100
H  0.95000 9.22400 33.09600
H  1.34800 1.22500 26.28700
H  -0.22200 1.24900 27.09700
H  1.30700 2.00300 27.73700
H  -0.38900 0.41900 23.04300
H  -1.20400 0.70800 24.49200
H  0.69800 0.60400 24.32700
H  -1.36800 7.28100 21.83500
H  -0.00300 9.92400 21.81700
H  1.60200 7.52000 21.30400
H  0.57500 8.49100 20.29400
H  0.24700 6.74700 20.31000
H  -1.95700 10.91300 22.67500
H  -2.61300 9.46700 23.26600
H  -2.50600 8.92500 20.40200
H  -2.97200 10.58500 20.70600
H  -3.88800 9.31000 21.49800
H  1.63900 13.89500 26.54200
H  0.16600 13.49600 25.52700
H  1.74100 13.17100 24.87500
H  1.27700 10.68400 30.62800
H  4.22900 9.98500 33.50400
H  4.50300 11.67100 33.26100
H  5.34100 10.39500 32.31600
Mg 47.22400 35.10300 28.29800
C  45.38300 33.50700 30.72900
C  47.53400 37.72900 30.50000
C  48.80800 36.91000 25.75800
C  46.59000 32.60100 26.09300
N  46.66500 35.43700 30.40300
C  45.99500 34.58300 31.20500
C  45.97900 35.02500 32.65500
C  46.41700 36.58100 32.47700
C  46.88200 36.60100 31.04000
C  45.42600 37.68100 32.77400
C  47.04400 34.22600 33.45300
C  47.20300 34.50500 34.95700
H  46.15000 35.36600 35.78900
N  48.04800 36.94500 28.17200
C  48.08100 37.89700 29.21600
C  48.63300 39.09000 28.72300
C  48.97400 38.88900 27.35400
C  48.63000 37.47600 27.01600
C  49.06000 40.29300 29.55500
C  49.58000 39.95800 26.41300
O  50.15000 39.62400 25.35300
C  49.41800 41.37400 26.73200
N  47.70300 34.84100 26.29000
C  48.36300 35.64100 25.42700
C  48.29800 35.10800 23.96100
C  47.82100 33.61400 24.15100
C  47.31500 33.68200 25.56000
C  47.40200 36.07700 23.14700
C  48.92000 32.52500 24.01000
C  48.51000 31.38400 23.02100
N  46.14900 33.36300 28.39000
C  46.03100 32.42300 27.35400
C  45.25800 31.32200 28.00600
C  44.86200 31.75300 29.24800
C  45.53500 32.96600 29.47800
C  44.97800 29.96300 27.33400
C  44.14900 31.36200 30.43000
O  43.53500 30.34400 30.72000
C  44.36000 32.53100 31.38300
C  44.59100 32.02000 32.75000
O  45.41300 31.21100 33.11100
O  43.70000 32.60900 33.58300
C  43.77300 32.10500 34.95000
H  47.63100 38.57500 31.18200
H  49.14800 37.58200 24.96700
H  46.45300 31.68900 25.50700
H  44.98100 34.85300 33.05700
H  47.11700 36.83300 33.27400
H  44.43200 37.23400 32.78400
H  45.48400 38.51000 32.06900
H  45.55900 38.10100 33.77100
H  47.93100 34.48500 32.87500
H  47.05100 33.14000 33.35800
H  48.22300 34.88900 34.96900
H  47.16800 33.52700 35.43700
H  50.14100 40.38100 29.44500
H  48.77000 40.20500 30.60200
H  48.43300 41.12200 29.22700
H  49.52700 41.94600 25.81000
H  50.08200 41.71000 27.52900
H  48.38100 41.45700 27.05600
H  49.29200 34.97900 23.53200
H  46.88400 33.43500 23.62300
H  48.15100 36.33000 22.39600
H  46.98500 36.90800 23.71600
H  46.57500 35.57700 22.64200
H  49.23800 32.09800 24.96200
H  49.80200 32.96400 23.54300
H  49.27500 31.35200 22.24500
H  47.54200 31.59600 22.56700
H  48.48600 30.44400 23.57300
H  43.94500 29.69200 27.55100
H  45.66700 29.23200 27.75900
H  45.07400 29.99600 26.24900
H  43.44200 33.11800 31.34900
H  43.74800 31.01500 34.96600
H  42.97300 32.55100 35.54000
H  44.77000 32.39400 35.28400

