158

Mg 9.43300 3.90100 27.92100
C  10.90200 2.40600 30.73600
C  7.36100 5.64100 30.05800
C  7.75300 5.08100 25.32000
C  11.16000 1.78000 25.82000
N  9.17400 3.92300 30.20000
C  9.87600 3.31700 31.09100
C  9.59700 3.88200 32.45800
C  8.22100 4.65600 32.25200
C  8.20100 4.72400 30.72100
C  6.94700 4.14200 32.99400
C  10.78700 4.74900 33.15500
C  11.33900 4.10500 34.41400
H  11.64500 5.04000 35.61000
N  7.95600 5.31000 27.75300
C  7.22300 5.92000 28.73000
C  6.32500 6.86100 28.13900
C  6.51100 6.84700 26.76000
C  7.46100 5.69200 26.57200
C  5.46900 7.75100 28.94800
C  5.87300 7.70400 25.65700
O  6.11200 7.44400 24.45400
C  4.98900 8.86000 25.91400
N  9.40300 3.38200 25.76400
C  8.61800 4.06700 24.88900
C  8.79800 3.58900 23.41000
C  9.93900 2.55300 23.61200
C  10.20000 2.58200 25.10600
C  7.47400 2.93400 22.82500
C  11.18300 2.73400 22.69400
C  11.91900 1.45500 22.12500
N  10.80000 2.33500 28.18500
C  11.52100 1.60200 27.20600
C  12.38900 0.73700 27.87700
C  12.23800 1.07200 29.28400
C  11.20300 2.03500 29.39700
C  13.20800 -0.34700 27.16600
C  12.75300 0.75600 30.58300
O  13.53500 -0.06300 30.95500
C  11.92000 1.70100 31.57900
C  11.26000 0.79600 32.58000
O  10.16500 0.30100 32.37500
O  11.98700 0.67400 33.71700
C  11.43100 -0.06400 34.85500
H  6.72200 6.24800 30.70300
H  7.26800 5.53800 24.45500
H  11.82500 1.12300 25.25600
H  9.36800 3.00200 33.05800
H  8.28700 5.63600 32.72500
H  6.16500 3.76100 32.33800
H  6.43000 5.00100 33.42200
H  7.09700 3.32600 33.70100
H  10.38700 5.73500 33.39400
H  11.55200 4.68900 32.38100
H  12.28100 3.60100 34.19600
H  10.78200 3.25500 34.80700
H  5.40800 7.51900 30.01200
H  4.51300 7.70600 28.42600
H  5.93400 8.73500 28.87400
H  5.40700 9.55300 26.64300
H  4.11800 8.44000 26.41600
H  4.61900 9.34400 25.01000
H  9.13400 4.40600 22.77100
H  9.63800 1.52300 23.42100
H  6.60400 3.40300 23.28500
H  7.55900 1.85100 22.90700
H  7.33700 3.32500 21.81600
H  11.91600 3.22200 23.33600
H  10.88300 3.30000 21.81200
H  11.29200 1.00700 21.35400
H  12.03400 0.64600 22.84700
H  12.86200 1.82200 21.72000
H  12.53600 -1.19400 27.02600
H  14.15700 -0.65200 27.60500
H  13.47200 0.12800 26.22100
H  12.61100 2.40900 32.03800
H  11.05400 0.64600 35.59100
H  12.28900 -0.54700 35.32200
H  10.71200 -0.87600 34.75200
Mg 18.01200 -1.22600 27.15700
C  17.00000 0.79400 29.86600
C  19.81800 -3.14800 29.29700
C  19.09200 -2.82100 24.46900
C  16.25800 0.96400 25.02700
N  18.46800 -1.04400 29.33300
C  17.84800 -0.28800 30.25600
C  18.28100 -0.62300 31.68400
C  19.26800 -1.82200 31.47400
C  19.24600 -2.06200 29.93200
C  20.67100 -1.60500 32.08000
C  17.12900 -0.92200 32.68600
C  17.09000 -0.23800 34.08600
H  18.42900 0.21800 34.64700
N  19.20300 -2.76500 26.88400
C  19.86600 -3.47600 27.92200
C  20.59000 -4.66900 27.37200
C  20.33400 -4.57300 25.92200
C  19.45900 -3.39300 25.69800
C  21.46400 -5.74600 28.18100
C  20.97200 -5.38900 24.83100
O  20.97100 -5.17600 23.67500
C  21.96600 -6.41800 25.17100
N  17.91500 -0.84000 24.99900
C  18.38700 -1.70400 24.13300
C  18.05300 -1.45200 22.65800
C  16.98100 -0.30000 22.90200
C  17.05500 -0.03500 24.43600
C  19.27300 -0.84900 21.81400
C  15.48700 -0.69100 22.40700
C  14.63100 -1.36900 23.45400
N  16.94200 0.49200 27.39200
C  16.31400 1.26100 26.38900
C  15.59200 2.36500 27.02200
C  15.81900 2.22100 28.38300
C  16.59700 1.05700 28.57900
C  14.82300 3.38000 26.33800
C  15.52600 2.76100 29.72000
O  14.74000 3.65700 30.14300
C  16.33600 1.86700 30.72700
C  17.15400 2.76500 31.64000
O  18.36400 2.93700 31.57900
O  16.29500 3.28400 32.61000
C  16.92300 4.16700 33.59900
H  20.40900 -3.84100 29.90000
H  19.40100 -3.40600 23.60000
H  15.66700 1.50500 24.28500
H  18.88200 0.22400 32.01500
H  18.96200 -2.71700 32.01600
H  20.74400 -0.69900 32.68100
H  21.34400 -1.43600 31.23900
H  20.96200 -2.53000 32.57900
H  17.02300 -2.00200 32.78600
H  16.24800 -0.51300 32.19100
H  16.57200 -0.94200 34.73600
H  16.40800 0.59600 33.91600
H  22.51500 -5.87600 27.92400
H  20.94800 -6.70300 28.24600
H  21.46600 -5.47500 29.23700
H  21.46700 -7.04700 25.90800
H  22.94800 -6.10400 25.52500
H  22.17200 -7.09300 24.34000
H  17.60000 -2.36200 22.26400
H  17.27300 0.63700 22.42700
H  20.16600 -0.89200 22.43700
H  19.13900 0.13700 21.36800
H  19.63300 -1.52900 21.04200
H  15.51300 -1.28800 21.49500
H  15.14800 0.31400 22.15700
H  14.16100 -0.61100 24.08000
H  15.16100 -2.14000 24.01400
H  13.82300 -1.88700 22.93700
H  13.79500 3.06400 26.16000
H  15.31600 3.50200 25.37300
H  14.92200 4.29300 26.92600
H  15.59600 1.38400 31.36500
H  16.95000 5.19700 33.24300
H  17.96000 3.84400 33.69800
H  16.27400 4.10900 34.47300

