158

Mg 25.46600 1.08400 29.30600
C  27.48700 0.66700 32.08500
C  22.64200 1.14400 31.34800
C  23.55800 0.88700 26.44300
C  28.23700 0.49400 27.23600
N  25.16000 0.83400 31.44300
C  26.10800 0.80800 32.41700
C  25.50000 0.85800 33.82600
C  23.94600 1.05100 33.54500
C  23.86500 1.00000 32.03800
C  22.98100 -0.00100 34.21200
C  26.07600 2.10200 34.75500
C  25.92000 1.83300 36.26200
H  25.46200 2.99700 37.15500
N  23.35800 1.05500 28.99300
C  22.39000 1.23300 29.96400
C  21.13300 1.44800 29.27900
C  21.39900 1.24500 27.83600
C  22.83500 1.01700 27.71900
C  19.92800 1.78600 30.06900
C  20.36400 1.20500 26.69300
O  20.67300 0.89400 25.51900
C  18.92600 1.54500 27.09800
N  25.84200 0.66300 27.03100
C  24.86800 0.74500 26.14800
C  25.52600 0.60000 24.75300
C  27.05600 0.67200 24.94900
C  27.07400 0.63400 26.45400
C  25.00000 -0.65900 24.03300
C  27.76200 1.85700 24.28500
C  28.18000 1.61700 22.86500
N  27.40600 0.70400 29.55800
C  28.46100 0.52200 28.60400
C  29.75700 0.32100 29.32200
C  29.44600 0.41300 30.70400
C  28.05500 0.65000 30.77500
C  31.09500 0.00100 28.66000
C  29.94100 0.40400 32.08500
O  31.08600 0.38100 32.48700
C  28.66300 0.45100 33.02000
C  28.54400 -0.65200 33.92000
O  28.13900 -1.79900 33.64500
O  28.79700 -0.31800 35.18600
C  28.26800 -1.25900 36.22000
H  21.76200 1.38300 31.94800
H  22.98400 1.00700 25.52100
H  29.16000 0.29100 26.68800
H  25.73500 -0.11500 34.25900
H  23.66900 2.04800 33.88700
H  23.01000 -0.03400 35.30100
H  23.01000 -1.00600 33.78900
H  21.99500 0.40700 33.99100
H  25.51500 3.02700 34.62200
H  27.10500 2.28000 34.44200
H  26.91800 1.65500 36.66200
H  25.31400 0.95800 36.50100
H  20.22100 2.37300 30.93900
H  19.55400 0.87100 30.52800
H  19.22400 2.39800 29.50500
H  18.34500 1.29700 26.20900
H  18.81600 2.59000 27.39100
H  18.57900 0.87400 27.88300
H  25.25800 1.37700 24.03700
H  27.54200 -0.27300 24.70200
H  25.77400 -1.42600 23.99100
H  24.65800 -0.40900 23.02900
H  24.22700 -1.10700 24.65800
H  28.62300 2.11200 24.90200
H  27.27100 2.81600 24.44600
H  27.79700 2.40900 22.22200
H  27.73600 0.72300 22.42700
H  29.27000 1.64400 22.89200
H  31.67700 0.88600 28.40500
H  30.90600 -0.56200 27.74600
H  31.66600 -0.67000 29.30200
H  28.98800 1.28400 33.64300
H  29.05200 -1.28200 36.97600
H  28.04600 -2.25300 35.83200
H  27.38400 -0.79900 36.66300
Mg 1.80800 41.43800 26.80200
C  3.36600 42.25200 29.92200
C  -0.79000 40.14800 28.54900
C  0.48400 40.62300 23.87100
C  4.83700 42.22400 25.28500
N  1.34700 41.25400 29.03300
C  2.07300 41.71700 30.10300
C  1.21400 41.71300 31.37200
C  -0.07600 40.84200 30.91300
C  0.14500 40.77300 29.41100
C  -0.14500 39.44400 31.63600
C  0.95600 43.15600 31.93700
C  1.31700 43.41400 33.38100
H  1.18800 42.35300 34.45200
N  0.05800 40.57300 26.21700
C  -0.85300 40.05800 27.08900
C  -1.98300 39.52500 26.22600
C  -1.53500 39.54500 24.88800
C  -0.27500 40.28500 24.97300
C  -3.18600 38.76200 26.81900
C  -2.20600 38.95100 23.64500
O  -1.63300 39.05200 22.57800
C  -3.56100 38.15200 23.76200
N  2.63000 41.32800 24.96100
C  1.84700 40.99200 23.88100
C  2.60800 41.24500 22.51100
C  3.99000 41.74800 22.95100
C  3.85900 41.68600 24.50200
C  2.63100 39.99700 21.61800
C  4.36700 43.19600 22.34900
C  3.75300 44.35200 23.05000
N  3.71000 42.12200 27.41000
C  4.81100 42.46800 26.66400
C  5.91300 42.85700 27.56300
C  5.30500 42.76800 28.82600
C  4.02000 42.35900 28.73100
C  7.33000 43.18200 27.32500
C  5.65400 42.80000 30.20500
O  6.73600 42.99500 30.66700
C  4.37600 42.57300 31.02600
C  4.75100 41.39400 31.82100
O  4.89100 40.25900 31.37200
O  4.71400 41.75800 33.11600
C  4.86700 40.69500 34.10300
H  -1.68500 39.79700 29.06800
H  0.04300 40.54200 22.87600
H  5.78200 42.53400 24.83300
H  1.69800 41.19200 32.19900
H  -1.03400 41.29200 31.17200
H  0.56100 39.35300 32.46200
H  -0.18000 38.62600 30.91700
H  -1.13400 39.19000 32.01500
H  -0.12600 43.28900 31.94500
H  1.39100 43.89500 31.26500
H  0.66200 44.24600 33.63900
H  2.37100 43.67900 33.46800
H  -3.34400 38.86300 27.89300
H  -3.13000 37.67400 26.83000
H  -4.15600 39.16500 26.52700
H  -3.57100 37.36100 24.51200
H  -3.70700 37.77600 22.74900
H  -4.43500 38.78600 23.90900
H  2.12100 42.04700 21.95600
H  4.82900 41.12500 22.64100
H  2.24100 39.17900 22.22300
H  3.67300 39.80900 21.35700
H  2.09400 40.17600 20.68600
H  3.84100 43.31700 21.40200
H  5.41300 43.36700 22.09500
H  3.05100 43.89400 23.74600
H  3.19400 45.10100 22.49000
H  4.57400 44.88200 23.53200
H  7.63600 42.84900 26.33300
H  7.82700 42.56800 28.07600
H  7.45000 44.24900 27.50800
H  4.11400 43.51900 31.50100
H  4.53000 39.76800 33.63900
H  4.40800 40.93800 35.06200
H  5.89400 40.66800 34.46700

