158

Mg -0.12700 7.52500 26.59600
C  0.56200 9.54300 29.43800
C  -0.32100 4.80200 28.72900
C  -0.58600 5.55100 23.94600
C  0.53400 10.21900 24.55100
N  -0.09400 7.29400 28.82500
C  0.14700 8.21200 29.81000
C  0.06900 7.70600 31.16900
C  -0.10300 6.11200 30.92100
C  -0.28200 6.07600 29.35600
C  0.95900 5.13000 31.48700
C  -1.00000 8.41200 32.02700
C  -0.76900 8.57000 33.53300
H  0.43000 8.07100 34.26000
N  -0.39000 5.45000 26.33200
C  -0.37300 4.49500 27.30100
C  -0.49700 3.20000 26.65500
C  -0.66900 3.40800 25.27400
C  -0.59900 4.89700 25.13300
C  -0.41100 1.97800 27.43900
C  -1.04000 2.35500 24.18600
O  -1.23500 2.79400 23.05700
C  -1.28200 0.87600 24.51000
N  -0.06400 7.87600 24.55400
C  -0.35900 6.88900 23.58400
C  -0.28500 7.40900 22.10600
C  -0.19900 8.94000 22.42200
C  0.14700 9.03700 23.94600
C  0.80200 6.66100 21.30600
C  -1.46300 9.77300 22.08300
C  -1.29400 10.76500 20.87600
N  0.49200 9.47000 26.89400
C  0.69000 10.42200 25.90600
C  1.23300 11.57200 26.58100
C  1.29700 11.27200 27.95000
C  0.74200 9.98700 28.10100
C  1.70500 12.75300 25.93700
C  1.63700 11.78100 29.23000
O  2.20200 12.85000 29.57500
C  1.16200 10.67000 30.27700
C  2.31400 10.21900 31.15600
O  3.07700 9.36900 30.82900
O  2.53300 11.00300 32.20500
C  3.63600 10.80000 33.14800
H  -0.47500 3.88200 29.29700
H  -0.83200 4.98100 23.04800
H  0.77200 11.09200 23.94100
H  1.02000 7.83900 31.68500
H  -1.09800 5.84800 31.28100
H  0.42200 4.31800 31.97800
H  1.54700 5.69600 32.20900
H  1.60800 4.87200 30.65000
H  -1.95600 7.94900 31.78200
H  -1.04600 9.39800 31.56400
H  -1.67700 8.19400 34.00300
H  -0.74600 9.64100 33.73300
H  -0.15700 1.08900 26.86200
H  -1.36100 1.78700 27.93700
H  0.41200 2.17400 28.12700
H  -1.68400 0.39100 23.62100
H  -1.98400 0.76300 25.33600
H  -0.39100 0.32800 24.81900
H  -1.19900 7.19400 21.55200
H  0.63000 9.37900 21.86700
H  1.11500 5.74600 21.81000
H  1.71900 7.24800 21.24900
H  0.58200 6.31700 20.29600
H  -1.53200 10.47200 22.91700
H  -2.42800 9.27600 21.98700
H  -0.79300 10.23300 20.06700
H  -0.75400 11.69700 21.04400
H  -2.29800 11.03900 20.55400
H  1.02300 13.05600 25.14300
H  2.72700 12.62200 25.58100
H  1.70300 13.62700 26.58900
H  0.31800 11.04400 30.85600
H  4.10000 11.78700 33.14700
H  4.34600 10.11100 32.69200
H  3.32300 10.51700 34.15300
Mg 8.23900 2.52100 28.43300
C  9.96700 1.32700 31.38800
C  6.16500 4.16500 30.54000
C  6.77000 3.63700 25.78000
C  9.91000 -0.00000 26.68600
N  8.05300 2.62900 30.66200
C  8.93100 2.19200 31.57700
C  8.63600 2.77700 32.92800
C  7.22200 3.37400 32.76300
C  7.07600 3.39300 31.19700
C  6.13200 2.55400 33.46000
C  9.72400 3.82300 33.33400
C  9.63900 4.49700 34.64500
H  10.53200 3.94100 35.77800
N  6.63900 3.79600 28.18200
C  5.90700 4.43800 29.18800
C  5.02300 5.42600 28.62100
C  5.21100 5.26500 27.22000
C  6.17900 4.22200 26.94800
C  4.11600 6.26200 29.38200
C  4.43500 6.08100 26.09800
O  4.62200 5.88300 24.90500
C  3.42200 7.08000 26.44100
N  8.28000 1.89300 26.48100
C  7.62400 2.56800 25.51300
C  7.87800 1.99400 24.12400
C  8.81000 0.72200 24.51400
C  9.11000 0.94400 25.94600
C  6.53500 1.69500 23.26100
C  9.99600 0.53100 23.41700
C  10.94900 1.70500 23.41300
N  9.63000 1.00200 28.88500
C  10.29200 0.10000 28.05200
C  11.34900 -0.65100 28.71500
C  11.25000 -0.16400 30.00000
C  10.14500 0.77100 30.09800
C  12.33800 -1.61400 28.00900
C  11.77600 -0.33800 31.37800
O  12.64000 -1.11400 31.80300
C  11.03600 0.67900 32.29600
C  10.32000 -0.04600 33.38600
O  9.31100 -0.67800 33.28200
O  11.02500 0.07100 34.53200
C  10.51300 -0.37700 35.80000
H  5.54100 4.71700 31.24600
H  6.35800 4.00600 24.83900
H  10.38000 -0.70400 25.99500
H  8.70100 1.91000 33.58500
H  7.19800 4.37700 33.19100
H  5.99400 1.54300 33.07800
H  5.17500 3.06700 33.36100
H  6.30100 2.42700 34.52900
H  9.64600 4.56600 32.54000
H  10.73900 3.42800 33.34800
H  8.63700 4.31000 35.03200
H  9.85600 5.56300 34.57500
H  4.32700 6.09800 30.43900
H  3.06800 5.96800 29.33300
H  4.22900 7.33700 29.23800
H  2.95600 7.36600 25.49800
H  4.03900 7.84200 26.91500
H  2.68800 6.68900 27.14600
H  8.44400 2.73000 23.55200
H  8.28000 -0.23100 24.52200
H  5.64800 1.84700 23.87500
H  6.43400 0.64600 22.98400
H  6.51200 2.27100 22.33500
H  9.51900 0.63500 22.44200
H  10.52900 -0.42000 23.40300
H  11.96300 1.33300 23.55900
H  10.60300 2.47100 24.10600
H  10.91500 2.36400 22.54500
H  13.22200 -1.72900 28.63700
H  12.62900 -1.40500 26.98000
H  11.88700 -2.60700 28.02500
H  11.81500 1.31600 32.71400
H  9.84000 0.35600 36.24400
H  11.39700 -0.48500 36.42800
H  9.91600 -1.27800 35.65900

