158

Mg 48.42000 15.50800 28.41000
C  46.33400 15.00700 31.37000
C  50.45500 17.26400 30.33900
C  50.19200 16.21400 25.61700
C  45.77700 14.12300 26.49900
N  48.32800 16.01800 30.61200
C  47.45100 15.74200 31.65200
C  47.90800 16.28500 32.92400
C  49.18800 17.13900 32.56000
C  49.38600 16.79200 31.02200
C  48.98000 18.73700 32.68600
C  48.31200 15.13900 33.91300
C  47.87200 15.17700 35.40100
H  47.55300 16.49200 35.91200
N  50.17500 16.57000 28.05200
C  50.87400 17.21400 28.97400
C  52.07900 17.76100 28.41600
C  52.08900 17.30600 27.05700
C  50.79800 16.63400 26.82300
C  53.11100 18.44800 29.28900
C  53.20600 17.40300 26.03800
O  53.16200 16.70600 25.00300
C  54.46100 18.24500 26.28100
N  48.01600 15.22500 26.36700
C  48.99100 15.51900 25.40800
C  48.39200 15.27000 24.03000
C  46.96500 14.58000 24.27900
C  46.87700 14.71600 25.80500
C  48.23200 16.58600 23.20200
C  46.92700 13.09000 23.73200
C  47.80600 12.11600 24.51800
N  46.46300 14.64200 28.82000
C  45.54700 14.01200 27.94600
C  44.45000 13.57800 28.75900
C  44.69300 13.88300 30.09900
C  45.94600 14.51600 30.07100
C  43.22100 12.93800 28.25500
C  44.27200 13.73500 31.46400
O  43.19200 13.29200 31.91000
C  45.26600 14.48400 32.32400
C  44.44900 15.36800 33.21200
O  44.02600 16.45700 33.00700
O  44.20800 14.65700 34.36000
C  43.41600 15.39400 35.36000
H  51.12300 17.85400 30.96900
H  50.82700 16.41300 24.75100
H  45.05800 13.52900 25.93100
H  47.13700 16.99900 33.21200
H  50.15000 16.89400 33.00900
H  49.72800 19.13300 33.37200
H  47.99600 19.01900 33.06300
H  49.06300 19.35700 31.79300
H  49.37300 15.05300 34.14700
H  48.07000 14.22300 33.37500
H  48.65300 14.84500 36.08400
H  47.03500 14.48300 35.47600
H  53.54400 17.65100 29.89500
H  52.72900 19.18700 29.99300
H  53.81100 18.89400 28.58300
H  54.20000 19.27400 26.52600
H  55.03200 18.21600 25.35300
H  54.95200 17.73900 27.11300
H  49.02000 14.46600 23.64800
H  46.08100 15.18600 24.08300
H  47.74600 17.24900 23.91800
H  47.67400 16.46600 22.27400
H  49.26800 16.83300 22.96900
H  47.36200 13.05700 22.73300
H  45.87300 12.81600 23.69000
H  48.23500 11.48000 23.74400
H  47.22200 11.48100 25.18300
H  48.64900 12.59600 25.01600
H  43.09700 11.91100 28.59900
H  42.96000 13.10100 27.20900
H  42.43700 13.53900 28.71500
H  45.71100 13.69200 32.92600
H  42.55800 15.83500 34.85400
H  43.90900 16.18100 35.93000
H  42.90300 14.62700 35.94000
Mg 48.19100 34.18600 26.33100
C  46.30500 32.80500 28.99500
C  48.74000 36.95900 28.11000
C  49.38300 35.57300 23.52000
C  47.13400 31.39300 24.48700
N  47.45800 34.79600 28.30500
C  46.87400 34.07600 29.30500
C  47.11500 34.66700 30.64200
C  47.66400 36.10000 30.24900
C  48.06500 35.97600 28.83100
C  46.62300 37.26700 30.44200
C  48.19700 33.83100 31.39600
C  48.10400 33.78700 32.95400
H  47.02500 34.64700 33.72000
N  48.99000 36.05100 25.88800
C  49.08300 37.08000 26.75800
C  49.82500 38.14700 26.16700
C  50.06400 37.74000 24.82000
C  49.46200 36.37100 24.68100
C  50.21000 39.37300 26.95400
C  50.83700 38.40400 23.76200
O  51.14400 37.88100 22.67400
C  51.19800 39.86600 24.05300
N  48.11600 33.69600 24.33900
C  48.71200 34.35900 23.35600
C  48.88300 33.59600 22.04700
C  48.31200 32.18600 22.45900
C  47.79200 32.40100 23.86800
C  48.30000 34.36700 20.75200
C  49.46200 31.10900 22.42800
C  49.56600 30.29400 21.16700
N  46.97000 32.40100 26.60400
C  46.66600 31.36300 25.80100
C  45.88100 30.31400 26.47700
C  45.66400 30.87700 27.69100
C  46.33100 32.11700 27.73900
C  45.47300 29.00400 25.95000
C  45.05500 30.78000 29.00800
O  44.30200 29.88300 29.41900
C  45.31500 32.03400 29.87500
C  45.75700 31.52100 31.23900
O  46.81900 30.85800 31.48200
O  44.75800 31.74700 32.20100
C  44.84600 31.10100 33.47100
H  49.07400 37.76200 28.77000
H  49.80500 35.83500 22.54700
H  46.98700 30.48800 23.89400
H  46.18100 34.77800 31.19300
H  48.58300 36.28800 30.80400
H  45.95600 37.28300 29.58000
H  47.20400 38.18000 30.57000
H  45.94600 37.12600 31.28400
H  49.19200 34.27200 31.32700
H  48.33000 32.84000 30.96200
H  49.01400 34.12100 33.45300
H  47.95700 32.75900 33.28600
H  49.97800 40.32700 26.48200
H  51.27600 39.25100 27.14700
H  49.75900 39.43500 27.94400
H  51.69900 40.26800 23.17200
H  51.95900 39.92200 24.83200
H  50.38200 40.55200 24.27700
H  49.95600 33.51000 21.87600
H  47.45100 31.98200 21.82200
H  47.57000 35.05900 21.17400
H  47.81800 33.73600 20.00500
H  49.15200 34.83200 20.25700
H  49.41700 30.48200 23.31800
H  50.47600 31.42200 22.67800
H  48.81000 30.59900 20.44300
H  49.18700 29.29700 21.38900
H  50.57400 30.29700 20.75400
H  44.76200 29.08000 25.12800
H  45.12600 28.43000 26.81000
H  46.29800 28.48700 25.46000
H  44.46000 32.70000 29.99000
H  44.17500 30.24300 33.49800
H  44.50500 31.85600 34.17900
H  45.79500 30.60800 33.68600

