158

Mg 46.85900 17.29000 28.51300
C  45.09500 16.74100 31.55800
C  49.08200 19.20000 30.46900
C  48.34400 18.07500 25.66800
C  44.04500 16.00300 26.78300
N  47.08500 17.93600 30.68800
C  46.30900 17.45100 31.77500
C  47.00800 17.82200 33.15500
C  48.09300 18.83300 32.73800
C  48.17500 18.58100 31.26000
C  47.87200 20.31700 33.07200
C  47.61700 16.57900 33.86700
C  47.62300 16.53200 35.44400
H  47.40200 17.91100 36.08600
N  48.51200 18.32900 28.12900
C  49.24700 19.11400 29.03400
C  50.36600 19.65900 28.36200
C  50.26000 19.26100 26.94500
C  49.00700 18.49100 26.83700
C  51.30900 20.57000 29.18100
C  51.19400 19.61500 25.78200
O  51.04000 19.34300 24.57400
C  52.45500 20.34800 26.07500
N  46.24000 17.09400 26.49000
C  47.16300 17.40800 25.48600
C  46.53100 17.17100 24.12400
C  45.14100 16.54100 24.46600
C  45.15900 16.53200 26.01100
C  46.61100 18.29300 23.03200
C  44.92800 15.15700 23.81100
C  45.72700 13.93300 24.43400
N  45.07500 16.35000 29.03700
C  44.03300 15.86200 28.22400
C  42.92700 15.39900 29.05500
C  43.36500 15.62900 30.37500
C  44.67900 16.21000 30.31300
C  41.63700 14.75100 28.67200
C  42.99900 15.49200 31.74300
O  41.93800 15.11000 32.28900
C  44.18500 16.08500 32.51500
C  43.69700 17.06200 33.52500
O  43.82700 18.27000 33.43200
O  43.31300 16.41700 34.71100
C  43.29800 17.14900 35.96600
H  49.77200 19.74100 31.12000
H  48.86900 18.31700 24.74100
H  43.21800 15.60800 26.19100
H  46.29800 18.22400 33.87800
H  49.06600 18.53200 33.12500
H  48.80000 20.87900 33.17600
H  47.27800 20.38800 33.98300
H  47.28800 20.81800 32.30100
H  48.58600 16.37500 33.41100
H  46.88000 15.82600 33.58700
H  48.67800 16.38700 35.67600
H  47.09400 15.68700 35.88400
H  52.03800 19.98800 29.74500
H  50.68900 21.10900 29.89800
H  51.83000 21.33700 28.60800
H  52.14600 21.38300 26.22300
H  53.22400 20.14900 25.32900
H  52.82500 20.05300 27.05700
H  47.05000 16.34000 23.64700
H  44.42300 17.31000 24.18000
H  47.01500 19.25300 23.35300
H  45.57600 18.44900 22.72800
H  47.13000 17.98600 22.12400
H  45.11000 15.16400 22.73700
H  43.91200 14.92000 24.12800
H  45.99300 13.28000 23.60300
H  45.12000 13.37800 25.15000
H  46.58500 14.31400 24.98800
H  41.25600 15.07500 27.70300
H  40.84400 15.07700 29.34400
H  41.67300 13.66300 28.62000
H  44.80600 15.34700 33.02200
H  44.08600 17.90100 35.92000
H  43.38600 16.48100 36.82200
H  42.34100 17.66900 35.97700
Mg 28.19400 56.02300 41.24500
C  25.88400 53.53100 40.02600
C  30.66100 54.09800 39.95800
C  30.11000 58.67100 41.75300
C  25.40600 57.90000 41.98200
N  28.22900 53.99800 40.20400
C  27.19000 53.21700 39.68900
C  27.69400 52.16800 38.81300
C  29.22800 52.11600 39.10400
C  29.41600 53.39100 39.88000
C  29.86800 50.79400 39.74400
C  27.25900 52.25000 37.28900
C  27.06400 53.53700 36.59800
H  27.16000 53.68500 35.08600
N  30.19300 56.29000 41.03000
C  31.04700 55.36000 40.47600
C  32.33500 56.05800 40.40900
C  32.22300 57.36000 40.98000
C  30.83200 57.47200 41.38600
C  33.42900 55.29700 39.93500
C  33.33700 58.40500 41.00200
O  34.42200 58.22600 40.48200
C  33.17200 59.71100 41.66000
N  27.77800 58.00400 41.77200
C  28.80300 58.87600 42.06200
C  28.28400 60.32400 42.28700
C  26.78900 60.07300 42.52400
C  26.61900 58.58300 42.04200
C  29.05600 61.09400 43.38500
C  25.94800 61.15500 41.73700
C  24.73200 61.60800 42.56900
N  26.05500 55.73200 41.20100
C  25.09800 56.54800 41.65300
C  23.78000 55.88000 41.62100
C  24.02900 54.64700 40.99400
C  25.44000 54.61100 40.80100
C  22.42200 56.39500 42.04200
C  23.50200 53.36900 40.43700
O  22.35600 52.96900 40.43000
C  24.69200 52.69300 39.72300
C  24.70500 51.32500 40.34200
O  25.37500 51.03200 41.31100
O  23.97100 50.38000 39.67200
C  23.98000 49.02500 40.27900
H  31.49200 53.45400 39.66600
H  30.74400 59.55200 41.87800
H  24.53500 58.50000 42.25400
H  27.27500 51.29700 39.31700
H  29.70400 52.23900 38.13100
H  30.56200 51.22200 40.46700
H  30.40900 50.19300 39.01200
H  29.04600 50.22900 40.18400
H  26.26200 51.81900 37.19100
H  27.79600 51.54600 36.65300
H  27.92600 54.16000 36.83800
H  26.10300 53.99700 36.83100
H  33.11200 54.86800 38.98400
H  33.73600 54.46600 40.57000
H  34.35900 55.83800 39.76200
H  32.55300 60.21500 40.91800
H  34.11300 60.26000 41.62900
H  32.72400 59.74100 42.65300
H  28.50200 60.66600 41.27600
H  26.63400 60.05800 43.60300
H  29.70100 60.37200 43.88700
H  28.35700 61.46100 44.13600
H  29.66400 61.86400 42.91100
H  25.55000 60.78500 40.79200
H  26.62300 61.98000 41.51200
H  23.92600 61.65800 41.83700
H  24.92000 62.55300 43.08000
H  24.57500 60.85500 43.34100
H  21.85200 56.42100 41.11300
H  22.50600 57.36900 42.52400
H  22.01900 55.59000 42.65700
H  24.57000 52.47300 38.66200
H  23.36600 48.29500 39.75100
H  23.62800 49.15600 41.30200
H  25.01800 48.71000 40.17600

