158

Mg 48.50600 34.25500 26.25400
C  46.31300 33.22900 28.75200
C  49.21700 37.05200 28.22600
C  50.29900 35.59800 23.56700
C  47.27200 31.81600 24.08800
N  47.77100 35.09500 28.23700
C  47.03400 34.39200 29.11700
C  47.20300 35.01700 30.54300
C  47.63200 36.46400 30.20300
C  48.21200 36.23700 28.82000
C  46.52100 37.54600 30.31200
C  48.23700 34.26000 31.34300
C  47.74500 33.93600 32.78700
H  47.04800 35.05700 33.51500
N  49.75800 35.96500 26.05800
C  49.96800 36.94000 26.98900
C  51.02100 37.80200 26.52700
C  51.33200 37.47100 25.15000
C  50.47000 36.22500 24.87700
C  51.55100 38.94400 27.29000
C  52.24000 38.15700 24.06200
O  52.62500 37.64600 23.05800
C  52.70600 39.55100 24.36000
N  48.63100 33.89900 24.11500
C  49.50600 34.49500 23.23100
C  49.57900 33.78400 21.87200
C  48.80000 32.48600 22.20500
C  48.17300 32.75400 23.54700
C  48.94000 34.66900 20.68700
C  49.66900 31.23900 22.24000
C  49.00500 29.95100 21.61100
N  47.10200 32.79900 26.33300
C  46.67500 31.82100 25.35100
C  45.67900 30.88100 25.93700
C  45.56700 31.39800 27.28400
C  46.37900 32.56100 27.45700
C  45.00900 29.79200 25.22800
C  44.88200 31.20000 28.47400
O  44.05200 30.35000 28.76600
C  45.29300 32.37200 29.50900
C  45.62500 31.77300 30.81600
O  46.64100 31.08200 30.97200
O  44.67600 32.05100 31.76100
C  45.00500 31.58100 33.10000
H  49.45100 37.86000 28.92400
H  50.87300 36.12400 22.80100
H  47.11100 31.00200 23.37800
H  46.18700 34.94300 30.92900
H  48.36600 36.77100 30.94800
H  46.79200 38.13100 31.19100
H  45.49400 37.21600 30.46800
H  46.59900 38.25600 29.48800
H  49.21600 34.73900 31.34800
H  48.50800 33.37100 30.77300
H  48.61600 33.54900 33.31600
H  47.05100 33.10100 32.68600
H  51.41400 38.80200 28.36200
H  51.04700 39.86500 26.99600
H  52.62000 39.04100 27.10400
H  53.36400 39.91200 23.57000
H  53.34000 39.63700 25.24200
H  51.86300 40.24100 24.39400
H  50.59700 33.48900 21.61700
H  47.92400 32.29600 21.58400
H  48.08800 34.19200 20.20200
H  49.66600 34.95400 19.92600
H  48.56900 35.62000 21.07000
H  50.02500 30.94900 23.22900
H  50.47700 31.39300 21.52500
H  49.70600 29.27500 21.12200
H  48.19200 30.17900 20.92100
H  48.60400 29.42100 22.47500
H  44.35900 30.26300 24.49100
H  44.39200 29.11600 25.82000
H  45.76700 29.22500 24.68800
H  44.31000 32.82600 29.64200
H  44.62600 32.20200 33.91200
H  46.04700 31.30300 33.25900
H  44.48700 30.62300 33.14600
Mg -10.14700 39.34000 40.75200
C  -8.82200 36.31300 39.88100
C  -7.19700 40.92800 39.86000
C  -11.71000 42.35100 40.81900
C  -13.27500 37.77100 41.43100
N  -8.32500 38.74100 39.56900
C  -8.00100 37.43700 39.48200
C  -6.58400 37.34800 38.81400
C  -5.93900 38.68500 39.42000
C  -7.20500 39.53600 39.69800
C  -5.21700 38.51300 40.77000
C  -6.74800 37.38100 37.20800
C  -6.03100 36.26000 36.51700
H  -6.78000 35.70100 35.29700
N  -9.53200 41.30200 40.38400
C  -8.26100 41.75100 40.06600
C  -8.25400 43.15400 39.94600
C  -9.59800 43.58100 40.20800
C  -10.34400 42.41100 40.57100
C  -6.96800 43.88300 39.62100
C  -10.09900 44.96500 40.29000
O  -9.29100 45.82100 39.96700
C  -11.43400 45.42400 40.81500
N  -12.30800 39.97200 40.99300
C  -12.60400 41.27400 41.04800
C  -14.06700 41.50300 41.07000
C  -14.64300 40.02400 41.19700
C  -13.34700 39.17500 41.27200
C  -14.65800 42.44600 42.20400
C  -15.51700 39.54300 40.00700
C  -16.95600 39.49500 40.21200
N  -10.90400 37.37800 40.81300
C  -12.14100 36.86700 41.21900
C  -12.03600 35.42300 41.24000
C  -10.71100 35.18600 40.73200
C  -10.16300 36.35900 40.38900
C  -13.01100 34.42800 41.75500
C  -9.73700 34.11800 40.41000
O  -9.86700 32.89500 40.44200
C  -8.47400 34.84000 39.67200
C  -7.21400 34.33500 40.32700
O  -6.87500 34.50100 41.45200
O  -6.54200 33.54800 39.39000
C  -5.35400 32.80200 39.76200
H  -6.23900 41.42200 39.68600
H  -12.31200 43.25800 40.73300
H  -14.23600 37.28800 41.61800
H  -6.06900 36.43000 39.09600
H  -5.30700 39.19500 38.69300
H  -4.26300 39.04000 40.78500
H  -4.94600 37.47700 40.97400
H  -5.89300 38.87600 41.54500
H  -6.29100 38.28400 36.80500
H  -7.81500 37.35600 36.98700
H  -5.77400 35.40900 37.14800
H  -5.09200 36.68800 36.16500
H  -6.92400 44.36400 38.64400
H  -6.04700 43.33900 39.83200
H  -7.06300 44.74100 40.28600
H  -12.18100 45.53300 40.02900
H  -11.40600 46.44900 41.18600
H  -11.75700 44.85000 41.68300
H  -14.48600 42.09200 40.25300
H  -15.13400 39.97000 42.16900
H  -14.53900 43.47800 41.87300
H  -14.00300 42.31900 43.06600
H  -15.70900 42.27800 42.44100
H  -15.24300 38.53000 39.71200
H  -15.39800 40.20900 39.15200
H  -17.25800 39.79200 41.21600
H  -17.27100 38.45100 40.20500
H  -17.41900 39.92500 39.32300
H  -12.61700 33.41900 41.63400
H  -13.86900 34.50100 41.08700
H  -13.22500 34.51300 42.82000
H  -8.41000 34.66500 38.59800
H  -4.69400 32.78900 38.89500
H  -5.55200 31.80600 40.15700
H  -4.84800 33.27200 40.60500

