158

Mg 1.44100 8.17500 26.71200
C  1.88800 9.62800 29.83500
C  1.60100 5.15800 28.23800
C  1.23100 6.93700 23.61400
C  1.74500 11.36300 25.31800
N  1.81500 7.55300 28.80200
C  1.68900 8.26400 29.90500
C  1.61400 7.40600 31.17900
C  1.91000 6.00400 30.66000
C  1.75800 6.23700 29.10400
C  3.25200 5.30400 30.94500
C  0.26400 7.61100 31.91500
C  0.45400 8.08400 33.38600
H  1.59700 7.48800 34.22500
N  1.43700 6.31600 26.01900
C  1.41800 5.14400 26.80300
C  1.28500 4.02800 25.88700
C  1.21600 4.54400 24.56800
C  1.25600 5.97900 24.66100
C  1.22200 2.58700 26.46900
C  1.09600 3.75300 23.33000
O  0.87500 4.28700 22.21100
C  1.13300 2.28100 23.40600
N  1.35500 9.04800 24.73200
C  1.31500 8.30100 23.61800
C  1.53500 9.07600 22.36500
C  1.23900 10.47400 22.84100
C  1.48100 10.30300 24.38900
C  2.85500 8.96600 21.56400
C  -0.11600 11.03700 22.45000
C  -1.43500 10.57500 23.12200
N  1.79800 10.15000 27.34900
C  1.92000 11.33800 26.67700
C  2.08300 12.41700 27.59500
C  2.06400 11.77200 28.88700
C  1.94800 10.40300 28.67400
C  2.07700 13.90200 27.28500
C  2.23600 12.03900 30.29700
O  2.47800 13.04800 30.89600
C  2.01900 10.64300 31.01500
C  3.08600 10.41400 32.05600
O  4.17400 9.85100 31.88000
O  2.79300 11.22400 33.15500
C  3.81000 11.53300 34.19100
H  1.64500 4.15600 28.66900
H  1.43200 6.52900 22.62100
H  1.75100 12.35200 24.85500
H  2.48000 7.76100 31.73800
H  1.13400 5.29000 30.93700
H  4.15300 5.88600 31.13700
H  3.58300 4.77900 30.04900
H  3.12800 4.49000 31.65900
H  -0.31100 6.68800 31.84000
H  -0.24700 8.41000 31.37700
H  -0.50300 7.93500 33.88700
H  0.53900 9.17000 33.40800
H  0.42900 2.09500 25.90600
H  0.85500 2.56500 27.49500
H  2.14700 2.01500 26.38900
H  0.11800 1.89000 23.48200
H  1.76900 1.78800 24.14200
H  1.57600 2.10600 22.42600
H  0.61800 8.73400 21.88500
H  1.93500 11.23400 22.48600
H  3.37500 8.02700 21.75500
H  3.60200 9.73500 21.75900
H  2.55200 9.09600 20.52500
H  -0.26000 11.20600 21.38300
H  -0.02000 12.02200 22.90700
H  -1.88400 11.28300 23.81900
H  -1.19400 9.69600 23.72000
H  -2.17500 10.29400 22.37300
H  2.37400 14.05100 26.24700
H  2.87700 14.34300 27.88000
H  1.09400 14.20000 27.65000
H  1.07700 10.62500 31.56300
H  4.77000 11.07100 33.96100
H  3.47100 11.01200 35.08600
H  3.77600 12.62300 34.20700
Mg 26.71300 50.88500 26.33100
C  25.09000 52.21100 29.11100
C  29.23200 50.17800 28.41000
C  28.51600 50.06900 23.70100
C  24.37300 52.53100 24.24000
N  26.97700 50.95500 28.63300
C  26.19300 51.46200 29.56000
C  26.80500 51.21400 30.94000
C  28.25700 50.76700 30.65200
C  28.16500 50.63300 29.15400
C  29.31600 51.85800 31.16700
C  26.10600 50.07900 31.76000
C  25.48600 50.49900 33.07100
H  26.21500 51.18800 34.19500
N  28.64000 50.04200 26.08000
C  29.51900 49.85400 27.09100
C  30.65400 49.14900 26.55800
C  30.40400 48.90800 25.14300
C  29.18900 49.74500 24.90400
C  31.69700 48.43100 27.46500
C  31.20000 48.14900 24.06400
O  30.85500 48.09500 22.89300
C  32.51300 47.51700 24.51600
N  26.55800 51.41000 24.23500
C  27.38400 50.80200 23.35600
C  26.98800 51.11600 21.87500
C  25.47500 51.68400 22.05800
C  25.40600 51.81700 23.59400
C  27.95100 51.84900 20.94000
C  24.37300 50.76300 21.39500
C  23.68400 51.29600 20.11500
N  25.07600 52.17900 26.49700
C  24.13100 52.70900 25.61100
C  23.09800 53.28000 26.34500
C  23.44000 53.09000 27.68200
C  24.65200 52.42600 27.75600
C  21.91100 53.99100 25.76100
C  23.02400 53.42000 29.08000
O  22.03600 54.08700 29.49300
C  24.00000 52.82100 29.99400
C  24.53200 53.95800 30.86800
O  25.54200 54.56300 30.71200
O  23.71800 53.99500 31.99500
C  24.24000 54.68500 33.18500
H  30.07600 50.01200 29.08400
H  29.09500 49.71100 22.84700
H  23.50900 52.84400 23.65000
H  26.70600 52.11000 31.55300
H  28.60200 49.92400 31.25100
H  29.82300 52.33900 30.33000
H  30.07100 51.33900 31.75800
H  28.89200 52.57500 31.87100
H  26.80400 49.31700 32.10700
H  25.29600 49.61100 31.20200
H  25.15300 49.52700 33.43400
H  24.58100 51.06400 32.84700
H  32.61100 48.95900 27.19400
H  31.86300 47.38500 27.20400
H  31.42700 48.65800 28.49600
H  33.04600 48.29300 25.06500
H  33.00300 47.27000 23.57400
H  32.38700 46.62200 25.12500
H  26.86500 50.14700 21.39200
H  25.29900 52.67300 21.63700
H  28.70900 52.28200 21.59300
H  27.42800 52.71500 20.53600
H  28.41300 51.14800 20.24400
H  23.58300 50.64800 22.13700
H  24.80500 49.78400 21.18700
H  23.99300 50.65000 19.29300
H  23.96200 52.32300 19.87900
H  22.59800 51.20600 20.15900
H  21.15800 53.98100 26.54900
H  21.54300 53.55200 24.83400
H  22.31200 55.00200 25.69200
H  23.53200 52.01100 30.55300
H  24.30400 55.74500 32.93700
H  25.22500 54.23800 33.31400
H  23.70300 54.45100 34.10400

