158

Mg 24.40100 -5.30100 46.30200
C  26.51700 -2.98200 44.36800
C  21.81800 -4.49200 44.28700
C  23.03700 -8.15400 47.28700
C  27.47700 -6.28000 47.88600
N  24.27400 -4.09000 44.43100
C  25.16800 -3.07800 44.00800
C  24.53100 -2.34900 42.85800
C  23.02200 -2.47000 43.21000
C  22.99800 -3.73100 44.00800
C  22.37800 -1.28400 44.06300
C  24.93100 -2.82600 41.39500
C  25.57800 -1.72200 40.49100
H  25.43000 -1.83800 38.96500
N  22.59400 -6.07400 45.99300
C  21.62700 -5.62200 45.09900
C  20.52500 -6.58900 45.08100
C  20.82800 -7.61700 46.03700
C  22.17800 -7.30500 46.51000
C  19.41000 -6.59200 44.04500
C  19.98800 -8.84800 46.33300
O  18.87800 -8.97100 45.79100
C  20.35700 -9.91600 47.25900
N  25.17400 -6.96300 47.45900
C  24.36800 -7.99300 47.72600
C  24.98700 -8.94600 48.75600
C  26.33600 -8.22000 49.17000
C  26.33500 -7.07900 48.12300
C  24.05200 -9.53500 49.88000
C  27.58500 -9.20900 49.11200
C  28.58000 -9.08000 50.25700
N  26.53600 -4.67500 46.37200
C  27.57600 -5.17600 47.06800
C  28.77800 -4.36600 46.79700
C  28.38400 -3.53400 45.77400
C  27.05000 -3.77400 45.50900
C  30.13200 -4.56800 47.49900
C  28.74600 -2.41600 44.91100
O  29.76600 -1.78200 44.90500
C  27.64300 -2.11900 43.83900
C  27.39200 -0.67100 43.99800
O  27.17800 -0.03400 45.04000
O  27.49200 -0.07100 42.73600
C  27.27500 1.40900 42.74200
H  20.96700 -4.09400 43.72900
H  22.70000 -9.16200 47.53900
H  28.29700 -6.39200 48.59900
H  24.67000 -1.26800 42.84700
H  22.41700 -2.51200 42.30400
H  23.10400 -0.53200 44.36900
H  21.78700 -1.62800 44.91200
H  21.62900 -0.79400 43.44100
H  24.20700 -3.42300 40.84200
H  25.69100 -3.55100 41.68700
H  26.65100 -1.65800 40.67400
H  25.10900 -0.85200 40.95000
H  19.60100 -7.24900 43.19700
H  19.25100 -5.57300 43.69000
H  18.50100 -7.00300 44.48400
H  19.58800 -10.68700 47.29900
H  20.49800 -9.48900 48.25200
H  21.22700 -10.42300 46.84100
H  25.25300 -9.83800 48.18900
H  26.26500 -7.69200 50.12100
H  24.56600 -9.55100 50.84100
H  23.92300 -10.60600 49.72100
H  23.12600 -8.96100 49.92800
H  28.10100 -9.18000 48.15200
H  27.05000 -10.15500 49.20300
H  28.33300 -9.85800 50.97900
H  28.53200 -8.09600 50.72200
H  29.60000 -9.30600 49.94500
H  30.21000 -4.11200 48.48600
H  30.93200 -4.13700 46.89700
H  30.24800 -5.64500 47.61400
H  28.05300 -2.38800 42.86600
H  26.46100 1.58900 43.44400
H  27.04500 1.77800 41.74200
H  28.21500 1.88900 43.01200
Mg 34.63700 2.79900 29.96800
C  32.18200 3.77600 32.29800
C  37.11800 3.24200 32.36400
C  36.88500 1.77500 27.70700
C  32.23500 3.19400 27.43700
N  34.65700 3.69500 32.12000
C  33.53500 3.95100 32.85100
C  33.88100 3.97700 34.30800
C  35.48300 4.09700 34.26800
C  35.81500 3.60500 32.81400
C  36.21900 5.46800 34.48900
C  33.36400 2.59800 34.95500
C  33.38200 2.59100 36.47900
H  33.90900 3.80300 37.28000
N  36.71400 2.52900 30.00000
C  37.57200 2.76100 31.11400
C  38.92400 2.33700 30.80300
C  38.90500 1.86000 29.45300
C  37.46100 2.06600 28.97900
C  40.09800 2.46900 31.74200
C  40.07800 1.28700 28.67600
O  40.02100 0.92300 27.51100
C  41.45500 1.15900 29.29700
N  34.58000 2.49900 27.92100
C  35.62700 2.01900 27.15800
C  35.33800 2.22000 25.70900
C  33.72900 2.31000 25.74000
C  33.47900 2.73100 27.10000
C  36.01700 3.57400 25.35200
C  33.05800 0.96900 25.36000
C  33.15900 0.65500 23.86900
N  32.59200 3.25300 29.88200
C  31.80300 3.48000 28.78000
C  30.44900 3.75000 29.20300
C  30.56900 3.86600 30.57600
C  31.90200 3.60800 30.93300
C  29.20500 3.83900 28.30100
C  29.80200 4.10900 31.78300
O  28.58200 4.31400 31.97800
C  30.83800 4.00300 32.94200
C  30.81600 5.25200 33.66400
O  31.23500 6.36200 33.24900
O  30.15200 5.06200 34.79700
C  30.23400 6.09100 35.81200
H  37.78000 3.25500 33.23200
H  37.65500 1.49000 26.98700
H  31.50100 3.20500 26.62800
H  33.36400 4.86600 34.66900
H  35.82700 3.52300 35.12800
H  35.55400 6.17900 34.98100
H  36.37000 5.89500 33.49800
H  37.14700 5.33400 35.04500
H  34.06600 1.84400 34.59900
H  32.38800 2.27400 34.59400
H  34.07600 1.78000 36.70200
H  32.35800 2.42000 36.81000
H  40.83600 3.08000 31.22300
H  40.53500 1.52400 32.06500
H  39.75700 2.95500 32.65600
H  41.69300 2.13400 29.72200
H  42.16000 0.85500 28.52400
H  41.49200 0.34200 30.01800
H  35.79400 1.41500 25.13300
H  33.43600 3.13600 25.09200
H  36.71500 3.96900 26.09000
H  35.25900 4.31800 25.10600
H  36.60800 3.36600 24.46000
H  32.01000 0.89200 25.64900
H  33.53000 0.22900 26.00700
H  32.39300 1.14600 23.26900
H  33.13300 -0.41400 23.65800
H  34.16300 0.95200 23.56600
H  28.80700 2.83500 28.14900
H  29.45900 4.52400 27.49200
H  28.37300 4.34900 28.78700
H  30.58000 3.18300 33.61200
H  31.23500 6.32400 36.17500
H  29.69000 5.85700 36.72700
H  29.65000 6.96600 35.52700

