158

Mg 43.53500 2.99100 46.77200
C  42.88700 6.24900 45.52700
C  40.32100 2.18200 45.88000
C  44.34700 -0.26200 47.44500
C  47.01800 3.93200 47.04100
N  41.88900 4.02100 45.75000
C  41.81400 5.37300 45.43400
C  40.37500 5.79900 44.94800
C  39.60500 4.49300 45.19000
C  40.65000 3.55600 45.75100
C  38.32900 4.67100 46.02800
C  40.49400 6.12400 43.45100
C  39.73800 7.30500 42.93100
H  38.73500 7.09900 41.73800
N  42.53900 1.16300 46.72000
C  41.21700 1.05700 46.28500
C  40.88200 -0.31800 46.26400
C  41.94800 -1.08300 46.69700
C  43.01500 -0.08900 47.03300
C  39.70100 -0.88400 45.57100
C  42.02000 -2.57500 46.76000
O  40.98500 -3.18900 46.60000
C  43.25400 -3.22700 47.10500
N  45.34900 2.00100 47.16000
C  45.39200 0.63500 47.52500
C  46.69800 0.27900 48.13100
C  47.62600 1.53700 47.84000
C  46.63300 2.60000 47.35500
C  46.59500 -0.06700 49.64100
C  48.81300 1.24900 46.88400
C  48.65200 0.44200 45.59600
N  44.79100 4.70500 46.36700
C  46.12200 4.91500 46.51400
C  46.35800 6.33000 46.15400
C  45.10900 6.92700 45.91400
C  44.21400 5.88400 45.96700
C  47.69600 6.99400 45.97900
C  44.47700 8.19700 45.58200
O  44.96600 9.28900 45.40100
C  42.98800 7.76200 45.27700
C  42.13900 8.49000 46.25900
O  41.90300 8.09700 47.37300
O  41.74800 9.67100 45.73500
C  40.79700 10.44300 46.51300
H  39.26600 1.93900 45.74000
H  44.88300 -1.20400 47.57300
H  48.04700 4.29400 47.07600
H  40.02100 6.67000 45.49900
H  39.25100 4.11700 44.23100
H  37.45200 4.79100 45.39200
H  38.32600 5.53600 46.69000
H  38.12800 3.78000 46.62300
H  40.08900 5.31500 42.84300
H  41.54000 6.29700 43.19900
H  40.45800 8.07000 42.63900
H  39.09600 7.78600 43.66900
H  38.96900 -1.36100 46.22400
H  39.98900 -1.50100 44.71900
H  39.02900 -0.11300 45.19300
H  43.30100 -3.17600 48.19300
H  44.07800 -2.78400 46.54600
H  43.24700 -4.25200 46.73300
H  47.11200 -0.59600 47.63000
H  48.00700 1.93300 48.78100
H  45.62700 0.23700 50.03900
H  47.40900 0.45200 50.14600
H  46.76700 -1.13800 49.75600
H  49.66900 0.85900 47.43400
H  49.11100 2.25900 46.60200
H  49.11500 0.87400 44.70800
H  47.59300 0.58800 45.38200
H  49.05200 -0.56100 45.74100
H  48.29500 6.82900 46.87400
H  47.56900 8.05400 45.75700
H  48.22200 6.60800 45.10600
H  42.82300 8.11300 44.25800
H  41.23200 11.09200 47.27300
H  40.06900 9.78300 46.98600
H  40.16400 11.00500 45.82700
Mg 16.11400 51.61100 25.88600
C  18.09700 50.52900 28.51500
C  13.49900 52.14600 27.93600
C  14.28600 52.43100 23.18400
C  18.70300 50.50600 23.61300
N  15.87400 51.30700 27.86200
C  16.82500 50.94000 28.82600
C  16.34800 51.32800 30.19400
C  14.74100 51.45700 29.96900
C  14.62100 51.46400 28.48500
C  13.89700 50.26800 30.62000
C  16.98400 52.59900 30.77700
C  17.05000 52.74300 32.31900
H  16.17200 51.76400 33.12500
N  14.14800 52.24500 25.58600
C  13.21700 52.36400 26.58100
C  11.93200 52.87300 26.04000
C  12.14700 52.94500 24.63900
C  13.56600 52.54100 24.38400
C  10.86100 53.44300 26.88400
C  11.22000 53.36200 23.49900
O  11.50000 53.28700 22.30100
C  9.71900 53.83500 23.85500
N  16.51300 51.49700 23.67600
C  15.60900 52.01100 22.83800
C  16.09400 51.87600 21.37800
C  17.57100 51.33000 21.55500
C  17.59500 51.09200 23.02500
C  15.18900 51.00700 20.45700
C  18.72400 52.29800 21.01900
C  19.78900 51.50800 20.17100
N  17.98700 50.55000 25.99800
C  18.97500 50.26800 24.99600
C  20.10200 49.67400 25.71200
C  19.82000 49.79600 27.09400
C  18.54400 50.25700 27.16800
C  21.31100 49.13700 25.03700
C  20.36500 49.67700 28.46000
O  21.42500 49.26100 28.87000
C  19.24200 50.12300 29.43900
C  18.86100 49.10900 30.38000
O  18.38000 48.04100 30.06400
O  19.27900 49.47900 31.63400
C  19.22300 48.44100 32.67600
H  12.90200 52.53300 28.76500
H  13.74000 52.69600 22.27600
H  19.54600 50.26100 22.96400
H  16.68300 50.51000 30.83200
H  14.39000 52.40300 30.38200
H  14.50400 49.58000 31.20900
H  13.45400 49.73600 29.77900
H  13.09700 50.67600 31.23700
H  16.49800 53.45800 30.31400
H  17.99900 52.60300 30.38000
H  16.91000 53.79800 32.55500
H  18.09900 52.56300 32.55500
H  10.54700 54.43400 26.55600
H  11.13500 53.40100 27.93800
H  10.02800 52.75300 26.74900
H  9.14700 53.17500 24.50700
H  9.24400 53.92400 22.87800
H  9.86000 54.83100 24.27500
H  16.00800 52.84000 20.87500
H  17.60200 50.29800 21.20700
H  14.54600 50.44000 21.13100
H  15.77600 50.29000 19.88300
H  14.58400 51.51200 19.70400
H  19.25500 52.75200 21.85600
H  18.41400 53.07300 20.31700
H  19.51200 51.73300 19.14100
H  19.69300 50.43600 20.34600
H  20.79400 51.80700 20.46800
H  22.07900 48.98400 25.79400
H  21.60500 49.66500 24.13000
H  21.07000 48.16500 24.60600
H  19.53200 51.02100 29.98300
H  19.62500 47.51900 32.25400
H  18.28900 48.38400 33.23400
H  19.91500 48.68800 33.48100

