158

Mg -0.85100 17.77400 27.77800
C  -1.72600 15.63800 30.43700
C  -1.67500 20.31000 29.77800
C  -0.77900 19.67800 25.05700
C  -0.63400 14.99900 25.68400
N  -1.66200 17.99400 29.93400
C  -1.91100 16.98600 30.79100
C  -2.09400 17.54600 32.19400
C  -2.18900 19.05300 31.91500
C  -1.87100 19.10400 30.44200
C  -3.61600 19.61600 32.32100
C  -0.96200 17.12100 33.17300
C  -0.51900 18.22000 34.29500
H  0.45100 17.70200 35.30400
N  -1.04100 19.76100 27.55700
C  -1.31700 20.69400 28.49300
C  -1.17700 21.98300 27.90600
C  -0.99300 21.86600 26.50300
C  -0.93700 20.38400 26.34000
C  -1.45400 23.26200 28.65800
C  -0.72500 22.87600 25.37900
O  -0.67100 22.49900 24.21900
C  -0.71700 24.33200 25.70800
N  -0.69600 17.40900 25.71100
C  -0.61400 18.39900 24.77200
C  -0.50400 17.86900 23.32400
C  -0.08600 16.42400 23.63800
C  -0.50900 16.24900 25.10300
C  -1.77400 18.16300 22.52200
C  1.34700 16.21500 23.36800
C  2.40500 16.62200 24.38900
N  -1.13700 15.78300 27.99400
C  -0.95200 14.77200 27.02400
C  -1.25800 13.40700 27.60000
C  -1.53200 13.67800 28.97900
C  -1.42700 15.15900 29.13000
C  -1.36600 12.18200 26.82600
C  -1.82800 13.09900 30.25400
O  -1.89200 11.91500 30.53500
C  -1.91900 14.34400 31.32400
C  -0.68500 14.12200 32.21100
O  0.38800 14.64000 32.03600
O  -1.10600 13.43200 33.34500
C  -0.15300 13.46100 34.43700
H  -1.91300 21.09800 30.49500
H  -0.95100 20.23300 24.13300
H  -0.52700 14.15000 25.00500
H  -3.07700 17.16300 32.46800
H  -1.44300 19.59100 32.50100
H  -4.28000 19.39300 31.48600
H  -3.46100 20.67900 32.50900
H  -4.05300 19.19000 33.22400
H  -0.05100 16.93200 32.60400
H  -1.26200 16.28000 33.79800
H  -1.39600 18.75800 34.65500
H  0.18200 18.93400 33.86200
H  -2.10800 23.84500 28.00900
H  -0.47800 23.72100 28.81400
H  -1.98700 23.00100 29.57200
H  -0.22400 24.94400 24.95300
H  -0.15900 24.53300 26.62200
H  -1.74000 24.68700 25.82800
H  0.34800 18.41500 22.92100
H  -0.70100 15.64300 23.19100
H  -2.24100 17.21000 22.27500
H  -1.46300 18.80200 21.69500
H  -2.51300 18.78000 23.03300
H  1.62400 16.69600 22.43100
H  1.45200 15.15300 23.14300
H  2.89300 17.50500 23.97600
H  2.92500 15.67100 24.50700
H  2.02800 16.97500 25.34800
H  -0.52300 12.02400 26.15300
H  -2.31400 12.15700 26.28700
H  -1.33900 11.34600 27.52500
H  -2.89900 14.37500 31.79900
H  0.11900 12.51300 34.90100
H  -0.70500 14.01100 35.20000
H  0.80200 13.94400 34.23000
Mg 42.00600 7.89500 29.93300
C  43.79600 9.45100 32.39300
C  39.88300 6.57000 32.25500
C  40.30100 6.49600 27.45500
C  44.84600 8.34100 27.68900
N  42.05500 7.90900 32.08900
C  42.66200 8.83000 32.83900
C  42.08800 8.82000 34.31200
C  40.81200 7.82400 34.21900
C  40.98900 7.33800 32.81400
C  40.80900 6.62800 35.28000
C  41.73400 10.23300 34.88400
C  42.44900 10.68700 36.21200
H  41.55600 11.36700 37.30300
N  40.31000 6.80800 29.87700
C  39.55100 6.33100 30.92500
C  38.39900 5.60300 30.43000
C  38.38200 5.74500 29.02200
C  39.72600 6.32500 28.74800
C  37.43900 4.89800 31.38100
C  37.24400 5.33200 28.02200
O  37.49800 5.31200 26.82300
C  35.90700 5.19500 28.56500
N  42.64400 7.22300 27.89200
C  41.64200 6.88200 27.12500
C  42.15800 6.79200 25.63900
C  43.67600 7.29100 25.74100
C  43.80200 7.58500 27.21700
C  42.03800 5.32800 25.03500
C  43.96100 8.36000 24.76500
C  43.28900 9.73200 25.14100
N  43.95700 8.73300 29.98300
C  44.96800 8.81600 29.04900
C  45.97700 9.69300 29.58800
C  45.65300 9.93700 30.95500
C  44.40200 9.35500 31.15000
C  47.09200 10.31100 28.77200
C  46.04800 10.64600 32.16300
O  46.97200 11.40900 32.40100
C  44.83900 10.26200 33.22500
C  45.38300 9.45000 34.37300
O  45.45500 8.21300 34.59600
O  45.91400 10.40300 35.21900
C  46.32400 9.97700 36.57700
H  39.06000 6.35900 32.94000
H  39.75500 6.16400 26.57000
H  45.58900 8.58600 26.92800
H  42.89400 8.32000 34.84900
H  39.86100 8.33000 34.05000
H  39.75500 6.55000 35.54600
H  41.49600 6.97600 36.05100
H  41.29600 5.79700 34.77000
H  40.65200 10.35800 34.92700
H  42.01300 10.99500 34.15700
H  43.27100 11.36400 35.98200
H  42.93500 9.82400 36.66700
H  36.92400 4.09700 30.85000
H  36.72400 5.54700 31.88600
H  38.03200 4.31600 32.08600
H  35.76100 6.10700 29.14400
H  35.89300 4.31300 29.20600
H  35.10300 4.97700 27.86300
H  41.47400 7.38700 25.03300
H  44.39400 6.53000 25.43800
H  41.74900 4.75800 25.91800
H  42.98200 4.95300 24.63900
H  41.27900 5.15700 24.27200
H  43.53500 7.98900 23.83300
H  45.03500 8.53200 24.69100
H  42.71300 9.71000 26.06600
H  42.67300 10.04700 24.29900
H  44.08700 10.47400 25.18200
H  46.83300 11.16800 28.15000
H  47.59900 9.61100 28.10900
H  47.77700 10.69900 29.52600
H  44.34200 11.15200 33.61000
H  46.89500 9.04900 36.60600
H  45.49400 9.75100 37.24500
H  46.99900 10.77400 36.89000

