158

Mg -0.10700 7.95300 27.46800
C  0.75400 10.19900 30.04300
C  0.28400 5.38400 29.86200
C  -0.63200 5.82000 25.00300
C  0.24500 10.65400 25.22400
N  0.43500 7.76000 29.71800
C  0.53000 8.90100 30.56600
C  0.52500 8.50900 32.02400
C  0.79800 6.94600 31.94700
C  0.52500 6.64600 30.42900
C  2.22800 6.49600 32.33400
C  -0.86300 8.84600 32.66900
C  -0.83100 9.17700 34.22300
H  0.43400 8.86100 34.97500
N  -0.28200 5.88900 27.50000
C  -0.09200 5.01600 28.51700
C  -0.27000 3.63300 27.97500
C  -0.62800 3.75100 26.59700
C  -0.55900 5.20900 26.28800
C  -0.20300 2.41600 28.85700
C  -1.00000 2.60900 25.60300
O  -1.32400 2.80700 24.43700
C  -0.92500 1.17700 26.04200
N  -0.16600 8.23100 25.46800
C  -0.44300 7.19500 24.56200
C  -0.30300 7.68900 23.07600
C  -0.47100 9.22400 23.27400
C  -0.10700 9.41200 24.75500
C  1.02300 7.21500 22.31500
C  -1.91100 9.86000 22.85700
C  -1.98400 10.95400 21.77200
N  0.37400 9.94700 27.56100
C  0.48600 10.94000 26.54800
C  0.89400 12.14400 27.16800
C  0.93300 11.87800 28.50000
C  0.64200 10.55600 28.71900
C  1.18300 13.53300 26.49000
C  1.16500 12.52700 29.76400
O  1.42600 13.71100 29.97500
C  1.00300 11.41700 30.82800
C  2.23300 11.45700 31.64000
O  3.24600 10.86100 31.34300
O  2.06500 12.23300 32.75300
C  3.26400 12.42800 33.60300
H  0.27400 4.61500 30.63700
H  -0.74400 5.11400 24.17800
H  0.26400 11.55900 24.61400
H  1.34700 9.01000 32.53500
H  0.01500 6.54800 32.59100
H  2.92800 7.28800 32.60200
H  2.67500 6.00500 31.47000
H  2.27400 5.69900 33.07700
H  -1.64500 8.16500 32.33200
H  -1.17200 9.77000 32.18000
H  -1.73100 8.68400 34.58800
H  -1.11200 10.22400 34.33800
H  -1.18900 2.07900 29.17600
H  0.27800 2.67600 29.80000
H  0.35100 1.64300 28.32600
H  -1.68300 0.90000 26.77400
H  0.10900 1.00100 26.33900
H  -1.05300 0.50200 25.19600
H  -1.18100 7.24800 22.60300
H  0.30600 9.82400 22.80100
H  0.81300 6.58900 21.44700
H  1.61900 6.62800 23.01400
H  1.59600 8.11700 22.10400
H  -2.36600 10.26200 23.76200
H  -2.53500 9.02300 22.54600
H  -2.52100 10.56000 20.90900
H  -1.00700 11.34200 21.48200
H  -2.48300 11.83800 22.16900
H  0.54800 13.84000 25.66000
H  2.20400 13.60200 26.11500
H  0.97200 14.24300 27.28900
H  0.22600 11.75300 31.51400
H  3.06200 12.08200 34.61700
H  3.55000 13.47300 33.72100
H  4.14300 11.85800 33.30100
Mg 40.65700 9.31200 29.27000
C  42.49600 10.00100 32.08100
C  38.31000 7.70700 31.21400
C  39.14100 8.49500 26.36000
C  43.34400 10.64100 27.26700
N  40.53900 8.75800 31.32800
C  41.30400 9.31400 32.35800
C  40.65700 9.15100 33.72600
C  39.54900 8.15200 33.41700
C  39.44400 8.15700 31.90300
C  39.84800 6.82200 34.12200
C  40.11300 10.48300 34.34400
C  40.19200 10.51900 35.83900
H  40.88800 11.56500 36.70200
N  39.06900 8.11500 28.85200
C  38.19300 7.56600 29.79600
C  37.13700 6.82400 29.08800
C  37.22800 7.28600 27.73200
C  38.51000 7.97400 27.57700
C  36.04900 6.08100 29.85500
C  36.12300 7.35500 26.66800
O  36.38200 7.81400 25.59600
C  34.78300 6.81100 26.99400
N  41.24000 9.58100 27.01000
C  40.36000 9.20700 26.09700
C  40.93100 9.65300 24.69200
C  42.33600 10.33200 24.99300
C  42.32900 10.21600 26.49400
C  41.03200 8.50900 23.73000
C  42.54100 11.74400 24.39800
C  41.46000 12.80600 24.86900
N  42.53600 10.03400 29.58000
C  43.38900 10.76400 28.67800
C  44.40600 11.46800 29.50400
C  44.11800 11.05900 30.77700
C  42.97000 10.29200 30.79900
C  45.57400 12.29700 29.03700
C  44.55200 11.38700 32.14700
O  45.53600 12.10300 32.54500
C  43.46100 10.63300 33.05900
C  44.11600 9.74400 33.95500
O  44.63400 8.69800 33.66700
O  44.18700 10.19900 35.21700
C  44.99400 9.58500 36.24500
H  37.56900 7.19600 31.83200
H  38.58900 8.31600 25.43500
H  44.17400 11.01300 26.66300
H  41.48200 8.82400 34.35800
H  38.63000 8.50400 33.88600
H  39.24700 6.11400 33.55200
H  39.57800 6.85200 35.17800
H  40.90800 6.62100 33.96800
H  39.09700 10.78700 34.09000
H  40.72700 11.32400 34.02200
H  40.55700 9.54400 36.16000
H  39.15400 10.40900 36.15600
H  35.11900 6.64200 29.93700
H  36.49600 5.80200 30.80900
H  35.70700 5.18900 29.33000
H  34.83200 6.03100 27.75300
H  34.56400 6.30500 26.05400
H  34.17700 7.70400 27.14600
H  40.37500 10.48400 24.25800
H  43.12000 9.62400 24.72300
H  41.26000 7.54600 24.18600
H  41.91000 8.78900 23.14700
H  40.15100 8.55300 23.09100
H  42.67100 11.74900 23.31500
H  43.46800 12.09000 24.85700
H  41.98400 13.75300 24.73900
H  41.07300 12.51300 25.84500
H  40.62900 12.86400 24.16600
H  45.74400 13.19100 29.63800
H  45.31200 12.65800 28.04200
H  46.48400 11.70300 28.95700
H  42.89800 11.34700 33.66000
H  44.55100 9.44200 37.23100
H  45.76200 10.34300 36.39600
H  45.50900 8.65900 35.99000

