158

Mg 7.98100 3.66500 27.96900
C  9.47500 2.24400 30.74700
C  6.33000 5.82100 29.81900
C  6.56900 4.74300 25.09800
C  9.19900 0.89000 26.11600
N  7.81000 3.95600 30.05300
C  8.62500 3.35400 31.03000
C  8.32000 4.00600 32.42900
C  7.16500 4.99500 32.11900
C  7.03500 4.85900 30.58800
C  5.80400 4.76500 32.89800
C  9.61900 4.61800 33.06700
C  10.20600 4.12400 34.34200
H  10.53400 5.13100 35.48600
N  6.67900 5.13600 27.53800
C  6.24400 6.07800 28.41800
C  5.59400 7.19700 27.76400
C  5.66100 6.87400 26.38700
C  6.34400 5.54500 26.29600
C  5.00800 8.42500 28.56500
C  5.16600 7.66000 25.20700
O  5.22000 7.20200 24.05200
C  4.28200 8.81400 25.33800
N  7.87700 2.88000 25.95400
C  7.18000 3.56600 24.96500
C  7.48800 2.95800 23.63300
C  8.31100 1.73400 23.94700
C  8.49400 1.83800 25.45800
C  6.25900 2.65900 22.71100
C  9.61500 1.62600 23.13900
C  9.48500 0.65600 22.01900
N  9.18700 1.89200 28.28000
C  9.56300 0.85200 27.51600
C  10.33500 -0.11200 28.21100
C  10.37900 0.43500 29.50300
C  9.73100 1.64600 29.47300
C  10.87300 -1.41200 27.73300
C  10.88700 0.23700 30.88600
O  11.58600 -0.65000 31.41900
C  10.32400 1.47200 31.76100
C  9.67500 0.92100 32.95400
O  8.59300 0.42600 33.06300
O  10.63000 0.90700 33.95100
C  10.33600 0.37300 35.27800
H  5.99200 6.58200 30.52500
H  6.19400 5.13100 24.14900
H  9.77300 0.10300 25.62300
H  7.97900 3.20700 33.08800
H  7.37300 6.05100 32.29400
H  4.93200 4.64900 32.25400
H  5.58000 5.72200 33.36900
H  5.84700 4.01700 33.69000
H  9.49300 5.69000 33.22200
H  10.38000 4.45400 32.30400
H  11.15300 3.67000 34.04800
H  9.42500 3.48400 34.75300
H  3.93400 8.26600 28.66200
H  5.37600 9.30700 28.04200
H  5.37900 8.39500 29.58900
H  4.15400 9.29500 24.36900
H  4.81600 9.54900 25.94200
H  3.31300 8.44900 25.67700
H  8.02900 3.80300 23.20700
H  7.66700 0.87000 23.78500
H  6.21200 1.59600 22.47500
H  6.37800 3.24000 21.79700
H  5.33900 2.98400 23.19700
H  10.36500 1.33900 23.87600
H  9.97000 2.57700 22.74300
H  10.08300 0.98600 21.17000
H  8.45300 0.43600 21.74400
H  9.83400 -0.24000 22.53100
H  11.88300 -1.53000 28.12500
H  10.84800 -1.66200 26.67200
H  10.27400 -2.18000 28.22400
H  11.11800 2.14500 32.08400
H  9.84800 1.19000 35.81000
H  11.28100 -0.05200 35.61800
H  9.54700 -0.37700 35.33100
Mg -12.15300 38.53500 41.59000
C  -9.62600 36.26000 40.94500
C  -10.41500 40.92100 39.82200
C  -14.81200 40.64000 41.84200
C  -14.22300 35.97000 42.74000
N  -10.42600 38.48600 40.13000
C  -9.47200 37.48000 40.19200
C  -8.19100 37.87900 39.53700
C  -8.47300 39.40900 39.13500
C  -9.83700 39.67400 39.75700
C  -7.25700 40.33700 39.50400
C  -7.72700 36.95100 38.35400
C  -6.27900 36.40500 38.43400
H  -5.50900 36.44400 37.09500
N  -12.56600 40.53800 40.87700
C  -11.65900 41.38400 40.24100
C  -12.33800 42.61100 39.88800
C  -13.58500 42.61600 40.52700
C  -13.71700 41.19000 41.09400
C  -11.63000 43.75000 39.06800
C  -14.58200 43.79700 40.56600
O  -14.26400 44.86200 40.04600
C  -15.95300 43.76600 41.07400
N  -14.36300 38.24800 41.99100
C  -15.16300 39.32200 42.18200
C  -16.53900 38.90100 42.73300
C  -16.38400 37.28900 42.89500
C  -14.94800 37.12200 42.50400
C  -16.95000 39.65400 44.04000
C  -17.36300 36.39400 42.02600
C  -18.61500 35.92200 42.76100
N  -12.07000 36.44600 41.76500
C  -12.93400 35.56300 42.41700
C  -12.17500 34.32600 42.61900
C  -10.88500 34.58600 42.16500
C  -10.90000 35.81700 41.55600
C  -12.60800 33.17400 43.43500
C  -9.47500 34.08300 42.03500
O  -9.08200 32.98000 42.36100
C  -8.69000 35.08100 41.17600
C  -7.40600 35.37700 41.90900
O  -6.35900 34.74200 41.68300
O  -7.49700 36.49800 42.66600
C  -6.21900 36.88700 43.29400
H  -9.72800 41.67300 39.42800
H  -15.60900 41.31800 42.15600
H  -14.89500 35.21900 43.16100
H  -7.45200 37.81700 40.33600
H  -8.53500 39.47600 38.04900
H  -6.64500 39.78000 40.21400
H  -7.51800 41.35100 39.80600
H  -6.61000 40.55600 38.65400
H  -7.84000 37.60600 37.49000
H  -8.39900 36.13400 38.09200
H  -6.17700 35.40500 38.85700
H  -5.75600 37.02700 39.15900
H  -12.32200 44.26100 38.39900
H  -11.07800 43.22800 38.28600
H  -10.84700 44.31300 39.57700
H  -16.48800 42.96300 40.56700
H  -16.49500 44.70600 40.97600
H  -16.01100 43.46900 42.12100
H  -17.22000 39.16500 41.92400
H  -16.43300 37.06700 43.96100
H  -17.41500 40.59900 43.75700
H  -16.07000 39.91800 44.62600
H  -17.60200 39.06700 44.68700
H  -16.77600 35.51500 41.75900
H  -17.81800 37.00400 41.24500
H  -18.48600 36.22700 43.79900
H  -18.74100 34.85100 42.59800
H  -19.46800 36.40900 42.29000
H  -12.84800 32.27200 42.87100
H  -13.39000 33.43700 44.14700
H  -11.75300 32.94700 44.07200
H  -8.49500 34.57500 40.23100
H  -6.10400 36.03900 43.97000
H  -6.27600 37.71200 44.00400
H  -5.43300 36.99100 42.54700

