158

Mg 1.83400 -1.31600 43.70400
C  5.31600 -0.70900 43.14200
C  1.15800 1.66100 42.11200
C  -1.31600 -2.40300 43.42700
C  2.73400 -4.41100 45.22100
N  3.07400 0.23800 42.53300
C  4.42700 0.32300 42.57400
C  4.89800 1.48000 41.73500
C  3.65000 2.35200 41.59500
C  2.51600 1.36500 42.08700
C  3.66500 3.54600 42.52800
C  5.54600 1.00100 40.45900
C  6.81800 1.75300 39.98000
H  6.67600 2.28800 38.52600
N  0.11700 -0.51000 42.92000
C  0.08100 0.74600 42.39700
C  -1.30000 1.02900 42.18200
C  -2.05400 -0.11900 42.42000
C  -1.10400 -1.09400 42.90900
C  -1.74400 2.37100 41.73200
C  -3.56500 -0.27500 42.32100
O  -4.21000 0.66900 41.80900
C  -4.49400 -1.50200 42.54200
N  0.86100 -3.20700 44.27100
C  -0.46400 -3.35500 44.05600
C  -0.97800 -4.69600 44.46100
C  0.31000 -5.24400 45.19000
C  1.40600 -4.29300 44.81200
C  -2.20800 -4.66200 45.28200
C  0.56200 -6.70300 44.80300
C  0.54800 -7.61700 46.07500
N  3.60000 -2.37900 44.15700
C  3.78700 -3.60500 44.79700
C  5.27400 -3.78300 45.03900
C  5.90900 -2.71200 44.34600
C  4.81900 -1.87900 43.77900
C  5.94500 -4.90800 45.67000
C  7.17700 -2.11000 43.96700
O  8.30000 -2.58100 44.17500
C  6.87000 -0.68000 43.31400
C  7.21500 0.38900 44.16500
O  6.50500 0.91300 45.01600
O  8.49900 0.73000 43.86800
C  8.77200 2.13800 44.16600
H  0.98400 2.60200 41.58500
H  -2.38200 -2.64000 43.43000
H  3.05900 -5.29000 45.78200
H  5.64600 1.94100 42.37900
H  3.54100 2.71100 40.57100
H  3.05900 3.48300 43.43200
H  3.47700 4.42000 41.90400
H  4.64800 3.65200 42.98800
H  4.73900 0.99000 39.72700
H  5.95800 0.00100 40.59000
H  7.61300 1.00700 39.95400
H  7.10600 2.67200 40.49200
H  -2.77800 2.59400 41.46800
H  -1.09500 2.71500 40.92700
H  -1.50700 2.96100 42.61600
H  -5.52700 -1.43300 42.20200
H  -4.63500 -1.82700 43.57400
H  -4.20000 -2.33500 41.90400
H  -1.18400 -5.23000 43.53400
H  0.29600 -4.98500 46.24900
H  -2.28100 -5.42700 46.05500
H  -3.11700 -4.66000 44.67900
H  -2.16400 -3.67000 45.73200
H  1.49500 -6.76600 44.24300
H  -0.21800 -7.08700 44.14500
H  1.55500 -8.03000 46.13800
H  -0.05400 -8.44800 45.70800
H  0.16800 -7.12600 46.97100
H  6.73900 -4.60800 46.35400
H  6.43700 -5.28400 44.77300
H  5.21200 -5.53500 46.17900
H  7.36800 -0.61600 42.34700
H  9.29600 2.57300 43.31500
H  9.55700 2.21800 44.91800
H  7.89100 2.74000 44.38700
Mg -9.60700 39.87800 42.62000
C  -8.44900 36.69100 41.60600
C  -6.76200 41.12800 41.22800
C  -10.84500 42.84100 43.12100
C  -12.59400 38.34700 43.57200
N  -7.82100 38.99400 41.46300
C  -7.53800 37.66700 41.20600
C  -6.23000 37.47100 40.41000
C  -5.73100 38.96400 40.36000
C  -6.78900 39.75500 41.09200
C  -4.30500 39.08600 40.89100
C  -6.39300 36.84000 39.05100
C  -5.27500 35.77900 38.62800
H  -4.31500 36.20500 37.48400
N  -8.86000 41.80000 42.30200
C  -7.62000 42.11500 41.79100
C  -7.40000 43.49900 41.84100
C  -8.60900 44.11000 42.37800
C  -9.50100 42.92800 42.62800
C  -6.14700 44.13300 41.20100
C  -8.86200 45.60600 42.53400
O  -8.00900 46.47500 42.41300
C  -10.21600 46.13500 42.91300
N  -11.42500 40.51300 43.08200
C  -11.65900 41.75400 43.32300
C  -13.07600 41.98800 43.87100
C  -13.73300 40.54500 44.00700
C  -12.54400 39.72300 43.50600
C  -13.12100 42.86100 45.22900
C  -15.07800 40.28600 43.21200
C  -16.30000 40.64100 43.96200
N  -10.35500 37.91100 42.70600
C  -11.58800 37.45000 43.13500
C  -11.58100 36.01900 43.20000
C  -10.37300 35.66600 42.54800
C  -9.71100 36.90900 42.22000
C  -12.59600 35.15700 43.71200
C  -9.47300 34.50700 42.22300
O  -9.57900 33.31800 42.37600
C  -8.22400 35.21000 41.59300
C  -7.06400 34.85600 42.51000
O  -6.70800 35.49300 43.51700
O  -6.45800 33.73100 42.00400
C  -5.30300 33.14700 42.74000
H  -5.83400 41.62800 40.94100
H  -11.23500 43.81700 43.41700
H  -13.43800 37.77400 43.96000
H  -5.60300 36.74300 40.92600
H  -5.77300 39.28100 39.31800
H  -3.67700 39.42400 40.06700
H  -3.92000 38.10500 41.17000
H  -4.17800 39.86400 41.64400
H  -6.29600 37.60000 38.27600
H  -7.28200 36.29800 38.72900
H  -5.67000 34.79700 38.36700
H  -4.55000 35.60200 39.42300
H  -5.93200 43.62200 40.26200
H  -5.37700 44.13000 41.97100
H  -6.29200 45.20000 41.03100
H  -11.00900 45.67700 42.32100
H  -10.21300 47.20600 42.71400
H  -10.31500 45.93700 43.98000
H  -13.58100 42.59600 43.12200
H  -13.92200 40.22900 45.03300
H  -12.42800 43.70000 45.29200
H  -13.14600 42.14100 46.04800
H  -14.07200 43.38700 45.15400
H  -15.08900 39.25000 42.87200
H  -15.12000 40.86400 42.28900
H  -16.03900 40.96900 44.96900
H  -16.78900 39.66800 44.00600
H  -16.93700 41.38500 43.48400
H  -12.90900 35.68000 44.61500
H  -12.18300 34.17600 43.94700
H  -13.46400 35.19900 43.05400
H  -8.00900 34.75200 40.62700
H  -4.37500 33.67000 42.50700
H  -5.17800 32.09000 42.50400
H  -5.30100 33.17000 43.82900

