158

Mg 44.41900 5.34800 47.08800
C  42.25100 8.06400 46.54700
C  41.63600 3.25300 46.06300
C  46.45600 2.77100 47.06000
C  47.11200 7.47900 47.04200
N  42.13700 5.65200 46.29000
C  41.53500 6.88100 46.32800
C  40.08300 6.73700 45.88100
C  39.87600 5.20900 45.95900
C  41.30000 4.62300 46.03900
C  39.03900 4.68100 47.18800
C  39.65800 7.42800 44.50900
C  40.66600 7.38500 43.30000
H  40.17700 7.59800 41.86300
N  44.06400 3.28600 46.78400
C  42.85900 2.63400 46.31900
C  43.17800 1.19800 46.24700
C  44.55900 1.07700 46.68200
C  45.08900 2.40400 46.86700
C  42.10200 0.15600 45.87000
C  45.28700 -0.24100 46.95700
O  44.78300 -1.34400 46.73900
C  46.67800 -0.25500 47.52000
N  46.49500 5.15300 47.20800
C  47.08600 3.93400 47.20900
C  48.56100 4.10000 47.27700
C  48.81100 5.60200 47.40100
C  47.43100 6.14000 47.16600
C  49.21200 3.13600 48.39300
C  49.89700 6.18700 46.39000
C  51.05800 6.94200 47.03100
N  44.70400 7.33800 47.05700
C  45.83500 8.08400 46.84400
C  45.51600 9.48300 46.81500
C  44.16400 9.48000 46.76200
C  43.67600 8.15300 46.72000
C  46.45800 10.58200 46.78100
C  43.08400 10.43500 46.69100
O  43.11600 11.65200 46.77500
C  41.81200 9.54900 46.54600
C  40.76500 9.82400 47.68400
O  41.01400 10.12000 48.85500
O  39.46800 9.61800 47.22400
C  38.39800 10.06700 48.06200
H  40.80600 2.55100 45.95500
H  47.20700 1.99400 46.90300
H  48.03400 8.06300 47.06000
H  39.54000 7.13700 46.73700
H  39.33800 4.90100 45.06200
H  39.50100 3.92400 47.82300
H  38.15700 4.16800 46.80400
H  38.74100 5.51600 47.82200
H  39.40300 8.45800 44.75600
H  38.86100 6.86800 44.02000
H  41.39000 6.57200 43.36700
H  41.21900 8.29700 43.52300
H  42.26300 -0.44900 44.97800
H  41.09100 0.55400 45.77800
H  42.12300 -0.56200 46.69000
H  46.82900 -1.23600 47.97100
H  46.78200 0.53000 48.27000
H  47.47500 -0.25700 46.77700
H  48.86700 3.84100 46.26400
H  49.02500 5.86700 48.43600
H  49.58900 2.17000 48.05700
H  48.46200 2.76400 49.09200
H  50.04600 3.56400 48.94900
H  49.37700 6.79700 45.65200
H  50.28800 5.41000 45.73300
H  51.96900 6.35900 46.89100
H  50.81900 7.03800 48.09000
H  51.36100 7.93200 46.69000
H  47.42500 10.25600 47.16400
H  46.13400 11.45800 47.34400
H  46.62400 10.82100 45.73100
H  41.28700 9.58100 45.59200
H  38.60700 11.05200 48.48000
H  38.16400 9.28900 48.78900
H  37.53500 10.23500 47.41900
Mg -12.68000 16.01900 42.10600
C  -9.61600 14.15700 41.84200
C  -11.08200 18.56100 40.36100
C  -15.65700 17.20100 41.35500
C  -14.05800 13.10100 43.60900
N  -10.51200 16.30900 41.28100
C  -9.45800 15.43800 41.28900
C  -8.25600 16.00100 40.46300
C  -8.72300 17.55400 40.28100
C  -10.18700 17.55700 40.78400
C  -7.85900 18.64300 41.12500
C  -8.08600 15.21300 39.10200
C  -6.66100 15.07500 38.49500
H  -6.02000 16.03900 37.50800
N  -13.29100 17.70600 41.06600
C  -12.49700 18.70600 40.49700
C  -13.30600 19.81900 40.08400
C  -14.67900 19.50600 40.37300
C  -14.63800 18.11900 41.07600
C  -12.82200 21.12800 39.47300
C  -15.89100 20.39200 40.12800
O  -15.72600 21.47000 39.60900
C  -17.25000 20.18900 40.67200
N  -14.52400 15.20400 42.42200
C  -15.62900 15.95500 42.00200
C  -16.93000 15.22500 42.38100
C  -16.42300 13.99700 43.19400
C  -14.88100 14.08800 43.07400
C  -18.01300 16.07700 43.09800
C  -16.99700 12.62000 42.78300
C  -17.22900 11.65100 43.93300
N  -12.05800 13.96000 42.56700
C  -12.70400 12.93300 43.28000
C  -11.80800 11.84400 43.58500
C  -10.57400 12.25700 42.94400
C  -10.80700 13.51000 42.36200
C  -12.14800 10.55800 44.32100
C  -9.19400 11.86300 42.66000
O  -8.51500 10.90400 42.87900
C  -8.56500 13.00600 41.91200
C  -7.36900 13.50000 42.62900
O  -7.30400 13.68800 43.85600
O  -6.38600 13.76700 41.73900
C  -5.22800 14.44100 42.27800
H  -10.58300 19.41400 39.89600
H  -16.65600 17.54000 41.07400
H  -14.54400 12.27300 44.13000
H  -7.40800 16.01100 41.14700
H  -8.84400 17.77700 39.22100
H  -7.22700 19.21300 40.44400
H  -7.12500 18.05900 41.68000
H  -8.46200 19.28000 41.77300
H  -8.60500 15.75300 38.31000
H  -8.57900 14.24700 39.20600
H  -6.62700 14.03400 38.17500
H  -5.97800 15.14100 39.34200
H  -12.66600 21.81200 40.30700
H  -13.42800 21.42900 38.61800
H  -11.81100 21.01200 39.08400
H  -17.73500 19.54900 39.93600
H  -17.67000 21.18500 40.81400
H  -17.06800 19.57100 41.55100
H  -17.37700 14.78500 41.49000
H  -16.68700 14.12100 44.24500
H  -17.61500 17.06400 43.33000
H  -18.26600 15.70300 44.09000
H  -18.89600 16.03900 42.45900
H  -16.26700 12.16500 42.11300
H  -17.95300 12.78400 42.28500
H  -18.19000 11.14400 43.85100
H  -17.18300 12.15600 44.89800
H  -16.38700 10.97500 44.08300
H  -11.22400 9.98800 44.42300
H  -12.80300 9.89400 43.75700
H  -12.48600 10.82500 45.32200
H  -8.21600 12.73100 40.91700
H  -4.74500 15.06700 41.52800
H  -4.58900 13.62700 42.62000
H  -5.43400 14.99600 43.19300

