158

Mg 26.18400 1.11900 29.16200
C  28.02600 0.89100 32.15500
C  23.33700 1.34800 31.12900
C  24.39400 0.91000 26.41100
C  29.07100 -0.03200 27.43800
N  25.83700 0.97900 31.44000
C  26.70700 1.16600 32.42500
C  25.97400 1.44600 33.73000
C  24.48600 1.25200 33.37800
C  24.54600 1.04100 31.85700
C  23.81000 0.04100 34.08300
C  26.38900 2.86100 34.30200
C  25.95700 2.98900 35.76600
H  26.98500 2.81200 36.78900
N  24.14200 1.34500 28.74700
C  23.15600 1.41600 29.70500
C  21.90900 1.70000 28.97100
C  22.22900 1.68300 27.55300
C  23.64700 1.31900 27.51300
C  20.66900 1.95000 29.74400
C  21.36000 1.86900 26.31300
O  21.78100 1.99800 25.16800
C  19.92700 2.12000 26.43600
N  26.66300 0.60900 27.19300
C  25.69900 0.60700 26.17800
C  26.36600 0.40100 24.85100
C  27.87700 0.30400 25.20000
C  27.91600 0.28700 26.71400
C  25.78100 -0.84900 24.11900
C  28.72800 1.46600 24.65200
C  29.45400 1.22200 23.27000
N  28.12200 0.54500 29.65900
C  29.16600 0.04300 28.86300
C  30.29000 -0.30700 29.66400
C  29.92400 0.08300 30.97100
C  28.59700 0.57100 30.89300
C  31.38100 -1.17000 29.21800
C  30.43000 0.12300 32.31200
O  31.53500 -0.10900 32.76600
C  29.17400 0.66800 33.17600
C  28.73900 -0.30600 34.23900
O  28.05600 -1.33900 34.05500
O  29.19400 0.17600 35.45800
C  29.07700 -0.70800 36.60600
H  22.43500 1.56900 31.70300
H  23.67900 0.80800 25.59100
H  29.97000 -0.33500 26.89700
H  26.23700 0.71900 34.49800
H  23.79600 2.06600 33.59900
H  23.50000 -0.68500 33.33100
H  23.05300 0.34300 34.80600
H  24.39300 -0.51600 34.81700
H  26.06600 3.64400 33.61600
H  27.45700 2.81400 34.08700
H  25.16200 2.27000 35.96400
H  25.51300 3.96200 35.97600
H  20.40300 3.00100 29.63000
H  20.67400 1.73200 30.81200
H  19.80100 1.39300 29.39100
H  19.63200 2.88900 25.72200
H  19.69300 2.43000 27.45400
H  19.54000 1.11500 26.27000
H  26.26000 1.36200 24.34700
H  28.33100 -0.56200 24.71900
H  26.35600 -1.13200 23.23700
H  24.73100 -0.67800 23.88200
H  25.81400 -1.71100 24.78600
H  29.62500 1.66200 25.24000
H  28.16900 2.39700 24.55900
H  30.42000 1.70600 23.12700
H  28.70000 1.59000 22.57500
H  29.55700 0.15700 23.06400
H  31.71100 -1.76200 30.07200
H  32.22100 -0.74900 28.66700
H  31.01000 -1.87300 28.47200
H  29.45800 1.60500 33.65500
H  30.05200 -0.69400 37.09500
H  28.87800 -1.76000 36.40000
H  28.31500 -0.23300 37.22300
Mg 16.85500 52.04100 26.88900
C  18.93600 50.54600 29.43900
C  14.48900 52.48600 29.20600
C  14.87400 53.17100 24.32200
C  19.18900 51.11500 24.48700
N  16.69100 51.27900 29.05600
C  17.72500 51.02200 29.95500
C  17.31700 51.33100 31.41200
C  15.80900 51.69400 31.29500
C  15.61500 51.84700 29.73200
C  14.84500 50.70900 31.95600
C  18.23700 52.37000 32.00400
C  18.65000 52.30000 33.42500
H  17.80100 51.41900 34.31900
N  14.98300 52.73300 26.75400
C  14.14000 52.83300 27.86200
C  12.97900 53.55900 27.46500
C  13.09900 53.84200 26.05700
C  14.39100 53.24700 25.63300
C  11.86800 54.00100 28.42900
C  12.13300 54.58500 25.17200
O  12.32300 54.68900 23.96900
C  10.87800 55.24400 25.70400
N  17.03100 51.98400 24.63400
C  16.05600 52.50900 23.80900
C  16.58100 52.62100 22.34200
C  17.92100 51.93400 22.46600
C  18.12100 51.66600 23.93900
C  15.61600 52.11100 21.28900
C  19.12600 52.78400 21.80700
C  19.98100 53.82500 22.61700
N  18.64500 51.06900 26.89100
C  19.48600 50.81400 25.85900
C  20.69200 50.24300 26.37700
C  20.48300 50.00200 27.72500
C  19.28100 50.59400 28.06600
C  21.86400 49.79900 25.51100
C  21.12100 49.58800 29.00700
O  22.19700 49.03600 29.23900
C  20.14800 49.99700 30.15300
C  19.79300 48.88800 31.06000
O  19.09700 47.93300 30.74200
O  20.58800 48.97500 32.22200
C  20.13000 48.03000 33.22900
H  13.82300 52.75500 30.02900
H  14.34800 53.65500 23.49700
H  19.92700 50.88500 23.71600
H  17.43100 50.42100 32.00200
H  15.73000 52.69500 31.71700
H  14.42600 50.09000 31.16200
H  14.11700 51.30900 32.50300
H  15.33400 50.11300 32.72600
H  17.98400 53.37200 31.65800
H  19.20000 52.21700 31.51800
H  18.54500 53.31400 33.81200
H  19.71900 52.11200 33.52200
H  12.39900 54.02800 29.38100
H  11.17900 53.16400 28.31500
H  11.39000 54.97400 28.32200
H  10.35400 55.80100 24.92800
H  11.20400 55.91200 26.50100
H  10.29800 54.36400 25.98300
H  16.79300 53.68200 22.21100
H  17.94100 50.93100 22.03900
H  16.06400 51.25200 20.78900
H  15.44500 52.68200 20.37600
H  14.68000 51.73300 21.69800
H  18.77000 53.26200 20.89400
H  19.83400 52.01000 21.51200
H  19.67500 53.66400 23.65100
H  19.74600 54.83300 22.27600
H  21.04300 53.57900 22.59300
H  21.32200 48.97900 25.04000
H  22.70700 49.46000 26.11400
H  22.09200 50.54800 24.75300
H  20.54900 50.85900 30.68600
H  20.36800 47.01600 32.90700
H  19.07800 48.02500 33.51200
H  20.67600 48.35500 34.11400

