158

Mg 8.57800 3.56100 27.75600
C  10.07100 2.18200 30.65900
C  6.72500 5.61100 29.69000
C  7.29700 4.95300 24.97500
C  10.08700 1.05700 25.86600
N  8.46000 3.89200 29.95800
C  9.23300 3.27100 30.94400
C  8.87100 3.86700 32.34100
C  7.62200 4.71400 31.94300
C  7.58600 4.78000 30.39300
C  6.37700 4.11500 32.61000
C  10.06200 4.73600 33.01300
C  10.88900 4.05600 34.02500
H  11.32900 4.77700 35.30700
N  7.24200 5.07200 27.39300
C  6.55400 5.83800 28.33700
C  5.78000 6.75400 27.67400
C  5.83600 6.51600 26.26000
C  6.78000 5.46600 26.15200
C  4.90700 7.71400 28.43300
C  5.01400 7.12900 25.12800
O  5.16000 6.84200 23.96000
C  4.00000 8.19500 25.47600
N  8.68400 3.08800 25.80600
C  8.16700 3.85500 24.81500
C  8.48300 3.45400 23.42400
C  9.32800 2.12300 23.67700
C  9.45100 2.12600 25.16100
C  7.22700 3.10900 22.65200
C  10.79100 2.11000 23.01800
C  11.18100 0.81500 22.25500
N  9.69400 1.90500 28.16300
C  10.28400 0.99700 27.24800
C  11.16900 0.08900 27.97000
C  11.10300 0.52800 29.35800
C  10.19700 1.60900 29.38600
C  12.05100 -0.99300 27.37500
C  11.69900 0.39200 30.64300
O  12.55500 -0.37200 31.05500
C  11.02700 1.47600 31.52200
C  10.50500 0.87400 32.79600
O  9.34000 0.62800 33.04900
O  11.50800 0.80600 33.68500
C  11.06500 0.30800 35.07600
H  6.22100 6.24500 30.42300
H  6.79100 5.40100 24.11700
H  10.74600 0.34700 25.36200
H  8.69200 2.98600 32.95700
H  7.59700 5.73100 32.33500
H  5.91700 4.92000 33.18400
H  6.55600 3.27200 33.27700
H  5.74900 3.69200 31.82600
H  9.69000 5.67000 33.43300
H  10.74400 5.01100 32.20900
H  11.76800 3.62000 33.55000
H  10.36400 3.15700 34.34900
H  5.22300 8.73900 28.23900
H  5.04900 7.61200 29.50900
H  3.84600 7.51400 28.28700
H  4.39900 9.03400 26.04700
H  3.16900 7.71400 25.99000
H  3.60000 8.61400 24.55300
H  9.05600 4.24300 22.93800
H  8.70900 1.26000 23.43000
H  6.31700 3.44400 23.14900
H  7.06500 2.06000 22.40100
H  7.20800 3.60500 21.68100
H  11.41500 2.19900 23.90700
H  10.90200 2.94200 22.32300
H  12.24200 0.68400 22.46700
H  11.17300 0.97900 21.17800
H  10.79000 -0.16400 22.53300
H  12.85100 -1.22000 28.08000
H  12.65800 -0.68800 26.52300
H  11.51600 -1.91800 27.16000
H  11.79300 2.23900 31.66500
H  10.20400 0.90800 35.37100
H  11.77900 0.29300 35.89900
H  10.77800 -0.73900 34.96900
Mg -6.68100 25.56800 26.50100
C  -5.06100 26.94700 29.22800
C  -8.37000 23.33700 28.59800
C  -8.16600 24.12000 23.74600
C  -4.81100 27.64700 24.42600
N  -6.74400 25.27800 28.67100
C  -6.06000 26.03800 29.59300
C  -6.66600 25.76300 31.01300
C  -7.53000 24.48100 30.82600
C  -7.50000 24.23800 29.27000
C  -6.99600 23.17700 31.55600
C  -7.50600 26.98900 31.44200
C  -7.45100 27.35700 32.93300
H  -7.04900 26.24500 33.89000
N  -8.06900 23.98500 26.19900
C  -8.62900 23.20100 27.20000
C  -9.48500 22.16400 26.62700
C  -9.42000 22.37300 25.25500
C  -8.52000 23.51700 24.98800
C  -10.33400 21.16300 27.42600
C  -10.26700 21.70800 24.12100
O  -10.11300 22.07800 22.93100
C  -11.21400 20.61200 24.46900
N  -6.46800 25.81100 24.41900
C  -7.19000 25.09700 23.47400
C  -6.82000 25.53200 22.06000
C  -5.86900 26.75000 22.23100
C  -5.70500 26.78300 23.78600
C  -6.17400 24.29800 21.30000
C  -6.28600 28.11900 21.58500
C  -5.40300 28.51200 20.41500
N  -5.19200 26.98100 26.66000
C  -4.51100 27.72000 25.76400
C  -3.55200 28.53800 26.41200
C  -3.75100 28.21700 27.78400
C  -4.72600 27.22800 27.87900
C  -2.59400 29.52700 25.71500
C  -3.28900 28.54600 29.17500
O  -2.35300 29.30700 29.55000
C  -4.18800 27.72100 30.15000
C  -3.30000 26.97200 31.07400
O  -2.33700 26.31400 30.75000
O  -3.78200 27.15900 32.42000
C  -2.90800 26.52200 33.52400
H  -8.88300 22.71400 29.33400
H  -8.62600 23.68700 22.85500
H  -4.08300 28.18600 23.81600
H  -5.80600 25.55700 31.65000
H  -8.51300 24.73800 31.22100
H  -6.32200 23.49200 32.35300
H  -6.54900 22.44400 30.88500
H  -7.79000 22.62300 32.05700
H  -8.52500 26.86400 31.07500
H  -7.17600 27.91700 30.97500
H  -8.49900 27.63100 33.05200
H  -6.77400 28.20700 33.02000
H  -10.15500 20.14200 27.09100
H  -11.35800 21.42600 27.16000
H  -10.13800 21.17200 28.49800
H  -11.62600 20.16300 23.56600
H  -11.98200 21.04800 25.10800
H  -10.73000 19.82300 25.04500
H  -7.72100 25.82600 21.52300
H  -4.88600 26.44000 21.87900
H  -5.30900 24.68300 20.76000
H  -6.87300 23.83500 20.60500
H  -5.80200 23.59800 22.04800
H  -6.12100 28.88100 22.34700
H  -7.31900 28.10000 21.23800
H  -4.91300 27.66400 19.93800
H  -4.56400 29.04700 20.85900
H  -6.00400 29.14600 19.76200
H  -1.64300 29.02300 25.54700
H  -2.20100 30.20400 26.47300
H  -3.14500 30.04900 24.93300
H  -4.82200 28.43000 30.68100
H  -3.46000 25.97400 34.28700
H  -2.10700 27.16000 33.89800
H  -2.34600 25.68100 33.11900

