158

Mg 8.35400 3.99900 28.18400
C  9.73700 2.37300 31.09400
C  6.58600 6.01000 30.34700
C  6.79900 5.13200 25.53700
C  9.90500 1.43400 26.25000
N  8.15200 4.05900 30.49100
C  8.77100 3.34800 31.44600
C  8.62100 4.02100 32.80600
C  7.48800 5.06800 32.52400
C  7.36500 4.97900 31.00100
C  6.12000 4.94900 33.30800
C  9.94400 4.56200 33.33600
C  10.58100 3.97600 34.65100
H  10.66300 4.87600 35.90200
N  6.92000 5.47300 27.96200
C  6.33200 6.28100 28.95700
C  5.49700 7.26500 28.31500
C  5.63800 7.08900 26.90600
C  6.38700 5.83400 26.71200
C  4.72500 8.39000 29.06200
C  5.12100 7.92100 25.84800
O  4.99000 7.42600 24.67500
C  4.72600 9.38200 26.01800
N  8.13100 3.23900 26.26100
C  7.62600 4.01000 25.28000
C  8.05100 3.63000 23.86100
C  9.15400 2.61400 24.04500
C  9.06100 2.37600 25.59900
C  6.94300 3.24800 22.82500
C  10.57300 3.00200 23.51700
C  11.44700 3.88800 24.45400
N  9.58400 2.17800 28.51000
C  10.10800 1.25300 27.62500
C  11.03000 0.42500 28.30500
C  10.86200 0.84100 29.65400
C  9.92700 1.81200 29.73600
C  11.92400 -0.55900 27.69200
C  11.30300 0.56200 30.95900
O  12.08500 -0.25900 31.31000
C  10.62400 1.48300 31.94400
C  9.92300 0.76700 32.93500
O  8.79600 0.28300 32.78500
O  10.61900 0.70500 34.14300
C  9.69700 0.32000 35.22200
H  6.26900 6.76300 31.07100
H  6.46000 5.50800 24.56900
H  10.30700 0.69900 25.54900
H  8.20400 3.28700 33.49500
H  7.75800 6.10700 32.71400
H  5.57000 5.88800 33.37200
H  6.47900 4.62700 34.28500
H  5.58100 4.06400 32.97100
H  9.71200 5.61200 33.51300
H  10.68700 4.57800 32.53800
H  11.60200 3.68100 34.40800
H  9.98300 3.12100 34.96700
H  5.05000 9.39200 28.78400
H  4.95800 8.21000 30.11100
H  3.64200 8.31500 28.95800
H  3.83100 9.32200 26.63800
H  4.48500 9.77700 25.03100
H  5.51600 9.95100 26.50900
H  8.56800 4.49200 23.44000
H  8.81900 1.68200 23.59200
H  5.98300 3.07500 23.31100
H  7.21300 2.37500 22.23100
H  6.82800 4.07700 22.12700
H  10.47700 3.57300 22.59300
H  11.07900 2.05100 23.35300
H  10.96100 4.28800 25.34300
H  11.76500 4.72600 23.83200
H  12.34100 3.34100 24.75500
H  12.10300 -0.23400 26.66700
H  11.63900 -1.61000 27.73600
H  12.85400 -0.41900 28.24300
H  11.31500 2.05700 32.56300
H  9.37100 -0.71800 35.16000
H  8.89200 1.05300 35.16300
H  10.17900 0.38900 36.19700
Mg 35.64900 48.82800 26.21800
C  35.85600 46.78300 28.89000
C  34.14300 51.18900 28.20800
C  35.31500 50.76800 23.42800
C  37.06200 46.35800 24.11900
N  35.20000 49.06100 28.32700
C  35.39500 48.07100 29.24400
C  35.24900 48.59800 30.70800
C  34.31100 49.75900 30.46300
C  34.53700 50.09500 28.94600
C  32.84000 49.60900 30.88100
C  36.61700 48.87200 31.47500
C  36.49700 48.79900 33.03300
H  35.10900 48.96200 33.67000
N  34.86400 50.72400 25.85200
C  34.36900 51.53700 26.86200
C  34.00200 52.81800 26.21400
C  34.28900 52.66000 24.78400
C  34.84200 51.34600 24.63000
C  33.44900 54.03000 26.95700
C  34.17600 53.70900 23.71400
O  34.51600 53.51000 22.59100
C  33.72000 55.09600 23.99400
N  36.08000 48.56400 24.10400
C  35.79900 49.51100 23.18600
C  35.99100 48.98600 21.77000
C  36.72000 47.60200 21.97900
C  36.60700 47.47500 23.48200
C  34.65300 48.94600 20.88400
C  38.19800 47.51100 21.55400
C  39.24800 48.48000 22.13300
N  36.35400 46.96900 26.45700
C  36.84400 46.02300 25.46600
C  37.21200 44.85200 26.20000
C  36.84400 45.10100 27.53000
C  36.27700 46.35000 27.59600
C  37.77700 43.60200 25.69100
C  36.92300 44.51000 28.83900
O  37.28000 43.39900 29.20300
C  36.26500 45.58200 29.77000
C  35.17600 44.99800 30.56300
O  34.33500 44.19700 30.13900
O  35.33000 45.38100 31.91600
C  34.29000 44.76900 32.72500
H  33.62700 51.89700 28.86100
H  35.32500 51.40700 22.54200
H  37.46900 45.52700 23.53800
H  34.74400 47.78900 31.23500
H  34.77100 50.59200 30.99300
H  32.22700 49.55600 29.98100
H  32.48600 50.42500 31.51100
H  32.78700 48.68200 31.45300
H  37.02200 49.86400 31.27700
H  37.41900 48.22400 31.12000
H  37.12600 49.60200 33.41600
H  36.94200 47.86200 33.36900
H  32.81300 54.61300 26.29100
H  34.19300 54.58100 27.53200
H  32.74400 53.67300 27.70800
H  32.68800 55.21000 24.32500
H  33.73700 55.56000 23.00800
H  34.48100 55.54000 24.63600
H  36.75200 49.60500 21.29500
H  36.19000 46.71800 21.62500
H  33.78100 49.20100 21.48600
H  34.49200 48.06000 20.26800
H  34.68300 49.81900 20.23200
H  38.15500 47.47100 20.46600
H  38.54700 46.49300 21.73200
H  39.49700 49.19700 21.35100
H  40.09000 47.86500 22.45200
H  38.84000 48.88300 23.06000
H  38.21700 43.67000 24.69600
H  37.10800 42.74100 25.67700
H  38.60700 43.46600 26.38500
H  36.97900 45.96900 30.49800
H  34.51600 43.72400 32.93700
H  33.30500 44.78400 32.25900
H  34.14900 45.28100 33.67700

