158

Mg 1.06800 -1.70700 45.05000
C  4.51900 -0.91300 44.17400
C  0.18400 1.15400 43.35500
C  -2.09200 -2.63000 45.21200
C  2.22500 -4.83200 46.12000
N  2.25100 -0.08100 44.04100
C  3.62700 0.05400 43.85500
C  3.92600 1.29700 43.06200
C  2.48800 2.09600 43.02300
C  1.55400 0.98700 43.57300
C  2.33900 3.41700 43.83100
C  4.51800 1.02300 41.63300
C  5.92700 1.66300 41.35500
H  6.81000 0.92100 40.31000
N  -0.74000 -0.82100 44.49900
C  -0.88600 0.36600 43.79500
C  -2.28800 0.64400 43.56800
C  -2.98900 -0.35500 44.30700
C  -1.94400 -1.35900 44.71300
C  -2.88800 1.81200 42.80200
C  -4.46600 -0.37400 44.75800
O  -5.26200 0.48000 44.29600
C  -5.00200 -1.40200 45.78700
N  0.14100 -3.47000 45.79800
C  -1.17900 -3.62800 45.67700
C  -1.62900 -5.03900 46.01200
C  -0.25100 -5.72100 46.45400
C  0.81100 -4.64400 46.05700
C  -2.86500 -5.06400 47.07800
C  -0.17800 -7.16000 45.73900
C  -0.48200 -8.40000 46.58500
N  2.99500 -2.69000 45.28900
C  3.18700 -3.92200 45.71000
C  4.70600 -4.07300 45.82100
C  5.21300 -2.88100 45.20100
C  4.13300 -2.14200 44.80800
C  5.38400 -5.28700 46.31600
C  6.39400 -2.24300 44.84400
O  7.55300 -2.61700 45.03700
C  6.04300 -1.00800 43.98000
C  6.71100 0.17100 44.69700
O  6.40000 0.52400 45.80700
O  7.80500 0.63200 43.92600
C  8.36100 1.72100 44.70700
H  0.03200 2.10400 42.83800
H  -3.11000 -3.02600 45.19300
H  2.60600 -5.78000 46.50600
H  4.55600 1.96700 43.64700
H  2.28800 2.37200 41.98700
H  1.91900 4.16600 43.16000
H  3.35300 3.65800 44.15000
H  1.72400 3.35200 44.72900
H  3.80700 1.17900 40.82200
H  4.66200 -0.05700 41.60100
H  6.43400 1.84100 42.30400
H  5.59600 2.61500 40.93900
H  -3.93600 1.53500 42.68300
H  -2.22100 2.02500 41.96600
H  -2.71500 2.59400 43.54100
H  -4.19000 -1.73000 46.43600
H  -5.47300 -2.20900 45.22500
H  -5.77500 -0.97900 46.42900
H  -2.09800 -5.46300 45.12400
H  -0.35100 -5.72200 47.53900
H  -2.52400 -5.51100 48.01300
H  -3.63700 -5.73900 46.70900
H  -3.29200 -4.11600 47.40400
H  0.87700 -7.22100 45.47300
H  -0.78000 -7.13900 44.83100
H  0.40500 -8.69800 47.14400
H  -0.88900 -9.22100 45.99500
H  -1.29000 -8.23700 47.29800
H  5.50200 -5.99300 45.49400
H  4.90400 -5.57400 47.25200
H  6.37600 -4.91300 46.56800
H  6.41700 -1.15700 42.96700
H  9.21600 2.11600 44.15800
H  8.87600 1.33300 45.58600
H  7.72800 2.56900 44.96800
Mg -1.38400 34.28100 28.10300
C  -3.16000 32.55700 30.47100
C  -0.26600 36.44300 30.63300
C  0.32200 36.00000 25.64200
C  -2.79600 32.22400 25.57200
N  -1.73700 34.38600 30.28100
C  -2.46400 33.56700 31.03700
C  -2.32400 33.89700 32.56700
C  -1.59700 35.26300 32.55900
C  -1.11700 35.35100 31.07800
C  -2.62700 36.43100 32.90900
C  -1.53000 32.83200 33.42400
C  -2.36300 32.22100 34.57800
H  -1.51600 32.07500 35.84500
N  -0.10700 36.02400 28.12500
C  0.11900 36.83000 29.26500
C  0.98000 37.85500 28.82700
C  1.29900 37.69000 27.47400
C  0.51900 36.55100 26.98800
C  1.33300 38.87000 29.88100
C  2.25800 38.53300 26.56900
O  2.33400 38.31200 25.36400
C  3.03800 39.64700 27.17400
N  -1.22100 34.19800 25.90800
C  -0.38400 34.89600 25.18300
C  -0.44800 34.42300 23.71600
C  -1.18000 33.06000 23.80000
C  -1.79500 33.12700 25.19300
C  -1.14100 35.42300 22.78500
C  -0.39000 31.69400 23.64200
C  0.73000 31.43900 24.68100
N  -2.73100 32.74900 27.98400
C  -3.28000 32.07000 26.94000
C  -4.21400 31.07800 27.39100
C  -4.07800 31.10600 28.79000
C  -3.26000 32.20900 29.09400
C  -5.03900 30.19800 26.57000
C  -4.49500 30.47900 30.06900
O  -5.23600 29.56000 30.39600
C  -3.95900 31.40200 31.15900
C  -5.17800 31.89100 31.95700
O  -6.14800 32.48300 31.41400
O  -5.07700 31.52400 33.24200
C  -6.20000 31.82900 34.17000
H  0.06200 36.98300 31.52300
H  0.98800 36.45000 24.90300
H  -3.20300 31.55000 24.81500
H  -3.37000 33.94900 32.86900
H  -0.76300 35.36000 33.25400
H  -3.01000 36.89200 31.99900
H  -2.02300 37.15400 33.45800
H  -3.42000 36.01000 33.52700
H  -0.59600 33.28100 33.76100
H  -1.25000 32.03000 32.74200
H  -2.76500 31.23900 34.32800
H  -3.14900 32.94500 34.79300
H  0.74600 39.77400 29.71900
H  2.38700 39.07400 29.69000
H  1.19500 38.59400 30.92600
H  3.53300 40.40000 26.56000
H  3.80300 39.19100 27.80200
H  2.30200 40.19600 27.76200
H  0.59200 34.25400 23.43700
H  -2.03200 32.96500 23.12700
H  -0.60700 35.51800 21.84000
H  -1.26200 36.42700 23.19100
H  -2.14500 35.14800 22.46100
H  0.05200 31.74800 22.64700
H  -0.97600 30.77500 23.65300
H  0.89500 30.45400 25.11800
H  0.74300 32.15100 25.50700
H  1.67000 31.62000 24.16000
H  -5.72000 30.76800 25.93800
H  -5.63700 29.68500 27.32400
H  -4.38100 29.52100 26.02600
H  -3.30500 30.88700 31.86300
H  -6.57300 30.91200 34.62700
H  -7.00300 32.37900 33.68100
H  -5.85500 32.49400 34.96200

