158

Mg -1.43900 17.51600 26.68300
C  -1.70600 15.35800 29.41800
C  -2.11300 20.18100 28.88400
C  -1.34700 19.55600 24.00900
C  -1.56900 14.75800 24.56600
N  -1.85400 17.73400 28.93200
C  -1.75000 16.69400 29.81600
C  -1.91900 17.27000 31.30200
C  -2.07500 18.87200 31.05900
C  -2.10300 18.95700 29.54500
C  -3.28300 19.49200 31.90500
C  -0.74800 16.86900 32.34200
C  -0.44200 17.65000 33.64900
H  -0.22800 16.90700 34.99800
N  -1.78200 19.56400 26.44600
C  -2.07400 20.52800 27.45400
C  -1.98300 21.83700 26.84800
C  -1.69100 21.62900 25.45000
C  -1.54300 20.20000 25.26900
C  -2.07100 23.11300 27.73900
C  -1.50100 22.68200 24.28600
O  -1.02800 22.44100 23.16200
C  -1.79500 24.09700 24.56400
N  -1.55900 17.19800 24.59500
C  -1.24000 18.20700 23.70800
C  -0.97700 17.74300 22.26100
C  -0.95200 16.20700 22.47100
C  -1.37200 15.98600 23.94100
C  -2.04000 18.21800 21.20600
C  0.42200 15.55300 22.20600
C  1.63000 16.05200 22.96600
N  -1.51600 15.51800 26.92500
C  -1.69300 14.48600 25.94100
C  -1.87500 13.24300 26.62500
C  -1.89100 13.53300 27.96700
C  -1.72300 14.92200 28.10200
C  -1.96400 11.96300 25.90600
C  -1.97200 12.86400 29.28000
O  -2.06000 11.65000 29.52900
C  -1.81400 14.09300 30.26800
C  -0.62600 13.92100 31.09400
O  0.43000 14.36200 30.82700
O  -0.89300 13.19100 32.21100
C  0.31800 13.01800 33.11700
H  -2.09100 21.03300 29.56600
H  -1.03700 20.19000 23.17500
H  -1.30100 13.95600 23.87500
H  -2.83100 16.82800 31.70300
H  -1.18400 19.41400 31.37500
H  -2.98100 20.31500 32.55300
H  -3.66600 18.77000 32.62700
H  -4.06800 19.93700 31.29400
H  0.17600 16.77500 31.77100
H  -0.92600 15.88100 32.76600
H  -1.19600 18.41400 33.83600
H  0.44500 18.25800 33.47600
H  -2.47500 22.96900 28.74100
H  -2.77700 23.79900 27.26900
H  -1.04500 23.48100 27.75900
H  -2.58400 24.15500 25.31300
H  -2.09000 24.54400 23.61500
H  -0.97800 24.74000 24.89200
H  -0.02000 18.11300 21.89300
H  -1.67400 15.69900 21.83100
H  -2.80100 18.87500 21.62600
H  -2.75300 17.43100 20.96100
H  -1.62400 18.73600 20.34200
H  0.63600 15.79800 21.16500
H  0.39000 14.46500 22.26200
H  1.60100 16.89000 23.66300
H  2.38300 16.35700 22.23900
H  2.11100 15.15100 23.34700
H  -1.04800 11.42400 26.14700
H  -1.81600 12.08500 24.83300
H  -2.89600 11.45100 26.14700
H  -2.66500 14.18900 30.94200
H  0.02800 13.29200 34.13100
H  1.24300 13.58000 32.98200
H  0.65300 11.98100 33.08900
Mg 9.42200 3.53300 28.23700
C  10.75500 1.88600 31.08100
C  7.45900 5.47600 30.39100
C  7.72200 4.58200 25.60900
C  10.80600 0.94900 26.22900
N  9.20600 3.66800 30.51700
C  9.90900 2.98300 31.44400
C  9.56200 3.50900 32.90800
C  8.46600 4.58900 32.60000
C  8.31700 4.61600 31.03800
C  7.07700 4.38700 33.29400
C  10.77900 4.13400 33.71200
C  11.10100 3.53400 35.07600
H  11.23400 4.48600 36.31100
N  7.82100 4.84400 27.99400
C  7.22400 5.59900 28.98100
C  6.31200 6.54900 28.29700
C  6.37800 6.34800 26.89700
C  7.35200 5.20200 26.79000
C  5.44000 7.49800 29.10000
C  5.58400 7.02200 25.76700
O  5.85100 6.83400 24.60300
C  4.52400 8.10300 26.09300
N  9.35500 2.90200 26.23100
C  8.62100 3.54000 25.35800
C  8.96800 3.10700 23.94000
C  9.79800 1.90200 24.12800
C  10.04300 1.90000 25.60800
C  7.76700 2.90800 23.00000
C  11.11700 1.86500 23.33200
C  11.48400 0.58500 22.49500
N  10.59600 1.80500 28.55500
C  11.09800 0.87600 27.64400
C  11.88800 -0.07600 28.32100
C  11.72400 0.21700 29.64100
C  11.00800 1.44400 29.77000
C  12.57600 -1.29100 27.77400
C  12.10500 -0.25700 30.99100
O  12.60400 -1.31000 31.29300
C  11.50700 0.87900 31.98300
C  10.62300 0.26900 33.07900
O  9.41800 -0.00300 32.95900
O  11.31300 -0.02000 34.22100
C  10.50100 -0.47700 35.34100
H  6.89400 6.15000 31.03800
H  7.15700 4.90000 24.73100
H  11.15800 0.16800 25.55200
H  9.12800 2.60100 33.32600
H  8.84000 5.54700 32.96100
H  7.22100 3.46600 33.85900
H  6.33600 4.38200 32.49400
H  6.92800 5.18600 34.01900
H  10.62700 5.21100 33.77900
H  11.61400 3.96500 33.03300
H  12.01600 2.97400 34.88300
H  10.29300 2.81700 35.21900
H  5.47000 7.40700 30.18600
H  4.41200 7.19300 28.90900
H  5.79800 8.50500 28.88600
H  3.76900 7.56100 26.66400
H  4.20700 8.47600 25.11900
H  5.02800 8.92100 26.60700
H  9.61000 3.86200 23.48700
H  9.32100 0.94100 23.93400
H  6.88500 2.98000 23.63500
H  7.81400 1.87900 22.64400
H  7.49500 3.54900 22.16100
H  11.94200 2.10700 24.00200
H  11.00900 2.62600 22.56000
H  10.67200 0.26000 21.84500
H  11.66700 -0.27800 23.13500
H  12.41600 0.76600 21.96000
H  13.22700 -1.83000 28.46200
H  13.03900 -1.14500 26.79800
H  11.85100 -2.06700 27.52900
H  12.23800 1.47400 32.52900
H  10.12100 -1.40200 34.90700
H  9.65100 0.17100 35.55800
H  11.01000 -0.66300 36.28700

