158

Mg 44.24500 4.43000 46.87500
C  42.51200 7.55800 46.63200
C  41.38400 2.83100 45.89100
C  46.15800 1.77900 46.14700
C  47.30800 6.31500 47.07400
N  42.19100 5.13400 46.17300
C  41.71600 6.43700 46.24000
C  40.19400 6.45200 45.89000
C  39.79400 4.94800 45.74700
C  41.17900 4.22900 46.00000
C  38.59400 4.43600 46.64900
C  39.71700 7.51700 44.78800
C  40.68800 7.60700 43.53800
H  39.98800 7.85900 42.19700
N  43.85200 2.52400 46.26200
C  42.56900 2.09600 45.87800
C  42.70700 0.70200 45.60200
C  44.05100 0.43800 45.42500
C  44.81000 1.62500 45.94800
C  41.59100 -0.21500 45.41300
C  44.57600 -0.82400 44.86300
O  43.80000 -1.76200 44.56600
C  46.04100 -1.18700 44.77600
N  46.37700 4.10500 46.74600
C  46.88900 2.86300 46.66200
C  48.45300 2.83900 46.76100
C  48.77600 4.35300 46.87500
C  47.39500 5.01500 46.89100
C  49.03500 2.00400 47.92900
C  49.70200 4.91900 45.75800
C  50.95900 5.52600 46.29100
N  44.81300 6.48100 46.87900
C  46.11300 7.09700 47.01000
C  45.95200 8.55800 47.06300
C  44.52700 8.75400 47.02900
C  43.92400 7.50300 46.89000
C  47.06500 9.50800 47.05200
C  43.53500 9.79300 46.96400
O  43.70900 11.01100 47.09700
C  42.13300 9.09500 46.86300
C  41.35900 9.19500 48.12700
O  41.54200 8.57200 49.14300
O  40.47200 10.16000 47.94900
C  39.57900 10.36300 49.07100
H  40.47800 2.38800 45.47400
H  46.84100 0.97300 45.86800
H  48.24100 6.87100 47.19600
H  39.81800 6.75700 46.86600
H  39.57100 4.73400 44.70200
H  39.01400 3.70800 47.34300
H  37.85200 4.04500 45.95300
H  38.14200 5.24500 47.22200
H  39.36400 8.43900 45.24900
H  38.75700 7.18300 44.39700
H  41.21700 6.65400 43.54500
H  41.38300 8.42200 43.74300
H  41.50100 -0.54300 44.37800
H  40.67800 0.32600 45.66300
H  41.59800 -1.09000 46.06300
H  46.24300 -2.21200 44.46700
H  46.30600 -1.05800 45.82500
H  46.42500 -0.45500 44.06500
H  48.89800 2.46400 45.84000
H  49.21800 4.36200 47.87100
H  49.93000 1.49800 47.56800
H  48.18200 1.41500 48.26700
H  49.29600 2.62000 48.79000
H  49.14600 5.71700 45.26600
H  49.90200 4.07500 45.09900
H  50.78500 5.99800 47.25900
H  51.19100 6.27200 45.53200
H  51.77600 4.80600 46.34400
H  46.71900 10.44100 46.60900
H  48.05700 9.28500 46.66000
H  47.25200 9.78300 48.09000
H  41.47300 9.50700 46.10000
H  40.14300 10.65700 49.95600
H  38.86400 9.54200 49.13500
H  39.01000 11.24500 48.77500
Mg 53.97600 24.68800 44.58100
C  51.32300 26.73700 44.13800
C  51.69600 22.04700 43.62000
C  56.54200 22.66800 43.99200
C  56.07600 27.40200 45.19100
N  51.77500 24.37900 43.90400
C  50.96700 25.46800 43.87300
C  49.51300 25.01000 43.54600
C  49.53900 23.49200 43.98200
C  51.05900 23.29000 43.80600
C  48.94900 23.15300 45.40500
C  49.18700 25.19800 42.04300
C  50.37900 25.30300 41.05900
H  49.96800 24.99900 39.57200
N  54.13600 22.62200 44.05900
C  53.10100 21.73100 43.72100
C  53.69900 20.47700 43.37500
C  55.08500 20.53100 43.67700
C  55.30400 21.99900 43.95900
C  52.86200 19.22100 43.04100
C  56.15900 19.46000 43.57400
O  55.84000 18.32100 43.34100
C  57.59800 19.64900 44.01400
N  55.99500 25.03600 44.40100
C  56.89600 24.04500 44.16700
C  58.38100 24.53900 44.31100
C  58.18700 26.10500 44.55900
C  56.64600 26.22800 44.73300
C  59.21400 23.92900 45.51200
C  58.86400 27.04500 43.44500
C  58.10500 27.11200 42.15900
N  53.77800 26.66300 44.82700
C  54.69100 27.68100 45.12800
C  53.92900 28.92200 45.27400
C  52.64900 28.56400 44.86000
C  52.60100 27.19300 44.60400
C  54.54000 30.17100 45.71900
C  51.32700 29.12800 44.63900
O  50.99700 30.28400 44.66200
C  50.41100 27.95600 44.20100
C  49.72700 28.46500 42.95900
O  50.24900 28.55800 41.84300
O  48.39600 28.77100 43.27100
C  47.64300 29.12400 42.07000
H  51.08900 21.16600 43.40100
H  57.41700 22.04000 43.80900
H  56.80000 28.16300 45.49100
H  48.85500 25.63700 44.14900
H  48.90300 23.00300 43.24300
H  49.68400 22.75600 46.10500
H  48.09100 22.49100 45.29100
H  48.54600 24.02700 45.91700
H  48.49100 26.03700 42.06200
H  48.60400 24.33600 41.71900
H  51.21700 24.65200 41.31000
H  50.74900 26.32700 41.10700
H  51.86200 19.46300 42.68200
H  52.70500 18.70200 43.98700
H  53.47900 18.70600 42.30500
H  58.06200 18.68700 44.23200
H  57.62500 20.19500 44.95700
H  58.24000 20.14900 43.28900
H  58.86800 24.40700 43.34500
H  58.54500 26.46600 45.52400
H  60.16100 23.62600 45.06500
H  58.67800 23.06200 45.89600
H  59.45000 24.71400 46.23100
H  59.86600 26.62900 43.33700
H  58.97800 28.05500 43.84000
H  57.16000 26.57000 42.12500
H  58.65500 26.83800 41.25900
H  57.79700 28.14600 42.00500
H  54.18500 30.93600 45.02800
H  55.62700 30.14400 45.78500
H  54.03700 30.38400 46.66300
H  49.68600 27.90400 45.01200
H  48.14900 29.81000 41.39100
H  46.79700 29.75000 42.35300
H  47.29300 28.29700 41.45200

