158

Mg -11.88400 38.04800 42.27600
C  -9.79800 35.35500 41.15500
C  -9.50100 40.16400 41.27700
C  -14.05000 40.50400 42.66400
C  -14.41800 35.68900 42.71600
N  -9.96400 37.77400 41.14200
C  -9.28800 36.59400 40.94600
C  -7.94600 36.88000 40.44700
C  -7.73000 38.41400 40.74300
C  -9.14400 38.84700 41.19400
C  -6.69400 38.66900 41.89800
C  -7.91500 36.49500 38.89500
C  -6.99400 35.34500 38.52900
H  -5.95400 35.61200 37.41500
N  -11.80200 40.11100 41.89700
C  -10.70400 40.75100 41.51900
C  -11.03100 42.19400 41.53700
C  -12.36700 42.29400 42.04800
C  -12.83000 40.95800 42.16000
C  -9.92200 43.24800 41.30400
C  -13.03900 43.53700 42.45400
O  -12.53900 44.60700 42.16500
C  -14.39100 43.74100 43.15100
N  -13.85200 38.11000 42.58700
C  -14.58200 39.22900 42.88900
C  -16.09100 39.05200 43.31700
C  -16.13000 37.50500 43.23000
C  -14.70700 37.02700 42.86000
C  -16.62700 39.63700 44.67400
C  -17.19500 36.94500 42.18900
C  -18.42700 36.38400 42.71900
N  -12.03000 35.91900 42.20500
C  -13.14700 35.09600 42.36400
C  -12.77600 33.77100 42.22200
C  -11.43100 33.76300 41.73900
C  -11.07900 35.10200 41.70000
C  -13.71000 32.61400 42.40200
C  -10.30300 32.96700 41.25600
O  -10.09900 31.81700 41.21200
C  -9.11300 33.98500 40.94500
C  -8.06400 33.62600 41.88600
O  -8.26300 33.72400 43.07800
O  -6.79900 33.32700 41.25100
C  -5.59900 32.93700 42.06900
H  -8.71600 40.90500 41.11500
H  -14.87300 41.17300 42.92400
H  -15.08500 34.87300 43.00200
H  -7.27000 36.27300 41.05000
H  -7.26200 38.86600 39.86900
H  -5.77100 38.09500 41.81400
H  -6.98000 38.56300 42.94400
H  -6.39700 39.71200 41.79000
H  -7.55900 37.30600 38.25900
H  -8.89000 36.20400 38.50500
H  -7.66900 34.53100 38.26500
H  -6.49500 34.88700 39.38300
H  -9.64800 43.81500 42.19300
H  -10.31700 43.86000 40.49300
H  -9.00300 42.81000 40.91400
H  -14.53000 43.05200 43.98300
H  -15.09300 43.35200 42.41300
H  -14.65200 44.76600 43.41700
H  -16.69400 39.47400 42.51300
H  -16.44700 37.15500 44.21300
H  -17.09200 38.90100 45.33000
H  -17.33900 40.44000 44.48400
H  -15.71600 40.01300 45.14000
H  -16.75100 36.22200 41.50500
H  -17.55000 37.68700 41.47400
H  -18.62200 35.43900 42.21000
H  -19.27900 36.98800 42.40800
H  -18.41100 36.10900 43.77300
H  -14.75800 32.85500 42.22700
H  -13.46800 32.20200 43.38200
H  -13.50000 31.82800 41.67700
H  -8.79500 33.77200 39.92500
H  -5.89200 32.30900 42.91000
H  -4.89900 33.75300 42.24900
H  -5.00600 32.20900 41.51500
Mg -1.81300 34.04500 26.58500
C  -3.56600 32.07100 28.70700
C  -0.24300 35.64200 29.17800
C  -0.32900 36.24800 24.30400
C  -3.44200 32.49700 23.85800
N  -1.98600 33.86300 28.69700
C  -2.67000 32.91600 29.34600
C  -2.30700 32.93900 30.85300
C  -1.35300 34.16700 30.93900
C  -1.15800 34.56900 29.54900
C  -1.87100 35.29900 31.90300
C  -1.76600 31.63600 31.47400
C  -2.42500 31.20400 32.83300
H  -1.54800 30.84200 34.07500
N  -0.49200 35.72400 26.72200
C  0.12700 36.17400 27.89200
C  1.03000 37.17500 27.62100
C  1.11400 37.21200 26.16500
C  0.03400 36.35400 25.64000
C  1.80500 38.03900 28.76400
C  2.14100 38.06800 25.31300
O  2.08900 38.09700 24.08400
C  3.14100 38.91000 25.93100
N  -2.00700 34.49200 24.38200
C  -1.27800 35.42500 23.68300
C  -1.33200 35.13200 22.13900
C  -2.28300 33.96000 22.08700
C  -2.58300 33.58200 23.56500
C  -1.87400 36.36900 21.36100
C  -1.67900 32.87000 21.19400
C  -0.78900 31.75300 21.93200
N  -3.24800 32.57500 26.25200
C  -3.84600 31.99700 25.09900
C  -4.75100 30.94600 25.47700
C  -4.63400 30.92900 26.90000
C  -3.80700 31.94200 27.29500
C  -5.53600 30.05100 24.52700
C  -5.18200 30.25100 28.12000
O  -6.02200 29.27900 28.25200
C  -4.44800 30.97400 29.35300
C  -5.49900 31.43300 30.32700
O  -6.14500 32.47700 30.28300
O  -5.52600 30.53500 31.32600
C  -6.31700 30.90900 32.54900
H  0.39800 36.09300 29.93800
H  0.24800 36.84900 23.59700
H  -3.97900 32.10900 22.99000
H  -3.26600 33.15900 31.32200
H  -0.39500 33.71400 31.19600
H  -2.91300 35.10300 32.15900
H  -1.79200 36.23600 31.35200
H  -1.21500 35.29400 32.77300
H  -0.71800 31.85100 31.68400
H  -1.80400 30.87000 30.70000
H  -2.96900 30.27800 32.65300
H  -3.13900 31.99900 33.05000
H  2.81100 37.64900 28.91500
H  1.25800 38.05400 29.70700
H  1.85300 39.05400 28.37000
H  2.57300 39.71100 26.40400
H  3.65900 39.44600 25.13500
H  3.77500 38.33100 26.60300
H  -0.27000 34.92500 22.01100
H  -3.23400 34.15200 21.59000
H  -2.86100 36.15400 20.95200
H  -1.15100 36.69200 20.61300
H  -1.97800 37.26800 21.96800
H  -1.11200 33.24900 20.34400
H  -2.54400 32.34600 20.78800
H  -0.41200 32.28400 22.80600
H  0.15800 31.62200 21.40900
H  -1.33200 30.80900 21.97400
H  -6.24200 29.43000 25.07900
H  -4.86700 29.43500 23.92500
H  -6.11300 30.66800 23.83800
H  -3.80600 30.22000 29.80700
H  -5.69600 31.44300 33.26900
H  -6.85700 30.02600 32.88900
H  -7.17900 31.49700 32.23400

