158

Mg -2.33500 17.42800 27.08800
C  -2.45800 15.27300 29.84300
C  -2.82100 20.07800 29.14300
C  -2.45900 19.43500 24.31600
C  -2.26200 14.73300 24.91400
N  -2.74600 17.65900 29.30700
C  -2.50700 16.63100 30.23400
C  -2.51500 17.17200 31.72700
C  -2.89500 18.65900 31.40100
C  -2.81800 18.79500 29.87900
C  -4.07800 19.36100 32.11200
C  -1.16200 16.98200 32.53700
C  -0.99300 17.80100 33.82800
H  -0.89700 17.08600 35.18500
N  -2.43400 19.44400 26.81500
C  -2.64500 20.42000 27.79800
C  -2.60100 21.73300 27.26100
C  -2.43200 21.54100 25.81600
C  -2.38300 20.08900 25.60100
C  -2.65500 22.93000 28.07800
C  -2.33200 22.64900 24.79400
O  -2.04100 22.40500 23.62700
C  -2.31500 24.18200 25.21500
N  -2.53700 17.10500 24.97000
C  -2.49000 18.11300 24.03800
C  -2.55300 17.51500 22.62500
C  -2.09900 16.02900 22.79900
C  -2.43900 15.94500 24.28600
C  -4.00200 17.68300 21.98700
C  -0.61200 15.87200 22.34700
C  0.51500 15.32400 23.30900
N  -2.52500 15.36200 27.25200
C  -2.40800 14.36500 26.27900
C  -2.42300 13.07700 26.91800
C  -2.54800 13.37200 28.32700
C  -2.48500 14.74000 28.44400
C  -2.45100 11.88200 26.28900
C  -2.63600 12.81600 29.59800
O  -2.68700 11.64200 30.00800
C  -2.66900 14.00300 30.69200
C  -1.73300 13.65100 31.74200
O  -0.50400 13.70300 31.69500
O  -2.45800 13.19500 32.87000
C  -1.62800 12.33300 33.75800
H  -2.83600 20.86400 29.90100
H  -2.52000 20.09300 23.44700
H  -2.01800 13.91300 24.23600
H  -3.39000 16.74200 32.21400
H  -2.00800 19.22400 31.68800
H  -3.70300 20.19700 32.70300
H  -4.61400 18.62200 32.70800
H  -4.86100 19.66100 31.41400
H  -0.41400 17.38600 31.85500
H  -0.91300 15.96700 32.84700
H  -1.92000 18.36800 33.91300
H  -0.19200 18.52400 33.66900
H  -2.04300 23.76700 27.74000
H  -2.21600 22.71400 29.05200
H  -3.67600 23.30900 28.12400
H  -3.18300 24.39200 25.84000
H  -2.26300 24.72700 24.27300
H  -1.35400 24.29000 25.71900
H  -1.77300 18.00200 22.04000
H  -2.71700 15.32900 22.23600
H  -4.65600 18.25500 22.64500
H  -4.39800 16.74000 21.61200
H  -3.79800 18.22800 21.06500
H  -0.20000 16.78100 21.90900
H  -0.70700 15.10000 21.58400
H  0.07000 15.24700 24.30100
H  1.34900 16.02500 23.33400
H  0.92000 14.35900 23.00600
H  -2.25100 11.05600 26.97300
H  -1.70600 11.67700 25.52100
H  -3.36900 11.78800 25.70900
H  -3.65400 14.02000 31.16000
H  -1.11100 12.99800 34.44900
H  -0.91000 11.69600 33.24200
H  -2.34200 11.74400 34.33400
Mg 0.14000 43.03300 26.46200
C  2.87000 42.89700 28.75700
C  -1.94200 42.64000 29.01300
C  -2.23200 42.94300 24.07200
C  2.55900 43.23100 23.87100
N  0.43400 42.80200 28.55400
C  1.62500 42.81300 29.27300
C  1.27000 42.73200 30.79400
C  -0.18200 42.19200 30.85000
C  -0.60500 42.51300 29.41000
C  -0.34700 40.62700 31.18600
C  1.45500 44.20400 31.48100
C  2.17400 44.13700 32.82800
H  1.71100 43.00900 33.78600
N  -1.80100 42.86400 26.56300
C  -2.52900 42.77900 27.71800
C  -3.91100 42.74500 27.34000
C  -4.06200 42.84600 25.91200
C  -2.68700 42.84300 25.45100
C  -5.02900 42.59800 28.33400
C  -5.30700 43.02200 25.01000
O  -5.32900 43.15000 23.73500
C  -6.62400 43.13200 25.70500
N  0.15200 43.08300 24.23100
C  -0.96100 42.98600 23.46900
C  -0.64700 42.86100 21.93400
C  0.91800 43.18600 21.94700
C  1.23800 43.27900 23.43700
C  -1.01800 41.48400 21.26100
C  1.40800 44.28000 21.05700
C  1.07800 45.67000 21.53700
N  2.28500 43.13500 26.28500
C  3.13500 43.20100 25.14000
C  4.50000 43.31900 25.58900
C  4.46800 43.07700 27.00100
C  3.08900 43.02200 27.35800
C  5.72600 43.33100 24.75600
C  5.24000 42.90500 28.16500
O  6.47900 42.83700 28.22000
C  4.28100 42.85100 29.39700
C  4.67200 41.67900 30.19300
O  4.34000 40.50800 29.92600
O  5.31500 42.03300 31.34600
C  5.66500 40.97300 32.27400
H  -2.58500 42.58300 29.89400
H  -3.03100 43.13200 23.35200
H  3.30700 43.07700 23.09100
H  1.95900 42.07900 31.33100
H  -0.68000 42.77800 31.62300
H  -0.72300 40.39400 32.18200
H  0.61500 40.11300 31.19700
H  -0.88900 40.08500 30.41100
H  0.54100 44.76800 31.66700
H  1.93100 44.86300 30.75500
H  2.13600 45.12100 33.29600
H  3.21000 43.93800 32.55400
H  -5.64100 41.75500 28.01300
H  -5.60700 43.52200 28.32600
H  -4.55800 42.43900 29.30500
H  -7.37300 43.47300 24.99100
H  -6.63400 43.97800 26.39200
H  -6.91300 42.28900 26.33400
H  -1.11300 43.66300 21.36100
H  1.40800 42.29700 21.54900
H  -0.28500 40.67800 21.21700
H  -1.41700 41.85600 20.31700
H  -1.84400 41.11300 21.86700
H  1.06500 44.16200 20.03000
H  2.49600 44.20900 21.07700
H  0.95700 46.28100 20.64200
H  1.85300 46.07700 22.18600
H  0.27200 45.60800 22.26800
H  5.47700 42.89600 23.78800
H  6.43700 42.65600 25.23300
H  6.19800 44.30000 24.59800
H  4.45200 43.72400 30.02700
H  6.18300 40.12100 31.83200
H  4.70200 40.68100 32.69200
H  6.19400 41.27000 33.18000

