158

Mg -1.40800 17.70600 27.24000
C  -2.17200 15.36200 29.71400
C  -1.79700 20.20500 29.51400
C  -1.18500 19.95300 24.69100
C  -1.51300 15.09700 24.81000
N  -2.01000 17.73400 29.36900
C  -2.03900 16.65700 30.18800
C  -1.95300 17.04600 31.65500
C  -2.00200 18.63700 31.55300
C  -1.90100 18.90900 30.04300
C  -3.01700 19.46100 32.35500
C  -0.68200 16.41700 32.47000
C  -0.24900 17.11200 33.73100
H  -0.23400 16.32300 35.13900
N  -1.50800 19.80600 27.14900
C  -1.70200 20.62100 28.20400
C  -1.59400 21.98900 27.73500
C  -1.47000 21.97600 26.31100
C  -1.39200 20.53500 25.95400
C  -1.77600 23.14500 28.74600
C  -1.30400 23.09500 25.29500
O  -1.03900 22.90900 24.12000
C  -1.30500 24.47600 25.80800
N  -1.37500 17.51700 25.08800
C  -1.28900 18.61300 24.29600
C  -1.17300 18.25100 22.72100
C  -1.16700 16.71600 22.79900
C  -1.35200 16.40000 24.29300
C  -2.25100 18.90900 21.72300
C  0.12900 16.10200 22.26800
C  1.32400 16.47100 23.11500
N  -1.72800 15.61600 27.22400
C  -1.76300 14.76000 26.13000
C  -2.09700 13.41100 26.65500
C  -2.22700 13.60400 28.05600
C  -2.04700 14.94400 28.35800
C  -2.35700 12.09300 25.87900
C  -2.46000 12.92300 29.25800
O  -2.71200 11.76100 29.48900
C  -2.52200 14.02300 30.40400
C  -1.52700 13.54700 31.38600
O  -0.31700 13.53000 31.25000
O  -2.12300 12.88900 32.41500
C  -1.24900 12.18400 33.35200
H  -1.56800 20.94000 30.28900
H  -1.14200 20.55900 23.78400
H  -1.47800 14.31000 24.05300
H  -2.82100 16.70500 32.21800
H  -1.01100 18.96500 31.86700
H  -3.80000 19.75400 31.65600
H  -2.57200 20.41000 32.65400
H  -3.46300 18.94000 33.20300
H  0.25500 16.21300 31.95100
H  -0.98900 15.43600 32.83300
H  -0.95400 17.90700 33.97600
H  0.61300 17.73900 33.50500
H  -1.53700 22.88600 29.77700
H  -2.80900 23.49000 28.68400
H  -1.17300 23.99900 28.43800
H  -1.27800 25.23700 25.02700
H  -0.44400 24.57000 26.46900
H  -2.17000 24.71100 26.42800
H  -0.17300 18.60900 22.47700
H  -2.00300 16.25700 22.27200
H  -2.99400 18.23200 21.30300
H  -1.64400 19.19800 20.86500
H  -2.68100 19.78100 22.21600
H  0.27100 16.52900 21.27500
H  0.04800 15.01600 22.21900
H  1.57500 15.61900 23.74700
H  1.17500 17.40800 23.65100
H  2.16600 16.73900 22.47800
H  -1.51300 11.44200 26.10800
H  -2.51000 12.27300 24.81500
H  -3.28900 11.62600 26.19600
H  -3.55800 13.89800 30.72200
H  -0.40900 11.73200 32.82400
H  -1.80500 11.40900 33.88000
H  -0.73200 12.89300 34.00000
Mg 47.37000 16.43600 27.63100
C  45.60700 16.46300 30.70900
C  50.01300 18.17400 29.27500
C  49.20800 16.34600 24.85600
C  44.84700 14.71300 26.18500
N  47.68000 17.31700 29.71600
C  46.85600 17.06600 30.75900
C  47.50100 17.62400 31.97400
C  48.85500 18.44500 31.54100
C  48.85800 17.99500 30.05200
C  48.80700 19.99400 31.61600
C  47.76500 16.51000 33.01400
C  47.34300 16.68000 34.52500
H  46.87200 18.12500 35.02000
N  49.26700 17.14500 27.19800
C  50.23600 17.72900 27.96500
C  51.47400 18.04300 27.25400
C  51.27100 17.49800 25.93700
C  49.88500 16.97500 25.94600
C  52.55900 18.94500 27.80500
C  52.18600 17.56300 24.70900
O  51.77900 17.17800 23.64600
C  53.53800 18.13200 24.85500
N  47.10800 15.70000 25.82700
C  47.98900 15.77000 24.77300
C  47.37900 15.33600 23.46400
C  46.02400 14.73600 23.88000
C  45.94700 15.11300 25.41300
C  47.40300 16.58500 22.44400
C  46.00600 13.19400 23.56000
C  45.16700 12.75000 22.30800
N  45.64700 15.65600 28.27300
C  44.62200 14.98900 27.58700
C  43.54900 14.66900 28.44900
C  43.91400 15.20800 29.65600
C  45.21000 15.82100 29.54700
C  42.35200 13.87300 28.14900
C  43.40400 15.36100 31.06500
O  42.34400 14.99700 31.54400
C  44.62200 16.12000 31.79900
C  44.15200 17.23800 32.53500
O  43.73700 18.26600 32.07200
O  43.85800 16.80900 33.75700
C  42.73700 17.52500 34.41100
H  50.74500 18.77400 29.81900
H  49.75000 16.20000 23.91900
H  43.95300 14.32900 25.68900
H  46.83100 18.39800 32.34700
H  49.64800 18.08300 32.19600
H  48.05000 20.23100 32.36400
H  48.64900 20.39000 30.61300
H  49.72700 20.40500 32.03100
H  48.83100 16.30000 33.10200
H  47.28600 15.59000 32.67800
H  48.20800 16.36200 35.10700
H  46.56900 15.94800 34.75500
H  53.28100 19.37400 27.11100
H  53.14400 18.36700 28.52100
H  52.08500 19.76400 28.34600
H  53.44700 19.20800 25.00400
H  54.25700 17.97100 24.05200
H  54.03900 17.67900 25.71000
H  48.08600 14.60300 23.07600
H  45.20400 15.09000 23.25600
H  46.56800 16.74900 21.76300
H  48.32200 16.45600 21.87100
H  47.40400 17.51800 23.00700
H  45.47400 12.76900 24.41100
H  47.05600 12.90200 23.57000
H  45.87900 12.86500 21.49100
H  44.27400 13.29200 21.99600
H  44.82000 11.74000 22.53100
H  42.67000 13.02800 27.53800
H  41.79700 14.55200 27.50100
H  41.88900 13.67000 29.11400
H  45.05600 15.41800 32.51100
H  41.83800 17.54000 33.79600
H  42.86400 18.52100 34.83600
H  42.32000 16.86900 35.17500

