158

Mg -2.31500 17.48900 26.70100
C  -2.58600 15.46600 29.48000
C  -2.84400 20.17500 28.71100
C  -2.34300 19.52100 23.90800
C  -2.71900 14.78300 24.63900
N  -2.69200 17.72000 28.91500
C  -2.71500 16.78400 29.88900
C  -3.17200 17.30900 31.25300
C  -3.52100 18.83700 30.87500
C  -3.01400 18.98900 29.45600
C  -5.07400 19.13500 31.18200
C  -2.10300 17.29500 32.38900
C  -2.58100 16.47000 33.62400
H  -1.46300 16.31100 34.68600
N  -2.29400 19.56500 26.34500
C  -2.52800 20.49800 27.32600
C  -2.35900 21.81800 26.77100
C  -2.08200 21.64300 25.34600
C  -2.18200 20.22700 25.15000
C  -2.43000 23.12600 27.57200
C  -1.69700 22.60100 24.24600
O  -1.33200 22.29400 23.12400
C  -1.74800 24.10700 24.54400
N  -2.73600 17.24400 24.43300
C  -2.56300 18.16100 23.53800
C  -2.56200 17.54200 22.09300
C  -2.66000 16.01200 22.39700
C  -2.62600 15.97500 23.94600
C  -3.60400 18.15500 21.10300
C  -1.58700 15.19500 21.54600
C  -0.32700 14.82200 22.32600
N  -2.55600 15.62100 26.90800
C  -2.71500 14.57500 26.01400
C  -2.77000 13.29600 26.68900
C  -2.69300 13.55700 28.01000
C  -2.57000 14.97100 28.15900
C  -2.83700 11.91500 26.11200
C  -2.62300 12.98600 29.31500
O  -2.54100 11.80300 29.70200
C  -2.58400 14.22200 30.34600
C  -1.41100 13.99000 31.12000
O  -0.30200 14.51700 31.03200
O  -1.76000 13.20900 32.15000
C  -0.67300 12.80600 33.05800
H  -3.26700 21.08800 29.13400
H  -2.29800 20.19200 23.04800
H  -2.64900 13.99600 23.88500
H  -4.08700 16.79300 31.54500
H  -2.84200 19.48600 31.42700
H  -5.25200 20.04200 31.76100
H  -5.58600 18.35100 31.73900
H  -5.58300 19.31500 30.23500
H  -1.94700 18.28200 32.82400
H  -1.07900 17.04400 32.11500
H  -2.86200 15.47300 33.28300
H  -3.45000 16.94600 34.07800
H  -3.20800 23.77100 27.16300
H  -1.47100 23.64300 27.55100
H  -2.69300 22.93400 28.61300
H  -2.82300 24.28900 24.56300
H  -1.08400 24.58200 23.82200
H  -1.19800 24.26500 25.47200
H  -1.56200 17.75900 21.71600
H  -3.68500 15.80900 22.08800
H  -4.04200 19.03900 21.56600
H  -4.33600 17.36800 20.92400
H  -3.06100 18.33600 20.17500
H  -1.28800 15.78600 20.68100
H  -2.12500 14.31100 21.20400
H  -0.39500 15.30800 23.29900
H  0.53000 15.10000 21.71200
H  -0.38200 13.74600 22.49000
H  -1.97400 11.30100 26.37100
H  -3.04300 12.01200 25.04600
H  -3.59400 11.35600 26.66100
H  -3.33800 14.20500 31.13200
H  0.29500 12.89800 32.56500
H  -0.71300 11.77700 33.41500
H  -0.84100 13.47100 33.90500
Mg 42.29600 41.35400 26.11100
C  41.55600 43.77200 28.53700
C  43.62900 39.43900 28.55400
C  43.51600 39.47500 23.68200
C  41.92000 44.00000 23.71900
N  42.48500 41.62200 28.34800
C  41.94400 42.59900 29.15000
C  41.97100 42.20900 30.67100
C  42.86300 40.98900 30.66500
C  43.01900 40.65700 29.11500
C  44.22500 41.20700 31.39800
C  40.55500 41.88200 31.23200
C  40.57500 41.51200 32.70600
H  39.90700 42.52000 33.67400
N  43.29200 39.65500 26.11700
C  43.77400 38.99200 27.22600
C  44.40500 37.83800 26.81800
C  44.41100 37.77700 25.38100
C  43.69100 38.98700 24.97700
C  45.04100 36.89400 27.84900
C  45.04600 36.78300 24.44100
O  45.14200 36.99400 23.24500
C  45.81000 35.49400 25.00100
N  42.48800 41.66900 23.97600
C  42.97700 40.67100 23.22000
C  42.87900 41.02300 21.73100
C  42.41400 42.47600 21.73400
C  42.18900 42.75900 23.22100
C  44.09900 40.74000 20.83700
C  41.10800 42.56400 20.89200
C  40.68500 43.92800 20.36500
N  41.64100 43.40600 26.06400
C  41.58700 44.34700 25.05100
C  41.24800 45.61900 25.51400
C  41.02700 45.37700 26.89100
C  41.38600 44.07800 27.15100
C  41.04600 46.85000 24.65100
C  40.70800 46.06300 28.16500
O  40.37400 47.21000 28.37200
C  40.96900 44.97100 29.24900
C  41.96800 45.53100 30.24400
O  43.16300 45.64800 30.01000
O  41.40600 45.61100 31.43300
C  42.31800 45.51100 32.59200
H  44.07300 38.84300 29.35400
H  43.60400 38.76800 22.85500
H  41.79100 44.86000 23.05900
H  42.51000 43.00400 31.18700
H  42.45000 40.09500 31.13300
H  44.21500 40.72100 32.37400
H  44.29300 42.27200 31.61600
H  45.02100 40.83900 30.75100
H  40.35100 40.97700 30.65900
H  39.80600 42.63100 30.97500
H  41.61400 41.59700 33.02300
H  40.18300 40.54400 33.02000
H  44.83900 35.86600 27.54900
H  44.56800 36.89300 28.83100
H  46.12600 37.00300 27.83900
H  46.48000 35.82900 25.79300
H  46.37900 35.09500 24.16200
H  45.20200 34.74900 25.51400
H  42.10500 40.37500 21.32000
H  43.18800 43.14400 21.35400
H  44.38400 41.52100 20.13200
H  43.89300 39.92400 20.14400
H  44.92600 40.49900 21.50500
H  40.33400 42.17000 21.55000
H  41.09800 41.81900 20.09600
H  41.23300 44.83300 20.62900
H  39.67100 44.27900 20.55700
H  40.89000 43.92500 19.29400
H  40.02100 46.94400 24.29400
H  41.82700 46.90000 23.89200
H  41.14200 47.71600 25.30600
H  40.07900 44.63900 29.78400
H  43.08400 46.27900 32.70000
H  42.85300 44.56300 32.55400
H  41.67900 45.57700 33.47300

