158

Mg 50.93400 45.64900 43.52200
C  48.08100 47.04100 42.15800
C  50.18500 42.65400 42.06000
C  54.10800 44.63300 44.11600
C  51.74100 48.70600 44.90100
N  49.29500 45.01300 42.25600
C  48.20000 45.65300 41.90900
C  47.16400 44.78000 41.20100
C  47.82500 43.35100 41.39500
C  49.24600 43.68400 41.94500
C  47.22900 42.40700 42.50200
C  46.96500 45.31400 39.74700
C  45.50300 45.53200 39.37300
H  44.93800 44.59700 38.31400
N  51.96400 43.84200 43.19300
C  51.47300 42.69000 42.57200
C  52.59100 41.71400 42.45100
C  53.78100 42.31600 42.94900
C  53.29700 43.63100 43.48200
C  52.47200 40.38700 41.77800
C  55.22900 41.76500 42.95400
O  55.47700 40.54700 42.60800
C  56.49600 42.50800 43.42200
N  52.65700 46.52600 44.40200
C  53.83400 45.90500 44.49300
C  54.91900 46.74600 45.20700
C  54.06800 47.94400 45.69800
C  52.75600 47.73300 44.92700
C  55.86200 46.18500 46.32500
C  54.84100 49.24300 45.32500
C  54.74300 50.29000 46.43900
N  50.06000 47.55300 43.66600
C  50.47400 48.71700 44.23500
C  49.54100 49.80700 43.95800
C  48.55000 49.13400 43.15700
C  48.97100 47.80700 42.91600
C  49.59300 51.17100 44.47400
C  47.35200 49.39000 42.36500
O  46.80400 50.40500 42.05700
C  46.95500 47.99000 41.71100
C  45.52500 47.65100 42.16600
O  45.30600 46.96400 43.13100
O  44.52900 48.06500 41.24100
C  43.19100 47.78500 41.80500
H  50.00700 41.69500 41.56900
H  55.15700 44.38500 44.28600
H  52.00900 49.62700 45.42300
H  46.27300 45.03400 41.77500
H  47.90400 42.73800 40.49600
H  47.79600 42.42600 43.43300
H  47.31600 41.35900 42.21500
H  46.19300 42.67200 42.71100
H  47.47500 44.56900 39.13700
H  47.46000 46.23900 39.45000
H  45.37300 46.54400 38.98900
H  44.85300 45.47300 40.24600
H  53.44300 40.03500 41.42900
H  51.83700 40.52200 40.90300
H  51.99200 39.66100 42.43400
H  56.54700 42.67500 44.49800
H  56.53200 43.49600 42.96400
H  57.38600 41.92100 43.19400
H  55.48700 47.10900 44.35100
H  53.83100 47.76700 46.74700
H  55.63400 45.11900 46.34500
H  55.59800 46.70000 47.24900
H  56.86100 46.43600 45.97100
H  54.42100 49.60200 44.38500
H  55.91100 49.07000 45.21000
H  54.14400 51.11300 46.04900
H  55.72100 50.73300 46.62800
H  54.30800 50.02800 47.40300
H  49.02000 51.68300 43.70200
H  50.56900 51.64700 44.57100
H  49.09900 51.16800 45.44600
H  46.86800 48.20200 40.64600
H  42.48200 48.44900 41.30900
H  43.10400 47.83300 42.89000
H  43.05400 46.77100 41.42900
Mg -10.15300 16.93000 40.81600
C  -6.66500 16.65800 41.27900
C  -9.77700 20.32600 40.50000
C  -13.34800 17.04100 39.98700
C  -10.22000 13.48400 40.64200
N  -8.42100 18.26600 40.99300
C  -7.12500 17.98500 41.09800
C  -6.29300 19.24300 40.90200
C  -7.25000 20.44800 41.17300
C  -8.56400 19.66100 40.85800
C  -7.21200 21.11900 42.54000
C  -5.67200 19.32700 39.48400
C  -4.25400 18.94000 39.33600
H  -3.79600 18.16200 38.13000
N  -11.48300 18.51400 40.30100
C  -11.12200 19.82900 40.20800
C  -12.26900 20.56900 39.71200
C  -13.32600 19.60300 39.47400
C  -12.74500 18.34000 39.91700
C  -12.32300 22.09700 39.48300
C  -14.75800 19.87700 39.00200
O  -15.04100 21.06900 38.73200
C  -15.94900 18.86200 38.97100
N  -11.52800 15.41000 40.16100
C  -12.81600 15.75600 40.17100
C  -13.66100 14.47700 40.43400
C  -12.63100 13.34400 40.21600
C  -11.36800 14.12400 40.31900
C  -14.46500 14.52600 41.82500
C  -12.77500 12.63100 38.86900
C  -12.79400 11.10900 38.92200
N  -8.78000 15.33200 41.02200
C  -9.00900 13.98900 41.02100
C  -7.74500 13.32100 41.31800
C  -6.79000 14.34600 41.49800
C  -7.49500 15.53900 41.29900
C  -7.54000 11.86500 41.54800
C  -5.46500 14.66000 41.77500
O  -4.56500 13.90000 41.99000
C  -5.28000 16.12100 41.46800
C  -4.42000 16.73700 42.50500
O  -3.29000 17.13800 42.35300
O  -5.21200 16.99100 43.61800
C  -4.58200 17.60900 44.76300
H  -9.59900 21.39800 40.39500
H  -14.43200 16.98000 39.86900
H  -10.29800 12.40200 40.51500
H  -5.54900 19.37000 41.68800
H  -7.24000 21.13300 40.32400
H  -6.21100 21.15900 42.97000
H  -7.87400 20.63100 43.25400
H  -7.49500 22.14000 42.28300
H  -5.74600 20.38300 39.22300
H  -6.24400 18.68000 38.82000
H  -4.04800 18.28300 40.18200
H  -3.67700 19.84800 39.51100
H  -11.54800 22.40100 38.78000
H  -12.02800 22.71400 40.33100
H  -13.20500 22.45600 38.95300
H  -15.57600 18.17700 38.21000
H  -16.84600 19.33800 38.57300
H  -15.93600 18.47400 39.98900
H  -14.47800 14.47400 39.71200
H  -12.62000 12.63100 41.04000
H  -14.54400 13.48500 42.13700
H  -15.44300 15.00500 41.78800
H  -13.96400 15.07000 42.62600
H  -11.87200 12.88800 38.31500
H  -13.64200 12.92900 38.28000
H  -12.67500 10.74200 39.94100
H  -11.86600 10.81800 38.43000
H  -13.63700 10.73600 38.34100
H  -7.18700 11.24400 40.72500
H  -8.52200 11.56900 41.91700
H  -6.85100 11.78300 42.38900
H  -4.74100 16.23800 40.52800
H  -5.16600 17.25700 45.61400
H  -4.79900 18.67700 44.78600
H  -3.54700 17.33900 44.97400

