158

Mg 49.20500 47.96400 42.61500
C  45.89100 47.58900 41.32200
C  49.79400 44.82800 41.43400
C  52.26100 48.48100 43.54600
C  48.23200 51.19000 43.58700
N  48.02200 46.53600 41.25400
C  46.70000 46.56900 40.94500
C  46.31000 45.32800 40.11900
C  47.54500 44.38200 40.37800
C  48.48900 45.31300 41.06200
C  47.11800 43.20800 41.33600
C  46.07600 45.77900 38.67300
C  44.77600 45.36700 37.89400
H  44.93000 44.51900 36.62800
N  50.80100 46.84400 42.46000
C  50.85300 45.57300 41.95400
C  52.22600 45.13200 41.93700
C  52.99800 46.14300 42.57900
C  52.03000 47.25300 42.89200
C  52.63800 43.78500 41.31800
C  54.47800 46.08000 42.79000
O  55.14800 45.12300 42.45500
C  55.21600 47.17000 43.49800
N  50.16500 49.66600 43.34300
C  51.46800 49.61100 43.62500
C  51.92900 50.93700 44.32900
C  50.61100 51.78100 44.36700
C  49.62900 50.87800 43.72800
C  52.58300 50.85400 45.74900
C  50.73700 53.17800 43.67600
C  50.80500 54.27300 44.78500
N  47.45700 49.13100 42.55700
C  47.24200 50.38100 43.02700
C  45.85300 50.77500 42.78200
C  45.24100 49.65800 42.23500
C  46.30900 48.76400 42.01300
C  45.29400 52.12200 43.05400
C  43.99500 49.16000 41.60600
O  42.88200 49.60100 41.44600
C  44.41500 47.72700 41.02700
C  43.54700 46.73900 41.64500
O  43.71400 46.41100 42.80200
O  42.61100 46.30400 40.72500
C  41.65100 45.38600 41.28600
H  50.07300 43.79300 41.22600
H  53.22700 48.58700 44.04400
H  47.86300 52.13700 43.98700
H  45.40200 44.97100 40.60600
H  47.84500 44.07400 39.37600
H  46.16500 43.32700 41.85000
H  47.85800 43.21400 42.13700
H  47.22000 42.20900 40.91100
H  46.84300 45.41100 37.99200
H  46.17400 46.86500 38.66600
H  44.28900 46.21400 37.41000
H  44.03400 44.86800 38.51800
H  52.63400 43.83900 40.23000
H  51.95900 42.99400 41.63700
H  53.60400 43.45700 41.70200
H  55.06100 48.10400 42.95900
H  56.30200 47.07500 43.50900
H  54.78900 47.15400 44.50100
H  52.72700 51.27800 43.67000
H  50.34800 51.99300 45.40300
H  52.50900 49.82600 46.10200
H  52.24100 51.55600 46.51000
H  53.59000 51.19500 45.50800
H  49.82000 53.28700 43.09500
H  51.60500 53.11200 43.02000
H  50.26900 55.14500 44.41000
H  51.84100 54.50300 45.03400
H  50.35900 54.13700 45.77000
H  45.16800 52.78400 42.19700
H  45.85200 52.66800 43.81500
H  44.34600 52.09700 43.59100
H  44.23600 47.79000 39.95400
H  41.90800 44.32700 41.29600
H  40.68600 45.30900 40.78600
H  41.37500 45.56200 42.32500
Mg -12.90200 16.41700 42.63100
C  -10.17900 14.06300 42.33000
C  -10.92500 18.73900 41.08500
C  -15.54500 18.16000 42.11800
C  -14.64300 13.76900 44.00900
N  -10.85800 16.33400 41.69100
C  -9.89100 15.29700 41.80300
C  -8.58800 15.85900 41.19300
C  -8.79900 17.40900 41.08900
C  -10.30700 17.47300 41.33800
C  -7.87100 18.31200 42.07700
C  -8.12000 15.22300 39.83100
C  -6.56600 15.11900 39.61400
H  -6.04500 15.74900 38.29300
N  -13.14100 18.32200 41.87600
C  -12.22800 19.15200 41.29100
C  -12.83200 20.40100 41.07900
C  -14.27300 20.16000 41.15100
C  -14.38000 18.85700 41.77300
C  -12.00400 21.52400 40.63600
C  -15.30500 21.12700 40.58300
O  -14.95200 22.22500 40.07500
C  -16.79900 20.79400 40.63800
N  -14.88500 16.01300 42.99100
C  -15.82400 16.86100 42.65100
C  -17.19800 16.30100 42.95700
C  -16.90200 15.02300 43.77000
C  -15.37800 14.91100 43.58200
C  -18.09300 17.38500 43.69700
C  -17.56800 13.76600 43.28800
C  -17.92100 12.71700 44.26700
N  -12.50200 14.37300 43.09300
C  -13.30600 13.43200 43.72900
C  -12.61000 12.24300 44.01800
C  -11.36300 12.46300 43.42400
C  -11.37600 13.77100 42.89800
C  -13.14500 10.99600 44.63800
C  -10.11100 11.76300 43.11700
O  -9.74700 10.64400 43.39200
C  -9.30400 12.83700 42.28900
C  -7.96400 12.99900 43.00600
O  -7.76900 13.29000 44.19400
O  -6.96100 12.78500 42.15400
C  -5.67400 13.17800 42.70800
H  -10.17500 19.45100 40.73300
H  -16.45500 18.76300 42.11600
H  -15.24700 13.03400 44.54500
H  -7.92200 15.65300 42.03100
H  -8.66000 17.74600 40.06200
H  -8.46700 19.08200 42.56700
H  -7.13400 18.77100 41.41800
H  -7.33300 17.83100 42.89500
H  -8.56000 15.88000 39.08100
H  -8.50600 14.21700 39.66400
H  -6.47700 14.05200 39.81800
H  -5.97700 15.69600 40.32800
H  -12.39700 22.53800 40.55700
H  -11.66400 21.27800 39.63000
H  -11.04700 21.58800 41.15400
H  -17.12200 20.79700 41.67900
H  -17.03900 19.79200 40.28000
H  -17.30400 21.54900 40.03600
H  -17.67800 16.05800 42.00900
H  -17.14000 15.12400 44.82900
H  -17.52600 18.24100 44.06200
H  -18.49500 16.98500 44.62800
H  -18.89600 17.70600 43.03300
H  -16.90400 13.43100 42.49100
H  -18.49600 14.07200 42.80500
H  -17.54100 12.83300 45.28200
H  -17.63700 11.74000 43.87700
H  -19.00300 12.60300 44.32400
H  -12.43100 10.49200 45.28900
H  -13.47000 10.25000 43.91200
H  -14.08400 11.17600 45.16200
H  -9.13400 12.52300 41.25900
H  -5.05200 12.29800 42.87100
H  -5.51000 13.84400 43.55600
H  -5.24900 13.71300 41.85900

