158

Mg 26.13800 0.29100 28.37900
C  27.75300 0.08300 31.43300
C  23.17500 0.71700 30.11900
C  24.48900 0.24000 25.41300
C  29.05700 -0.70200 26.77700
N  25.57700 0.30200 30.60000
C  26.39400 0.22300 31.64800
C  25.65600 0.50600 33.03200
C  24.18000 0.63400 32.48500
C  24.30300 0.49600 30.95500
C  23.15700 -0.41200 33.10500
C  26.15100 1.68500 33.90200
C  26.56600 1.25200 35.32900
H  26.04200 2.23000 36.43200
N  24.14500 0.51200 27.80500
C  23.06700 0.68600 28.65200
C  21.87600 0.87600 27.90800
C  22.22200 0.88100 26.54400
C  23.68600 0.45600 26.51800
C  20.53400 0.91500 28.56100
C  21.32200 1.20500 25.31100
O  21.84400 1.18100 24.17200
C  19.94700 1.70100 25.52700
N  26.67300 -0.21800 26.38000
C  25.83600 -0.09900 25.29500
C  26.56800 -0.18300 23.91300
C  28.04700 -0.40900 24.39100
C  27.97400 -0.37300 25.98900
C  26.16900 -1.33800 22.92500
C  29.16100 0.55900 23.77700
C  29.33500 1.94000 24.38600
N  28.03300 -0.18300 28.96200
C  29.10600 -0.49000 28.16300
C  30.25900 -0.65600 28.99500
C  29.73100 -0.38400 30.30300
C  28.40300 -0.15000 30.20600
C  31.64700 -1.00100 28.55800
C  30.14600 -0.30000 31.71000
O  31.17600 -0.49600 32.31100
C  28.82800 0.07100 32.47400
C  28.50000 -0.93200 33.58800
O  27.73100 -1.87100 33.50600
O  29.22000 -0.67500 34.74400
C  28.85300 -1.37400 35.98300
H  22.37200 0.85300 30.84600
H  24.07600 0.49300 24.43400
H  29.98400 -0.92300 26.24500
H  25.67300 -0.38400 33.66100
H  23.88400 1.65000 32.74800
H  22.30000 0.17000 33.44400
H  23.50900 -0.83500 34.04500
H  22.92000 -1.14800 32.33700
H  25.49700 2.54000 34.08000
H  27.08900 1.99200 33.44000
H  27.63400 1.06000 35.42800
H  26.15600 0.25000 35.45600
H  20.30000 1.96900 28.71200
H  20.58500 0.29900 29.45900
H  19.70100 0.43200 28.05000
H  19.36100 0.81900 25.78400
H  19.64500 2.20200 24.60700
H  19.95700 2.36500 26.39100
H  26.34800 0.76800 23.42800
H  28.39800 -1.43100 24.25300
H  25.09900 -1.53200 22.99800
H  26.66900 -2.29400 23.08200
H  26.32200 -1.04600 21.88600
H  29.06300 0.76900 22.71200
H  30.12000 0.04500 23.83700
H  28.69300 2.58100 23.78300
H  30.36500 2.23000 24.17600
H  29.25100 1.85700 25.47000
H  32.06800 -1.67600 29.30200
H  32.27500 -0.11500 28.66200
H  31.54000 -1.58200 27.64100
H  28.97100 1.06200 32.90400
H  29.11600 -2.43100 35.93600
H  27.77800 -1.27800 36.13500
H  29.25800 -0.91700 36.88600
Mg -2.54600 34.56100 26.64500
C  -3.55200 32.36100 29.23100
C  -0.95000 36.51200 28.94400
C  -1.87600 36.77800 24.12300
C  -4.44300 32.68100 24.42000
N  -2.17400 34.25000 28.81400
C  -2.65600 33.31900 29.71900
C  -2.44500 33.77000 31.12800
C  -1.78500 35.18200 31.02200
C  -1.66200 35.34200 29.46900
C  -2.73200 36.38200 31.69700
C  -1.83600 32.78200 32.16600
C  -2.48800 32.86900 33.58000
H  -1.60300 32.52700 34.74500
N  -1.46000 36.30300 26.54500
C  -0.81800 36.91400 27.57600
C  -0.14300 38.09700 27.10700
C  -0.42200 38.17800 25.70900
C  -1.27300 37.04400 25.35600
C  0.81200 38.98500 27.89200
C  0.12100 39.21500 24.66200
O  -0.11500 39.13500 23.45600
C  0.90900 40.41200 25.09200
N  -3.24900 34.79000 24.51800
C  -2.61600 35.67700 23.73800
C  -3.04500 35.34600 22.30600
C  -3.72700 33.99800 22.32500
C  -3.90900 33.83900 23.80000
C  -4.07500 36.42200 21.82000
C  -2.97600 32.85400 21.51100
C  -1.80900 32.05200 22.16400
N  -3.77100 32.94700 26.76800
C  -4.43500 32.25400 25.80000
C  -5.19300 31.12100 26.38900
C  -4.84000 31.14600 27.69600
C  -3.95400 32.23400 27.91200
C  -5.98300 30.09300 25.70900
C  -4.97000 30.35700 28.90300
O  -5.54100 29.27200 29.07500
C  -4.41800 31.37300 30.04400
C  -5.54000 32.10400 30.73900
O  -6.12800 33.05400 30.23600
O  -5.81200 31.49900 31.93800
C  -6.63300 32.31900 32.91800
H  -0.41800 37.15200 29.65100
H  -1.66500 37.39000 23.24400
H  -5.03700 32.03100 23.77400
H  -3.45900 33.89000 31.51100
H  -0.80200 35.24900 31.48900
H  -3.71300 35.95600 31.90900
H  -2.75700 37.25900 31.05000
H  -2.22900 36.59900 32.63900
H  -0.76100 32.93700 32.25100
H  -1.89200 31.78800 31.72200
H  -3.07700 31.95200 33.56500
H  -3.13800 33.73300 33.71600
H  1.20000 38.44500 28.75600
H  0.28100 39.89300 28.18000
H  1.73200 39.16800 27.33700
H  1.18900 41.17000 24.36000
H  1.94800 40.10500 25.20400
H  0.33300 40.70200 25.97100
H  -2.15600 35.31600 21.67600
H  -4.79100 33.99600 22.08900
H  -4.34700 37.14100 22.59200
H  -5.04400 36.09700 21.43900
H  -3.67500 37.10000 21.06600
H  -2.62100 33.16000 20.52700
H  -3.67900 32.04000 21.33500
H  -0.99200 32.22400 21.46400
H  -1.90800 30.97900 22.33400
H  -1.56400 32.51500 23.12000
H  -5.80500 30.05700 24.63400
H  -6.98300 30.44500 25.96000
H  -5.85800 29.06400 26.04500
H  -3.84900 30.73300 30.71700
H  -5.97200 32.96900 33.49200
H  -7.05300 31.51100 33.51700
H  -7.41400 32.84700 32.37000

