158

Mg 6.43200 54.08300 40.48700
C  5.45100 50.68100 40.37900
C  9.72200 53.04800 39.68600
C  7.27500 57.34000 40.39200
C  3.11400 54.91100 40.98000
N  7.45600 52.06200 39.96700
C  6.78300 50.86900 40.06500
C  7.83300 49.71500 39.94600
C  9.20600 50.49300 40.10400
C  8.81100 51.96900 39.73100
C  9.89200 50.38800 41.53900
C  7.79800 49.10800 38.52800
C  7.94800 49.95200 37.25600
H  7.06500 49.44100 36.10100
N  8.23700 55.05900 40.17000
C  9.41200 54.49300 39.83000
C  10.31000 55.52800 39.54300
C  9.72500 56.83800 39.81500
C  8.35000 56.47000 40.24600
C  11.76600 55.22200 39.10800
C  10.29900 58.20300 39.58400
O  11.47500 58.32000 39.29300
C  9.56500 59.55700 39.69300
N  5.36900 55.85000 40.90200
C  5.91200 57.09700 40.71900
C  4.89200 58.22000 40.62300
C  3.51100 57.36600 40.68200
C  4.01600 55.94100 40.81100
C  5.25100 59.29900 41.63700
C  2.43600 57.57700 39.53600
C  1.00500 57.73000 40.11400
N  4.63500 53.05300 40.74300
C  3.41000 53.53800 41.05000
C  2.45200 52.46100 41.21200
C  3.25200 51.27700 41.00500
C  4.52300 51.70100 40.61800
C  1.05800 52.55400 41.67400
C  3.24900 49.87700 41.16000
O  2.41700 49.06600 41.54200
C  4.67700 49.43900 40.61800
C  4.37200 48.63100 39.44900
O  3.76600 48.89800 38.43900
O  4.92300 47.37500 39.71600
C  4.74100 46.37400 38.71300
H  10.76500 52.74700 39.56800
H  7.51700 58.40000 40.29000
H  2.09000 55.28500 41.05000
H  7.72900 48.97700 40.74200
H  9.91600 50.09100 39.38200
H  10.04700 51.36000 42.00900
H  10.83600 49.92500 41.25000
H  9.25200 49.76200 42.16000
H  6.85200 48.56900 38.49100
H  8.61000 48.38700 38.43300
H  8.96500 49.83500 36.88000
H  7.83100 51.02500 37.40300
H  12.13900 55.90800 38.34800
H  11.92700 54.22600 38.69700
H  12.41700 55.35100 39.97300
H  10.29800 60.34000 39.50000
H  9.15800 59.64500 40.70000
H  8.74400 59.59800 38.97700
H  4.99400 58.57300 39.59700
H  3.06300 57.73700 41.60400
H  5.83500 60.02400 41.07000
H  5.74600 58.97200 42.55100
H  4.28700 59.73500 41.89700
H  2.57700 56.72000 38.87700
H  2.61200 58.47900 38.95100
H  0.92800 57.79800 41.19900
H  0.39000 56.89300 39.78300
H  0.55600 58.63300 39.70200
H  0.39200 52.18300 40.89400
H  0.89400 53.60500 41.90900
H  0.90000 52.05500 42.63000
H  5.26300 48.89700 41.36100
H  5.29000 45.45400 38.91200
H  4.97900 46.70700 37.70200
H  3.70400 46.04100 38.76900
Mg -11.53800 38.93900 41.77100
C  -9.57600 36.36600 41.05800
C  -9.17700 41.24600 40.43000
C  -13.84000 41.52000 41.81100
C  -14.05000 36.72600 42.87300
N  -9.50600 38.80700 41.06400
C  -8.99600 37.53300 40.61400
C  -7.72800 37.73500 39.80200
C  -7.58600 39.27800 39.62600
C  -8.75800 39.84300 40.49000
C  -6.15200 39.69300 40.06200
C  -7.69700 36.95000 38.43200
C  -6.51000 35.90200 38.36100
H  -5.55600 36.04800 37.15700
N  -11.47000 41.05900 41.25300
C  -10.37000 41.80400 40.87700
C  -10.74100 43.18400 40.64800
C  -12.10200 43.22700 40.74600
C  -12.55300 41.91200 41.27200
C  -9.84700 44.24100 40.15100
C  -12.91300 44.39700 40.41800
O  -12.45500 45.45500 40.00500
C  -14.44600 44.44900 40.54800
N  -13.63000 39.08200 42.10500
C  -14.27800 40.27200 42.26100
C  -15.65900 40.20700 42.96600
C  -15.72800 38.60500 43.15200
C  -14.36300 38.10500 42.76600
C  -15.85700 41.02000 44.27100
C  -16.80400 37.90600 42.19700
C  -18.03800 37.33200 42.94000
N  -11.77600 37.03100 41.93700
C  -12.78500 36.24000 42.53600
C  -12.39600 34.83800 42.63600
C  -11.13500 34.88400 42.04800
C  -10.80600 36.19900 41.67100
C  -13.19500 33.67000 43.12700
C  -9.99000 34.04000 41.61000
O  -9.82600 32.88800 41.70400
C  -8.97900 34.94200 40.87900
C  -7.63700 34.76600 41.43000
O  -6.85800 34.01400 40.96500
O  -7.50200 35.60300 42.49000
C  -6.15200 35.60500 43.11800
H  -8.51200 41.88200 39.84100
H  -14.52200 42.36000 41.95300
H  -14.73100 36.00600 43.33100
H  -6.94200 37.35600 40.45500
H  -7.71900 39.49800 38.56700
H  -5.94900 40.60300 39.49800
H  -5.39800 39.01800 39.65600
H  -5.95500 39.91100 41.11200
H  -7.46200 37.67900 37.65600
H  -8.68400 36.50200 38.32100
H  -6.96000 34.90900 38.36000
H  -5.88700 35.93000 39.25500
H  -8.79700 44.05900 40.38000
H  -9.94100 45.25300 40.54400
H  -9.95000 44.34300 39.07100
H  -14.93200 43.60500 40.05900
H  -14.75200 45.42900 40.18200
H  -14.78200 44.60100 41.57400
H  -16.32300 40.50000 42.15300
H  -16.09500 38.36800 44.15100
H  -16.44400 41.91500 44.06500
H  -14.86400 41.34800 44.57800
H  -16.42800 40.46300 45.01400
H  -16.31700 37.15400 41.57600
H  -17.27600 38.63300 41.53700
H  -17.81600 36.28300 43.13200
H  -18.91800 37.48000 42.31400
H  -18.14900 37.89500 43.86700
H  -14.22700 33.72000 42.78000
H  -13.23200 33.78200 44.21000
H  -12.59900 32.76900 42.97700
H  -9.01500 34.66300 39.82600
H  -5.83600 36.64400 43.20700
H  -5.31600 35.13100 42.60300
H  -6.16100 35.21700 44.13700

