158

Mg 0.52400 7.50400 26.93800
C  1.52000 9.40700 29.60900
C  0.62100 4.70300 28.77400
C  0.32400 5.87800 24.07600
C  0.74000 10.59300 24.94800
N  1.01700 7.19100 28.94400
C  1.15900 8.11200 29.93400
C  0.90500 7.45400 31.31000
C  0.87000 5.93700 31.03500
C  0.84200 5.95200 29.47600
C  2.10900 5.04900 31.51800
C  -0.31800 8.09800 32.08200
C  -0.09100 8.32800 33.64200
H  0.93400 7.52300 34.34000
N  0.47300 5.45000 26.45300
C  0.44000 4.44700 27.42600
C  0.14600 3.26400 26.66500
C  0.01000 3.59200 25.27700
C  0.21200 5.06100 25.23900
C  -0.11700 1.94900 27.35000
C  -0.27100 2.72200 24.07900
O  -0.48800 3.13400 22.92500
C  -0.34200 1.30900 24.36500
N  0.55300 8.19500 24.76300
C  0.54200 7.26200 23.79200
C  0.68700 7.90300 22.43900
C  0.34400 9.39900 22.72400
C  0.60100 9.44300 24.24800
C  2.00000 7.59700 21.58200
C  -1.15400 9.81700 22.35100
C  -1.39500 10.41300 20.96500
N  0.90700 9.57000 27.11000
C  0.99200 10.72000 26.26900
C  1.51600 11.85100 26.97800
C  1.68300 11.45400 28.28800
C  1.40500 9.98400 28.28800
C  1.76100 13.21100 26.35300
C  2.08600 11.82400 29.59900
O  2.44900 12.87900 30.01400
C  1.65000 10.60600 30.50500
C  2.74000 10.53100 31.53500
O  3.81000 9.94100 31.41200
O  2.32400 11.15300 32.64200
C  3.34000 11.02800 33.73000
H  0.62900 3.80000 29.38800
H  0.37900 5.29500 23.15400
H  0.78300 11.49700 24.33700
H  1.83500 7.58800 31.86200
H  -0.07000 5.47900 31.34400
H  2.71900 5.35000 32.37000
H  2.77200 4.98800 30.65400
H  1.61100 4.15900 31.90200
H  -1.24000 7.55500 31.87300
H  -0.38300 9.10200 31.66300
H  -1.07900 8.43100 34.09000
H  0.29500 9.34400 33.73100
H  -0.17300 2.00100 28.43700
H  0.73400 1.29500 27.16500
H  -1.05400 1.51900 26.99500
H  -1.32100 1.11800 24.80500
H  0.56900 1.08000 24.91700
H  -0.17800 0.81500 23.40800
H  -0.17300 7.52000 21.89000
H  1.11000 10.03500 22.28000
H  2.88600 7.42900 22.19400
H  2.32700 8.47200 21.02100
H  1.86900 6.73300 20.93000
H  -1.66300 10.41600 23.10700
H  -1.69900 8.87900 22.44800
H  -0.58900 10.23800 20.25200
H  -1.57200 11.47300 21.14700
H  -2.30200 10.03400 20.49300
H  2.54000 13.72700 26.91400
H  0.80500 13.73200 26.39000
H  2.03500 13.05000 25.31000
H  0.71100 10.84000 31.00700
H  4.30700 11.49400 33.53700
H  3.44300 9.96800 33.96000
H  2.99800 11.58800 34.60100
Mg 49.54800 47.06600 44.09000
C  46.33600 47.20300 42.95500
C  50.01300 44.20100 42.28700
C  52.84100 47.32600 44.65700
C  49.30800 50.41300 45.09200
N  48.33800 45.96300 42.65100
C  47.04700 46.06900 42.49700
C  46.47400 44.94300 41.61300
C  47.60200 43.92800 41.57300
C  48.73200 44.72400 42.20000
C  47.36900 42.57200 42.23700
C  45.97700 45.50200 40.22800
C  44.73900 44.80200 39.69900
H  44.33200 44.69700 38.18600
N  51.20300 45.78200 43.64200
C  51.18800 44.63800 42.97700
C  52.51400 44.11000 42.93600
C  53.28500 44.89700 43.81900
C  52.44900 46.07500 44.06000
C  52.96200 43.01400 42.03100
C  54.71400 44.59800 44.31400
O  55.27500 43.56800 43.86700
C  55.51200 45.35700 45.33800
N  50.97100 48.72900 44.56500
C  52.23600 48.51200 44.85000
C  53.00500 49.73400 45.33400
C  51.83400 50.72700 45.64300
C  50.60700 49.94200 45.03000
C  53.91100 49.61100 46.62000
C  52.07600 52.10900 44.97100
C  52.08200 53.35800 45.86900
N  48.09900 48.52000 44.18700
C  48.19900 49.82800 44.59300
C  46.86900 50.41100 44.51400
C  46.06100 49.38900 43.88800
C  46.95100 48.29500 43.69600
C  46.52200 51.79400 44.95300
C  44.80200 49.01000 43.37500
O  43.69500 49.58500 43.44400
C  44.92000 47.61000 42.71500
C  43.98000 46.73800 43.42300
O  44.24500 46.17300 44.47500
O  42.86800 46.43900 42.65800
C  41.94600 45.45100 43.27000
H  50.08500 43.18000 41.90600
H  53.90500 47.36100 44.90000
H  49.10400 51.40800 45.49300
H  45.64600 44.59800 42.23300
H  47.87100 43.69200 40.54300
H  46.36400 42.22400 41.99900
H  47.48900 42.52100 43.31900
H  48.02100 41.82100 41.79200
H  46.84300 45.38300 39.57700
H  45.82900 46.58200 40.23600
H  43.87300 45.14600 40.26500
H  44.72800 43.75100 39.98700
H  53.94700 43.24000 41.62100
H  52.23200 42.83900 41.24100
H  53.14900 42.10600 42.60400
H  56.07000 46.17000 44.87300
H  56.12200 44.62100 45.86200
H  54.73000 45.67800 46.02600
H  53.41400 50.06000 44.37800
H  51.57800 50.95600 46.67800
H  53.91400 50.48700 47.26800
H  54.94800 49.49200 46.30700
H  53.68200 48.72100 47.20700
H  51.34900 52.36400 44.20000
H  52.98400 52.04000 44.37200
H  52.25600 53.14000 46.92300
H  51.28300 54.05600 45.62100
H  53.04300 53.79500 45.59800
H  46.93600 52.63200 44.39200
H  46.97100 51.89800 45.94100
H  45.44200 51.67700 44.86400
H  44.61500 47.67800 41.67100
H  41.59600 44.81900 42.45400
H  41.11500 45.96200 43.75700
H  42.44100 44.74600 43.93800

