158

Mg 24.88400 -6.75500 47.75500
C  27.66500 -4.73800 46.90100
C  22.94400 -4.81500 45.87900
C  22.73800 -9.34600 47.83200
C  27.24400 -8.77800 49.63500
N  25.35200 -5.13800 46.21400
C  26.47100 -4.36800 46.17200
C  26.21800 -3.09600 45.39400
C  24.66700 -3.04500 45.29300
C  24.28900 -4.43100 45.85900
C  23.94300 -1.89800 46.03200
C  26.92200 -3.01200 43.99600
C  26.89600 -1.63500 43.22500
H  25.99000 -1.57100 42.02000
N  23.03900 -6.98100 46.99500
C  22.33000 -6.10100 46.21400
C  21.02400 -6.65200 45.86200
C  20.85900 -7.88600 46.58100
C  22.26500 -8.15900 47.16000
C  20.09600 -5.89600 44.98400
C  19.62900 -8.76500 46.59000
O  18.59300 -8.43800 46.03200
C  19.55600 -10.09200 47.25600
N  25.10100 -8.79900 48.44900
C  24.01800 -9.62200 48.50400
C  24.10800 -10.89000 49.33100
C  25.56100 -10.64900 49.95300
C  26.04700 -9.37300 49.32700
C  23.01400 -10.90500 50.43300
C  26.53100 -11.85200 49.80200
C  27.72400 -12.07900 50.76900
N  26.90900 -6.71800 48.33000
C  27.73500 -7.62000 49.13700
C  29.04500 -7.08200 49.23900
C  29.09000 -5.94000 48.40400
C  27.81100 -5.78800 47.86500
C  30.23800 -7.76500 49.78600
C  29.94000 -4.94700 47.86400
O  31.15200 -4.75100 47.94700
C  29.07600 -4.15100 46.87400
C  29.15200 -2.70400 47.24500
O  29.35100 -2.22900 48.29900
O  29.02800 -1.98700 46.09800
C  28.76500 -0.58400 46.26800
H  22.25400 -4.16300 45.33900
H  22.02600 -10.12700 48.10400
H  27.87800 -9.26400 50.37900
H  26.68400 -2.36200 46.05200
H  24.31300 -3.02800 44.26200
H  24.56600 -1.00500 46.01900
H  23.73300 -2.24800 47.04200
H  22.97300 -1.80800 45.54100
H  26.40400 -3.71600 43.34400
H  27.95900 -3.32500 44.11000
H  27.92000 -1.42700 42.91700
H  26.48200 -0.84000 43.84500
H  20.50200 -5.70200 43.99200
H  19.91500 -4.99200 45.56500
H  19.14600 -6.40400 44.81700
H  18.68400 -10.73400 47.13400
H  19.78500 -9.95000 48.31300
H  20.32300 -10.64100 46.71000
H  24.10300 -11.76800 48.68500
H  25.52800 -10.35000 51.00100
H  22.27100 -10.12200 50.28300
H  23.45600 -10.76300 51.41900
H  22.56100 -11.89000 50.55200
H  26.93300 -11.83200 48.78900
H  25.92800 -12.75900 49.85900
H  27.53900 -13.05900 51.20900
H  27.69100 -11.44500 51.65500
H  28.65500 -12.07100 50.20200
H  31.11100 -7.25700 49.37800
H  30.28400 -8.79500 49.43200
H  30.23000 -7.78800 50.87600
H  29.54900 -4.37800 45.91900
H  29.68000 -0.22600 46.74000
H  27.90600 -0.28300 46.86700
H  28.74000 -0.14600 45.27000
Mg 40.48900 9.29700 29.21200
C  42.09400 10.67400 31.96600
C  38.28100 7.78000 31.38300
C  39.19000 7.75400 26.67600
C  43.38700 10.23200 27.24600
N  40.23300 9.17700 31.35900
C  40.90100 9.97500 32.28500
C  40.23300 9.94100 33.66400
C  39.25100 8.74700 33.48700
C  39.28400 8.47100 32.02200
C  39.45500 7.53700 34.41200
C  39.64500 11.31400 34.13400
C  38.91400 11.34700 35.50400
H  39.53700 12.25400 36.60000
N  38.98700 8.00700 28.97700
C  38.13900 7.63400 29.99400
C  37.06500 6.80200 29.41700
C  37.28000 6.70300 27.94600
C  38.48800 7.50400 27.78100
C  35.97000 6.17600 30.22300
C  36.44900 5.92100 26.94400
O  36.78400 5.90600 25.75800
C  35.36200 4.96500 27.32800
N  41.32500 8.90100 27.29000
C  40.43800 8.35100 26.43000
C  40.92700 8.53700 24.93000
C  42.29300 9.24600 25.10300
C  42.37700 9.50000 26.62400
C  40.96800 7.28500 24.00000
C  42.54800 10.53700 24.22800
C  41.79400 11.86700 24.61700
N  42.29100 10.33600 29.49300
C  43.36100 10.63400 28.65500
C  44.32200 11.51000 29.26900
C  43.92400 11.48500 30.59600
C  42.71700 10.77700 30.65400
C  45.45500 12.22100 28.67700
C  44.27300 11.89200 31.84700
O  45.25300 12.54300 32.16400
C  43.15400 11.37500 32.81100
C  43.68700 10.40200 33.86600
O  44.57600 9.55800 33.66100
O  43.16000 10.73700 35.09700
C  43.68600 9.84800 36.21800
H  37.49100 7.42300 32.04800
H  38.70000 7.31500 25.80500
H  44.29700 10.52200 26.71800
H  41.03700 9.70100 34.36000
H  38.32800 9.30300 33.65200
H  39.97000 6.73200 33.88900
H  38.48400 7.28300 34.83800
H  40.19800 7.83500 35.15100
H  38.86700 11.59800 33.42500
H  40.50100 11.98800 34.14400
H  38.82300 10.30200 35.80300
H  37.87900 11.68800 35.49500
H  35.07900 6.19500 29.59600
H  35.74600 6.67000 31.16800
H  36.23600 5.14000 30.43000
H  34.41700 5.50400 27.39600
H  35.58100 4.35900 28.20700
H  35.25800 4.23300 26.52700
H  40.23700 9.29000 24.54700
H  43.11600 8.57300 24.86400
H  40.06400 7.23500 23.39400
H  41.09500 6.42300 24.65500
H  41.77700 7.47800 23.29500
H  42.65900 10.49400 23.14500
H  43.57400 10.83300 24.44800
H  42.59100 12.50600 24.99900
H  41.02400 11.57400 25.33000
H  41.30000 12.21100 23.70800
H  45.56800 12.12600 27.59700
H  46.36100 11.78800 29.10200
H  45.42100 13.27300 28.96000
H  42.75300 12.24400 33.33200
H  43.13900 10.04200 37.14100
H  44.76600 9.95100 36.32200
H  43.42300 8.86900 35.81800

