158

Mg 16.41700 51.97800 26.14800
C  18.36000 51.06600 28.99000
C  13.90200 52.74000 28.34600
C  14.67700 52.90000 23.52600
C  19.01800 50.79700 24.15700
N  16.18300 51.75200 28.44500
C  17.14800 51.65400 29.37800
C  16.76100 51.99200 30.76100
C  15.22300 52.26600 30.47600
C  15.07500 52.28300 28.99400
C  14.28400 51.32200 31.23400
C  17.57700 53.10900 31.41800
C  18.14500 52.84400 32.83600
H  17.39500 52.09900 33.81900
N  14.61300 52.66900 25.94900
C  13.71700 52.98500 26.96800
C  12.52000 53.63200 26.37100
C  12.77400 53.81800 25.01800
C  14.06800 53.05700 24.76600
C  11.36100 54.15600 27.20900
C  11.99500 54.53300 23.95700
O  12.37100 54.61200 22.80400
C  10.72900 55.19000 24.31700
N  16.75900 51.91500 24.08600
C  15.90000 52.34200 23.18500
C  16.40900 52.20500 21.73800
C  17.89500 51.86800 22.06000
C  17.94800 51.47000 23.53500
C  15.68900 51.14600 20.80500
C  18.91700 53.02500 21.77600
C  19.93900 52.76700 20.62700
N  18.24700 51.01400 26.39600
C  19.17200 50.58300 25.45400
C  20.24500 49.88900 26.18100
C  19.96000 50.11600 27.54000
C  18.73900 50.77200 27.64300
C  21.48300 49.24100 25.55100
C  20.44100 49.91600 28.85100
O  21.43900 49.29300 29.23800
C  19.45200 50.50900 29.85300
C  19.01800 49.39300 30.70300
O  18.36000 48.46000 30.36100
O  19.53400 49.54900 31.95200
C  19.11000 48.46200 32.86100
H  13.16600 52.99700 29.11000
H  14.25000 53.37000 22.63800
H  19.85200 50.48600 23.52400
H  16.85000 51.15500 31.45300
H  14.92800 53.23900 30.86800
H  13.89200 50.53000 30.59700
H  13.45500 51.91600 31.61900
H  14.76000 50.77800 32.05000
H  16.98600 54.02200 31.49600
H  18.47300 53.33000 30.83900
H  18.44600 53.81700 33.22500
H  19.10400 52.33500 32.73500
H  11.52900 54.00300 28.27500
H  10.54700 53.47100 26.97300
H  11.02200 55.18600 27.09900
H  10.31700 55.45700 23.34400
H  10.89300 56.06800 24.94200
H  9.99400 54.49300 24.71900
H  16.26600 53.18300 21.27900
H  18.23100 50.99300 21.50300
H  16.41000 50.41300 20.44400
H  15.00700 51.54700 20.05600
H  15.13900 50.51300 21.50200
H  19.54800 53.27800 22.62700
H  18.43200 53.99500 21.67100
H  19.49800 52.47900 19.67300
H  20.54100 51.92000 20.95500
H  20.52800 53.66000 20.41600
H  21.73900 48.36900 26.15300
H  22.25400 50.01000 25.50800
H  21.29800 48.93700 24.52100
H  19.96500 51.26900 30.44300
H  19.45500 47.46400 32.58900
H  18.02500 48.38100 32.79600
H  19.44900 48.75900 33.85300
Mg -9.84800 38.70900 40.12700
C  -8.94100 35.26800 39.20100
C  -6.58000 39.58100 39.21900
C  -10.80800 41.76600 40.27200
C  -12.96000 37.38000 40.89200
N  -7.98700 37.59800 39.19000
C  -7.90600 36.20100 38.91200
C  -6.49700 35.83400 38.54700
C  -5.69800 37.15900 38.74900
C  -6.75600 38.20700 39.15600
C  -4.51600 37.06500 39.86000
C  -6.31200 35.24700 37.05200
C  -6.78000 36.29000 36.00000
H  -7.71700 35.88200 34.82800
N  -8.80800 40.48100 39.88800
C  -7.47900 40.61700 39.50200
C  -7.23500 42.11100 39.30300
C  -8.50900 42.70100 39.58800
C  -9.41200 41.68700 40.04700
C  -5.93000 42.71900 38.78000
C  -8.79100 44.15000 39.42600
O  -7.99900 44.86000 38.83300
C  -10.09300 44.70400 39.84100
N  -11.70300 39.45200 40.30800
C  -11.87700 40.81100 40.44500
C  -13.36300 41.12200 40.55000
C  -13.92500 39.80000 41.17300
C  -12.85000 38.76900 40.75400
C  -13.74300 42.35900 41.46300
C  -15.31000 39.49400 40.64300
C  -16.32600 39.30200 41.75900
N  -10.84800 36.73200 40.00500
C  -12.08500 36.40200 40.46400
C  -12.28800 35.01300 40.47900
C  -11.10900 34.51700 39.79800
C  -10.27900 35.57200 39.64100
C  -13.51200 34.18100 40.91700
C  -10.44800 33.35300 39.33900
O  -10.82300 32.19200 39.34000
C  -9.01100 33.78500 38.78000
C  -7.95400 32.95600 39.40200
O  -7.84900 32.76600 40.63900
O  -7.06200 32.44300 38.51200
C  -6.01700 31.49700 38.99000
H  -5.58000 39.82000 38.85100
H  -11.25200 42.74100 40.48500
H  -13.89800 37.05100 41.34500
H  -6.05200 35.23000 39.33700
H  -5.23500 37.44300 37.80400
H  -3.57900 36.94000 39.31700
H  -4.65900 36.10700 40.35900
H  -4.50900 37.87100 40.59400
H  -6.80200 34.29100 36.87000
H  -5.25500 35.07000 36.85100
H  -5.90400 36.66100 35.46900
H  -7.24500 37.12300 36.52700
H  -5.12500 42.08600 39.15200
H  -5.73400 43.72800 39.14400
H  -5.91000 42.80200 37.69300
H  -10.28900 44.49100 40.89100
H  -10.81400 44.16000 39.23100
H  -10.15500 45.77200 39.63500
H  -13.79300 41.24800 39.55600
H  -13.91100 39.92700 42.25500
H  -14.13800 43.20900 40.90700
H  -12.88300 42.76700 41.99300
H  -14.48700 42.13300 42.22700
H  -15.24600 38.61900 39.99500
H  -15.63000 40.27000 39.94700
H  -17.18000 39.92200 41.48700
H  -16.10000 39.68000 42.75600
H  -16.73400 38.29200 41.76800
H  -13.53500 34.10600 42.00500
H  -13.54100 33.21400 40.41400
H  -14.33100 34.81200 40.57400
H  -8.99700 33.64200 37.70000
H  -6.24500 30.46100 38.74000
H  -5.82100 31.58600 40.05800
H  -5.11900 31.77400 38.43800

