158

Mg 16.34900 -1.19400 27.99500
C  15.69300 0.92700 30.62600
C  18.77300 -2.80900 30.06700
C  17.67800 -2.86600 25.33600
C  14.87300 1.09500 25.90100
N  16.95600 -1.11300 30.17300
C  16.48100 -0.19100 31.07900
C  17.16000 -0.33900 32.49500
C  18.28100 -1.44100 32.20700
C  18.02100 -1.77900 30.72900
C  19.77100 -1.00500 32.63300
C  16.09500 -0.67600 33.52700
C  16.23100 -0.03300 34.90100
H  17.59700 0.50400 35.32000
N  17.91400 -2.72500 27.74400
C  18.72500 -3.24100 28.77200
C  19.30000 -4.49100 28.25800
C  18.97400 -4.65000 26.84900
C  18.18600 -3.39800 26.58600
C  20.02900 -5.47600 29.15800
C  19.33100 -5.76100 25.88900
O  19.16300 -5.65200 24.66800
C  19.89000 -7.02600 26.35200
N  16.14500 -1.01600 25.91000
C  16.80200 -1.74500 24.96100
C  16.45900 -1.18800 23.49000
C  15.24700 -0.20700 23.78600
C  15.41900 -0.06000 25.28300
C  17.68300 -0.52900 22.78800
C  13.86000 -0.85200 23.62200
C  12.83600 0.10400 23.00100
N  15.23700 0.53700 28.15600
C  14.72700 1.36700 27.24300
C  14.16100 2.49100 27.88700
C  14.55100 2.46200 29.20800
C  15.22600 1.20800 29.30400
C  13.51900 3.70400 27.25100
C  14.50300 3.17500 30.45000
O  13.83700 4.14600 30.76200
C  15.26300 2.21900 31.43700
C  16.42900 2.94000 31.99500
O  17.57800 2.98800 31.59900
O  15.98600 3.62300 33.07900
C  16.86400 4.56700 33.77700
H  19.55600 -3.21300 30.71200
H  18.07100 -3.34300 24.43600
H  14.30900 1.75900 25.24300
H  17.59700 0.61200 32.79900
H  18.24500 -2.34400 32.81600
H  19.75300 -0.13000 33.28200
H  20.35100 -0.75700 31.74400
H  20.27400 -1.83200 33.13500
H  16.01700 -1.74600 33.72300
H  15.18900 -0.32900 33.03000
H  15.98600 -0.75300 35.68100
H  15.54700 0.81500 34.91100
H  20.84600 -5.96800 28.63000
H  19.34700 -6.22500 29.55900
H  20.63100 -5.01300 29.94000
H  19.36100 -7.32300 27.25800
H  20.96900 -6.87700 26.35100
H  19.80300 -7.85900 25.65400
H  16.20200 -2.14900 23.04500
H  15.37500 0.75200 23.28500
H  17.73800 0.52600 23.05800
H  17.39900 -0.40900 21.74200
H  18.64500 -1.02300 22.92100
H  13.42200 -1.23200 24.54600
H  13.90500 -1.74100 22.99200
H  12.42800 -0.25800 22.05800
H  13.31200 1.07400 22.85700
H  11.98400 0.24400 23.66600
H  14.04500 4.57400 27.64300
H  12.49300 3.56800 27.59400
H  13.65600 3.50500 26.18800
H  14.53200 1.99800 32.21500
H  16.74800 5.54300 33.30700
H  17.90900 4.27400 33.67300
H  16.61600 4.55200 34.83800
Mg 55.10800 24.96600 45.07200
C  52.43900 27.13900 43.99300
C  53.40300 22.34400 43.85100
C  58.01900 23.32600 45.13700
C  56.66400 27.89000 46.44300
N  53.29100 24.84200 43.84800
C  52.37300 25.84300 43.51800
C  51.08600 25.29200 42.84600
C  51.33100 23.72200 43.26100
C  52.79100 23.62300 43.70200
C  50.31300 23.22300 44.30300
C  51.07300 25.57100 41.25200
C  49.73800 25.12200 40.64200
H  49.68400 24.23400 39.37300
N  55.64400 23.04000 44.59200
C  54.77800 22.10100 44.09900
C  55.54500 20.85600 43.92700
C  56.87600 21.14200 44.18300
C  56.92300 22.54200 44.61600
C  54.89700 19.58200 43.56300
C  58.04700 20.23700 44.14500
O  57.86700 19.07500 43.82100
C  59.45500 20.72800 44.42300
N  57.11000 25.59300 45.53500
C  58.06700 24.63900 45.66000
C  59.28600 25.25000 46.35600
C  58.83000 26.72000 46.81800
C  57.42000 26.70200 46.30300
C  60.03400 24.31100 47.38300
C  59.69000 27.91300 46.27000
C  61.14800 27.65900 45.93200
N  54.74800 27.12500 45.20900
C  55.39800 28.12100 45.87800
C  54.57900 29.30600 45.82600
C  53.42900 29.04600 45.06700
C  53.56400 27.69600 44.74600
C  54.96800 30.55300 46.51200
C  52.19200 29.51700 44.61200
O  51.78100 30.66900 44.73400
C  51.47000 28.32000 43.82200
C  51.34600 28.89500 42.43200
O  52.22700 29.44700 41.75000
O  50.08300 28.64400 41.93000
C  49.76000 29.05000 40.53600
H  52.81900 21.50400 43.46900
H  59.00100 22.86900 45.27500
H  57.28200 28.64300 46.93900
H  50.24800 25.71000 43.40400
H  51.19900 23.12000 42.36200
H  49.37900 23.78200 44.36800
H  50.85200 23.29700 45.24800
H  49.97300 22.19400 44.18400
H  51.81000 24.93100 40.76800
H  51.33200 26.59600 40.98500
H  49.24200 26.07200 40.44400
H  49.27500 24.59400 41.47600
H  55.19900 19.35500 42.54100
H  53.84800 19.74000 43.31100
H  55.09700 18.78500 44.28000
H  59.65900 21.63000 43.84600
H  60.12900 20.06700 43.87800
H  59.68600 20.80000 45.48500
H  59.92600 25.51300 45.51300
H  58.69000 26.68200 47.89800
H  59.58700 23.32200 47.48700
H  60.03600 24.74200 48.38400
H  61.07800 24.14500 47.11400
H  59.83400 28.67400 47.03700
H  59.18300 28.29600 45.38400
H  61.46800 26.65400 46.20900
H  61.79900 28.40900 46.37900
H  61.21200 27.80300 44.85400
H  55.38600 31.13300 45.68900
H  55.74000 30.50000 47.27900
H  54.14100 31.13300 46.92100
H  50.55100 28.15500 44.38300
H  49.03000 28.35400 40.12100
H  50.63200 28.95700 39.88900
H  49.41700 30.08300 40.47800

