158

Mg -1.36400 17.90000 27.03300
C  -1.76400 15.49900 29.80000
C  -1.94000 20.45000 29.30500
C  -1.31900 20.03000 24.47500
C  -0.86000 15.17200 24.90600
N  -1.84700 17.89400 29.24200
C  -1.91500 16.85000 30.18500
C  -2.20400 17.49600 31.57800
C  -2.57800 18.95200 31.27200
C  -1.99300 19.14000 29.88100
C  -4.04600 19.43000 31.50600
C  -1.09600 17.32100 32.63100
C  -1.71200 17.01800 33.98500
H  -0.75400 17.00000 35.18100
N  -1.45500 19.89700 26.93700
C  -1.65000 20.82200 27.93200
C  -1.45900 22.17500 27.43500
C  -1.27600 22.09300 26.03900
C  -1.27600 20.64100 25.75600
C  -1.77600 23.42000 28.28200
C  -1.00400 23.20000 25.00800
O  -0.74400 22.94200 23.83500
C  -1.03400 24.55700 25.43400
N  -1.27500 17.57200 25.07600
C  -1.30300 18.63100 24.20800
C  -0.99600 18.21000 22.72800
C  -0.74600 16.67000 22.86600
C  -0.99700 16.44400 24.36300
C  -2.21700 18.66100 21.86200
C  0.66500 16.31200 22.45000
C  1.82000 16.76700 23.40200
N  -1.22800 15.74800 27.31600
C  -0.97200 14.78700 26.31600
C  -1.02100 13.48000 26.93900
C  -1.35400 13.73800 28.28900
C  -1.47800 15.09100 28.47700
C  -0.77300 12.09000 26.33400
C  -1.49200 13.02300 29.56500
O  -1.32900 11.84400 29.88900
C  -1.83200 14.16800 30.67000
C  -0.77400 14.04000 31.67600
O  0.39300 14.32700 31.46900
O  -1.29000 13.57700 32.81200
C  -0.42800 13.28100 33.97600
H  -2.09100 21.28000 29.99800
H  -1.17400 20.57200 23.53800
H  -0.72100 14.39200 24.15500
H  -3.06200 16.91100 31.90800
H  -2.11100 19.62500 31.99100
H  -4.56700 18.74900 32.17900
H  -4.57600 19.46400 30.55400
H  -3.99000 20.33100 32.11600
H  -0.61400 18.28900 32.77000
H  -0.49700 16.50000 32.23900
H  -2.27200 16.08400 33.96900
H  -2.36800 17.86800 34.17500
H  -0.83500 23.81600 28.66300
H  -2.41800 23.11400 29.10700
H  -2.25200 24.10000 27.57500
H  -2.05400 24.78900 25.74000
H  -0.68800 25.12400 24.57000
H  -0.29300 24.50400 26.23200
H  -0.09300 18.78400 22.51800
H  -1.38900 15.96800 22.33400
H  -2.93000 19.24700 22.44100
H  -2.58300 17.78200 21.33000
H  -1.89700 19.30200 21.04000
H  0.90500 16.69700 21.45900
H  0.79100 15.23100 22.38200
H  2.52600 17.27100 22.74300
H  2.33000 15.91500 23.85200
H  1.45900 17.45500 24.16600
H  -0.06300 12.21400 25.51700
H  -1.66800 11.57000 25.99300
H  -0.26800 11.42300 27.03300
H  -2.84500 14.05200 31.05600
H  -0.62700 12.21700 34.10300
H  -0.82000 13.68400 34.91000
H  0.64800 13.45200 33.98600
Mg 26.70200 50.85300 25.86900
C  24.94200 52.09000 28.69900
C  29.27400 50.24400 28.00900
C  28.34500 49.73600 23.23000
C  24.21500 52.21300 23.91700
N  27.03400 51.18600 28.08600
C  26.17900 51.50800 29.03900
C  26.71000 51.33500 30.49400
C  28.19200 51.06800 30.24200
C  28.18600 50.74500 28.65300
C  29.16000 52.20600 30.72200
C  25.89700 50.26900 31.24900
C  25.36100 50.61200 32.61600
H  26.43200 51.05700 33.63900
N  28.58700 50.17900 25.68400
C  29.51900 50.01100 26.64100
C  30.64600 49.41300 26.03500
C  30.39700 48.97800 24.70900
C  29.12500 49.66200 24.49200
C  31.84500 49.12800 26.88500
C  31.21200 48.14500 23.74300
O  30.88900 47.91200 22.58400
C  32.48700 47.48100 24.18100
N  26.36400 50.97300 23.81600
C  27.15700 50.32300 22.93300
C  26.44700 50.30100 21.52300
C  25.15600 51.18500 21.79800
C  25.21700 51.47700 23.23400
C  27.39800 50.72800 20.37500
C  23.74300 50.45400 21.44400
C  22.56900 51.34100 20.97900
N  25.00000 51.91300 26.18200
C  24.04300 52.36700 25.28500
C  23.00600 53.08100 25.92700
C  23.29200 52.99100 27.28400
C  24.51200 52.29300 27.37600
C  21.91300 53.80600 25.28500
C  22.84700 53.31700 28.55200
O  21.81300 53.93400 28.86700
C  23.92400 52.78800 29.55800
C  24.43400 53.82500 30.54300
O  25.23600 54.72000 30.30100
O  23.93500 53.59400 31.80400
C  24.32300 54.57900 32.85700
H  30.03800 50.08200 28.77200
H  28.96100 49.25200 22.46900
H  23.47100 52.67400 23.26500
H  26.52600 52.25600 31.04700
H  28.38500 50.11700 30.73700
H  28.77500 53.21800 30.59500
H  30.04500 52.14400 30.08800
H  29.49700 52.12900 31.75500
H  26.53100 49.38900 31.36200
H  25.08500 49.91400 30.61400
H  24.91200 49.67400 32.94400
H  24.52300 51.30700 32.67400
H  31.89500 49.75100 27.77700
H  32.78000 49.40700 26.39900
H  31.88600 48.10000 27.24600
H  33.02900 48.31800 24.62200
H  32.98400 47.06800 23.30400
H  32.30200 46.64000 24.84800
H  26.10400 49.31700 21.20300
H  25.22100 52.12600 21.25000
H  28.32200 51.06400 20.84500
H  26.90600 51.48200 19.76000
H  27.62300 49.89800 19.70600
H  23.36400 49.93700 22.32600
H  23.88800 49.74300 20.63100
H  22.15600 50.93200 20.05700
H  22.77200 52.41200 20.98900
H  21.64400 51.30900 21.55400
H  21.39700 53.24500 24.50700
H  22.30800 54.74000 24.88500
H  21.15100 53.96600 26.04900
H  23.34900 52.12900 30.20900
H  24.24700 55.60800 32.50600
H  25.31500 54.33200 33.23400
H  23.63500 54.52600 33.70000

