158

Mg 49.92300 46.77900 42.14300
C  46.57800 47.45000 40.99700
C  49.67500 43.81400 40.47300
C  53.17000 46.47300 42.67600
C  49.99900 50.21500 43.23400
N  48.31000 45.83800 40.88700
C  47.03700 46.26900 40.49300
C  46.29800 45.24600 39.49800
C  47.39400 44.17100 39.40700
C  48.54500 44.55500 40.33700
C  46.92600 42.70600 39.75100
C  45.78000 45.94300 38.19000
C  44.30700 45.68100 37.82000
H  43.94400 45.12300 36.43400
N  51.19500 45.31100 41.82200
C  50.94400 44.19900 41.10100
C  52.12200 43.36700 41.08600
C  53.12100 44.00800 41.88900
C  52.53300 45.29000 42.19900
C  52.13900 42.01400 40.38200
C  54.55000 43.49500 42.23400
O  54.88500 42.36500 41.84900
C  55.50700 44.23500 43.15500
N  51.37500 48.14500 42.95600
C  52.68800 47.77000 43.04100
C  53.56700 48.97600 43.27600
C  52.56000 50.06600 43.64600
C  51.21400 49.50200 43.26600
C  54.67300 48.77400 44.30400
C  52.87600 51.41000 43.03600
C  52.54700 52.69400 43.88700
N  48.60300 48.42700 42.13200
C  48.76900 49.70600 42.73900
C  47.58300 50.44900 42.56800
C  46.67600 49.58700 42.00600
C  47.33000 48.39700 41.72800
C  47.38800 51.88800 42.94900
C  45.31400 49.52300 41.51900
O  44.39000 50.33700 41.57300
C  45.13800 48.02900 40.98900
C  44.21800 47.24700 41.91800
O  44.11900 47.40300 43.10600
O  43.54000 46.34100 41.25400
C  42.45900 45.63000 41.96600
H  49.74800 42.82300 40.01900
H  54.25100 46.39700 42.80400
H  50.12800 51.25300 43.55000
H  45.47800 44.77700 40.04100
H  47.82900 44.17400 38.40700
H  45.87900 42.40700 39.70000
H  47.11800 42.56600 40.81500
H  47.57200 42.02200 39.20200
H  46.42700 45.59800 37.38500
H  46.04900 46.98200 38.38200
H  43.92000 46.70000 37.83400
H  43.77700 45.09400 38.57000
H  51.30500 41.33900 40.57200
H  53.02100 41.38700 40.51600
H  52.14100 42.20300 39.30900
H  56.22000 44.66900 42.45400
H  56.09100 43.51100 43.72400
H  54.99200 44.93400 43.81400
H  54.03500 49.21100 42.32000
H  52.43200 50.21800 44.71700
H  55.66100 48.73800 43.84600
H  54.64800 47.82100 44.83100
H  54.72300 49.66000 44.93700
H  52.26100 51.49100 42.14000
H  53.88200 51.48000 42.62300
H  53.38800 53.35700 44.09200
H  51.86400 52.38700 44.67900
H  51.98500 53.41100 43.29000
H  46.53600 52.31400 42.42000
H  48.28900 52.37500 42.57600
H  47.49900 51.94800 44.03200
H  44.71300 47.90900 39.99300
H  41.68000 45.49500 41.21600
H  42.11900 46.06400 42.90600
H  42.81600 44.64700 42.27500
Mg -1.38400 34.90900 28.06500
C  -3.13500 33.05400 30.35500
C  0.24300 36.54800 30.84900
C  -0.16300 37.02800 25.94600
C  -3.31900 33.35500 25.51400
N  -1.60400 34.91100 30.36400
C  -2.32900 33.99000 31.06100
C  -1.88500 33.91400 32.51200
C  -1.04500 35.21200 32.70000
C  -0.74900 35.58500 31.22100
C  -1.79100 36.33300 33.45700
C  -1.18300 32.55400 32.82700
C  -1.79400 31.56000 33.90400
H  -1.13700 31.44800 35.25200
N  -0.01200 36.46000 28.35500
C  0.57400 36.92600 29.50800
C  1.51000 37.95400 29.13100
C  1.36200 38.20500 27.68600
C  0.30900 37.26100 27.26600
C  2.53500 38.54000 30.11200
C  2.04300 39.22200 26.76800
O  1.77100 39.36100 25.59500
C  3.14900 40.10500 27.31500
N  -1.82100 35.26800 26.06800
C  -1.16900 36.20400 25.43600
C  -1.58900 36.20800 23.91200
C  -2.32700 34.92500 23.66800
C  -2.54100 34.51900 25.16400
C  -2.29800 37.43200 23.41100
C  -1.58300 33.82000 22.82300
C  -1.22600 34.25900 21.41200
N  -2.82000 33.46500 27.90500
C  -3.50800 32.88900 26.80000
C  -4.29600 31.76000 27.17800
C  -4.14400 31.83100 28.55800
C  -3.32000 32.86700 28.94700
C  -5.09400 30.84900 26.29800
C  -4.61800 31.15500 29.77400
O  -5.42700 30.22900 29.96600
C  -4.07400 32.00400 30.95500
C  -5.32200 32.40100 31.68500
O  -6.25900 33.09700 31.22400
O  -5.23000 31.98600 32.95500
C  -6.31100 32.42100 33.95400
H  0.79300 36.93600 31.70900
H  0.26500 37.55800 25.09300
H  -3.89000 32.83200 24.74400
H  -2.82700 33.98000 33.05600
H  -0.06900 35.03800 33.15400
H  -1.69400 36.21600 34.53600
H  -2.86200 36.29600 33.26000
H  -1.42900 37.30900 33.13300
H  -0.14900 32.66500 33.15400
H  -1.04300 31.99000 31.90500
H  -1.83800 30.53800 33.52600
H  -2.85000 31.74900 34.09600
H  3.52900 38.42800 29.67700
H  2.45700 38.10400 31.10800
H  2.46500 39.62300 30.21300
H  2.83000 40.74400 28.13800
H  3.55300 40.66900 26.47400
H  3.96400 39.52900 27.75400
H  -0.69300 36.06400 23.30900
H  -3.29500 35.02200 23.17700
H  -2.08600 38.32900 23.99200
H  -3.36100 37.28200 23.22400
H  -1.93500 37.71100 22.42200
H  -1.89800 32.78200 22.92700
H  -0.63900 33.74000 23.36400
H  -1.98100 33.68100 20.87900
H  -0.20600 34.03700 21.09800
H  -1.49300 35.31500 21.37900
H  -6.02400 31.23100 25.87600
H  -5.32100 29.89700 26.77800
H  -4.50700 30.67300 25.39600
H  -3.56400 31.25500 31.56000
H  -5.75900 32.89600 34.76500
H  -6.79200 31.46300 34.15300
H  -7.07000 33.07200 33.52000

