158

Mg 24.82000 -7.29500 47.71600
C  26.97100 -4.88800 46.65000
C  22.74000 -6.57200 45.12400
C  22.77800 -9.85100 48.76400
C  27.48000 -8.79100 49.59700
N  24.82200 -5.77000 46.17200
C  25.78900 -4.96700 45.87700
C  25.55900 -4.13100 44.53400
C  24.15200 -4.65400 44.13800
C  23.86600 -5.78800 45.20100
C  23.03300 -3.49900 44.18600
C  26.70900 -4.57000 43.51000
C  27.50000 -3.32000 42.99900
H  27.30900 -2.97300 41.52000
N  22.94200 -8.15400 47.01100
C  22.29500 -7.70100 45.91900
C  21.05900 -8.36300 45.83500
C  21.01400 -9.34700 46.95200
C  22.27500 -9.18200 47.65700
C  19.87300 -7.96800 44.86800
C  19.75200 -10.24800 47.29900
O  18.81300 -10.25300 46.52100
C  19.79600 -11.22300 48.46100
N  25.12600 -9.01100 48.98600
C  24.02800 -9.80600 49.37500
C  24.41600 -10.83500 50.43200
C  26.02400 -10.77700 50.30900
C  26.25400 -9.41900 49.62400
C  23.96600 -10.52200 51.86200
C  26.73900 -11.94000 49.54900
C  27.42500 -13.04200 50.36900
N  26.79800 -6.90900 48.19200
C  27.77800 -7.61500 48.91900
C  29.00400 -6.78600 48.99600
C  28.71700 -5.69200 48.09300
C  27.39700 -5.82900 47.60600
C  30.31800 -7.09700 49.81800
C  29.24200 -4.52900 47.51500
O  30.34000 -4.05700 47.66700
C  28.23600 -4.01900 46.46200
C  28.10700 -2.54800 46.77400
O  28.69700 -1.68200 46.20900
O  27.20900 -2.32900 47.77200
C  26.83500 -0.88700 47.74300
H  22.11600 -6.45100 44.23600
H  22.09400 -10.53500 49.27000
H  28.27900 -9.39300 50.03500
H  25.40100 -3.06900 44.72200
H  24.13300 -5.22300 43.20800
H  23.41700 -2.52600 44.49000
H  22.40100 -3.89200 44.98200
H  22.38100 -3.40800 43.31700
H  26.30900 -5.08600 42.63700
H  27.30000 -5.33400 44.01500
H  28.56200 -3.49500 43.16800
H  27.34700 -2.39300 43.55000
H  18.84500 -8.01500 45.23000
H  19.95000 -8.42600 43.88200
H  19.96500 -6.89300 44.71900
H  20.63100 -11.88300 48.22700
H  18.94600 -11.90500 48.42700
H  19.89600 -10.74600 49.43600
H  23.93900 -11.76200 50.11500
H  26.46900 -10.65700 51.29700
H  23.98200 -9.43900 51.98700
H  24.44400 -11.02300 52.70400
H  22.95200 -10.91500 51.93400
H  27.56400 -11.45000 49.03200
H  26.04500 -12.30400 48.79200
H  27.28300 -12.91500 51.44200
H  28.49700 -13.11400 50.18800
H  27.10500 -14.02600 50.02700
H  30.80500 -7.95300 49.35000
H  29.98600 -7.48500 50.78100
H  30.93200 -6.19900 49.89300
H  28.60900 -4.10600 45.44200
H  27.37600 -0.32100 48.50200
H  25.78600 -0.76900 48.01700
H  26.87400 -0.37900 46.78000
Mg -2.10100 34.65900 26.18100
C  -3.53600 32.80300 28.81000
C  -0.58400 36.65100 28.53600
C  -1.02900 36.47200 23.67700
C  -3.82300 32.53700 23.94900
N  -2.32200 34.79200 28.47700
C  -2.73600 33.81300 29.38200
C  -2.29700 34.12200 30.81900
C  -1.38800 35.32900 30.63500
C  -1.42600 35.66800 29.11400
C  -1.73700 36.47600 31.55300
C  -1.68300 32.84800 31.43700
C  -2.36000 32.36500 32.70300
H  -1.41000 32.29600 33.92400
N  -0.89200 36.31200 26.15100
C  -0.35700 36.95200 27.21700
C  0.58100 37.93100 26.65300
C  0.44200 37.91300 25.28100
C  -0.45000 36.82800 24.97000
C  1.38600 38.89600 27.49300
C  1.13000 38.72700 24.23800
O  0.88200 38.58200 23.05700
C  2.19900 39.73800 24.57200
N  -2.45500 34.57800 24.17000
C  -1.91500 35.42300 23.31600
C  -2.27200 35.14700 21.86100
C  -2.87600 33.71600 21.96400
C  -3.16600 33.60600 23.43600
C  -3.24000 36.13500 21.27600
C  -1.92700 32.56500 21.43400
C  -0.45200 32.48000 21.97800
N  -3.54900 33.12800 26.30500
C  -4.04600 32.30400 25.32000
C  -4.73200 31.08200 25.86500
C  -4.53600 31.25500 27.24900
C  -3.81300 32.46300 27.42900
C  -5.28500 29.90700 25.13500
C  -4.83200 30.67100 28.54800
O  -5.44200 29.68300 28.93300
C  -4.20000 31.66100 29.58500
C  -5.35400 32.18600 30.57100
O  -6.11600 33.11400 30.41200
O  -5.28000 31.41100 31.68800
C  -6.14200 31.63500 32.88800
H  0.07200 37.26500 29.15600
H  -0.92500 37.18300 22.85400
H  -4.38200 31.78800 23.38300
H  -3.18200 34.33800 31.41700
H  -0.35800 35.09600 30.90700
H  -0.76800 36.95600 31.68900
H  -2.16300 36.02800 32.45100
H  -2.36000 37.22200 31.06000
H  -0.66300 33.16000 31.66300
H  -1.50500 32.05700 30.70800
H  -2.66200 31.32800 32.55800
H  -3.27700 32.92500 32.89000
H  1.37600 39.89900 27.06600
H  2.39300 38.51100 27.65200
H  1.00900 39.07800 28.49900
H  1.77300 40.67800 24.92300
H  2.54700 40.13200 23.61700
H  2.94400 39.19100 25.14900
H  -1.39300 35.02300 21.22900
H  -3.83900 33.59300 21.46800
H  -3.38100 37.05700 21.84000
H  -4.23200 35.69100 21.19400
H  -2.76500 36.49600 20.36400
H  -1.87100 32.45200 20.35100
H  -2.38100 31.61200 21.70400
H  0.20600 33.10300 21.37300
H  -0.07000 31.46600 21.86200
H  -0.25600 32.83000 22.99100
H  -6.21500 30.05000 24.58400
H  -5.58400 29.14600 25.85700
H  -4.50400 29.49400 24.49800
H  -3.50800 31.08600 30.20000
H  -6.55800 30.67000 33.17800
H  -6.94900 32.34700 32.71500
H  -5.57900 31.97000 33.75900

