158

Mg 47.98800 15.99600 28.78600
C  46.00700 15.05500 31.65800
C  49.95700 17.84800 30.87200
C  49.77600 16.97700 26.09400
C  45.55300 14.71400 26.72800
N  47.78300 16.56800 31.00900
C  46.99500 15.94300 32.01200
C  47.52500 16.30100 33.42200
C  48.61100 17.37900 33.09100
C  48.80100 17.38600 31.53700
C  48.34300 18.75400 33.80200
C  48.08400 15.10500 34.11900
C  48.10700 15.14300 35.60100
H  47.83400 16.49800 36.29100
N  49.76100 17.07000 28.57400
C  50.47200 17.71500 29.53500
C  51.76300 18.14500 29.01300
C  51.70400 17.89900 27.59800
C  50.35900 17.35200 27.37200
C  52.74100 18.92700 29.88600
C  52.67300 18.21300 26.60500
O  52.43400 17.90400 25.43500
C  53.96500 18.89200 27.02900
N  47.68400 15.98000 26.65600
C  48.57100 16.43100 25.76500
C  47.98000 16.37300 24.30100
C  46.62700 15.59700 24.50900
C  46.62000 15.39000 26.04900
C  47.95300 17.76800 23.59600
C  46.45700 14.25400 23.70300
C  47.11800 13.08900 24.43900
N  46.06200 15.10300 29.04000
C  45.29500 14.53800 28.12300
C  44.21200 13.82300 28.80400
C  44.46300 13.98900 30.17200
C  45.62600 14.79100 30.32300
C  43.07400 13.13500 28.15200
C  43.95500 13.64000 31.52300
O  42.97400 12.99200 31.78700
C  44.93200 14.39700 32.57000
C  44.14400 15.34500 33.32600
O  43.45900 16.22600 32.81100
O  44.25200 15.16700 34.68600
C  43.41000 16.02500 35.54900
H  50.65300 18.28000 31.59400
H  50.41300 17.03400 25.20900
H  45.00600 14.06300 26.04300
H  46.63600 16.69500 33.91400
H  49.58900 17.11400 33.49200
H  47.69100 18.53100 34.64700
H  47.74100 19.45000 33.21700
H  49.27300 19.19900 34.15600
H  49.11700 14.99800 33.78700
H  47.63000 14.22500 33.66400
H  48.99900 14.66900 36.01100
H  47.28000 14.46400 35.80600
H  53.13900 19.71100 29.24200
H  53.53000 18.27700 30.26500
H  52.19500 19.34500 30.73200
H  54.36700 18.60200 28.00000
H  53.61300 19.92100 27.09100
H  54.65000 18.77400 26.18900
H  48.58900 15.75900 23.63600
H  45.79100 16.25400 24.26900
H  48.44100 18.51400 24.22300
H  46.92200 18.08000 23.42800
H  48.37800 17.57000 22.61200
H  46.90800 14.27300 22.71100
H  45.37900 14.09300 23.70200
H  47.49400 12.38400 23.69900
H  46.39100 12.70000 25.15200
H  47.95100 13.51500 25.00000
H  42.16300 13.56400 28.57100
H  43.09600 12.06500 28.36000
H  43.02300 13.26500 27.07100
H  45.32300 13.61200 33.21700
H  43.16000 16.95600 35.04200
H  44.01600 16.33500 36.40100
H  42.53600 15.49800 35.93300
Mg -9.84800 38.70900 40.12700
C  -8.94100 35.26800 39.20100
C  -6.58000 39.58100 39.21900
C  -10.80800 41.76600 40.27200
C  -12.96000 37.38000 40.89200
N  -7.98700 37.59800 39.19000
C  -7.90600 36.20100 38.91200
C  -6.49700 35.83400 38.54700
C  -5.69800 37.15900 38.74900
C  -6.75600 38.20700 39.15600
C  -4.51600 37.06500 39.86000
C  -6.31200 35.24700 37.05200
C  -6.78000 36.29000 36.00000
H  -7.71700 35.88200 34.82800
N  -8.80800 40.48100 39.88800
C  -7.47900 40.61700 39.50200
C  -7.23500 42.11100 39.30300
C  -8.50900 42.70100 39.58800
C  -9.41200 41.68700 40.04700
C  -5.93000 42.71900 38.78000
C  -8.79100 44.15000 39.42600
O  -7.99900 44.86000 38.83300
C  -10.09300 44.70400 39.84100
N  -11.70300 39.45200 40.30800
C  -11.87700 40.81100 40.44500
C  -13.36300 41.12200 40.55000
C  -13.92500 39.80000 41.17300
C  -12.85000 38.76900 40.75400
C  -13.74300 42.35900 41.46300
C  -15.31000 39.49400 40.64300
C  -16.32600 39.30200 41.75900
N  -10.84800 36.73200 40.00500
C  -12.08500 36.40200 40.46400
C  -12.28800 35.01300 40.47900
C  -11.10900 34.51700 39.79800
C  -10.27900 35.57200 39.64100
C  -13.51200 34.18100 40.91700
C  -10.44800 33.35300 39.33900
O  -10.82300 32.19200 39.34000
C  -9.01100 33.78500 38.78000
C  -7.95400 32.95600 39.40200
O  -7.84900 32.76600 40.63900
O  -7.06200 32.44300 38.51200
C  -6.01700 31.49700 38.99000
H  -5.58000 39.82000 38.85100
H  -11.25200 42.74100 40.48500
H  -13.89800 37.05100 41.34500
H  -6.05200 35.23000 39.33700
H  -5.23500 37.44300 37.80400
H  -3.57900 36.94000 39.31700
H  -4.65900 36.10700 40.35900
H  -4.50900 37.87100 40.59400
H  -6.80200 34.29100 36.87000
H  -5.25500 35.07000 36.85100
H  -5.90400 36.66100 35.46900
H  -7.24500 37.12300 36.52700
H  -5.12500 42.08600 39.15200
H  -5.73400 43.72800 39.14400
H  -5.91000 42.80200 37.69300
H  -10.28900 44.49100 40.89100
H  -10.81400 44.16000 39.23100
H  -10.15500 45.77200 39.63500
H  -13.79300 41.24800 39.55600
H  -13.91100 39.92700 42.25500
H  -14.13800 43.20900 40.90700
H  -12.88300 42.76700 41.99300
H  -14.48700 42.13300 42.22700
H  -15.24600 38.61900 39.99500
H  -15.63000 40.27000 39.94700
H  -17.18000 39.92200 41.48700
H  -16.10000 39.68000 42.75600
H  -16.73400 38.29200 41.76800
H  -13.53500 34.10600 42.00500
H  -13.54100 33.21400 40.41400
H  -14.33100 34.81200 40.57400
H  -8.99700 33.64200 37.70000
H  -6.24500 30.46100 38.74000
H  -5.82100 31.58600 40.05800
H  -5.11900 31.77400 38.43800

