158

Mg 25.55100 -1.42800 29.61500
C  27.77400 -1.59400 32.49400
C  22.97200 -0.93700 31.90100
C  23.47800 -1.37500 26.98300
C  28.20200 -2.35700 27.63100
N  25.44000 -1.32200 31.89300
C  26.48300 -1.32200 32.93100
C  25.96800 -0.86300 34.28900
C  24.38000 -0.74400 33.94600
C  24.23900 -1.08600 32.44400
C  23.51100 -1.63900 34.85700
C  26.59700 0.44700 34.85100
C  27.47400 0.30900 36.14800
H  27.13700 1.26900 37.33000
N  23.49100 -1.17100 29.42300
C  22.64900 -0.96000 30.47200
C  21.30900 -0.90300 29.91400
C  21.40200 -0.94200 28.52800
C  22.80100 -1.08500 28.22900
C  20.10700 -0.68100 30.76100
C  20.22800 -0.83900 27.53900
O  20.33200 -1.08700 26.38100
C  18.80900 -0.46000 28.01900
N  25.75600 -2.07600 27.61900
C  24.76000 -1.81800 26.71800
C  25.30500 -1.67300 25.23500
C  26.81200 -1.93600 25.54000
C  26.96200 -2.11300 27.00300
C  24.62400 -2.54800 24.16400
C  27.86400 -0.94600 24.87600
C  27.88200 0.51000 25.47100
N  27.58600 -1.97800 29.95900
C  28.55200 -2.25400 29.01400
C  29.83700 -2.31900 29.64400
C  29.62600 -2.02200 31.02600
C  28.21000 -1.94600 31.14200
C  31.09200 -2.80700 29.00600
C  30.11600 -1.85200 32.40800
O  31.21700 -1.90300 32.78000
C  28.97100 -1.60600 33.38300
C  28.90400 -2.68100 34.28300
O  28.43800 -3.81700 34.06400
O  29.32800 -2.21700 35.51000
C  29.13200 -3.02500 36.67500
H  22.15900 -0.84300 32.62400
H  22.87100 -1.11300 26.11400
H  29.06900 -2.52100 26.98800
H  26.20200 -1.69100 34.95700
H  24.07800 0.29000 34.11100
H  22.74900 -1.05900 35.37800
H  24.14900 -2.17600 35.55800
H  23.01400 -2.43400 34.30100
H  25.94800 1.32100 34.91500
H  27.41600 0.72000 34.18600
H  28.53100 0.52700 35.99600
H  27.42800 -0.65500 36.65500
H  19.65000 0.25000 30.42500
H  20.20700 -0.64800 31.84600
H  19.58200 -1.63100 30.65500
H  18.44000 -1.05400 28.85600
H  18.05900 -0.27600 27.25000
H  19.12100 0.50100 28.42700
H  25.09400 -0.63100 24.99200
H  27.08700 -2.90600 25.12700
H  25.35600 -2.90700 23.44100
H  24.02000 -1.85900 23.57300
H  24.01000 -3.32300 24.62400
H  27.68600 -1.03300 23.80400
H  28.84400 -1.42000 24.92800
H  27.03400 0.76900 26.10600
H  27.58700 1.20400 24.68400
H  28.86200 0.74600 25.88700
H  31.52700 -2.02900 28.37900
H  30.85500 -3.68800 28.40900
H  31.87500 -3.01700 29.73400
H  29.13600 -0.65600 33.89000
H  28.07800 -3.10200 36.94400
H  29.63000 -2.71500 37.59300
H  29.43700 -4.04200 36.42600
Mg 47.04600 34.21600 28.24800
C  45.55100 32.47600 30.97700
C  47.32800 36.98800 30.40600
C  47.94400 36.02600 25.57200
C  46.02800 31.69500 26.25700
N  46.59800 34.62600 30.47700
C  46.02300 33.74600 31.32100
C  46.07900 34.40800 32.75300
C  46.19400 35.90700 32.39400
C  46.76400 35.83800 30.97800
C  44.90000 36.77200 32.51100
C  47.22500 33.94600 33.75100
C  46.79500 33.61100 35.25200
H  46.96800 34.73600 36.24400
N  47.70300 36.19300 28.07200
C  47.70000 37.19500 29.06600
C  48.11500 38.40900 28.38000
C  48.29000 38.13900 26.97900
C  48.05600 36.72100 26.83400
C  48.13500 39.83100 29.03700
C  48.58700 39.06300 25.85100
O  48.63900 38.67200 24.68900
C  48.93300 40.52500 26.20900
N  46.98000 33.87600 26.20100
C  47.37300 34.78000 25.33600
C  47.27100 34.23700 23.84500
C  46.78400 32.82500 24.03000
C  46.63800 32.76200 25.58100
C  46.43200 35.08800 22.82100
C  47.66200 31.76600 23.45400
C  46.93700 30.53000 23.13200
N  45.94600 32.46900 28.50200
C  45.77400 31.42300 27.58000
C  45.03800 30.35100 28.19900
C  44.95000 30.76300 29.52600
C  45.56400 32.01500 29.65200
C  44.43700 29.15800 27.44200
C  44.46300 30.33200 30.82200
O  43.75100 29.39700 31.13100
C  44.99000 31.37000 31.83100
C  45.67500 30.84600 32.97400
O  46.87900 30.55600 32.92400
O  44.79000 30.67900 33.95200
C  45.39800 30.12200 35.19300
H  47.29200 37.90800 30.99400
H  48.24400 36.46400 24.61700
H  45.71800 30.84600 25.64400
H  45.15300 34.19300 33.28600
H  46.94400 36.43700 32.98100
H  45.08900 37.50000 33.30100
H  44.10500 36.15000 32.92100
H  44.66100 37.11800 31.50500
H  48.00100 34.70500 33.84700
H  47.68800 33.07300 33.29100
H  47.23900 32.69700 35.64600
H  45.75200 33.29500 35.22900
H  47.34300 40.47300 28.65000
H  49.09100 40.32900 28.87800
H  47.97700 39.80800 30.11500
H  49.10500 41.13100 25.32000
H  49.81700 40.50500 26.84700
H  48.11300 41.09200 26.65100
H  48.29800 34.15600 23.48900
H  45.76900 32.79400 23.63400
H  45.71100 34.51500 22.23700
H  47.10000 35.67300 22.18900
H  45.92300 35.93000 23.29200
H  48.42800 31.50600 24.18400
H  48.19400 32.04600 22.54500
H  46.96800 30.42600 22.04700
H  45.88500 30.55400 23.41600
H  47.47200 29.66700 23.52700
H  43.51800 29.59100 27.04700
H  44.19400 28.32600 28.10300
H  45.08900 28.72100 26.68600
H  44.04000 31.79300 32.15900
H  45.47500 30.94000 35.91000
H  46.41200 29.72600 35.14600
H  44.61200 29.43000 35.49600

