158

Mg 16.89200 -2.56000 28.52000
C  15.37000 -0.80700 31.23100
C  19.03100 -4.11300 30.69100
C  18.14300 -4.20100 25.97000
C  15.08800 -0.41800 26.39100
N  17.05900 -2.62700 30.79200
C  16.41700 -1.73200 31.66300
C  17.13900 -1.90700 33.04700
C  18.41800 -2.73700 32.78700
C  18.19600 -3.17400 31.31500
C  19.79300 -2.08000 32.92100
C  16.18000 -2.56800 34.02300
C  15.81600 -1.80300 35.31400
H  16.90700 -0.95200 35.97000
N  18.15200 -4.25600 28.38500
C  18.93600 -4.72000 29.39700
C  19.73200 -5.78200 28.81800
C  19.45300 -5.90200 27.40100
C  18.56700 -4.72300 27.15500
C  20.63200 -6.54500 29.69000
C  19.92500 -6.81100 26.34100
O  19.69500 -6.77200 25.15700
C  20.72600 -8.01800 26.78100
N  16.69900 -2.22700 26.45100
C  17.22900 -3.17100 25.61400
C  16.99800 -2.66700 24.16400
C  15.92900 -1.59200 24.25200
C  15.83900 -1.41500 25.75800
C  18.32000 -2.19500 23.48000
C  14.58300 -1.90900 23.52000
C  14.19900 -0.88800 22.28700
N  15.58300 -0.95300 28.67300
C  14.96200 -0.16400 27.77900
C  14.07800 0.80400 28.33700
C  14.24700 0.59600 29.69900
C  15.11100 -0.51900 29.87500
C  13.14200 1.78100 27.64600
C  13.89000 1.10500 30.97800
O  13.31500 2.14700 31.31700
C  14.48900 0.13800 32.04900
C  15.22000 0.97100 33.09400
O  16.40300 1.20600 32.95500
O  14.39900 1.72600 33.97700
C  15.12400 2.64600 34.80200
H  19.98600 -4.35300 31.16400
H  18.60700 -4.74400 25.14400
H  14.53300 0.15000 25.64100
H  17.49600 -0.96600 33.46600
H  18.52600 -3.64200 33.38500
H  19.64600 -1.23800 33.59700
H  20.26900 -1.78000 31.98700
H  20.53100 -2.77400 33.32300
H  16.47700 -3.57100 34.33000
H  15.26800 -2.60900 33.42600
H  15.28600 -2.44500 36.01700
H  15.07600 -1.03300 35.09700
H  20.39900 -7.60000 29.54300
H  20.39900 -6.43300 30.74900
H  21.65900 -6.38700 29.36200
H  21.53300 -7.60200 27.38400
H  21.19500 -8.38300 25.86800
H  20.15300 -8.77800 27.31300
H  16.55800 -3.51600 23.64100
H  16.26100 -0.60100 23.94200
H  18.60300 -3.02700 22.83700
H  19.14700 -1.96000 24.15100
H  18.17200 -1.25300 22.95100
H  13.80100 -1.91000 24.27900
H  14.47500 -2.94100 23.18500
H  13.17700 -0.54300 22.44400
H  14.18600 -1.55800 21.42700
H  14.94400 -0.10300 22.15600
H  13.53500 2.07600 26.67400
H  13.13200 2.67000 28.27700
H  12.14600 1.35200 27.53400
H  13.72400 -0.35600 32.64700
H  14.41200 2.93200 35.57700
H  15.26700 3.59700 34.29000
H  16.06900 2.27400 35.19800
Mg 24.90800 1.16200 29.94800
C  26.97800 0.68700 32.62400
C  22.30400 1.04500 32.28000
C  22.64200 1.22700 27.39200
C  27.43700 0.63900 27.72000
N  24.71200 0.84500 32.24300
C  25.73300 0.98300 33.06100
C  25.22200 1.15600 34.51100
C  23.72100 0.89800 34.42500
C  23.56700 0.92700 32.86500
C  23.19800 -0.44300 35.02000
C  25.60900 2.42900 35.18600
C  26.20900 2.21400 36.57300
H  26.08600 3.28100 37.69300
N  22.85700 1.10300 29.85600
C  21.94000 1.03300 30.89900
C  20.57100 1.11000 30.37200
C  20.74200 1.15300 28.97500
C  22.14500 1.24400 28.68900
C  19.34500 1.23100 31.26800
C  19.65500 1.06900 27.89300
O  19.81800 0.96500 26.64600
C  18.15700 1.10300 28.30600
N  25.04600 0.94400 27.82500
C  23.99200 1.02500 26.93400
C  24.45000 1.07700 25.43100
C  25.99000 0.91200 25.58100
C  26.19800 0.81600 27.10900
C  23.70400 0.00900 24.57300
C  26.85300 1.97200 24.86700
C  26.60900 3.43200 25.27600
N  26.87200 0.76800 30.14400
C  27.80700 0.62000 29.11400
C  29.15500 0.39500 29.78100
C  28.82700 0.50400 31.14100
C  27.46500 0.66900 31.37800
C  30.51300 0.25300 29.13100
C  29.45800 0.44700 32.50300
O  30.60400 0.35900 32.96000
C  28.28100 0.72100 33.55900
C  28.24300 -0.31300 34.71100
O  27.69800 -1.37400 34.68600
O  29.13900 -0.02500 35.70000
C  29.05800 -0.90600 36.86800
H  21.35200 1.11600 32.81000
H  22.01000 1.50400 26.54600
H  28.24800 0.43500 27.01800
H  25.63200 0.28700 35.02500
H  23.13300 1.71700 34.84100
H  23.84200 -0.91200 35.76400
H  23.10400 -1.12600 34.17600
H  22.22200 -0.35300 35.49800
H  24.73900 3.07600 35.30000
H  26.30100 3.03800 34.60500
H  27.29100 2.10000 36.51100
H  25.77900 1.30000 36.98400
H  18.70000 2.00800 30.85800
H  19.50900 1.64800 32.26100
H  18.77900 0.30000 31.31800
H  17.97900 0.26800 28.98300
H  17.55100 0.97400 27.40900
H  17.84700 2.02600 28.79500
H  24.28900 2.10100 25.09300
H  26.32900 -0.07300 25.26100
H  24.35300 -0.74800 24.13300
H  23.44100 0.47300 23.62200
H  22.94100 -0.50000 25.16100
H  26.68400 1.83500 23.79900
H  27.90800 1.74200 25.01300
H  26.06400 3.39200 26.21900
H  26.06300 3.94100 24.48200
H  27.56400 3.92600 25.45700
H  30.68900 -0.81100 28.97500
H  31.14000 0.68200 29.91200
H  30.56900 0.79500 28.18600
H  28.48900 1.74400 33.87300
H  28.16300 -0.80100 37.48200
H  29.94000 -0.63600 37.44900
H  29.28400 -1.91200 36.51600

