158

Mg 16.88000 -1.09200 27.15300
C  16.13300 1.08500 29.89900
C  19.22800 -2.60300 29.20800
C  18.32900 -2.56300 24.48400
C  15.58400 1.43600 25.10500
N  17.71900 -0.61200 29.27700
C  17.07600 0.14000 30.24700
C  17.62200 -0.27300 31.66600
C  18.69300 -1.37900 31.37500
C  18.61500 -1.46700 29.84100
C  20.23800 -1.05100 31.73800
C  16.54400 -0.73500 32.69200
C  16.42600 0.06100 33.97400
H  17.62100 0.39100 34.95100
N  18.36100 -2.63400 26.96300
C  19.16400 -3.12300 27.91600
C  19.90200 -4.21600 27.42900
C  19.61400 -4.21300 26.00100
C  18.72800 -3.15500 25.75200
C  20.82800 -4.95600 28.30600
C  20.21800 -5.09000 24.94000
O  19.83400 -5.00600 23.75800
C  21.20200 -6.16500 25.30200
N  16.88800 -0.63700 25.06200
C  17.43900 -1.52600 24.13400
C  17.23800 -1.02500 22.78300
C  16.25200 0.18900 22.92800
C  16.15900 0.31100 24.45100
C  18.48300 -0.54500 21.93800
C  14.85000 0.03700 22.36400
C  14.60700 -0.61800 21.03100
N  15.79400 0.75700 27.40600
C  15.29900 1.63200 26.49400
C  14.53500 2.62700 27.19900
C  14.78700 2.48400 28.54800
C  15.62200 1.33400 28.60800
C  13.69700 3.75400 26.61700
C  14.61000 3.07400 29.87900
O  14.04700 4.10900 30.23300
C  15.41300 2.10000 30.82200
C  16.27300 2.97300 31.71300
O  17.39100 3.37300 31.45600
O  15.66100 3.28100 32.88700
C  16.45300 4.10900 33.81400
H  19.92900 -3.13300 29.85600
H  18.76500 -2.90600 23.54400
H  15.12900 2.11500 24.38000
H  18.06200 0.66000 32.01900
H  18.50600 -2.35600 31.82200
H  20.09300 -0.44200 32.63000
H  20.61900 -0.38800 30.96000
H  20.90200 -1.89100 31.93700
H  16.59400 -1.78300 32.98700
H  15.56100 -0.66200 32.22700
H  15.81400 -0.50800 34.67400
H  15.83800 0.93200 33.68300
H  21.19600 -5.93100 27.98900
H  20.60500 -5.21500 29.34100
H  21.73100 -4.35100 28.38400
H  21.67000 -6.67000 24.45700
H  20.57600 -6.91400 25.78700
H  21.89000 -5.74400 26.03600
H  16.71400 -1.85300 22.30500
H  16.70600 1.11900 22.58500
H  19.46000 -0.73700 22.38200
H  18.54400 0.50400 21.64500
H  18.41000 -1.16900 21.04800
H  14.52700 1.06200 22.18600
H  14.20500 -0.41300 23.11900
H  13.84400 -0.14900 20.41000
H  14.33000 -1.65100 21.24300
H  15.50700 -0.51000 20.42600
H  12.64500 3.51800 26.45800
H  14.12600 4.04400 25.65800
H  13.84500 4.68000 27.17300
H  14.71800 1.67300 31.54600
H  16.42600 5.14800 33.48600
H  17.44300 3.66200 33.90700
H  16.10600 4.04600 34.84500
Mg 9.35600 47.52000 26.02100
C  7.24000 47.82500 28.67600
C  11.95000 48.50800 27.88500
C  11.21300 47.53300 23.14400
C  6.38600 47.26800 23.98000
N  9.59900 48.15400 27.97000
C  8.57200 48.16300 28.90600
C  9.21300 48.47800 30.29900
C  10.56300 49.19500 29.88200
C  10.75100 48.55300 28.51400
C  10.44200 50.73100 29.83900
C  9.50000 47.11600 31.08600
C  10.28000 47.18500 32.42600
H  9.87500 46.08400 33.45500
N  11.30300 48.03400 25.61100
C  12.28400 48.25400 26.53900
C  13.52300 48.42600 25.93400
C  13.34300 48.18000 24.55100
C  11.92400 47.87400 24.32700
C  14.77100 48.82500 26.60600
C  14.35300 47.95700 23.40700
O  14.03100 47.82900 22.21600
C  15.79700 47.92600 23.78900
N  8.83400 47.32000 23.82900
C  9.86600 47.36900 22.84500
C  9.26800 47.15200 21.45800
C  7.69200 46.99000 21.72900
C  7.62700 47.23100 23.28000
C  9.64400 48.12100 20.29600
C  7.02200 45.67500 21.33900
C  6.36800 45.70400 19.91700
N  7.19500 47.46500 26.29100
C  6.16400 47.40700 25.37700
C  4.86700 47.32600 26.05100
C  5.26000 47.50800 27.40500
C  6.67100 47.55300 27.43100
C  3.53300 47.10400 25.43100
C  4.81800 47.71400 28.82700
O  3.67900 47.78400 29.31300
C  6.14400 47.66900 29.67000
C  6.18700 46.31100 30.39400
O  6.25000 45.22900 29.80300
O  6.04200 46.40400 31.71300
C  6.05100 45.18700 32.46900
H  12.79800 49.03600 28.32600
H  11.82300 47.55100 22.23800
H  5.49000 47.32300 23.35800
H  8.51000 49.15700 30.78100
H  11.39300 49.05200 30.57500
H  10.76100 51.12100 28.87200
H  11.09000 51.19300 30.58300
H  9.44700 51.06000 30.13900
H  10.00500 46.46600 30.37200
H  8.48300 46.85500 31.38000
H  10.17700 48.14300 32.93700
H  11.33500 47.10000 32.16800
H  15.41900 47.95400 26.69900
H  14.68600 49.30500 27.58100
H  15.35400 49.56300 26.05500
H  16.37900 47.74300 22.88500
H  16.04200 47.05500 24.39800
H  16.22300 48.83900 24.20400
H  9.60000 46.18400 21.08300
H  7.24100 47.83000 21.20000
H  8.88000 48.85700 20.04700
H  9.78200 47.55300 19.37600
H  10.53500 48.71300 20.50500
H  6.26700 45.23500 21.99100
H  7.79400 44.93100 21.14700
H  6.56200 46.70500 19.53100
H  5.31100 45.47600 20.05300
H  6.83400 44.98900 19.23900
H  3.00300 46.20000 25.73300
H  3.57000 46.94400 24.35400
H  2.90900 47.96800 25.66100
H  6.21500 48.39700 30.47800
H  5.25100 45.17700 33.21000
H  6.98300 45.10000 33.02900
H  6.07900 44.32500 31.80200

