158

Mg 48.02200 15.98200 28.51700
C  46.06800 15.53300 31.48300
C  49.94200 18.10900 30.43800
C  49.47200 16.85100 25.77600
C  45.34600 14.47000 26.75100
N  47.92600 16.73800 30.67100
C  47.07700 16.44800 31.67600
C  47.58100 16.89300 33.07500
C  48.70400 17.85400 32.65500
C  48.85800 17.55400 31.15600
C  48.44000 19.36900 33.06200
C  48.05600 15.66900 33.91900
C  48.17000 15.85300 35.44200
H  47.58400 17.11900 36.11500
N  49.58700 17.13800 28.18900
C  50.26500 17.95000 29.06700
C  51.41300 18.56900 28.41200
C  51.36200 18.11500 27.08200
C  50.08800 17.35900 26.96600
C  52.38300 19.44100 29.09800
C  52.37800 18.27700 25.93600
O  52.32700 17.55800 24.99200
C  53.58800 19.11100 26.18800
N  47.42600 15.76300 26.48500
C  48.26000 16.21200 25.52700
C  47.83400 15.79900 24.15300
C  46.53600 14.92300 24.47400
C  46.36400 15.10700 25.96200
C  47.67700 17.04500 23.17300
C  46.43000 13.44800 24.02900
C  47.00700 12.31600 24.93000
N  46.14600 15.06300 28.99000
C  45.20800 14.53300 28.19400
C  44.12800 13.98700 28.94500
C  44.49700 14.31100 30.26900
C  45.72300 15.01300 30.26500
C  42.83300 13.31000 28.52100
C  44.14600 14.10000 31.58000
O  43.24400 13.41900 32.11500
C  45.07000 14.96700 32.45100
C  44.35000 16.03700 33.17500
O  43.92400 17.09500 32.71400
O  44.16100 15.64400 34.44700
C  43.33600 16.48600 35.32400
H  50.50800 18.80800 31.05700
H  49.99600 17.32600 24.94400
H  44.48700 13.94300 26.32900
H  46.76800 17.31400 33.66700
H  49.58500 17.53400 33.21200
H  48.35800 20.01100 32.18500
H  49.35300 19.65700 33.58300
H  47.58100 19.46700 33.72500
H  49.07800 15.43900 33.61500
H  47.51500 14.77300 33.61400
H  49.22200 15.95900 35.70700
H  47.88400 14.93000 35.94700
H  52.75000 20.20700 28.41500
H  53.19900 18.87000 29.54000
H  52.03900 20.07500 29.91600
H  53.96400 18.81500 27.16800
H  53.28400 20.15500 26.25900
H  54.33400 18.95000 25.41000
H  48.58600 15.10800 23.77100
H  45.67400 15.39300 24.00000
H  46.64300 17.15700 22.84700
H  48.44800 16.72800 22.47000
H  48.05200 17.92000 23.70300
H  46.84100 13.23400 23.04200
H  45.34800 13.32300 23.99200
H  47.73100 12.56700 25.70500
H  47.57300 11.63100 24.29900
H  46.13600 11.89600 25.43400
H  42.05700 13.31400 29.28600
H  42.97100 12.26700 28.23500
H  42.42200 13.81000 27.64400
H  45.63700 14.38500 33.17800
H  42.69900 15.89500 35.98200
H  42.56800 17.09400 34.84600
H  43.99200 17.08700 35.95400
Mg -4.97400 25.83500 26.31600
C  -3.62300 27.69500 28.98500
C  -6.70900 23.91000 28.58600
C  -6.10700 24.00800 23.69600
C  -3.22600 27.82000 24.10500
N  -4.96700 25.72200 28.53000
C  -4.55500 26.70500 29.42400
C  -5.17200 26.44500 30.81700
C  -5.79400 24.98400 30.73200
C  -5.84100 24.86700 29.19100
C  -4.94300 23.86100 31.32000
C  -6.26100 27.48000 31.12100
C  -6.61200 27.56400 32.64300
H  -6.18600 26.49600 33.62900
N  -6.28700 24.26900 26.13600
C  -6.95700 23.67900 27.20000
C  -7.83000 22.65700 26.64900
C  -7.74500 22.71200 25.21400
C  -6.65900 23.68700 24.93800
C  -8.93100 22.04600 27.49800
C  -8.56800 21.90100 24.15800
O  -8.53500 22.15800 22.95900
C  -9.57000 20.80000 24.61800
N  -4.76100 25.89800 24.19200
C  -5.22000 25.02000 23.31500
C  -4.66700 25.22100 21.94300
C  -4.08200 26.64900 22.02600
C  -4.02000 26.82300 23.56600
C  -3.71000 24.11900 21.29000
C  -4.98300 27.87200 21.47800
C  -4.41600 28.50200 20.19700
N  -3.66500 27.35700 26.46100
C  -3.05900 28.13700 25.44600
C  -2.11300 29.10000 26.02800
C  -2.28700 28.97600 27.41500
C  -3.25300 27.92200 27.61100
C  -1.30400 30.12600 25.24200
C  -1.88900 29.52700 28.80000
O  -1.04300 30.28900 29.13200
C  -2.85700 28.75200 29.78200
C  -2.16300 28.07200 30.98800
O  -1.43100 27.06200 30.94600
O  -2.56600 28.74200 32.14500
C  -2.02200 28.05500 33.35600
H  -7.13900 23.26900 29.35900
H  -6.43500 23.36800 22.87400
H  -2.72800 28.55500 23.46800
H  -4.27500 26.48300 31.43400
H  -6.76000 24.89500 31.22900
H  -3.91900 24.23500 31.29700
H  -4.91200 22.95300 30.71900
H  -5.26600 23.56400 32.31700
H  -7.15400 27.12600 30.60500
H  -6.01100 28.39700 30.58700
H  -7.69100 27.64500 32.77200
H  -6.12200 28.49700 32.92400
H  -9.85300 22.53500 27.18200
H  -8.71600 22.19600 28.55600
H  -8.96800 20.97200 27.31600
H  -9.13500 20.10900 25.34100
H  -9.91600 20.24900 23.74300
H  -10.34500 21.34900 25.15200
H  -5.59700 25.39200 21.40100
H  -3.05300 26.76200 21.68300
H  -3.78800 23.14100 21.76500
H  -2.66700 24.39400 21.44700
H  -3.94900 24.11100 20.22700
H  -5.15100 28.66900 22.20300
H  -5.89900 27.47100 21.04400
H  -3.95900 27.68200 19.64300
H  -3.64800 29.22400 20.47100
H  -5.24300 29.05200 19.74900
H  -0.49400 29.59900 24.73800
H  -0.86800 31.01100 25.70400
H  -1.92600 30.39900 24.38900
H  -3.55600 29.41100 30.29600
H  -2.69100 28.36500 34.15900
H  -1.04100 28.46500 33.59300
H  -1.95500 26.96800 33.41500

