158

Mg 23.98300 -4.62700 45.68300
C  25.80200 -2.10800 44.00500
C  21.19900 -3.67700 43.80500
C  22.37100 -7.27900 46.80900
C  27.02200 -5.83000 47.02300
N  23.51000 -2.99100 44.12900
C  24.44600 -2.08100 43.61500
C  23.77400 -1.15500 42.61000
C  22.22400 -1.58800 42.75800
C  22.28600 -2.80900 43.60400
C  21.41200 -0.45000 43.50700
C  24.22700 -1.48800 41.16700
C  25.20800 -0.44100 40.43900
H  24.95600 -0.33500 39.00400
N  22.00500 -5.32500 45.37200
C  21.03100 -4.81800 44.58400
C  19.80100 -5.56800 44.73900
C  20.06800 -6.55700 45.61500
C  21.56100 -6.47700 45.92100
C  18.52500 -5.14200 44.05700
C  19.01200 -7.45200 46.17700
O  17.79600 -7.42300 45.90700
C  19.47700 -8.59300 47.01000
N  24.65400 -6.37600 46.74000
C  23.72000 -7.27700 47.17200
C  24.37000 -8.27800 48.09600
C  25.82400 -7.85100 48.29100
C  25.89700 -6.63300 47.32400
C  23.57900 -8.64200 49.40800
C  27.01600 -8.88300 48.22200
C  27.58300 -9.29400 49.59000
N  26.06400 -4.04300 45.68400
C  27.15000 -4.67800 46.15500
C  28.33300 -3.88700 45.83200
C  27.81000 -2.88100 45.00700
C  26.45100 -3.08500 44.83900
C  29.78900 -4.09200 46.20500
C  28.21200 -1.73600 44.26600
O  29.33900 -1.27400 44.14800
C  26.94600 -1.15600 43.56900
C  26.83100 0.28900 43.72400
O  26.00400 0.83400 44.41200
O  27.70300 0.90100 42.82300
C  27.62500 2.38200 42.59200
H  20.31500 -3.21900 43.35600
H  21.90200 -8.17300 47.22700
H  27.95200 -6.14000 47.50400
H  24.08900 -0.13000 42.80500
H  21.77000 -1.84000 41.79900
H  22.15600 0.33500 43.64400
H  21.00200 -0.80200 44.45300
H  20.53500 -0.05100 42.99700
H  23.37000 -1.53700 40.49500
H  24.79100 -2.42100 41.14400
H  26.23700 -0.78700 40.54100
H  25.21300 0.54100 40.91200
H  17.59100 -5.70300 44.08400
H  18.58700 -4.93300 42.98900
H  18.30400 -4.17300 44.50500
H  18.57400 -9.10900 47.33700
H  19.77700 -8.07700 47.92200
H  20.23100 -9.18900 46.49700
H  24.28600 -9.22800 47.56900
H  25.90800 -7.34000 49.25000
H  23.94700 -8.37600 50.39900
H  23.41900 -9.71800 49.34200
H  22.58200 -8.21300 49.30400
H  27.77700 -8.47200 47.55800
H  26.67300 -9.78700 47.71900
H  28.67000 -9.34700 49.54000
H  27.16300 -10.28700 49.74800
H  27.30300 -8.55600 50.34200
H  30.35400 -3.29200 45.72500
H  30.12200 -5.05700 45.82200
H  29.86900 -4.13400 47.29100
H  27.05300 -1.24400 42.48800
H  27.24600 2.88600 43.48100
H  27.01700 2.61300 41.71800
H  28.60900 2.73600 42.28500
Mg 17.25800 50.88000 25.99100
C  19.07900 49.48400 28.64600
C  14.91600 51.91000 28.24400
C  15.34400 51.93100 23.36700
C  19.49700 49.53800 23.81000
N  16.99300 50.60800 28.17000
C  17.93200 50.17200 29.04800
C  17.57700 50.54100 30.46600
C  16.06800 50.98300 30.29300
C  16.01700 51.23100 28.85000
C  14.98400 50.03100 30.83800
C  18.43400 51.76400 30.96400
C  18.26000 52.11400 32.49500
H  17.28800 51.19800 33.37100
N  15.40800 51.82100 25.87200
C  14.62600 52.17500 26.91500
C  13.48900 53.00500 26.48000
C  13.69000 53.06800 25.01400
C  14.87800 52.28100 24.68700
C  12.49400 53.65600 27.48800
C  12.90400 53.82100 24.01300
O  13.18700 53.91900 22.79600
C  11.65300 54.50400 24.41400
N  17.33600 50.68900 23.84000
C  16.45200 51.14100 22.96500
C  17.08300 51.19400 21.59000
C  18.51400 50.45700 21.73600
C  18.45500 50.33300 23.22500
C  16.23800 50.43800 20.53000
C  19.77000 51.30000 21.28700
C  20.87200 50.43300 20.68200
N  19.02800 49.88800 26.13900
C  19.81100 49.26700 25.18100
C  20.95000 48.59700 25.75700
C  20.75400 48.70000 27.11400
C  19.54400 49.40900 27.32500
C  21.94700 47.78100 24.97200
C  21.14700 48.24100 28.38800
O  22.05100 47.51700 28.69300
C  20.23700 48.89600 29.42500
C  19.68000 47.90200 30.32700
O  18.72800 47.15700 30.01400
O  20.36800 47.88200 31.54000
C  19.76300 47.06800 32.66200
H  14.34400 52.43900 29.00900
H  14.83900 52.45300 22.55100
H  20.27300 49.17400 23.13300
H  17.74200 49.61200 31.01100
H  15.90400 51.85300 30.92900
H  15.30500 49.21300 31.48300
H  14.62600 49.45500 29.98500
H  14.11900 50.59700 31.18600
H  18.10600 52.61600 30.36900
H  19.48400 51.61700 30.71100
H  17.72500 53.05100 32.34000
H  19.19400 52.25900 33.03700
H  11.60800 53.86200 26.88800
H  12.88000 54.59000 27.89600
H  12.33000 52.94700 28.30000
H  11.04800 54.79800 23.55700
H  11.94800 55.41800 24.92900
H  11.16100 53.74000 25.01600
H  17.16300 52.21900 21.23100
H  18.44200 49.44400 21.34000
H  15.22200 50.26400 20.88500
H  16.69100 49.50200 20.20400
H  16.26600 51.15500 19.70900
H  20.21700 51.74900 22.17300
H  19.46300 52.04000 20.54700
H  21.81900 50.51500 21.21600
H  21.04600 50.90900 19.71700
H  20.59700 49.40100 20.46800
H  22.20700 48.18500 23.99400
H  21.41100 46.84000 24.84100
H  22.80800 47.59800 25.61500
H  20.79000 49.62900 30.01200
H  18.68900 47.25100 32.69100
H  20.16200 47.39100 33.62300
H  20.07000 46.03800 32.48100

