158

Mg 17.76300 -1.93700 28.31700
C  16.61800 0.01100 31.18400
C  19.46000 -3.77400 30.44500
C  19.24800 -3.16200 25.51500
C  16.20900 0.59200 26.36200
N  18.13000 -1.77300 30.64700
C  17.48700 -1.03700 31.53200
C  17.82900 -1.42600 32.91000
C  18.95100 -2.61700 32.69200
C  18.84300 -2.76800 31.14300
C  20.49300 -2.30600 33.04300
C  16.64400 -1.68500 33.88100
C  16.46000 -0.72800 35.15000
H  17.69600 -0.09900 35.74000
N  19.14100 -3.39500 28.02200
C  19.63700 -4.12200 29.06600
C  20.46100 -5.22800 28.51800
C  20.47700 -4.97000 27.05400
C  19.59800 -3.78100 26.73500
C  21.02100 -6.32300 29.35400
C  21.28100 -5.70300 26.01700
O  21.24300 -5.35000 24.79600
C  22.00300 -6.89600 26.42100
N  17.90600 -1.29200 26.22000
C  18.54400 -2.03000 25.27900
C  18.33200 -1.37700 23.91300
C  17.32200 -0.24400 24.20800
C  17.06900 -0.33100 25.67900
C  19.59300 -1.10200 23.09100
C  16.11100 0.01200 23.38900
C  16.20900 1.04200 22.29000
N  16.51400 -0.18500 28.62100
C  15.82800 0.65500 27.75900
C  14.99100 1.63900 28.38700
C  15.31600 1.45000 29.73200
C  16.24600 0.35700 29.82300
C  14.10200 2.67700 27.67000
C  15.03400 1.81100 31.06300
O  14.15200 2.57100 31.41100
C  15.80600 0.99400 32.06000
C  16.63300 1.90100 32.84100
O  17.79400 2.25000 32.64800
O  15.86800 2.46200 33.81900
C  16.37600 3.53200 34.63400
H  19.92300 -4.44300 31.17400
H  19.55700 -3.57900 24.55400
H  15.58700 1.32600 25.84600
H  18.42400 -0.66800 33.41900
H  18.60000 -3.55200 33.12900
H  21.11100 -1.98700 32.20400
H  20.92500 -3.23000 33.42600
H  20.56800 -1.58900 33.86100
H  16.88100 -2.68800 34.23600
H  15.73800 -1.64400 33.27600
H  16.14100 -1.55200 35.78900
H  15.67400 -0.01300 34.90800
H  20.56300 -7.29700 29.18300
H  20.86500 -6.19500 30.42500
H  22.11100 -6.30500 29.38200
H  21.42800 -7.69400 26.89000
H  22.67300 -6.50700 27.18800
H  22.40800 -7.33100 25.50700
H  17.98400 -2.18400 23.26900
H  17.80000 0.73200 24.13300
H  19.55900 -0.07700 22.72100
H  19.67400 -1.69900 22.18300
H  20.47600 -1.33300 23.68700
H  15.26100 0.22500 24.03700
H  15.91400 -0.95800 22.93300
H  17.13900 1.60200 22.18900
H  15.43400 1.77400 22.51300
H  16.01700 0.52000 21.35200
H  13.98600 2.44400 26.61100
H  14.43600 3.70200 27.82900
H  13.15200 2.61300 28.20100
H  15.10600 0.41300 32.66000
H  16.31800 4.52100 34.18000
H  17.43700 3.42100 34.85800
H  15.79200 3.56700 35.55300
Mg 49.55500 45.74900 41.86800
C  46.20100 46.26300 41.11900
C  49.42000 42.75800 40.56300
C  52.96800 45.62100 42.32100
C  49.75800 49.22000 42.76900
N  48.09000 44.80000 40.67100
C  46.79500 45.15900 40.48500
C  45.97300 44.07300 39.72300
C  46.93900 42.84400 39.85200
C  48.20600 43.46300 40.48800
C  46.30000 41.70200 40.64600
C  45.59100 44.57100 38.31800
C  44.20100 44.25400 37.66400
H  44.13200 43.21000 36.64300
N  50.97700 44.35100 41.51000
C  50.70600 43.12300 40.99500
C  52.00900 42.31600 40.84000
C  53.05600 43.07000 41.47100
C  52.38600 44.41700 41.86100
C  52.13400 41.04300 40.14900
C  54.46600 42.61600 41.61100
O  54.80300 41.48200 41.21900
C  55.52000 43.48300 42.23500
N  51.14100 47.28600 42.36400
C  52.44000 46.89000 42.58200
C  53.29600 48.06800 43.05800
C  52.27900 49.28900 42.99900
C  50.97300 48.58100 42.67100
C  54.01500 47.95000 44.44200
C  52.61600 50.49600 42.16400
C  51.92400 51.88900 42.61400
N  48.29500 47.39700 42.02400
C  48.48800 48.72200 42.53700
C  47.18400 49.31200 42.66000
C  46.27300 48.37900 42.21800
C  46.98100 47.23500 41.76800
C  46.87300 50.71300 43.12000
C  44.84600 48.05300 42.01100
O  43.87100 48.62900 42.50000
C  44.76200 46.76300 41.18000
C  43.76000 45.76700 41.79600
O  42.86200 45.17800 41.16600
O  43.88900 45.78500 43.20200
C  42.88200 44.91600 43.81200
H  49.20700 41.76300 40.16600
H  54.05700 45.66000 42.39000
H  49.65800 50.25200 43.11100
H  45.07400 43.94300 40.32600
H  47.19900 42.50800 38.84800
H  46.41100 41.69500 41.73100
H  46.62500 40.74800 40.23100
H  45.21300 41.77700 40.65300
H  46.29700 44.20100 37.57400
H  45.78700 45.64200 38.26300
H  43.68400 45.18600 37.43700
H  43.62800 43.85100 38.49900
H  52.90600 40.99700 39.38000
H  51.20100 40.75300 39.66500
H  52.36800 40.25400 40.86300
H  55.12800 43.95500 43.13600
H  55.93800 44.18500 41.51300
H  56.29100 42.77200 42.53100
H  54.10400 48.16000 42.33300
H  52.10200 49.61700 44.02400
H  53.76600 48.82800 45.03700
H  55.09400 47.84000 44.33300
H  53.74900 47.01100 44.92800
H  52.29800 50.23500 41.15500
H  53.68400 50.71100 42.11700
H  52.70600 52.64700 42.65700
H  51.53500 51.76200 43.62400
H  51.13800 52.21200 41.93200
H  47.17400 51.54600 42.48400
H  47.41400 50.81500 44.06100
H  45.80300 50.68200 43.32400
H  44.31900 47.13300 40.25500
H  42.99800 43.93300 43.35500
H  41.88300 45.27200 43.56000
H  43.14600 44.85000 44.86700

