158

Mg -1.83700 17.14900 26.39800
C  -1.86500 14.92000 29.00300
C  -2.94200 19.63400 28.51600
C  -1.90600 19.21500 23.68900
C  -1.23900 14.41000 24.14100
N  -2.52700 17.20700 28.41100
C  -2.27100 16.26700 29.33200
C  -2.62000 16.73500 30.76000
C  -3.34900 18.12100 30.49000
C  -2.89200 18.35900 29.10500
C  -4.85100 18.06000 30.64900
C  -1.39500 16.80300 31.76800
C  -1.60600 17.67700 33.04300
H  -1.27000 16.98500 34.40800
N  -2.29200 19.07400 26.19900
C  -2.79500 19.96200 27.16100
C  -2.86100 21.31400 26.63000
C  -2.43900 21.17700 25.25100
C  -2.20300 19.80500 24.96700
C  -3.28400 22.47100 27.47400
C  -2.31700 22.30800 24.17000
O  -2.18000 22.07900 22.94300
C  -2.33200 23.80300 24.54500
N  -1.64900 16.83500 24.30200
C  -1.75100 17.83600 23.39500
C  -1.31700 17.34600 22.03400
C  -0.81000 15.95500 22.24500
C  -1.28100 15.68900 23.68500
C  -2.41000 17.55600 20.90500
C  0.66300 15.59100 22.00000
C  1.65500 16.35000 22.73700
N  -1.62000 15.06400 26.45800
C  -1.38400 14.12800 25.46800
C  -1.25400 12.84100 26.15900
C  -1.37300 13.11600 27.56100
C  -1.66400 14.47100 27.67300
C  -1.03900 11.51300 25.54500
C  -1.25200 12.55400 28.82800
O  -1.03500 11.42300 29.26400
C  -1.79300 13.61400 29.79000
C  -1.01500 13.55400 31.13000
O  0.12900 13.98400 31.23500
O  -1.60600 12.71000 32.03300
C  -0.79700 12.33600 33.22200
H  -3.39100 20.43200 29.11200
H  -1.73600 19.81400 22.79200
H  -0.90900 13.66600 23.41300
H  -3.28000 15.96000 31.14900
H  -3.00600 18.88400 31.18800
H  -5.37400 18.94800 31.00400
H  -5.13800 17.41900 31.48200
H  -5.22500 17.58500 29.74200
H  -0.58800 17.23600 31.17800
H  -1.13400 15.81000 32.13600
H  -2.55200 18.21700 33.04000
H  -0.84700 18.45900 33.04000
H  -4.02200 22.29400 28.25700
H  -3.74000 23.29000 26.91800
H  -2.38300 22.82400 27.97600
H  -1.92700 23.88200 25.55400
H  -3.38800 24.07100 24.58800
H  -1.80400 24.38100 23.78700
H  -0.38000 17.82200 21.74400
H  -1.32800 15.22600 21.62100
H  -2.13100 18.43300 20.32000
H  -3.42700 17.72200 21.26000
H  -2.52200 16.75500 20.17400
H  0.80400 16.00500 21.00100
H  0.72000 14.50400 21.95700
H  1.13000 16.75400 23.60200
H  2.00100 17.17300 22.11100
H  2.46500 15.71600 23.09700
H  -0.91200 11.64600 24.47000
H  -2.02300 11.06100 25.66300
H  -0.37700 10.79700 26.03400
H  -2.77100 13.18200 30.00000
H  0.20700 11.97800 32.99500
H  -1.45300 11.64700 33.75500
H  -0.56500 13.25500 33.75900
Mg 46.67700 44.59700 43.36200
C  43.05700 44.32600 43.21700
C  46.81500 41.30400 42.32200
C  49.80000 45.12600 42.81400
C  46.00400 48.18500 43.47900
N  45.07500 43.11900 42.74400
C  43.69600 43.14500 42.74800
C  43.02400 41.83900 42.25000
C  44.26700 40.92000 42.09900
C  45.49800 41.82300 42.45300
C  44.12000 39.56200 42.98000
C  42.00300 41.90900 41.07000
C  42.72800 42.39900 39.80300
H  42.64800 41.52200 38.58400
N  48.19500 43.33400 42.67600
C  48.09400 42.02600 42.39300
C  49.42800 41.51100 42.20500
C  50.33000 42.57200 42.35900
C  49.49800 43.76000 42.62600
C  49.84400 40.06200 41.86400
C  51.90500 42.55700 42.23500
O  52.47000 41.48900 42.02400
C  52.66800 43.79000 42.47300
N  47.67300 46.47300 42.82700
C  49.06800 46.31800 42.99000
C  49.74700 47.69500 43.30500
C  48.51200 48.63800 43.03900
C  47.29400 47.68900 43.23000
C  50.29800 47.71400 44.72500
C  48.47200 49.45200 41.68400
C  48.35900 50.98900 41.83100
N  44.93900 46.01300 43.44400
C  44.91500 47.40500 43.57000
C  43.55300 47.84700 43.78600
C  42.75600 46.65400 43.62100
C  43.68900 45.54300 43.47700
C  43.13900 49.24000 43.94800
C  41.39700 46.18100 43.59100
O  40.34300 46.74700 43.82100
C  41.60700 44.61600 43.33900
C  40.82800 43.89600 44.39600
O  39.70800 43.41000 44.16600
O  41.48800 43.79400 45.59200
C  40.74400 42.95400 46.55600
H  46.75000 40.24600 42.05800
H  50.86400 45.35900 42.72700
H  45.90200 49.27200 43.51200
H  42.38500 41.46600 43.05000
H  44.26400 40.67100 41.03800
H  44.89100 39.35900 43.72300
H  43.99800 38.68800 42.34100
H  43.23800 39.54600 43.62100
H  41.14000 42.51300 41.35100
H  41.58300 40.91100 40.94300
H  43.80500 42.52700 39.90400
H  42.25200 43.34700 39.55300
H  50.60400 40.19700 41.09400
H  48.95400 39.59100 41.44700
H  50.24300 39.46600 42.68500
H  52.50200 44.20700 43.46600
H  52.40800 44.42000 41.62200
H  53.69600 43.48100 42.28800
H  50.50900 47.84700 42.54100
H  48.38200 49.30500 43.89200
H  51.21000 48.30600 44.80200
H  50.53000 46.72300 45.11600
H  49.48400 48.02200 45.38300
H  47.57700 49.23000 41.10300
H  49.32400 49.14700 41.07600
H  47.62300 51.40800 41.14400
H  49.35700 51.32700 41.55400
H  48.14300 51.23800 42.87000
H  42.06200 49.37800 44.04200
H  43.51300 49.88700 43.15400
H  43.65400 49.56900 44.85100
H  41.08200 44.41500 42.40500
H  40.20500 43.70600 47.13100
H  41.54800 42.56100 47.17900
H  39.93000 42.28700 46.27100

