158

Mg 36.51500 49.37700 25.76300
C  37.00000 47.56300 28.80200
C  35.30000 51.98700 27.52800
C  35.73800 50.83500 22.80600
C  37.70100 46.58100 24.05800
N  36.27300 49.73900 27.91100
C  36.49300 48.90200 28.96200
C  36.18900 49.61600 30.31700
C  35.48300 50.95800 29.83400
C  35.66400 50.88200 28.30100
C  34.03800 51.13400 30.37800
C  37.44200 49.95400 31.21900
C  37.20700 49.70800 32.76400
H  35.88900 49.90800 33.48500
N  35.74600 51.28500 25.17600
C  35.25800 52.18000 26.09800
C  34.77500 53.32600 25.35000
C  34.98200 53.08400 23.93700
C  35.46400 51.67600 23.88200
C  34.18500 54.57200 25.98800
C  34.79100 53.94700 22.84200
O  35.18600 53.68600 21.72600
C  34.23800 55.28400 23.10600
N  36.59600 48.74600 23.75500
C  36.31500 49.59200 22.65500
C  36.63300 48.92700 21.35400
C  37.56000 47.78400 21.81600
C  37.35000 47.67700 23.28200
C  35.39500 48.52600 20.42300
C  39.09200 47.96500 21.54500
C  39.91100 46.70500 21.34000
N  37.07700 47.44100 26.27600
C  37.58300 46.45900 25.45300
C  37.74700 45.17200 26.21400
C  37.61600 45.62100 27.55400
C  37.21800 46.99900 27.53100
C  38.18300 43.85600 25.68600
C  37.69000 45.20600 28.95200
O  38.08900 44.14000 29.40000
C  37.28500 46.47900 29.90000
C  36.02500 46.01600 30.66900
O  34.87100 46.14100 30.27800
O  36.31100 45.41500 31.88400
C  35.15300 44.99100 32.71400
H  34.98200 52.87500 28.07700
H  35.71500 51.19500 21.77500
H  38.02700 45.83700 23.32900
H  35.42100 49.09900 30.89300
H  36.07200 51.76800 30.26500
H  33.92500 52.06400 30.93300
H  33.72200 50.29500 30.99800
H  33.27800 51.18800 29.59800
H  37.75400 50.99400 31.12000
H  38.34700 49.44800 30.88100
H  38.03800 50.26300 33.19800
H  37.45600 48.65200 32.86400
H  33.12600 54.68700 25.75500
H  34.78800 55.45600 25.78600
H  34.26000 54.33600 27.05000
H  33.22300 55.25700 23.50200
H  34.39700 55.86000 22.19400
H  34.90200 55.95400 23.65200
H  37.09200 49.65500 20.68600
H  37.16700 46.87500 21.36100
H  34.63000 48.29200 21.16400
H  35.51900 47.71800 19.70300
H  35.18000 49.41700 19.83400
H  39.39900 48.56000 22.40600
H  39.19800 48.58200 20.65300
H  39.21300 45.93300 21.01700
H  40.36800 46.39700 22.28100
H  40.62800 46.96500 20.56200
H  38.80200 44.02700 24.80500
H  37.33800 43.27800 25.31100
H  38.72700 43.43400 26.53100
H  38.11600 46.72400 30.56200
H  34.48400 44.31800 32.17800
H  34.53400 45.87500 32.86600
H  35.35900 44.37500 33.59000
Mg 26.92600 50.36300 27.50200
C  24.84600 51.76900 29.80400
C  29.38500 49.80000 29.93900
C  29.13500 49.31400 25.13600
C  24.73200 51.49300 24.92700
N  27.09600 50.79200 29.59000
C  25.98900 51.18400 30.36300
C  26.26900 50.93100 31.78500
C  27.74100 50.58900 31.79900
C  28.13700 50.33200 30.34400
C  28.55800 51.70800 32.43000
C  25.37700 49.86700 32.52900
C  24.28200 50.45200 33.53300
H  24.27400 49.70700 34.92000
N  28.95900 49.66100 27.54900
C  29.72100 49.38800 28.62200
C  31.02000 48.79000 28.23200
C  31.00000 48.81900 26.85200
C  29.72500 49.30800 26.41300
C  32.11900 48.38900 29.21600
C  32.01900 48.39800 25.88600
O  31.97800 48.87400 24.75700
C  33.26300 47.51700 26.38500
N  26.97100 50.48200 25.34100
C  27.97300 49.85500 24.57500
C  27.43900 49.60800 23.11600
C  26.06300 50.31000 23.12500
C  25.88300 50.80000 24.54100
C  28.34400 50.05500 21.99200
C  24.88700 49.22200 22.82600
C  23.68300 49.70400 21.96400
N  25.14400 51.50600 27.25800
C  24.26300 51.77400 26.23000
C  23.07000 52.53700 26.76200
C  23.27600 52.56500 28.14500
C  24.52300 51.90900 28.39800
C  22.02900 53.18000 25.90800
C  22.70400 53.04400 29.36200
O  21.72000 53.69300 29.61300
C  23.62500 52.44500 30.50800
C  23.92300 53.47900 31.54700
O  24.86000 54.20800 31.48200
O  22.98500 53.45200 32.56700
C  23.23400 54.43000 33.62900
H  30.10000 49.49900 30.70700
H  29.81400 48.84700 24.42000
H  23.93500 51.74300 24.22400
H  26.05900 51.91900 32.19600
H  27.85400 49.67500 32.38200
H  29.45700 51.92300 31.85200
H  29.00200 51.27300 33.32500
H  28.16100 52.66200 32.77600
H  25.84100 49.06600 33.10300
H  24.93100 49.41900 31.64100
H  23.32900 50.35200 33.01300
H  24.42800 51.52800 33.62600
H  32.96900 48.83600 28.70000
H  32.19700 47.30500 29.30900
H  32.04300 48.67100 30.26600
H  33.46400 46.82800 25.56500
H  33.02000 46.96600 27.29300
H  34.21600 48.00100 26.60100
H  27.28400 48.54600 22.92700
H  26.09000 51.18400 22.47400
H  28.52200 49.15700 21.40000
H  29.35500 50.42700 22.15700
H  27.75600 50.74200 21.38200
H  24.40100 48.74600 23.67800
H  25.34000 48.39600 22.27700
H  23.79000 49.34600 20.94000
H  23.74200 50.78400 21.82600
H  22.68000 49.63400 22.38400
H  21.08700 52.81600 26.31900
H  22.24700 52.91900 24.87300
H  22.10800 54.22700 26.20300
H  23.14700 51.57500 30.95800
H  23.19400 55.50500 33.45200
H  24.26500 54.24100 33.92600
H  22.58200 54.22900 34.47900

