158

Mg -12.54100 38.37700 41.42800
C  -10.31200 35.88200 40.42800
C  -10.26900 40.69600 40.04000
C  -14.93000 40.65800 41.67500
C  -14.79900 35.80000 42.21500
N  -10.60400 38.22600 40.18400
C  -9.89900 37.09200 39.97400
C  -8.51600 37.43100 39.30900
C  -8.47400 38.97800 39.25100
C  -9.85100 39.36200 39.91900
C  -7.26400 39.74600 39.76400
C  -8.33200 36.80600 37.87500
C  -7.19500 35.79100 37.75200
H  -6.14700 36.13800 36.71000
N  -12.61100 40.37300 40.92700
C  -11.53500 41.14600 40.42000
C  -12.04300 42.47700 40.31800
C  -13.42400 42.51400 40.71600
C  -13.66300 41.16800 41.19100
C  -11.06800 43.59900 39.83400
C  -14.28000 43.67600 40.65100
O  -13.80000 44.73800 40.38000
C  -15.72800 43.66900 40.98800
N  -14.68300 38.26200 41.78500
C  -15.36500 39.38300 41.96400
C  -16.81900 39.03400 42.35000
C  -16.75500 37.41500 42.53800
C  -15.38400 37.07300 42.13000
C  -17.30600 39.93800 43.61500
C  -17.84800 36.71000 41.69100
C  -18.60100 35.56500 42.42900
N  -12.52900 36.23800 41.50400
C  -13.46300 35.35000 41.95500
C  -12.87700 34.06700 42.01900
C  -11.59000 34.25300 41.48200
C  -11.46400 35.58200 41.07800
C  -13.48900 32.86000 42.63300
C  -10.34000 33.55000 41.21900
O  -10.04100 32.41800 41.47800
C  -9.46800 34.65100 40.46100
C  -8.22600 34.75100 41.18200
O  -8.01100 35.53100 42.11400
O  -7.31900 33.89100 40.69100
C  -6.01300 33.55700 41.37200
H  -9.49500 41.40900 39.74900
H  -15.72000 41.37300 41.91400
H  -15.60700 35.11800 42.48800
H  -7.72100 37.07500 39.96500
H  -8.53400 39.35700 38.23100
H  -6.66400 40.32700 39.06400
H  -6.58900 38.97500 40.13700
H  -7.52300 40.31800 40.65500
H  -8.07700 37.60100 37.17400
H  -9.19300 36.28300 37.45900
H  -7.60000 34.80900 37.50700
H  -6.71400 35.72400 38.72800
H  -10.18500 43.21400 39.32300
H  -10.74100 44.20400 40.68000
H  -11.56700 44.22500 39.09400
H  -16.14500 42.90500 40.33200
H  -16.19700 44.62700 40.76300
H  -15.84400 43.51600 42.06100
H  -17.35600 39.28600 41.43600
H  -16.74300 37.04500 43.56300
H  -18.01600 40.63000 43.16300
H  -16.39600 40.37800 44.02300
H  -17.83100 39.36400 44.37900
H  -17.28900 36.25700 40.87200
H  -18.62900 37.40200 41.37700
H  -19.66300 35.48800 42.19500
H  -18.44800 35.54400 43.50800
H  -18.05200 34.67700 42.11600
H  -14.44800 32.71000 42.13700
H  -13.60100 33.17600 43.67000
H  -12.94700 31.92000 42.53500
H  -9.27700 34.25500 39.46400
H  -5.48000 32.83000 40.75800
H  -6.23500 33.20000 42.37800
H  -5.36400 34.43000 41.31700
Mg -2.40600 34.60300 26.74400
C  -4.02900 32.68700 29.21600
C  -1.04100 36.52000 29.22100
C  -1.18700 36.62900 24.43600
C  -4.34700 32.98900 24.30600
N  -2.46900 34.48900 28.95300
C  -3.19000 33.70500 29.73100
C  -2.85300 34.00100 31.21600
C  -1.88600 35.28800 31.12700
C  -1.79600 35.42500 29.65700
C  -2.51400 36.46500 31.95700
C  -2.21300 32.77900 31.91700
C  -3.01100 32.19600 33.16600
H  -2.32200 32.07100 34.54100
N  -1.15700 36.29600 26.81800
C  -0.65900 36.90900 27.90800
C  0.22700 38.01600 27.50500
C  0.27600 37.91800 26.08400
C  -0.80500 36.98100 25.71800
C  0.87500 38.84100 28.54400
C  1.20100 38.69000 25.11300
O  1.15100 38.45100 23.94000
C  2.10000 39.71700 25.64000
N  -3.01100 34.95700 24.66300
C  -2.24000 35.80300 24.01700
C  -2.72900 35.84700 22.55900
C  -3.54700 34.56800 22.40300
C  -3.65000 34.11200 23.86100
C  -3.54800 37.22100 22.23200
C  -2.75900 33.55400 21.50600
C  -1.67900 32.70400 22.21700
N  -3.91300 33.16100 26.72400
C  -4.47400 32.48100 25.64100
C  -5.21200 31.32100 26.15200
C  -5.04600 31.44400 27.57300
C  -4.25800 32.53700 27.85000
C  -6.00900 30.25900 25.34400
C  -5.46600 30.78500 28.83600
O  -6.10700 29.67700 28.95500
C  -4.93800 31.67300 29.94800
C  -6.04400 32.29700 30.69400
O  -6.72900 33.14400 30.16800
O  -6.10800 31.89700 32.07800
C  -6.99500 32.69500 32.97400
H  -0.59400 37.11500 30.02100
H  -0.89100 37.29900 23.62600
H  -4.82800 32.33700 23.57300
H  -3.73100 34.33700 31.76900
H  -0.90100 35.20100 31.58500
H  -2.74400 37.24400 31.23100
H  -1.82400 36.97700 32.62800
H  -3.43100 36.25400 32.50800
H  -1.23400 33.07400 32.29500
H  -1.99000 31.94700 31.24900
H  -3.25200 31.13800 33.06400
H  -3.94800 32.75300 33.16900
H  1.93200 38.96200 28.30600
H  0.86300 38.51900 29.58500
H  0.45600 39.84500 28.49100
H  2.70600 39.23900 26.41000
H  1.52200 40.54800 26.04500
H  2.80400 40.03600 24.87100
H  -1.86100 35.87200 21.90000
H  -4.52500 34.82000 21.99400
H  -3.84800 37.12800 21.18800
H  -2.89600 38.06000 22.47700
H  -4.48500 37.30200 22.78300
H  -2.12000 34.10000 20.81200
H  -3.44400 32.88300 20.98700
H  -0.86200 32.66300 21.49600
H  -2.09300 31.69500 22.20700
H  -1.32900 32.98000 23.21100
H  -5.54600 30.20300 24.35900
H  -7.08700 30.42000 25.34600
H  -5.78500 29.32800 25.86400
H  -4.31000 31.04000 30.57300
H  -6.31800 33.38800 33.47300
H  -7.59200 32.07900 33.64700
H  -7.73400 33.31300 32.46400

