158

Mg 16.86500 52.04700 26.77800
C  18.78600 50.46300 29.23200
C  14.58500 52.95600 29.09300
C  15.16600 53.34800 24.22100
C  18.90100 50.32700 24.34400
N  16.67500 51.59500 28.88100
C  17.62700 51.08700 29.75600
C  17.22400 51.35900 31.26800
C  15.78200 51.92200 31.12200
C  15.62700 52.18400 29.63300
C  14.74100 50.95900 31.74900
C  18.26300 52.40500 31.77300
C  18.49000 52.36800 33.25800
H  17.56000 51.51500 34.12800
N  15.31000 53.24800 26.68900
C  14.47200 53.53100 27.78600
C  13.38800 54.43100 27.32100
C  13.61000 54.66100 25.88600
C  14.72800 53.74300 25.51000
C  12.41700 55.05300 28.18600
C  12.73900 55.46600 24.94300
O  12.68100 55.31000 23.71400
C  11.68700 56.43700 25.50500
N  17.09900 52.01600 24.63800
C  16.16100 52.59300 23.82500
C  16.45600 52.20800 22.31500
C  17.74100 51.29700 22.34900
C  17.98100 51.26300 23.86200
C  15.28900 51.51500 21.48200
C  18.94200 51.76800 21.45500
C  19.61000 53.08000 21.72700
N  18.48300 50.67100 26.77600
C  19.12200 50.04900 25.72600
C  20.24900 49.29300 26.27500
C  20.11800 49.41300 27.65000
C  19.05300 50.26400 27.90600
C  21.19100 48.54500 25.51100
C  20.79500 49.10900 28.93500
O  21.83100 48.58100 29.22200
C  19.91600 49.85000 29.98200
C  19.49500 48.81400 30.96200
O  18.76000 47.82400 30.73800
O  20.03300 49.07500 32.20900
C  19.70100 48.07900 33.18900
H  13.81800 53.26100 29.80700
H  14.74700 53.73500 23.29000
H  19.50700 49.90800 23.53800
H  17.36000 50.41700 31.80000
H  15.58500 52.88700 31.58800
H  15.03700 50.34900 32.60200
H  14.27000 50.27700 31.04100
H  13.92300 51.56300 32.14200
H  17.79100 53.34200 31.47800
H  19.11900 52.41600 31.09700
H  18.41700 53.36900 33.68200
H  19.53600 52.09100 33.39200
H  12.66800 54.92200 29.23800
H  11.48200 54.56400 27.91500
H  12.34100 56.12400 27.99300
H  10.88300 55.96300 26.06800
H  11.42900 57.02700 24.62600
H  12.27200 57.17500 26.05400
H  16.74700 53.11300 21.78100
H  17.47100 50.29600 22.01200
H  15.71900 51.16800 20.54200
H  14.47600 52.16900 21.16800
H  14.96000 50.60800 21.98900
H  18.72900 51.61200 20.39700
H  19.77800 51.08400 21.60000
H  20.66800 52.93700 21.94600
H  19.21200 53.52600 22.63900
H  19.61600 53.77800 20.89000
H  20.51000 47.89500 24.96100
H  21.84600 47.90800 26.10600
H  21.65500 49.28800 24.86200
H  20.50300 50.63600 30.45800
H  20.30400 47.17200 33.13800
H  18.67100 47.74400 33.06100
H  19.72800 48.55700 34.16800
Mg 9.34600 47.72800 26.25400
C  7.21400 48.13800 29.03600
C  11.85100 49.08400 28.49300
C  11.55700 47.73900 23.70600
C  6.79500 47.07500 24.24500
N  9.50400 48.46800 28.53300
C  8.50500 48.25100 29.45100
C  8.88400 48.54100 30.90100
C  10.43000 48.93100 30.71800
C  10.63800 48.90500 29.15700
C  10.81200 50.29600 31.38400
C  8.67200 47.36300 31.89100
C  9.62200 46.83500 32.96000
H  8.94800 46.31500 34.23500
N  11.43400 48.24500 26.11800
C  12.24100 48.80800 27.13900
C  13.55800 48.88600 26.57200
C  13.45000 48.39200 25.22200
C  12.12000 48.12400 24.99900
C  14.84000 49.40700 27.21900
C  14.62200 48.33600 24.21300
O  14.50800 47.94800 23.09600
C  16.05100 48.67400 24.61900
N  9.20400 47.42300 24.24300
C  10.19700 47.43400 23.39200
C  9.78000 47.03900 21.94400
C  8.27600 46.97200 22.12200
C  8.05300 47.12000 23.67500
C  10.29700 47.95900 20.79200
C  7.67200 45.63400 21.48800
C  7.34600 45.64600 20.00400
N  7.39100 47.60800 26.53300
C  6.40600 47.27500 25.60000
C  5.08300 47.36900 26.20200
C  5.34000 47.71000 27.55200
C  6.73700 47.84700 27.67900
C  3.69100 47.04300 25.51300
C  4.74200 48.07200 28.78000
O  3.57500 48.12900 29.08500
C  5.91900 48.29600 29.77000
C  5.60900 47.23200 30.83900
O  5.98500 46.06000 30.83200
O  5.04500 47.78600 31.99500
C  4.53900 46.63500 32.77800
H  12.69800 49.41000 29.10000
H  12.22300 47.74900 22.84100
H  5.98600 46.88000 23.53800
H  8.34600 49.44600 31.18400
H  11.05500 48.20900 31.24300
H  11.71100 50.18600 31.99100
H  10.02900 50.63500 32.06200
H  10.93100 51.15600 30.72400
H  8.53700 46.49700 31.24400
H  7.71800 47.64400 32.33700
H  10.39900 47.50900 33.32000
H  10.01500 45.91500 32.52800
H  14.47300 49.66900 28.21100
H  15.17800 50.30900 26.70900
H  15.54500 48.62600 27.50300
H  16.14400 48.00600 25.47500
H  16.04400 49.75800 24.72500
H  16.82900 48.34200 23.93100
H  10.20000 46.05800 21.72600
H  7.89800 47.88600 21.66500
H  11.03400 48.68700 21.13000
H  9.57100 48.52300 20.20700
H  10.72100 47.26800 20.06400
H  6.77600 45.24100 21.96900
H  8.38800 44.83300 21.67300
H  7.57000 46.56400 19.46100
H  6.31400 45.31300 19.89200
H  7.99100 44.97400 19.43700
H  3.87600 46.69000 24.49900
H  3.20400 48.01800 25.47000
H  3.26200 46.28200 26.16500
H  5.79000 49.30900 30.15100
H  3.98100 45.97900 32.11000
H  3.88700 46.97200 33.58400
H  5.29000 45.97300 33.21000

