158

Mg 17.07500 -1.92000 28.12000
C  16.13600 0.50000 30.51500
C  18.89700 -3.56700 30.49800
C  18.68500 -3.60800 25.55900
C  15.88900 0.43500 25.69800
N  17.49800 -1.51000 30.22900
C  16.95500 -0.56500 31.07000
C  17.50600 -0.71500 32.54600
C  18.47600 -1.90200 32.42100
C  18.25000 -2.40000 30.96500
C  19.88400 -1.62100 32.86200
C  16.32400 -1.01800 33.60900
C  16.63900 -0.27700 34.99400
H  18.03600 -0.22000 35.52300
N  18.37900 -3.60400 28.06200
C  19.01600 -4.17200 29.19300
C  19.71200 -5.32600 28.69700
C  19.72700 -5.33100 27.27200
C  18.93000 -4.13600 26.87700
C  20.30900 -6.43000 29.58800
C  20.51900 -6.17000 26.34100
O  20.42100 -6.03200 25.13400
C  21.40500 -7.28400 26.70000
N  17.37300 -1.56100 25.94800
C  17.97900 -2.47400 25.11300
C  17.82800 -2.09600 23.65800
C  16.90000 -0.77100 23.70200
C  16.68700 -0.64300 25.21900
C  19.09800 -2.01000 22.82600
C  15.41900 -0.94000 23.02600
C  14.29500 -1.75500 23.79100
N  15.90800 -0.10500 28.09600
C  15.52700 0.73700 27.02100
C  14.64500 1.72000 27.52200
C  14.87800 1.66700 28.91700
C  15.76200 0.59400 29.17700
C  13.91500 2.71700 26.63200
C  14.64900 2.38700 30.09200
O  14.09900 3.51500 30.26600
C  15.35300 1.58300 31.27200
C  16.22000 2.51800 32.19300
O  17.41500 2.62700 31.99300
O  15.51800 3.07000 33.27700
C  16.29500 4.00400 34.12700
H  19.36400 -4.02600 31.37200
H  19.08200 -4.26100 24.77900
H  15.48900 1.07700 24.91100
H  17.97100 0.25700 32.71300
H  18.05600 -2.74300 32.97300
H  20.16100 -0.63500 33.23600
H  20.38400 -1.65200 31.89400
H  20.24300 -2.37200 33.56400
H  16.21300 -2.07800 33.84000
H  15.33200 -0.77600 33.22800
H  15.98200 -0.74900 35.72400
H  16.36700 0.75100 34.75300
H  21.34500 -6.63100 29.31500
H  19.81800 -7.37900 29.37100
H  20.19200 -6.27200 30.66000
H  21.87100 -7.81000 25.86700
H  20.95100 -8.11000 27.24800
H  22.17100 -6.94300 27.39700
H  17.36800 -2.92900 23.12800
H  17.35900 0.11200 23.25600
H  19.93800 -2.53300 23.28400
H  19.37900 -0.97200 22.65100
H  18.88200 -2.41700 21.83800
H  15.50500 -1.40000 22.04200
H  14.90800 0.00100 22.82300
H  13.57800 -1.09300 24.27500
H  14.65800 -2.47700 24.52200
H  13.65000 -2.32500 23.12100
H  13.24300 3.22400 27.32600
H  13.32800 2.18600 25.88200
H  14.58500 3.45400 26.19100
H  14.47400 1.14000 31.74200
H  16.94200 4.60800 33.49100
H  16.86600 3.36400 34.79900
H  15.58500 4.62800 34.67100
Mg 47.54400 34.65100 27.94200
C  45.96000 32.76500 30.41700
C  48.18600 37.12000 30.13200
C  48.66400 36.51100 25.32500
C  46.72200 32.09900 25.62000
N  47.09700 34.90400 30.07400
C  46.34300 34.05100 30.85100
C  46.72800 34.42000 32.27300
C  47.20500 35.95900 32.18100
C  47.51400 35.99500 30.68900
C  46.10200 36.99600 32.63600
C  47.87400 33.50500 32.78100
C  47.93500 33.42000 34.35800
H  46.98800 34.35400 35.14900
N  48.36300 36.57100 27.76400
C  48.64700 37.44500 28.80700
C  49.28000 38.63700 28.31000
C  49.49600 38.45100 26.88400
C  48.84100 37.11200 26.58200
C  49.71300 39.73700 29.24600
C  50.08400 39.42600 25.84300
O  50.45100 39.02600 24.73400
C  50.46500 40.86500 26.30000
N  47.62100 34.34600 25.79000
C  48.27700 35.22800 24.99000
C  48.41900 34.71700 23.51700
C  47.76800 33.22700 23.68600
C  47.42500 33.22700 25.12300
C  47.83400 35.63900 22.41000
C  48.75800 32.13500 23.22600
C  48.23500 31.13100 22.22000
N  46.54800 32.85800 27.96900
C  46.31400 31.89100 26.94900
C  45.69500 30.73000 27.47800
C  45.46500 30.99200 28.84800
C  46.11900 32.27700 29.06000
C  45.32900 29.55100 26.60500
C  44.86700 30.52200 30.07100
O  44.16000 29.50900 30.30900
C  45.03400 31.74600 31.00100
C  45.01900 31.31400 32.39700
O  45.86000 30.68900 33.02500
O  43.82300 31.62600 33.01600
C  43.63600 31.36500 34.43200
H  48.44000 37.84900 30.90500
H  49.14400 37.07700 24.52300
H  46.42700 31.29800 24.93800
H  45.83400 34.34500 32.89300
H  47.98000 36.14800 32.92400
H  45.14400 36.51100 32.82300
H  46.13700 37.79900 31.90000
H  46.46300 37.49100 33.53800
H  48.82100 33.91500 32.43100
H  47.65400 32.48300 32.47300
H  48.97700 33.67400 34.55700
H  47.75000 32.37300 34.59600
H  50.72400 39.65000 29.64500
H  49.04200 39.70200 30.10400
H  49.54000 40.74600 28.87100
H  51.38600 40.79100 26.87800
H  49.62200 41.36800 26.77400
H  50.55200 41.42500 25.36900
H  49.50800 34.70900 23.46100
H  46.89500 33.14300 23.03800
H  48.63200 35.89400 21.71300
H  47.41900 36.53200 22.87600
H  46.99000 35.24600 21.84300
H  49.09200 31.51400 24.05700
H  49.62500 32.54700 22.71000
H  48.93200 30.72700 21.48500
H  47.46000 31.70100 21.70800
H  47.85600 30.36100 22.89200
H  46.21300 29.13700 26.12000
H  44.67400 29.86900 25.79300
H  44.88900 28.81000 27.27300
H  44.14300 32.37300 30.95400
H  42.61200 31.04300 34.62500
H  43.89200 32.22900 35.04500
H  44.34200 30.65200 34.85900

