158

Mg 23.97500 -6.62400 46.43900
C  26.06000 -4.16300 44.69500
C  21.48200 -5.65900 44.14100
C  22.41500 -9.46500 46.98700
C  26.82700 -7.58600 48.21700
N  23.77700 -5.08400 44.72700
C  24.79500 -4.25500 44.12500
C  24.18100 -3.41900 42.99700
C  22.67700 -3.45200 43.31900
C  22.55800 -4.80500 44.14300
C  22.06000 -2.27000 44.19100
C  24.64600 -3.88000 41.62900
C  25.34800 -2.83400 40.74400
H  25.11900 -2.86900 39.22900
N  22.08700 -7.46200 45.72000
C  21.19500 -6.87200 44.84200
C  19.98800 -7.65000 44.80500
C  20.21000 -8.81300 45.63600
C  21.59200 -8.63400 46.18100
C  18.88800 -7.29000 43.87800
C  19.24600 -9.95600 45.91700
O  18.10200 -9.86400 45.53700
C  19.63500 -11.21700 46.75200
N  24.63000 -8.34300 47.27800
C  23.73900 -9.40200 47.51300
C  24.32900 -10.49300 48.47400
C  25.67400 -9.76800 48.85000
C  25.73600 -8.41000 48.10200
C  23.39000 -10.86500 49.62100
C  26.96100 -10.69100 48.58000
C  27.88900 -10.88400 49.66000
N  26.00400 -5.90900 46.58300
C  27.04600 -6.38700 47.36400
C  28.21700 -5.57400 47.27500
C  27.84900 -4.65700 46.28600
C  26.50900 -4.89700 45.83000
C  29.57500 -5.62500 48.03700
C  28.25200 -3.46100 45.54900
O  29.34900 -2.88500 45.63500
C  27.16500 -3.14400 44.48700
C  26.80800 -1.72500 44.74500
O  25.90500 -1.23300 45.39400
O  27.71500 -0.98200 44.07400
C  27.33500 0.44300 43.90100
H  20.63400 -5.30000 43.55500
H  21.91700 -10.42500 47.13500
H  27.63200 -7.88500 48.89100
H  24.48600 -2.37700 43.09700
H  22.05500 -3.41000 42.42500
H  21.97100 -2.49600 45.25400
H  21.06700 -1.96700 43.85900
H  22.71000 -1.39700 44.14000
H  23.77500 -4.34300 41.16500
H  25.39100 -4.67100 41.71300
H  26.41600 -2.90100 40.95000
H  25.04500 -1.82700 41.02900
H  18.29200 -8.16300 43.61200
H  19.14800 -6.62700 43.05200
H  18.18600 -6.67700 44.44400
H  18.89300 -12.00800 46.64900
H  19.89100 -10.91500 47.76800
H  20.42400 -11.79100 46.26600
H  24.35200 -11.36700 47.82400
H  25.68900 -9.53800 49.91600
H  22.60300 -10.11100 49.60500
H  23.96500 -10.88400 50.54700
H  22.97900 -11.87000 49.52900
H  27.46500 -10.18500 47.75700
H  26.70300 -11.70700 48.27900
H  28.92500 -10.66900 49.39900
H  27.96000 -11.93100 49.95700
H  27.73000 -10.26400 50.54200
H  29.26400 -5.19300 48.98800
H  30.32200 -5.05900 47.47900
H  29.97400 -6.62300 48.22100
H  27.58800 -3.19100 43.48400
H  27.69100 0.91900 44.81500
H  26.26500 0.63900 43.84000
H  27.79500 0.84200 42.99700
Mg 41.68000 41.21400 26.68000
C  41.33900 43.79700 29.01200
C  42.25400 39.14900 29.27300
C  42.16200 38.76600 24.41700
C  41.07700 43.40500 24.12200
N  41.85200 41.42300 28.96600
C  41.60100 42.56500 29.69300
C  41.55700 42.29100 31.22500
C  42.10900 40.81500 31.26300
C  42.23700 40.45600 29.75000
C  43.37600 40.65400 32.12800
C  40.16200 42.53300 31.91300
C  40.36600 43.13700 33.29400
H  39.71800 42.61300 34.54900
N  42.16100 39.23400 26.85100
C  42.22200 38.50400 27.98200
C  42.62800 37.10600 27.59300
C  42.71200 37.02100 26.17400
C  42.31300 38.37300 25.74900
C  42.84600 36.04500 28.64000
C  43.26900 35.90100 25.25400
O  43.51100 36.07100 24.05900
C  43.58800 34.52100 25.81300
N  41.58000 41.14700 24.54800
C  41.89400 40.03300 23.85600
C  41.74600 40.19800 22.37300
C  41.33100 41.66700 22.18700
C  41.25500 42.12500 23.72900
C  43.02000 39.83600 21.58200
C  40.07600 41.78400 21.34600
C  38.70600 41.24300 22.00000
N  41.44200 43.22900 26.52000
C  41.19200 44.03300 25.39000
C  40.94300 45.36800 25.90500
C  40.98900 45.30500 27.24700
C  41.32600 44.02300 27.61100
C  40.73200 46.54300 25.00500
C  40.75300 46.09100 28.43100
O  40.36800 47.26600 28.51000
C  41.06500 45.21900 29.65800
C  42.33800 45.71700 30.36500
O  43.47400 45.85500 29.91700
O  42.03100 46.00300 31.70200
C  43.14200 46.45000 32.57800
H  42.28500 38.41500 30.08100
H  42.33800 37.99000 23.67000
H  40.88100 44.05100 23.26400
H  42.28300 42.95400 31.69600
H  41.37800 40.08200 31.60500
H  44.24500 40.35000 31.54500
H  43.13100 39.83500 32.80500
H  43.58500 41.57400 32.67400
H  39.71500 41.55800 32.10800
H  39.49800 43.19600 31.36000
H  39.89800 44.10000 33.08700
H  41.36500 43.49400 33.54300
H  42.69400 36.41600 29.65400
H  43.90600 35.80100 28.56100
H  42.26400 35.13500 28.49300
H  42.70600 33.88900 25.70900
H  43.73200 34.56700 26.89300
H  44.53500 34.13800 25.43600
H  40.90100 39.58500 22.05800
H  42.08200 42.27800 21.68600
H  43.73500 39.30300 22.20800
H  43.52400 40.71100 21.17300
H  42.79100 39.22900 20.70700
H  40.22000 41.25200 20.40600
H  40.04600 42.81500 20.99300
H  38.32400 40.43400 21.37700
H  38.02000 42.08800 21.96300
H  38.76800 40.93700 23.04500
H  40.07100 47.32200 25.38500
H  40.29500 46.10900 24.10600
H  41.71200 46.87200 24.66000
H  40.32200 45.21900 30.45600
H  42.85200 47.35700 33.10800
H  44.10900 46.60000 32.09900
H  43.34300 45.73100 33.37300

