158

Mg 25.10900 1.25200 30.27300
C  27.56000 1.19700 32.65800
C  22.64900 1.63200 32.71200
C  22.73400 1.25200 27.84800
C  27.54200 1.04300 27.86500
N  25.08700 1.47200 32.45200
C  26.27800 1.52900 33.17900
C  25.98900 1.91700 34.59600
C  24.33500 2.15000 34.56900
C  23.98700 1.74700 33.21600
C  23.65900 1.34700 35.67200
C  26.82700 2.98600 35.33600
C  26.12600 3.53400 36.56000
H  26.00700 2.74600 37.86800
N  22.99200 1.24700 30.29500
C  22.15200 1.45300 31.37500
C  20.74900 1.44100 30.88700
C  20.74600 1.23300 29.47700
C  22.20300 1.21900 29.12400
C  19.63100 1.40200 31.88000
C  19.61700 1.07800 28.52300
O  19.74300 0.77900 27.29500
C  18.25500 1.27400 29.02700
N  25.13600 1.12300 28.18700
C  24.03300 1.17400 27.40700
C  24.42900 1.60600 25.97000
C  25.93600 1.29400 25.93300
C  26.24600 1.23900 27.42700
C  23.63000 1.00600 24.80300
C  26.84300 2.37900 25.16200
C  26.96000 3.77900 25.80700
N  27.17200 0.96000 30.22400
C  28.05900 0.87700 29.17400
C  29.32700 0.58200 29.65500
C  29.19200 0.84400 31.02200
C  27.84500 0.95000 31.29200
C  30.51600 0.29400 28.77800
C  29.97400 0.99900 32.20000
O  31.17000 1.06900 32.32900
C  28.94700 1.29300 33.34600
C  29.07900 0.24300 34.31600
O  28.86500 -0.96400 34.15000
O  29.42800 0.88500 35.53800
C  29.27200 0.11900 36.77000
H  21.94300 1.87000 33.51000
H  22.01600 1.58900 27.09700
H  28.25100 1.16600 27.04300
H  26.18000 1.03800 35.21100
H  24.11600 3.21800 34.57100
H  23.30300 2.12100 36.35200
H  24.39700 0.65900 36.08300
H  22.83000 0.74400 35.30100
H  27.03000 3.73600 34.57100
H  27.73000 2.43200 35.59200
H  25.14400 3.99200 36.43500
H  26.63300 4.44900 36.86600
H  19.06500 2.33200 31.94400
H  19.88000 1.11100 32.90000
H  19.02400 0.53900 31.60700
H  17.99100 0.35700 29.55500
H  17.55800 1.45800 28.21000
H  18.12900 2.05300 29.77900
H  24.18500 2.66600 25.91100
H  26.04200 0.32800 25.43900
H  24.35900 0.71600 24.04600
H  22.92600 1.64000 24.26400
H  23.15000 0.08000 25.11900
H  26.18800 2.57000 24.31300
H  27.75700 1.85400 24.88200
H  26.24800 3.87500 26.62700
H  26.75700 4.59700 25.11600
H  27.91800 3.91600 26.30700
H  31.14100 -0.57100 29.00100
H  31.23800 1.10200 28.88900
H  30.16300 0.28600 27.74700
H  29.21900 2.22100 33.84800
H  28.85500 -0.85100 36.49800
H  28.75300 0.66100 37.56100
H  30.26600 -0.09800 37.16000
Mg -12.67000 16.88700 42.06300
C  -9.74100 15.20500 41.49500
C  -11.63000 19.47400 40.22800
C  -15.89000 18.03900 42.21500
C  -14.03000 13.76900 43.32100
N  -10.91500 17.24700 40.87900
C  -9.79400 16.47100 40.88900
C  -8.63800 17.13600 40.09300
C  -9.10500 18.70300 40.02700
C  -10.68100 18.44500 40.28600
C  -8.56300 19.72000 41.05200
C  -8.25600 16.47700 38.73800
C  -6.72500 16.29700 38.46300
H  -6.03700 16.97500 37.31700
N  -13.64100 18.62900 41.45500
C  -13.01700 19.55900 40.68500
C  -13.93600 20.59600 40.55800
C  -15.18900 20.27900 41.15400
C  -14.96900 18.91500 41.61900
C  -13.50700 21.90200 39.81200
C  -16.43100 21.15800 41.20400
O  -16.44200 22.25600 40.73100
C  -17.68800 20.73500 42.00900
N  -14.69300 16.01000 42.69600
C  -15.74700 16.77300 42.76600
C  -16.97800 15.97600 43.24300
C  -16.43200 14.60300 43.50500
C  -14.98600 14.79400 43.17600
C  -17.67400 16.66100 44.50400
C  -16.99000 13.41800 42.64500
C  -16.99500 12.03800 43.24900
N  -11.96400 14.92300 42.47700
C  -12.64100 13.78600 42.89400
C  -11.68700 12.68900 43.01500
C  -10.46800 13.20700 42.54000
C  -10.76000 14.51000 42.10100
C  -11.99600 11.36400 43.63200
C  -9.06500 12.93100 42.22100
O  -8.33600 11.94900 42.30900
C  -8.55200 14.31600 41.61600
C  -7.50300 14.92200 42.53800
O  -7.78300 15.60800 43.49600
O  -6.24100 14.63100 42.11400
C  -5.10700 15.23600 42.79300
H  -11.27900 20.41700 39.80600
H  -16.89200 18.47100 42.22500
H  -14.43300 12.85700 43.76500
H  -7.74200 17.11600 40.71300
H  -8.99500 19.15500 39.04100
H  -7.72000 19.32600 41.62000
H  -9.34600 19.91300 41.78500
H  -8.11200 20.58900 40.57300
H  -8.86200 17.07300 38.05500
H  -8.72300 15.49200 38.76300
H  -6.51700 15.22700 38.47700
H  -6.16100 16.70800 39.30100
H  -13.57000 21.67500 38.74800
H  -12.53600 22.26000 40.15600
H  -14.25100 22.63300 40.12800
H  -17.44200 20.40100 43.01700
H  -18.13500 19.97400 41.36900
H  -18.32300 21.62200 42.02900
H  -17.77100 15.96400 42.49500
H  -16.46000 14.38300 44.57200
H  -17.43900 16.12300 45.42200
H  -18.73500 16.62300 44.25500
H  -17.30500 17.66300 44.71900
H  -16.43500 13.47700 41.70900
H  -18.00800 13.67600 42.35200
H  -16.39100 11.37000 42.63400
H  -17.98900 11.60100 43.35000
H  -16.49200 12.02600 44.21600
H  -12.38400 11.57000 44.62900
H  -11.00300 10.92500 43.72700
H  -12.63600 10.67900 43.07500
H  -8.11700 14.21600 40.62200
H  -4.52700 14.36000 43.08500
H  -5.35800 15.82000 43.67800
H  -4.59200 15.77500 41.99800

