158

Mg 1.51300 -1.09400 45.24900
C  5.07700 -0.02200 44.82300
C  0.73200 1.51000 43.24000
C  -1.38000 -2.56100 44.87400
C  2.91200 -4.03300 46.74800
N  2.83200 0.57500 44.13000
C  4.15900 0.79100 44.09000
C  4.50200 1.88200 43.16200
C  3.11100 2.57500 42.93700
C  2.12700 1.48300 43.39800
C  2.89000 3.96200 43.58700
C  5.16500 1.25700 41.89700
C  6.64100 1.64100 41.61100
H  6.87400 2.70700 40.49900
N  -0.13000 -0.51500 44.38300
C  -0.32700 0.63500 43.58600
C  -1.74700 0.67600 43.26100
C  -2.33700 -0.56000 43.63000
C  -1.28200 -1.29200 44.33000
C  -2.29600 1.88100 42.53800
C  -3.74800 -0.93200 43.42500
O  -4.46200 -0.10300 42.91200
C  -4.35400 -2.31000 43.78700
N  0.87400 -2.98300 45.75000
C  -0.41000 -3.32000 45.60800
C  -0.71700 -4.75300 46.06700
C  0.59200 -5.19300 46.70100
C  1.51400 -4.00400 46.43700
C  -2.04400 -4.94600 46.88400
C  1.21200 -6.60200 46.28200
C  1.78700 -7.45600 47.41900
N  3.51300 -1.74800 45.96100
C  3.89700 -3.02500 46.43000
C  5.35100 -3.04000 46.70000
C  5.81300 -1.85100 46.07300
C  4.68700 -1.17400 45.56800
C  6.17800 -4.12900 47.31600
C  7.05300 -1.08200 45.79600
O  8.17100 -1.27900 46.22600
C  6.61200 0.14900 44.97400
C  6.93100 1.39400 45.80000
O  6.68800 1.49800 47.01100
O  7.60100 2.35200 45.08800
C  7.99100 3.53100 45.88000
H  0.44600 2.20100 42.44500
H  -2.28400 -3.15900 44.74200
H  3.27900 -4.96900 47.17400
H  5.17600 2.54200 43.70800
H  2.94900 2.59800 41.85900
H  2.02100 3.90000 44.24100
H  2.68600 4.70800 42.81900
H  3.71300 4.26800 44.23300
H  4.60200 1.52900 41.00400
H  4.97000 0.18500 41.89200
H  6.97400 0.68600 41.20300
H  7.25000 1.75700 42.50700
H  -2.76000 1.56000 41.60600
H  -1.52300 2.60600 42.28100
H  -3.04100 2.28800 43.22100
H  -4.39100 -2.36100 44.87500
H  -3.68300 -3.01800 43.30100
H  -5.38500 -2.31200 43.43200
H  -0.95400 -5.31300 45.16300
H  0.45000 -5.11500 47.77900
H  -2.69700 -4.07400 46.86400
H  -1.75600 -5.26300 47.88700
H  -2.58500 -5.70600 46.32100
H  2.09600 -6.36800 45.68900
H  0.63200 -7.28800 45.66500
H  2.86000 -7.26600 47.39500
H  1.57600 -8.51900 47.30200
H  1.42300 -7.13500 48.39500
H  6.32700 -4.03500 48.39200
H  7.14400 -4.19400 46.81400
H  5.71600 -5.11500 47.26600
H  7.18600 0.17700 44.04700
H  7.16400 3.97000 46.43900
H  8.17100 4.21600 45.05200
H  8.90900 3.31800 46.42700
Mg 0.07500 8.43700 26.82000
C  0.79600 10.51200 29.61100
C  0.64400 5.70300 28.83300
C  -0.13900 6.54600 24.08500
C  0.08300 11.40600 24.93500
N  0.48500 8.21900 28.95100
C  0.56200 9.10500 29.97100
C  0.65900 8.51600 31.32500
C  0.95200 6.98500 31.03700
C  0.72500 6.95100 29.50300
C  2.36300 6.49900 31.27600
C  -0.72200 8.78000 31.93200
C  -0.90900 8.59400 33.47400
H  0.16700 8.25500 34.44300
N  0.12200 6.36600 26.54500
C  0.36400 5.41800 27.45000
C  0.32700 4.09700 26.83500
C  0.07300 4.34100 25.46000
C  0.11500 5.82600 25.26100
C  0.49100 2.87200 27.64200
C  -0.11700 3.32100 24.38700
O  -0.23300 3.79800 23.23700
C  -0.21400 1.78200 24.60400
N  0.20800 8.89100 24.87800
C  -0.14300 7.94900 23.92800
C  -0.28900 8.61600 22.54700
C  -0.56400 10.09400 22.88800
C  0.02300 10.14000 24.27800
C  0.87500 8.46800 21.57100
C  -2.04400 10.59300 22.92500
C  -2.45800 11.37900 21.65100
N  0.38400 10.50600 27.17000
C  0.40800 11.60300 26.27500
C  0.72900 12.85800 26.88600
C  0.90300 12.42300 28.22400
C  0.62500 11.07400 28.34100
C  0.94300 14.28800 26.25100
C  1.31800 12.87700 29.54000
O  1.73200 14.00100 29.83100
C  1.10600 11.67500 30.52100
C  2.37900 11.52800 31.27600
O  3.45500 11.00600 30.94100
O  2.13500 12.17000 32.45300
C  3.21100 12.06400 33.53500
H  0.97200 4.91900 29.51800
H  -0.35500 5.97700 23.17800
H  -0.04300 12.23700 24.23700
H  1.46200 9.00200 31.88000
H  0.14800 6.42200 31.51100
H  2.25300 5.63300 31.93000
H  2.94400 7.32400 31.68700
H  2.85800 6.11900 30.38300
H  -1.51900 8.30200 31.36300
H  -0.85400 9.85800 31.84100
H  -1.69400 7.85600 33.63500
H  -1.27100 9.55800 33.83300
H  0.98500 3.02000 28.60200
H  1.13800 2.19600 27.08100
H  -0.48700 2.42200 27.80900
H  0.81900 1.48400 24.78500
H  -0.44600 1.38500 23.61700
H  -1.05300 1.58200 25.27100
H  -1.22200 8.27700 22.09700
H  0.06400 10.72700 22.26000
H  1.22900 7.43700 21.55000
H  1.74200 9.03300 21.91100
H  0.55100 8.70600 20.55800
H  -2.34300 11.16200 23.80600
H  -2.58800 9.65700 23.05600
H  -1.66100 11.50700 20.91900
H  -2.74200 12.35400 22.04800
H  -3.26900 10.88200 21.11800
H  1.37700 14.95200 26.99900
H  0.06000 14.76100 25.82100
H  1.74600 14.24000 25.51600
H  0.31700 12.00700 31.19500
H  3.60800 13.04900 33.78100
H  4.00600 11.38200 33.23200
H  2.69300 11.68500 34.41600

