158

Mg 47.60200 25.38500 28.98800
C  48.40200 27.46900 31.72800
C  46.15700 23.12600 31.38700
C  47.34900 23.08300 26.61500
C  49.36400 27.45100 26.93500
N  47.55800 25.21800 31.29600
C  47.71000 26.32200 32.15200
C  47.09700 26.11200 33.51600
C  46.55400 24.60800 33.50200
C  46.75800 24.25000 31.93700
C  47.41400 23.66500 34.43400
C  45.94300 27.13100 33.91700
C  45.92300 27.72700 35.38200
H  46.87900 27.20500 36.48400
N  46.84300 23.39200 28.96300
C  46.26000 22.71100 30.01000
C  45.67100 21.48400 29.51900
C  45.99600 21.41500 28.11900
C  46.70300 22.66900 27.78400
C  45.02400 20.47600 30.26900
C  45.74100 20.30000 27.14400
O  46.15700 20.34100 25.95400
C  44.82400 19.09700 27.45100
N  48.41400 25.21500 27.09900
C  48.11800 24.23400 26.25100
C  48.65700 24.46000 24.89300
C  49.08100 25.92000 24.95600
C  48.99400 26.23800 26.42700
C  49.71900 23.40900 24.39100
C  48.24300 26.83700 24.05900
C  48.97100 27.72100 22.98100
N  48.71500 27.11800 29.24600
C  49.30100 27.89700 28.30700
C  49.85800 29.17900 28.88400
C  49.59100 29.00800 30.28700
C  48.85800 27.78200 30.36600
C  50.59900 30.14100 28.07500
C  49.63100 29.61100 31.61100
O  50.05200 30.71100 31.89300
C  48.92600 28.58800 32.53700
C  49.85500 28.19400 33.62100
O  50.49400 27.15500 33.78100
O  49.94900 29.28000 34.45200
C  50.77100 29.18200 35.67900
H  45.57800 22.48300 32.05300
H  47.27500 22.31800 25.83900
H  49.77600 28.10600 26.16400
H  47.83700 26.14100 34.31500
H  45.50300 24.50100 33.76900
H  46.80600 23.38700 35.29600
H  48.38400 24.04100 34.75900
H  47.58000 22.75500 33.85800
H  44.95700 26.70400 33.73100
H  46.04600 27.98800 33.25100
H  44.91300 27.81400 35.78000
H  46.22400 28.75300 35.17000
H  44.73700 20.63400 31.30900
H  45.47400 19.48800 30.36800
H  44.06600 20.31400 29.77600
H  45.25600 18.52700 28.27400
H  44.65100 18.54000 26.53000
H  43.91000 19.50200 27.88400
H  47.84200 24.38800 24.17200
H  50.11100 26.11100 24.65500
H  49.42700 22.81400 23.52600
H  49.91800 22.70800 25.20300
H  50.65900 23.87700 24.09900
H  47.64000 27.50000 24.67900
H  47.54300 26.31400 23.40800
H  48.57200 27.45300 22.00300
H  50.03500 27.56400 23.16000
H  48.81400 28.75200 23.29600
H  50.84900 29.73600 27.09400
H  51.45700 30.42100 28.68600
H  50.11700 31.11900 28.08600
H  48.10100 29.12000 33.00900
H  51.76500 28.78200 35.48000
H  50.24500 28.57800 36.42000
H  50.95700 30.16900 36.10100
Mg 42.39700 41.69400 26.14000
C  41.79000 44.03300 28.62000
C  43.59100 39.51500 28.54700
C  43.24600 39.62800 23.55400
C  41.55900 44.12700 23.70100
N  42.44600 41.72100 28.35800
C  42.26700 42.80200 29.18200
C  42.34900 42.41900 30.67500
C  43.28200 41.16700 30.57500
C  43.01100 40.72800 29.06400
C  44.74100 41.25700 30.99500
C  40.99500 42.27300 31.48000
C  40.60000 43.34700 32.48400
H  41.50300 43.61800 33.71600
N  43.24500 39.81200 26.13000
C  43.66100 39.10100 27.18000
C  44.10200 37.82500 26.66800
C  43.97600 37.79600 25.26500
C  43.43200 39.12100 24.86300
C  44.63100 36.74000 27.58400
C  44.33500 36.69400 24.27600
O  44.07000 36.74000 23.04900
C  45.03900 35.39700 24.70600
N  42.25900 41.77700 24.01800
C  42.70000 40.84200 23.16800
C  42.67000 41.30700 21.70500
C  41.78500 42.54000 21.80400
C  41.82100 42.83900 23.32600
C  44.06700 41.54900 21.05300
C  40.29500 42.34400 21.46800
C  39.60200 41.16500 22.09500
N  41.78300 43.60800 26.15400
C  41.60100 44.49800 25.05700
C  41.30700 45.82000 25.59500
C  41.28400 45.59900 27.00900
C  41.64700 44.27200 27.28200
C  41.04000 47.10100 24.85700
C  41.06500 46.31600 28.27700
O  40.67600 47.46300 28.49600
C  41.32900 45.32300 29.40100
C  42.36100 45.87800 30.34500
O  43.52300 45.53400 30.39700
O  41.81500 46.92600 31.08600
C  42.79800 47.50900 32.02200
H  43.92600 38.77100 29.27200
H  43.55700 39.05200 22.68000
H  41.20200 44.89300 23.01000
H  42.93900 43.17400 31.19400
H  42.94700 40.32600 31.18200
H  45.03800 42.28200 31.21600
H  45.31700 40.74500 30.22400
H  44.89700 40.66300 31.89500
H  40.76000 41.32100 31.95500
H  40.32800 42.32900 30.61900
H  39.57700 43.11900 32.78400
H  40.63200 44.32400 32.00200
H  45.72000 36.70700 27.58200
H  44.28300 35.78800 27.18300
H  44.43900 36.86400 28.64900
H  45.26800 34.91200 23.75600
H  44.43800 34.65400 25.23000
H  45.93200 35.80500 25.17900
H  42.07100 40.49900 21.28800
H  42.23500 43.40000 21.31000
H  44.30200 42.49600 20.56800
H  44.12700 40.75400 20.31000
H  44.87900 41.24600 21.71500
H  40.20000 42.26600 20.38500
H  39.70600 43.23300 21.69600
H  38.65600 41.51100 22.51300
H  40.17200 40.68100 22.88800
H  39.37100 40.44300 21.31200
H  41.44900 47.13700 23.84700
H  41.37900 47.96600 25.42700
H  39.95200 47.16200 24.84000
H  40.37400 45.20300 29.91300
H  43.22600 46.77300 32.70200
H  42.11400 48.11000 32.62100
H  43.58700 48.02100 31.47100

