158

Mg 47.21500 34.98300 27.43900
C  45.66800 33.25100 30.12700
C  47.52300 37.75400 29.40300
C  48.65100 36.66400 24.93200
C  46.49100 32.35600 25.43200
N  46.64900 35.43500 29.50700
C  46.17200 34.54400 30.48600
C  46.37500 35.22000 31.90200
C  46.44300 36.66300 31.49400
C  46.89400 36.64100 30.09300
C  45.09100 37.42500 31.53900
C  47.60500 34.76000 32.67700
C  47.40900 34.63500 34.19100
H  46.39300 35.45800 34.90600
N  48.14600 36.96800 27.18600
C  48.16500 37.91900 28.16100
C  48.93400 39.07400 27.77300
C  49.27100 38.77800 26.40200
C  48.75200 37.43900 26.13500
C  49.06900 40.34000 28.56700
C  50.08800 39.62200 25.45200
O  50.49600 39.11600 24.39800
C  50.65700 41.00200 25.83600
N  47.53100 34.55600 25.52300
C  48.15100 35.39700 24.66300
C  47.95300 34.98200 23.16500
C  47.59000 33.45900 23.34500
C  47.13200 33.46000 24.84100
C  46.99700 35.88700 22.34700
C  48.70300 32.39700 22.97400
C  48.31100 31.33500 22.01100
N  46.26800 33.17700 27.71400
C  46.06000 32.19400 26.77400
C  45.47200 30.99000 27.34700
C  45.23100 31.44200 28.71900
C  45.79800 32.74100 28.82700
C  45.09400 29.70200 26.74400
C  44.67600 31.10300 30.05800
O  44.16200 29.99700 30.29100
C  44.74600 32.35200 30.93400
C  45.16300 31.86600 32.26900
O  46.27700 31.44900 32.52400
O  44.07500 31.71100 33.03500
C  44.18600 31.37300 34.48500
H  47.60500 38.63300 30.04600
H  49.07000 37.22000 24.09100
H  46.27300 31.55900 24.71800
H  45.53600 34.91700 32.52800
H  47.17900 37.15300 32.13100
H  44.34800 36.79100 32.02300
H  44.87800 37.86100 30.56300
H  45.24100 38.19700 32.29400
H  48.57000 35.22300 32.47000
H  47.73900 33.75600 32.27500
H  48.38300 34.91500 34.59500
H  47.28400 33.59100 34.47700
H  50.11000 40.63400 28.43900
H  48.81700 40.11900 29.60500
H  48.46900 41.15900 28.17100
H  51.37500 41.29000 25.06800
H  51.29400 40.78600 26.69300
H  49.94000 41.80800 25.99600
H  48.90900 35.01800 22.64200
H  46.71700 33.14300 22.77400
H  47.59700 36.73800 22.02800
H  46.18300 36.33700 22.91600
H  46.65000 35.38900 21.44100
H  48.96200 32.03200 23.96800
H  49.48600 33.02800 22.55400
H  47.22900 31.20900 21.95800
H  48.76100 30.39200 22.32100
H  48.79400 31.62400 21.07800
H  45.46300 29.61300 25.72200
H  44.04300 29.42200 26.81500
H  45.64700 28.96800 27.33000
H  43.80100 32.89200 30.87000
H  43.75300 32.22700 35.00600
H  45.20600 31.27300 34.85700
H  43.63000 30.47500 34.75200
Mg 30.28100 59.97000 39.30100
C  27.23900 58.35400 38.04900
C  32.01900 57.25400 38.21400
C  33.14600 61.66000 39.75000
C  28.25700 62.79200 39.76600
N  29.67500 58.10300 37.98800
C  28.42400 57.61900 37.78600
C  28.58600 56.31800 37.02100
C  29.94500 55.82000 37.51700
C  30.60700 57.12200 37.95400
C  30.02300 54.70600 38.64600
C  28.29200 56.53400 35.47900
C  27.14200 55.74900 34.78400
H  26.25400 56.41700 33.81600
N  32.33600 59.50600 39.04200
C  32.80300 58.32700 38.65200
C  34.19600 58.37400 38.65800
C  34.62000 59.61000 39.15900
C  33.38300 60.33800 39.38000
C  35.09000 57.30800 38.02700
C  36.03800 60.05500 39.39900
O  36.94100 59.33900 39.06000
C  36.32200 61.27000 40.13500
N  30.63400 61.93000 39.62000
C  31.86800 62.37700 39.83400
C  31.80100 63.94600 39.82100
C  30.29600 64.21200 40.19600
C  29.66000 62.88500 39.88000
C  32.81500 64.68200 40.79900
C  29.68600 65.42800 39.47000
C  28.83600 66.39900 40.43200
N  28.13000 60.52100 39.05300
C  27.51600 61.70100 39.33800
C  26.05300 61.56400 39.16000
C  25.88100 60.18700 38.67600
C  27.18100 59.64400 38.64800
C  24.90300 62.60000 39.22000
C  24.89800 59.24900 38.21000
O  23.66700 59.33300 38.11200
C  25.80600 57.94600 37.84000
C  25.26700 56.83500 38.58200
O  25.72300 56.43600 39.67300
O  24.18600 56.32200 37.93400
C  23.49400 55.22500 38.61000
H  32.55600 56.37900 37.84100
H  33.98900 62.35400 39.73300
H  27.68000 63.70900 39.89700
H  27.94000 55.51600 37.38000
H  30.53700 55.44700 36.68100
H  30.79800 55.03100 39.34000
H  30.39300 53.76300 38.24300
H  29.12500 54.66900 39.26400
H  29.17500 56.26400 34.89800
H  28.02800 57.59000 35.43100
H  26.44400 55.26500 35.46800
H  27.59400 54.86500 34.33400
H  34.57400 56.68600 37.29500
H  35.59900 56.79500 38.84300
H  35.92500 57.72200 37.46100
H  37.25900 61.24300 40.69100
H  35.57000 61.27700 40.92400
H  36.27600 62.19700 39.56300
H  32.05600 64.38100 38.85400
H  30.22000 64.30300 41.28000
H  33.50800 64.01900 41.31700
H  32.24000 65.17300 41.58300
H  33.32800 65.44700 40.21600
H  29.04100 65.11200 38.65100
H  30.55800 66.03400 39.22500
H  28.74700 66.01600 41.44900
H  27.83900 66.59900 40.03800
H  29.45400 67.24400 40.73400
H  24.02700 62.11700 38.78800
H  25.27600 63.51400 38.75700
H  24.75000 62.78000 40.28400
H  25.66100 57.69300 36.78900
H  23.99800 54.32300 38.26500
H  22.44500 55.19000 38.31500
H  23.62000 55.30400 39.69000

