158

Mg -1.27100 17.32800 25.94800
C  -1.65300 15.19600 28.60400
C  -2.34900 19.95100 27.95300
C  -1.18300 19.45300 23.22700
C  -0.81400 14.43700 23.78800
N  -1.85600 17.59500 28.13100
C  -1.89300 16.52200 29.01000
C  -2.52800 17.03300 30.33400
C  -3.20000 18.35000 29.81600
C  -2.37000 18.72300 28.62000
C  -4.76900 18.34500 29.48000
C  -1.51000 17.27400 31.48000
C  -2.14100 17.14700 32.86400
H  -1.25300 16.41400 33.92000
N  -1.63000 19.32900 25.62800
C  -2.00300 20.24600 26.59500
C  -1.93800 21.58400 26.11100
C  -1.49000 21.47100 24.78900
C  -1.44500 20.03600 24.45300
C  -2.14000 22.82500 26.89900
C  -1.16200 22.56100 23.81000
O  -0.89500 22.41600 22.62800
C  -1.04900 23.99100 24.25300
N  -1.07600 16.97000 23.75500
C  -1.04600 18.04700 22.90400
C  -0.78500 17.48700 21.45800
C  -0.41400 15.96800 21.73300
C  -0.87400 15.71000 23.16100
C  -2.03500 17.71200 20.56800
C  1.04200 15.51600 21.48100
C  2.20400 16.53900 21.78800
N  -1.37300 15.23300 26.09000
C  -1.04700 14.22900 25.17800
C  -1.13100 12.95000 25.95100
C  -1.40300 13.26700 27.25500
C  -1.42500 14.69200 27.30000
C  -1.09800 11.58200 25.40800
C  -1.60800 12.69900 28.52400
O  -1.47700 11.58500 28.85000
C  -1.90500 13.92700 29.44600
C  -1.18600 13.77300 30.76700
O  0.00400 13.89300 30.91400
O  -2.08400 13.42800 31.82000
C  -1.48300 13.01700 33.10600
H  -2.76900 20.74800 28.57100
H  -0.98800 20.02200 22.31600
H  -0.60900 13.50800 23.25100
H  -3.29300 16.31400 30.62700
H  -2.90700 19.18600 30.45100
H  -5.11000 17.41700 29.93800
H  -5.13100 18.53000 28.46800
H  -5.25300 19.22900 29.89600
H  -0.94300 18.19600 31.35300
H  -0.72400 16.53200 31.33800
H  -3.04500 16.55100 32.74100
H  -2.48000 18.10000 33.27100
H  -2.68000 22.50300 27.79000
H  -2.77500 23.57600 26.42900
H  -1.29900 23.49600 27.07700
H  -0.45400 24.09400 25.15900
H  -2.09800 24.23500 24.41900
H  -0.58900 24.64900 23.51600
H  0.00000 18.08400 20.99500
H  -1.07200 15.48700 21.00900
H  -1.78100 17.37800 19.56200
H  -2.33900 18.75900 20.58400
H  -2.82300 17.08500 20.98500
H  1.11300 15.27200 20.42100
H  1.19700 14.52900 21.91700
H  2.71900 16.77100 20.85600
H  2.96300 16.11600 22.44600
H  1.73900 17.46400 22.12900
H  -0.71800 11.04900 26.27900
H  -0.43800 11.54100 24.54100
H  -2.08200 11.23800 25.08800
H  -2.95700 13.95600 29.73000
H  -1.80300 13.60100 33.96900
H  -0.40000 12.89600 33.13000
H  -1.78100 11.97600 33.22800
Mg 16.75300 -1.87600 27.54300
C  15.87300 0.53400 30.21000
C  18.42300 -3.63700 29.92300
C  18.10300 -3.57600 25.09900
C  15.69300 0.59700 25.26100
N  17.24100 -1.49100 29.87500
C  16.72800 -0.51200 30.69200
C  17.13400 -0.81200 32.13100
C  18.13900 -1.98300 31.94800
C  17.88300 -2.44800 30.51100
C  19.61300 -1.73400 32.13000
C  15.92700 -1.14700 33.06700
C  16.01700 -0.47500 34.43400
H  17.27500 -0.03800 35.08200
N  18.00400 -3.53000 27.49800
C  18.55300 -4.16700 28.60800
C  19.26200 -5.32500 28.10200
C  19.04200 -5.42800 26.68700
C  18.30300 -4.18400 26.33300
C  19.94600 -6.27100 29.08800
C  19.50400 -6.56000 25.64800
O  19.34800 -6.55100 24.44700
C  20.16000 -7.81200 26.16700
N  16.86700 -1.54500 25.46000
C  17.60000 -2.37200 24.70700
C  17.51600 -1.92200 23.24100
C  16.79000 -0.52400 23.29700
C  16.41500 -0.44700 24.76400
C  18.85400 -1.92500 22.54300
C  15.55900 -0.47700 22.34900
C  15.51700 0.59000 21.28300
N  15.78400 -0.00700 27.65700
C  15.35300 0.86400 26.63900
C  14.85400 2.16600 27.08000
C  15.00000 2.00000 28.47300
C  15.58800 0.71900 28.77500
C  14.26100 3.33100 26.25500
C  14.74300 2.69100 29.75000
O  14.28100 3.80800 29.96700
C  15.23700 1.71500 30.85400
C  16.19700 2.50600 31.69200
O  17.37000 2.61600 31.44700
O  15.55300 2.88100 32.86200
C  16.35600 3.54000 33.82700
H  18.99000 -4.26400 30.61400
H  18.46700 -4.20600 24.28500
H  15.51600 1.32700 24.46800
H  17.76400 -0.02600 32.54900
H  17.73800 -2.79500 32.55400
H  19.85200 -2.48500 32.88200
H  19.79100 -0.70800 32.45300
H  20.27500 -1.96900 31.29700
H  15.88900 -2.20300 33.33400
H  15.06000 -0.96900 32.43100
H  15.54800 -1.12300 35.17500
H  15.39800 0.42000 34.37000
H  19.43500 -6.06500 30.02800
H  21.01900 -6.09200 29.16200
H  19.60200 -7.30100 28.99200
H  21.16300 -7.65200 26.56200
H  20.28500 -8.58100 25.40500
H  19.50900 -8.13100 26.98100
H  16.84600 -2.62600 22.74800
H  17.63200 0.14700 23.12500
H  18.98400 -0.95400 22.06500
H  18.99800 -2.79600 21.90400
H  19.61800 -1.94200 23.32000
H  14.72800 -0.28400 23.02700
H  15.34400 -1.40900 21.82600
H  14.76100 1.29900 21.62300
H  15.06600 0.19500 20.37300
H  16.38400 1.20100 21.03400
H  13.17900 3.25100 26.35700
H  14.51200 3.13600 25.21200
H  14.51600 4.33500 26.59400
H  14.44400 1.48700 31.56700
H  15.98400 3.15900 34.77800
H  16.23500 4.62000 33.74800
H  17.41600 3.28900 33.78300

