158

Mg 48.17300 34.55600 28.02400
C  46.08800 33.26200 30.61600
C  48.39700 37.43400 29.95100
C  49.35100 36.25900 25.42000
C  47.07900 32.07000 25.89600
N  47.36500 35.22300 30.03500
C  46.72800 34.43900 30.99700
C  46.89100 34.99200 32.39500
C  47.33000 36.46100 32.11800
C  47.66200 36.45300 30.58900
C  46.24600 37.50300 32.31400
C  48.03500 34.29100 33.22000
C  47.87200 34.29700 34.73900
H  47.18900 35.60300 35.29300
N  48.89800 36.53900 27.74000
C  48.90100 37.58000 28.67100
C  49.61500 38.72100 28.09000
C  49.88000 38.41200 26.68900
C  49.35400 37.02500 26.56400
C  50.04900 39.87300 28.94000
C  50.59100 39.24300 25.60600
O  50.99500 38.75900 24.55100
C  50.84800 40.68300 25.98000
N  48.24500 34.16800 25.96900
C  48.87400 34.94400 25.13500
C  48.98800 34.28400 23.73100
C  48.62500 32.78600 24.05300
C  47.88800 32.98500 25.31800
C  48.03100 34.95700 22.75200
C  49.79900 31.76800 24.14800
C  51.26300 32.18400 23.76200
N  46.98600 32.90500 28.20300
C  46.68400 31.90500 27.25800
C  45.81800 30.92600 27.86500
C  45.48100 31.49500 29.15400
C  46.28800 32.65200 29.34600
C  45.17200 29.64700 27.29500
C  44.68400 31.30500 30.26700
O  43.97100 30.34900 30.61300
C  44.95900 32.52000 31.28100
C  45.18900 31.94700 32.60200
O  46.12200 31.25800 32.94600
O  44.13800 32.36400 33.33000
C  44.08300 31.92500 34.77000
H  48.57600 38.34400 30.52800
H  49.78400 36.87500 24.63000
H  46.71800 31.21000 25.32700
H  45.99100 34.92100 33.00700
H  48.27300 36.76800 32.57000
H  46.44300 38.27600 33.05700
H  45.42400 36.87300 32.65300
H  45.85000 37.94100 31.39800
H  48.96800 34.71200 32.84600
H  48.00300 33.24000 32.93500
H  48.77400 34.05200 35.30000
H  47.13000 33.50900 34.86500
H  51.10100 40.14900 28.86600
H  49.84600 39.83200 30.01000
H  49.51900 40.74000 28.54700
H  51.61000 40.70900 26.75900
H  49.95200 41.21900 26.29500
H  51.19100 41.30600 25.15400
H  50.04100 34.46100 23.51500
H  47.83800 32.41100 23.39800
H  48.50500 35.00900 21.77300
H  47.66900 35.94000 23.05700
H  47.20400 34.26900 22.57600
H  49.66600 31.08500 23.30900
H  49.85000 31.27700 25.12000
H  51.91600 31.34900 24.01600
H  51.49800 33.11500 24.27700
H  51.38000 32.26300 22.68100
H  45.72300 29.31300 26.41600
H  44.12000 29.84100 27.08900
H  45.32300 28.85700 28.03000
H  44.11900 33.21200 31.33300
H  44.28300 32.83700 35.33200
H  44.72200 31.05800 34.94000
H  43.02300 31.76400 34.97000
Mg 26.34900 50.70500 26.94500
C  24.04200 51.92300 29.32100
C  28.32300 49.72400 29.61400
C  28.65500 49.88200 24.76400
C  24.29500 52.01200 24.43600
N  26.20000 50.83100 29.17100
C  25.12500 51.22200 29.90500
C  25.18100 50.71100 31.35100
C  26.72200 50.28500 31.46100
C  27.10200 50.20200 29.99500
C  27.64800 51.13100 32.35000
C  24.20800 49.61800 31.76000
C  23.98300 49.21100 33.22300
H  24.39700 50.20800 34.40400
N  28.19800 49.92900 27.17500
C  28.87000 49.58000 28.32900
C  30.19000 49.06000 27.90000
C  30.29200 49.06600 26.47200
C  29.00600 49.68900 26.06900
C  31.20800 48.75200 28.95500
C  31.49100 48.68100 25.61000
O  31.58400 48.95600 24.43000
C  32.56200 48.01500 26.26300
N  26.49000 50.97700 24.90200
C  27.51700 50.45400 24.17600
C  27.19000 50.34400 22.67600
C  25.82100 50.98800 22.58700
C  25.51300 51.42000 24.02800
C  28.27300 50.89500 21.73200
C  24.69900 50.06300 21.95600
C  23.66100 50.67700 20.98400
N  24.60900 51.91500 26.80000
C  23.91500 52.42600 25.71400
C  22.81000 53.16400 26.18800
C  22.76900 52.97500 27.57300
C  23.87600 52.20900 27.89600
C  21.86400 53.84300 25.34800
C  22.05100 53.27900 28.83000
O  21.05500 53.94200 28.98100
C  22.84500 52.54700 30.02100
C  23.30700 53.61600 30.94200
O  24.34800 54.26300 30.84500
O  22.43100 53.76400 32.10900
C  22.87000 54.77500 33.06300
H  28.86100 49.46100 30.52800
H  29.34600 49.47600 24.02200
H  23.59200 52.31500 23.65700
H  24.90700 51.54100 32.00100
H  26.85300 49.27700 31.85600
H  27.02600 51.41800 33.19800
H  28.14500 51.97100 31.86400
H  28.45900 50.49100 32.69600
H  24.29600 48.66400 31.24100
H  23.22900 50.04300 31.53700
H  24.61200 48.32400 33.29900
H  22.91300 49.15500 33.42600
H  31.00100 49.46600 29.75200
H  32.22700 49.00200 28.66000
H  31.15800 47.74500 29.37100
H  32.18100 47.20700 26.88700
H  33.22400 48.69700 26.79700
H  33.28600 47.59600 25.56400
H  27.12100 49.27200 22.49100
H  25.87400 51.92500 22.03200
H  28.91700 51.58300 22.28000
H  27.76300 51.38400 20.90200
H  28.85200 50.02900 21.41100
H  24.18900 49.40200 22.65700
H  25.23800 49.37300 21.30700
H  23.55700 49.85300 20.27800
H  24.22400 51.47800 20.50500
H  22.71300 50.98500 21.42500
H  21.98400 54.83600 25.78000
H  20.82500 53.53900 25.47300
H  22.14900 53.84600 24.29600
H  22.22400 51.82000 30.54400
H  23.63200 55.46900 32.70700
H  23.20400 54.19700 33.92500
H  21.99500 55.32000 33.41800

