158

Mg 24.20400 -4.43900 45.27800
C  26.57900 -2.04300 44.02200
C  21.93100 -3.09400 43.26400
C  22.52200 -7.29000 45.57400
C  27.13900 -6.03100 46.73300
N  24.23000 -2.73100 43.80000
C  25.27600 -1.86100 43.54900
C  24.85600 -0.80800 42.39700
C  23.25900 -0.95200 42.45100
C  23.07200 -2.30900 43.18500
C  22.55300 0.16800 43.20500
C  25.38100 -1.25800 40.98300
C  25.91500 -0.09000 39.92600
H  25.52400 -0.25900 38.37800
N  22.37400 -5.04800 44.69500
C  21.58300 -4.33300 43.84900
C  20.27700 -4.94100 43.88300
C  20.45000 -6.20400 44.51900
C  21.83500 -6.28500 44.94600
C  19.01600 -4.46700 43.09700
C  19.35800 -7.28800 44.66600
O  18.23400 -7.13600 44.16600
C  19.56800 -8.62600 45.41800
N  24.77200 -6.37500 46.00000
C  23.86200 -7.38100 46.04900
C  24.32800 -8.61300 46.82100
C  25.83800 -8.28000 47.06600
C  25.96600 -6.79400 46.58000
C  23.42300 -8.94200 48.05200
C  26.83300 -9.18400 46.32000
C  28.25100 -9.34600 46.87400
N  26.39100 -4.12600 45.48100
C  27.41000 -4.78600 46.18700
C  28.67300 -4.16500 46.06100
C  28.38900 -3.07100 45.23500
C  27.01100 -3.10100 44.85000
C  29.95600 -4.61200 46.68500
C  28.88100 -1.83200 44.62100
O  29.93800 -1.26200 44.70700
C  27.81700 -1.29900 43.65500
C  27.68800 0.21600 43.66900
O  27.14800 0.89400 44.58500
O  28.35100 0.74000 42.56100
C  28.18400 2.16800 42.28600
H  21.15600 -2.80500 42.55000
H  22.03200 -8.26100 45.66600
H  27.95100 -6.55800 47.23800
H  25.21700 0.20300 42.58400
H  22.85100 -1.04200 41.44500
H  22.58800 1.03100 42.53900
H  22.98700 0.24300 44.20200
H  21.49500 -0.07700 43.29400
H  24.54100 -1.73200 40.47500
H  26.16900 -2.01000 41.02800
H  27.00000 -0.12500 40.02500
H  25.48000 0.85000 40.26700
H  18.75000 -5.12500 42.26900
H  19.32900 -3.57000 42.56200
H  18.19200 -4.35000 43.80100
H  19.85700 -8.30800 46.42000
H  20.29600 -9.22800 44.87400
H  18.66800 -9.23300 45.51400
H  24.26100 -9.47300 46.15400
H  26.11500 -8.05800 48.09700
H  23.98800 -9.15500 48.96000
H  22.70600 -9.72600 47.80800
H  22.69700 -8.21400 48.41300
H  27.02700 -8.77300 45.32900
H  26.45100 -10.19200 46.15700
H  29.03900 -9.05600 46.17900
H  28.40200 -10.36200 47.23800
H  28.48500 -8.73000 47.74200
H  30.71700 -3.83200 46.69700
H  30.39500 -5.53400 46.30600
H  29.84100 -4.71900 47.76400
H  28.19000 -1.66100 42.69700
H  27.74800 2.80300 43.05600
H  27.54100 2.25200 41.40900
H  29.12600 2.69200 42.12600
Mg 56.22200 22.32400 43.48100
C  53.98400 24.47200 42.15600
C  53.85500 19.74100 43.26300
C  58.50600 20.06800 44.32300
C  58.63100 24.83900 43.33800
N  54.14600 22.13900 42.71100
C  53.44600 23.18600 42.27400
C  52.01100 22.73800 42.02300
C  51.86200 21.50500 42.93100
C  53.34800 21.03700 43.01100
C  51.13700 21.68800 44.28900
C  51.72200 22.52900 40.51200
C  50.57600 23.28900 39.93700
H  49.95400 23.02800 38.58100
N  56.19000 20.21700 43.72600
C  55.17100 19.34800 43.53600
C  55.64400 18.01400 43.68200
C  56.95800 18.00500 44.17100
C  57.27400 19.47800 44.10400
C  54.64600 16.87600 43.52300
C  57.85900 16.80500 44.41200
O  57.52800 15.66500 44.06000
C  59.09000 16.93500 45.20500
N  58.32200 22.39300 43.53700
C  59.00800 21.29000 44.00900
C  60.47300 21.66300 44.39600
C  60.54200 23.20400 44.03600
C  59.07300 23.55100 43.55500
C  61.01900 21.39000 45.87500
C  61.72100 23.65100 43.04600
C  63.17900 23.73500 43.63000
N  56.33700 24.37700 42.92300
C  57.37500 25.27300 42.99300
C  56.87800 26.57800 42.67200
C  55.58300 26.34000 42.32000
C  55.28900 24.96200 42.48100
C  57.66300 27.87000 42.77000
C  54.31000 26.98600 41.98100
O  54.05400 28.15300 41.80500
C  53.31600 25.73100 41.63200
C  53.27400 25.69600 40.18300
O  53.90800 25.02100 39.38600
O  52.26600 26.54800 39.70600
C  51.96200 26.49700 38.28800
H  53.10900 18.95500 43.12800
H  59.13900 19.34900 44.84700
H  59.46100 25.54800 43.39000
H  51.23400 23.44800 42.30500
H  51.20500 20.77900 42.45200
H  50.65000 22.65800 44.39200
H  51.83100 21.74200 45.12800
H  50.61200 20.80000 44.64000
H  51.55200 21.52000 40.13500
H  52.64800 22.73500 39.97700
H  50.83700 24.33800 40.07700
H  49.63600 23.05900 40.44000
H  54.94600 15.97500 44.05900
H  54.66600 16.56000 42.48000
H  53.59000 17.04500 43.73100
H  59.90500 17.30300 44.58000
H  59.38100 15.91100 45.43900
H  58.90100 17.60900 46.04100
H  61.14700 21.12100 43.73300
H  60.72100 23.71500 44.98100
H  60.24600 20.91600 46.48000
H  61.32400 22.29500 46.39900
H  61.90500 20.76200 45.78300
H  61.45800 24.62500 42.63400
H  61.84400 22.99500 42.18500
H  63.63600 24.62300 43.19400
H  63.87200 22.98100 43.25300
H  63.14800 23.71600 44.71900
H  56.94000 28.68100 42.86000
H  58.46300 27.94300 42.03300
H  58.12200 27.81500 43.75700
H  52.26800 25.88900 41.88800
H  52.54900 27.26700 37.78800
H  50.89600 26.63500 38.10600
H  52.24700 25.54700 37.83700

