158

Mg 44.89100 5.25800 48.43000
C  42.35400 7.63300 47.84600
C  42.49900 2.81300 48.15100
C  47.31400 2.90600 48.48500
C  47.24100 7.69300 48.00400
N  42.61000 5.23500 48.18800
C  41.85700 6.31400 47.81800
C  40.43100 5.95500 47.37200
C  40.41300 4.43800 47.78500
C  41.88300 4.11600 48.08500
C  39.50100 4.14700 49.08600
C  40.23100 6.31100 45.87700
C  39.02800 7.24800 45.50400
H  38.30700 6.99600 44.17400
N  44.89400 3.14600 48.51400
C  43.78800 2.36200 48.39300
C  44.24500 1.00200 48.35800
C  45.63500 0.99800 48.47500
C  46.04000 2.37600 48.46200
C  43.32800 -0.16700 48.35400
C  46.52900 -0.24900 48.74600
O  45.98900 -1.37600 48.83500
C  48.02000 -0.19800 48.85700
N  46.96100 5.26700 48.09100
C  47.78800 4.20700 48.44700
C  49.27800 4.61000 48.66100
C  49.26600 6.14600 48.58600
C  47.76400 6.39600 48.09800
C  50.03900 3.94100 49.90300
C  50.42300 6.79800 47.63200
C  51.31800 7.84000 48.30500
N  44.84900 7.29500 48.03900
C  45.88400 8.16700 47.83600
C  45.31700 9.52000 47.74000
C  43.97200 9.36500 47.79300
C  43.71400 8.00900 47.99700
C  46.14200 10.84400 47.55300
C  42.74100 10.12300 47.71300
O  42.55800 11.36400 47.66800
C  41.62700 8.97700 47.73400
C  40.67800 9.23400 48.80600
O  40.77400 8.89200 50.00500
O  39.67600 10.03400 48.34400
C  38.70600 10.49100 49.32800
H  41.74900 2.02100 48.10000
H  48.08100 2.13100 48.42700
H  47.91400 8.55100 48.05800
H  39.67500 6.48000 47.95500
H  40.20000 3.79700 46.93000
H  40.15200 3.88100 49.91900
H  38.95400 3.23600 48.84400
H  38.89100 4.99700 49.39100
H  40.26700 5.43800 45.22400
H  41.08500 6.92300 45.59000
H  39.36300 8.28400 45.51200
H  38.30600 7.14500 46.31400
H  43.51800 -0.96300 49.07400
H  43.50000 -0.72300 47.43300
H  42.28000 0.12600 48.41400
H  48.40600 -1.20800 48.99600
H  48.10600 0.37200 49.78200
H  48.55000 0.07400 47.94400
H  49.68400 4.14300 47.76300
H  49.38300 6.55500 49.58900
H  49.26700 3.91200 50.67100
H  50.85000 4.60900 50.19300
H  50.39300 2.91300 49.84000
H  49.77400 7.27400 46.89700
H  50.93800 5.98400 47.12300
H  51.30400 8.71000 47.64800
H  52.29500 7.36200 48.36800
H  51.00400 8.08500 49.32000
H  45.44700 11.61900 47.23100
H  46.99600 10.69100 46.89200
H  46.46800 11.06400 48.57000
H  41.12400 9.09200 46.77400
H  39.10600 10.96400 50.22500
H  38.26500 9.62000 49.81300
H  37.97100 11.09700 48.79900
Mg 48.69600 15.32400 28.68800
C  46.48400 15.67300 31.38200
C  51.06900 17.13700 30.48000
C  50.51400 15.63400 25.93200
C  46.00400 14.08500 26.60900
N  48.70300 16.27400 30.66300
C  47.73100 16.17300 31.60700
C  48.32000 16.70400 33.00800
C  49.81000 17.23500 32.66100
C  49.88800 16.90200 31.19400
C  50.00000 18.64000 33.14300
C  48.24000 15.49700 34.04100
C  47.72600 15.81400 35.48100
H  47.67300 17.24600 35.96300
N  50.51400 16.25200 28.26000
C  51.34800 16.90600 29.10400
C  52.56800 17.33100 28.40300
C  52.47400 16.74700 27.05500
C  51.16600 16.12000 27.05900
C  53.57500 18.28000 28.99300
C  53.49400 16.85200 25.87800
O  53.19300 16.47800 24.73200
C  54.85600 17.37900 26.13600
N  48.24900 14.87700 26.55300
C  49.25200 15.08200 25.65400
C  48.89600 14.56900 24.29800
C  47.50400 13.88400 24.50100
C  47.22800 14.27700 25.95300
C  48.95900 15.70900 23.15000
C  47.37600 12.33200 24.09500
C  46.19400 12.07700 23.05400
N  46.70400 14.87300 28.90000
C  45.77200 14.37900 27.98400
C  44.48600 14.17300 28.67700
C  44.72300 14.64900 30.02800
C  46.10000 15.06700 30.09500
C  43.23500 13.56500 28.01800
C  44.14900 14.86100 31.30500
O  42.98500 14.60600 31.64400
C  45.28500 15.42400 32.26000
C  44.72600 16.58900 32.94600
O  44.65700 17.74100 32.46800
O  44.24400 16.21600 34.17300
C  43.66700 17.29500 34.89300
H  51.89600 17.60600 31.01700
H  51.26700 15.76100 25.15100
H  45.24400 13.55100 26.03400
H  47.69400 17.53900 33.32400
H  50.59700 16.62400 33.10300
H  51.00300 18.76400 33.55000
H  49.29600 19.05300 33.86600
H  50.05700 19.32600 32.29800
H  49.20000 15.00500 34.19700
H  47.54600 14.71400 33.73500
H  48.24000 15.21500 36.23300
H  46.68600 15.49700 35.56900
H  53.90500 19.10900 28.36700
H  54.41700 17.62900 29.22900
H  53.28800 18.67700 29.96600
H  54.91800 18.46700 26.12400
H  55.50500 16.94500 25.37600
H  55.24000 17.10400 27.11800
H  49.57100 13.75200 24.04300
H  46.84500 14.51800 23.90800
H  48.16500 15.52500 22.42700
H  49.90900 15.61900 22.62300
H  48.85400 16.67600 23.64300
H  47.11000 11.78800 25.00200
H  48.33900 11.96400 23.74200
H  46.61200 11.51700 22.21700
H  45.85700 13.01800 22.62100
H  45.35000 11.53800 23.48500
H  43.14200 14.24200 27.16900
H  42.29400 13.47100 28.56100
H  43.60600 12.58800 27.70800
H  45.45300 14.63900 32.99700
H  44.27800 17.74000 35.67900
H  42.83500 16.89500 35.47300
H  43.23300 18.10000 34.29900

