158

Mg 36.17400 48.91200 26.61800
C  36.56300 46.76700 29.44500
C  35.09100 51.31700 28.72000
C  35.31500 50.55400 23.97300
C  37.12300 46.11000 24.63400
N  35.75700 49.02100 28.80600
C  36.07200 48.06200 29.78100
C  35.92000 48.67900 31.20100
C  34.99700 49.93300 30.90600
C  35.27600 50.14800 29.38200
C  33.46500 49.78200 31.13200
C  37.27200 49.10500 31.83300
C  37.55300 48.61300 33.30500
H  36.43600 48.61900 34.28700
N  35.46000 50.75300 26.38700
C  35.08500 51.60800 27.36500
C  34.81500 52.89500 26.66000
C  34.90300 52.73700 25.29500
C  35.20700 51.30700 25.16600
C  34.57800 54.19000 27.44500
C  34.77900 53.79600 24.20000
O  35.06900 53.56600 23.02200
C  34.06300 55.13400 24.54600
N  36.39000 48.39000 24.62300
C  35.78500 49.26300 23.65300
C  35.94100 48.63900 22.24000
C  36.66300 47.29700 22.41100
C  36.74700 47.26900 23.97800
C  34.63600 48.54000 21.42700
C  38.03000 47.06800 21.68200
C  39.26000 47.72200 22.26900
N  36.83600 46.86100 26.94500
C  37.23400 45.91900 26.06300
C  37.56100 44.67900 26.68700
C  37.38900 44.99500 28.06200
C  36.82500 46.29300 28.11400
C  38.00100 43.43000 25.96500
C  37.40700 44.50600 29.40100
O  37.63000 43.36800 29.75500
C  36.90300 45.57600 30.41400
C  35.70000 45.10500 31.12600
O  34.88200 44.38200 30.65400
O  35.77200 45.35200 32.48900
C  34.63600 44.80000 33.28500
H  34.78500 52.22100 29.25100
H  35.12400 51.04700 23.01800
H  37.25100 45.27000 23.94900
H  35.38600 47.96700 31.83100
H  35.34900 50.85600 31.36700
H  32.87300 50.37300 30.43400
H  33.20900 50.34300 32.03100
H  33.15600 48.73900 31.20700
H  37.38600 50.17200 32.02300
H  37.96300 48.62700 31.13800
H  38.34700 49.24800 33.70000
H  37.97300 47.61300 33.19900
H  35.22700 54.98500 27.07800
H  34.90700 53.97300 28.46200
H  33.50800 54.38700 27.50100
H  33.49700 55.56200 23.71900
H  34.62900 55.88600 25.09600
H  33.33900 54.85600 25.31300
H  36.47100 49.36900 21.62800
H  36.09600 46.39900 22.16300
H  34.20800 47.54500 21.31000
H  34.74300 49.08000 20.48600
H  33.85000 49.06600 21.96900
H  37.99100 47.13400 20.59500
H  38.25800 46.01400 21.84400
H  39.69800 48.37200 21.51100
H  39.92400 46.95400 22.66700
H  39.01600 48.42400 23.06600
H  38.36200 43.70500 24.97400
H  37.18000 42.71300 26.00300
H  38.82700 43.01700 26.54400
H  37.65800 45.91700 31.12200
H  34.52600 45.53900 34.07900
H  34.81500 43.82800 33.74500
H  33.71500 44.74900 32.70400
Mg 26.85000 50.39400 26.95400
C  24.79300 51.65600 29.46700
C  29.06100 49.54500 29.58000
C  28.77900 49.24000 24.68900
C  24.47800 51.55500 24.60300
N  26.96200 50.71400 29.31000
C  25.82500 51.04800 30.01800
C  26.05200 50.79600 31.52200
C  27.56300 50.37200 31.58200
C  27.92700 50.20300 30.09500
C  28.51900 51.27100 32.42900
C  25.17200 49.67200 32.19100
C  24.58900 49.92100 33.62100
H  25.46400 50.83000 34.53000
N  28.67500 49.49900 27.11000
C  29.34000 49.15500 28.28500
C  30.50300 48.46500 27.84400
C  30.54500 48.35400 26.45800
C  29.31500 49.06800 26.03500
C  31.61000 47.91100 28.74800
C  31.55100 47.67100 25.46800
O  31.47200 47.80200 24.25200
C  32.59900 46.77900 26.01600
N  26.70500 50.52800 24.88500
C  27.58100 49.81700 24.12600
C  27.18500 49.65800 22.64700
C  25.75400 50.42200 22.68500
C  25.62700 50.87500 24.12400
C  28.06600 50.22400 21.54700
C  24.52900 49.52900 22.23900
C  23.53900 50.13000 21.19800
N  25.10800 51.57700 26.99900
C  24.18700 51.86200 25.97000
C  23.01900 52.45500 26.60400
C  23.33800 52.52900 27.95400
C  24.53400 51.86500 28.19900
C  21.79600 52.82800 25.82000
C  22.82800 52.86000 29.22300
O  21.81000 53.45000 29.48000
C  23.70900 52.27600 30.30100
C  24.26600 53.47400 31.04700
O  24.91500 54.38200 30.59300
O  23.73400 53.40300 32.32900
C  24.09600 54.51500 33.16500
H  29.64300 49.09800 30.38900
H  29.41900 48.98200 23.84300
H  23.75700 51.86800 23.84500
H  25.83100 51.73300 32.03300
H  27.76100 49.35000 31.90400
H  29.07400 50.70100 33.17400
H  27.97900 52.08300 32.91500
H  29.30700 51.71200 31.81800
H  25.63800 48.68700 32.20300
H  24.31800 49.64900 31.51300
H  24.17500 48.97700 33.97500
H  23.61800 50.39700 33.48400
H  32.45000 48.57600 28.54900
H  31.83100 46.85900 28.57200
H  31.34100 47.96600 29.80300
H  33.38100 46.55900 25.28900
H  32.19100 45.82400 26.34900
H  33.22400 47.25900 26.76900
H  27.01800 48.63600 22.30500
H  25.66800 51.40100 22.21400
H  29.08500 50.42900 21.87500
H  27.71900 51.13600 21.06200
H  28.13600 49.58200 20.66900
H  24.10500 49.24300 23.20100
H  25.01300 48.67000 21.77500
H  22.56500 50.22400 21.67900
H  23.39700 49.38400 20.41500
H  23.90700 51.06200 20.77000
H  21.81500 53.82300 25.37700
H  20.92500 52.80800 26.47500
H  21.61400 52.02800 25.10200
H  23.19100 51.58700 30.96800
H  25.13600 54.83900 33.14200
H  23.77300 54.30600 34.18500
H  23.55400 55.38800 32.80100

