158

Mg 47.89100 24.93900 29.56000
C  49.08100 27.11400 32.08000
C  46.96400 22.72100 32.16000
C  47.30300 22.59300 27.29000
C  49.37400 26.90500 27.17200
N  47.94700 25.03400 31.71400
C  48.42400 26.05600 32.55900
C  48.19800 25.73400 34.02900
C  47.78600 24.21000 34.08800
C  47.53300 23.96100 32.56700
C  48.72600 23.17100 34.78800
C  47.22200 26.73500 34.80800
C  47.82300 27.27300 36.18700
H  46.82400 27.65500 37.30100
N  46.99600 22.97400 29.68500
C  46.74500 22.23700 30.89800
C  46.08200 20.96000 30.44500
C  46.22900 20.88900 29.03400
C  46.81500 22.19600 28.59700
C  45.57200 19.93800 31.42200
C  45.67200 19.85200 28.02800
O  45.84000 19.91400 26.82200
C  44.87300 18.74600 28.48000
N  48.26500 24.78300 27.48300
C  47.98200 23.68500 26.81700
C  48.58500 23.79800 25.39900
C  49.00100 25.21000 25.35700
C  48.86300 25.65100 26.72400
C  49.80300 22.78100 25.21300
C  48.26900 26.08300 24.37100
C  46.74200 26.13100 24.47600
N  48.87900 26.74900 29.55800
C  49.47900 27.42000 28.46700
C  49.92800 28.74200 29.01200
C  49.82500 28.66600 30.38800
C  49.18800 27.45400 30.71300
C  50.51400 29.92100 28.21900
C  50.20800 29.27600 31.65100
O  50.75300 30.35300 31.87500
C  49.78600 28.25100 32.77200
C  50.97000 27.90000 33.61400
O  51.89700 27.18100 33.33700
O  50.88300 28.62200 34.79200
C  51.91400 28.39600 35.74800
H  46.53600 22.11600 32.96200
H  47.10100 21.88800 26.48000
H  49.83000 27.46200 26.35100
H  49.16700 25.94900 34.47900
H  46.83100 24.16200 34.61100
H  49.38700 23.68800 35.48300
H  49.31700 22.51800 34.14600
H  48.09600 22.58700 35.45900
H  46.27200 26.30600 35.12500
H  47.09500 27.49000 34.03200
H  48.33800 28.13500 35.76400
H  48.56700 26.56300 36.55100
H  45.85800 18.89800 31.26800
H  44.49700 19.96100 31.24600
H  45.81300 20.23100 32.44400
H  45.37700 17.95200 29.03100
H  44.26800 18.25600 27.71700
H  44.08200 19.07300 29.15400
H  47.86400 23.43500 24.66700
H  50.05500 25.25300 25.08300
H  50.77400 23.25300 25.06600
H  49.60500 22.44300 24.19600
H  49.88300 21.94700 25.91000
H  48.51300 25.72800 23.37000
H  48.64600 27.10200 24.45600
H  46.28600 25.77900 23.55000
H  46.55000 27.20400 24.46400
H  46.37000 25.59100 25.34800
H  50.45600 29.61300 27.17600
H  51.55300 30.13800 28.46900
H  49.97500 30.86500 28.30000
H  49.18700 28.83100 33.47400
H  51.44300 27.72200 36.46400
H  52.07200 29.28600 36.35600
H  52.86700 28.03700 35.36100
Mg 49.32000 46.35000 43.19100
C  45.98900 46.53200 42.16200
C  49.34600 43.15200 41.96800
C  52.67300 46.56700 43.17800
C  49.21200 49.95300 43.58200
N  47.75800 45.01900 42.17000
C  46.49700 45.30400 41.76400
C  45.88300 44.14400 41.02000
C  46.90200 42.99300 41.33100
C  48.07600 43.71400 41.92800
C  46.34900 41.87300 42.31100
C  45.64600 44.42000 39.48600
C  44.27100 44.00400 38.89700
H  44.25900 43.42000 37.50300
N  50.84100 44.96800 42.74900
C  50.62600 43.65700 42.39000
C  51.89800 43.10900 42.17100
C  52.97000 44.02800 42.55200
C  52.22100 45.21300 42.82700
C  52.05300 41.64400 41.69400
C  54.45500 43.74800 42.57700
O  54.88800 42.61900 42.41200
C  55.36000 44.85900 42.82300
N  50.70400 47.98400 43.43400
C  52.06500 47.74900 43.50300
C  52.81000 48.93000 44.16500
C  51.67700 49.99200 44.27000
C  50.46600 49.30200 43.70700
C  53.64200 48.87100 45.50100
C  51.85900 51.24800 43.44900
C  51.58600 52.61700 44.03600
N  47.82600 47.90400 43.12600
C  47.97800 49.31900 43.30500
C  46.60300 49.89200 43.15600
C  45.79900 48.76700 42.71200
C  46.63500 47.63000 42.66400
C  46.20800 51.27900 43.31500
C  44.47500 48.40500 42.27300
O  43.57000 49.14200 42.04800
C  44.54500 46.89700 41.90500
C  43.55800 46.14600 42.81400
O  43.74400 45.91300 43.99500
O  42.36700 45.87400 42.14400
C  41.31300 45.17800 42.89500
H  49.24100 42.12400 41.61700
H  53.73700 46.73800 43.35700
H  49.09600 51.02400 43.75500
H  44.94500 43.96900 41.54800
H  47.20300 42.37800 40.48300
H  46.80600 41.83200 43.30000
H  46.58300 40.87200 41.94700
H  45.26800 41.94300 42.43200
H  46.41300 43.88100 38.92900
H  45.74100 45.50400 39.42700
H  43.56700 44.83600 38.90700
H  43.84200 43.27000 39.57900
H  51.06700 41.18900 41.60100
H  52.75000 41.06500 42.29900
H  52.43300 41.65900 40.67200
H  55.08300 45.17700 43.82900
H  55.17000 45.71900 42.18100
H  56.36800 44.44500 42.78100
H  53.44000 49.18600 43.31300
H  51.41900 50.30000 45.28300
H  53.60700 47.86400 45.91700
H  53.32500 49.50200 46.33100
H  54.66800 49.13500 45.24500
H  51.41800 51.11600 42.46100
H  52.93000 51.30400 43.25100
H  51.57100 53.32700 43.21000
H  52.34000 52.87500 44.78000
H  50.60500 52.66600 44.50800
H  46.29700 51.85000 42.39000
H  46.76500 51.84700 44.06000
H  45.21500 51.55400 43.66800
H  44.28400 46.74700 40.85700
H  40.77500 44.38700 42.37200
H  40.68900 46.05100 43.08800
H  41.74200 44.65500 43.75000

