158

Mg 25.97500 0.26000 29.63400
C  27.82800 -0.22200 32.60500
C  23.21800 0.39200 31.70100
C  24.18500 0.29300 26.85900
C  28.87200 -0.41500 27.84100
N  25.60800 0.28300 31.87100
C  26.53900 0.17200 32.91200
C  25.97000 0.23700 34.28600
C  24.47800 -0.01000 33.94100
C  24.40900 0.22000 32.42600
C  23.98200 -1.42000 34.33400
C  26.43700 1.44400 35.05200
C  26.89000 1.13200 36.48600
H  26.85600 2.21800 37.55700
N  24.01400 0.32700 29.32900
C  23.03700 0.44700 30.28800
C  21.72700 0.63500 29.67600
C  21.97200 0.41500 28.31000
C  23.42200 0.36000 28.06100
C  20.44100 0.76100 30.45700
C  20.96100 0.20600 27.14100
O  21.26400 0.10300 25.97100
C  19.50700 0.43100 27.45400
N  26.48100 -0.04000 27.63400
C  25.53800 0.20200 26.63400
C  26.18300 0.11200 25.30700
C  27.74900 -0.09200 25.59200
C  27.75700 -0.08000 27.12200
C  25.59400 -0.94200 24.39300
C  28.70800 0.94100 24.97300
C  29.93800 0.37200 24.21900
N  27.98400 -0.30900 30.06000
C  29.00200 -0.57000 29.24500
C  30.13600 -0.99000 29.99500
C  29.77500 -0.76400 31.32800
C  28.43200 -0.34600 31.34800
C  31.49700 -1.36400 29.42900
C  30.23000 -0.84100 32.64800
O  31.38800 -1.09700 33.06400
C  29.03700 -0.42700 33.59200
C  28.90300 -1.46300 34.63500
O  28.37300 -2.55900 34.51700
O  29.54500 -1.08900 35.79000
C  29.74700 -2.13000 36.82700
H  22.34500 0.49900 32.34800
H  23.71300 0.36900 25.87700
H  29.81100 -0.49000 27.28800
H  26.45700 -0.63600 34.72000
H  23.90600 0.71300 34.52200
H  23.65000 -1.21700 35.35200
H  24.65700 -2.27600 34.35200
H  23.13700 -1.65200 33.68600
H  25.59000 2.11200 35.20800
H  27.29100 1.85000 34.51100
H  27.91500 0.76200 36.48800
H  26.35300 0.28700 36.91800
H  19.98500 1.73700 30.29300
H  20.63600 0.42000 31.47400
H  19.78700 -0.03400 30.09900
H  19.32800 1.38900 27.94100
H  19.14000 -0.34600 28.12500
H  18.98300 0.25200 26.51500
H  25.92100 1.08900 24.90000
H  28.18400 -1.07600 25.41500
H  26.30300 -1.26100 23.62900
H  24.85000 -0.40900 23.80100
H  25.25100 -1.82300 24.93500
H  29.04200 1.55600 25.80900
H  28.11300 1.61000 24.35200
H  30.12300 0.99700 23.34500
H  29.75500 -0.66300 23.93100
H  30.80700 0.43700 24.87400
H  31.56800 -2.23800 28.78200
H  32.19900 -1.52600 30.24700
H  31.92900 -0.51300 28.90300
H  29.33600 0.50400 34.07200
H  30.57200 -2.04900 37.53500
H  29.92000 -3.12100 36.40800
H  28.91500 -2.33600 37.50100
Mg 46.59400 44.93300 43.74500
C  43.33000 43.79600 43.46300
C  47.70000 41.76200 43.13000
C  49.65700 46.14100 43.26600
C  45.31000 48.20200 43.84300
N  45.59000 43.01700 43.27000
C  44.26600 42.78400 43.17200
C  43.96300 41.26000 42.89100
C  45.37500 40.60300 42.89300
C  46.30200 41.85100 43.10200
C  45.56600 39.45600 43.87500
C  43.06100 40.95900 41.62900
C  43.23800 41.93200 40.44200
H  42.70200 41.60000 38.99600
N  48.40700 44.02000 43.57200
C  48.73100 42.72400 43.37600
C  50.19800 42.55000 43.31900
C  50.78800 43.81400 43.35000
C  49.61100 44.73300 43.44300
C  50.89700 41.25500 43.20700
C  52.23200 44.16500 43.39500
O  53.03700 43.27700 43.24600
C  52.82300 45.53100 43.50500
N  47.39700 46.86200 43.61400
C  48.74700 47.15500 43.47100
C  48.98600 48.69400 43.17500
C  47.61200 49.33200 43.51900
C  46.73700 48.08300 43.69800
C  50.20900 49.41900 43.87800
C  47.11700 50.34000 42.49000
C  47.09500 51.76700 43.05400
N  44.72000 45.86700 43.88200
C  44.34500 47.18100 43.94500
C  42.96300 47.27400 44.13300
C  42.48500 45.96900 43.93300
C  43.63800 45.11900 43.71600
C  42.19400 48.54000 44.36600
C  41.31800 45.12500 43.92300
O  40.13900 45.28900 44.22700
C  41.85100 43.67900 43.53400
C  41.33800 42.60600 44.43400
O  40.66600 41.69100 44.04100
O  41.66600 42.85400 45.72900
C  41.27200 41.83700 46.76400
H  48.14600 40.83100 42.77100
H  50.53200 46.67600 42.89300
H  45.08200 49.25600 44.01700
H  43.37500 40.85600 43.71500
H  45.48200 40.22600 41.87600
H  45.88800 38.67600 43.18400
H  44.60900 39.12000 44.27500
H  46.22900 39.70900 44.70200
H  42.01600 40.91100 41.93400
H  43.36500 40.04900 41.11300
H  44.30800 42.01300 40.25400
H  43.08600 42.96400 40.76000
H  50.18700 40.51900 43.58300
H  51.81300 41.12100 43.78200
H  51.14800 41.06700 42.16300
H  52.21000 46.15800 44.15200
H  52.81400 46.12600 42.59200
H  53.80200 45.52900 43.98400
H  49.03000 48.71600 42.08600
H  47.67700 49.81900 44.49200
H  50.82600 48.72400 44.44700
H  49.87200 50.09400 44.66500
H  50.88000 49.84600 43.13300
H  46.22600 49.98900 41.96900
H  47.89500 50.44900 41.73500
H  47.01400 51.73500 44.14100
H  46.20700 52.26300 42.66100
H  47.99900 52.29600 42.75000
H  41.34900 48.22100 44.97700
H  41.86500 49.03000 43.45000
H  42.68800 49.23800 45.04100
H  41.35600 43.44800 42.59100
H  41.56400 40.82100 46.50000
H  40.18300 41.84900 46.78400
H  41.56700 42.18900 47.75300

