158

Mg 26.39500 49.61500 26.74700
C  24.15900 50.77400 29.21100
C  28.77600 48.94500 29.10000
C  28.70100 48.91500 24.15300
C  24.21700 50.65300 24.44100
N  26.44900 49.78400 28.88800
C  25.39900 50.21900 29.69600
C  25.76400 50.16300 31.20200
C  27.27700 49.73400 31.17600
C  27.52300 49.35500 29.64200
C  28.26700 50.83200 31.64400
C  24.92600 49.20200 32.09700
C  24.60600 49.73600 33.52900
H  24.58000 48.73700 34.69300
N  28.40100 48.98200 26.65500
C  29.22300 48.85200 27.74300
C  30.47900 48.47000 27.34900
C  30.58800 48.63900 25.96300
C  29.16500 48.83500 25.53400
C  31.73500 48.24700 28.25700
C  31.79400 48.55000 25.00900
O  31.58100 48.87700 23.81400
C  33.20800 48.39100 25.36000
N  26.50900 49.87000 24.62000
C  27.44300 49.38800 23.77800
C  26.93400 49.34100 22.28000
C  25.47600 49.98300 22.44900
C  25.35800 50.13000 23.92200
C  27.87800 49.87500 21.25200
C  24.39300 49.00600 21.80600
C  23.25800 49.62600 20.92800
N  24.66600 50.67500 26.81300
C  23.79400 50.91000 25.73600
C  22.59900 51.58700 26.15500
C  22.66700 51.57300 27.57600
C  23.90400 50.98400 27.89400
C  21.51000 52.16200 25.21800
C  21.99300 51.91500 28.86800
O  20.98600 52.56500 29.16500
C  22.98600 51.32600 29.98300
C  23.31800 52.50200 30.90200
O  24.17500 53.38200 30.75300
O  22.73400 52.29200 32.07100
C  22.84300 53.35200 33.12800
H  29.58600 48.84400 29.82500
H  29.43800 48.55100 23.43400
H  23.40400 50.80100 23.72700
H  25.62800 51.19600 31.52100
H  27.56500 48.92400 31.84600
H  28.99300 50.38800 32.32600
H  27.87300 51.69000 32.19000
H  28.88300 51.08900 30.78300
H  25.49300 48.27700 32.20300
H  23.96400 49.03000 31.61500
H  23.64600 50.22300 33.35700
H  25.38900 50.46500 33.73300
H  32.06900 47.20900 28.26300
H  31.42500 48.60700 29.23800
H  32.56900 48.86300 27.91800
H  33.38800 47.82600 26.27500
H  33.62300 49.39600 25.43800
H  33.78700 47.82700 24.62900
H  26.75700 48.30400 21.99400
H  25.47200 50.97300 21.99300
H  28.75700 50.44400 21.55600
H  27.27500 50.55500 20.65000
H  28.16600 49.12300 20.51700
H  23.86500 48.48800 22.60700
H  24.87500 48.25200 21.18400
H  23.61700 50.55700 20.49100
H  22.45800 49.92300 21.60600
H  22.81300 48.96300 20.18600
H  21.33600 51.42800 24.43100
H  21.83900 53.06200 24.69800
H  20.60300 52.21900 25.81800
H  22.59800 50.49700 30.57400
H  23.81600 53.31100 33.61700
H  22.05700 53.20800 33.86900
H  22.67200 54.36300 32.75600
Mg 1.34500 41.76800 25.75000
C  3.21400 41.95000 28.76400
C  -1.23100 40.62800 27.76700
C  -0.39300 41.35500 23.03700
C  4.21300 42.72400 23.98900
N  1.06700 41.40600 28.12800
C  1.93000 41.71600 29.09500
C  1.35400 41.67100 30.50300
C  -0.11700 41.15500 30.07000
C  -0.11300 41.02100 28.54900
C  -0.60500 39.84100 30.89400
C  1.46800 43.05700 31.28200
C  2.10900 43.11700 32.64800
H  1.72700 42.05700 33.66700
N  -0.44400 40.90400 25.43300
C  -1.38400 40.58400 26.35700
C  -2.59100 39.99800 25.64900
C  -2.44500 40.37300 24.28500
C  -1.06000 40.91300 24.14600
C  -3.66600 39.29800 26.38700
C  -3.39700 40.28800 23.17900
O  -3.21700 40.68800 22.08600
C  -4.72100 39.85400 23.43900
N  1.85800 41.94000 23.79400
C  0.91600 41.73100 22.82300
C  1.61200 41.81000 21.44000
C  2.95600 42.43800 21.73900
C  3.03100 42.39200 23.26900
C  1.73000 40.47000 20.73400
C  3.08600 43.89700 21.12800
C  4.32400 44.08200 20.38000
N  3.33100 42.22600 26.19200
C  4.34800 42.57300 25.38300
C  5.50300 42.72000 26.16600
C  5.15800 42.44700 27.49400
C  3.73600 42.19100 27.48200
C  6.80900 43.26400 25.77400
C  5.73600 42.22600 28.78200
O  6.85400 42.29600 29.22600
C  4.43200 42.10500 29.69700
C  4.76200 40.91600 30.57900
O  4.52500 39.75100 30.29500
O  5.35300 41.34200 31.73400
C  5.63600 40.38400 32.76300
H  -2.10100 40.38000 28.37800
H  -0.87300 41.25000 22.06200
H  5.14300 43.03600 23.51000
H  1.89700 40.89400 31.04100
H  -0.86000 41.87600 30.41000
H  -1.29900 40.27400 31.61500
H  0.26400 39.51800 31.46700
H  -1.15700 39.10300 30.31100
H  0.42900 43.37700 31.35900
H  1.96200 43.74400 30.59600
H  1.73600 44.04000 33.09300
H  3.19000 43.15000 32.50900
H  -3.36500 38.95900 27.37800
H  -3.98400 38.42000 25.82500
H  -4.54600 39.93300 26.48800
H  -5.15900 40.40900 24.26900
H  -4.74500 38.77000 23.54500
H  -5.29800 40.06300 22.53900
H  0.95100 42.44500 20.85000
H  3.84900 41.86400 21.49300
H  1.45900 39.56600 21.28000
H  2.77900 40.39800 20.44600
H  1.12600 40.52800 19.82900
H  3.03800 44.65700 21.90800
H  2.24500 44.10000 20.46500
H  4.86200 44.86100 20.92100
H  4.05400 44.47100 19.39800
H  4.84700 43.12900 20.30500
H  6.68100 44.08400 25.06700
H  7.24700 42.42200 25.23800
H  7.41600 43.60400 26.61200
H  4.23700 42.94800 30.36000
H  5.50400 40.76100 33.77700
H  6.49200 39.70900 32.73000
H  4.75300 39.75100 32.67300

