158

Mg 40.58100 9.38800 29.20100
C  42.39400 10.73100 31.92900
C  38.42900 7.92200 31.43000
C  39.06300 8.14900 26.57800
C  43.11100 10.51900 27.08000
N  40.58100 9.23400 31.42500
C  41.25500 10.05800 32.33700
C  40.68600 9.92200 33.78200
C  39.50500 8.91200 33.60600
C  39.48100 8.59800 32.05900
C  39.72100 7.62200 34.40100
C  40.41200 11.26200 34.41500
C  39.54200 11.23200 35.68000
H  40.40500 11.31300 36.92400
N  38.93500 8.16200 29.00700
C  38.19100 7.75000 30.04100
C  37.03600 7.03600 29.53100
C  37.10800 7.19500 28.12100
C  38.34800 7.90000 27.79600
C  36.00400 6.25100 30.43000
C  36.14900 6.84000 27.08300
O  36.38100 7.10200 25.89800
C  34.86500 6.24300 27.47700
N  41.09900 9.29500 27.20500
C  40.29500 8.72100 26.26400
C  40.82100 8.86800 24.75600
C  42.04900 9.61400 25.01500
C  42.10500 9.84300 26.52700
C  41.01900 7.51300 24.01400
C  42.03100 10.99600 24.28500
C  41.00400 12.11400 24.55600
N  42.39700 10.45600 29.37400
C  43.23300 10.85300 28.44700
C  44.39300 11.55700 29.06200
C  44.05400 11.63000 30.41600
C  42.81500 10.86700 30.53800
C  45.60400 12.14000 28.41700
C  44.47700 12.08500 31.71000
O  45.44700 12.75500 32.09600
C  43.40100 11.59200 32.71300
C  44.09500 10.94100 33.84000
O  44.31300 9.75300 33.87100
O  44.20100 11.75700 34.95300
C  44.84300 11.19400 36.20600
H  37.59100 7.50400 31.99300
H  38.57800 7.77200 25.67500
H  43.79800 10.90900 26.32600
H  41.44000 9.46700 34.42300
H  38.53600 9.37100 33.80300
H  39.85700 6.74700 33.76600
H  38.82900 7.60600 35.02700
H  40.51100 7.71000 35.14800
H  40.23900 12.02700 33.65800
H  41.42200 11.63300 34.59000
H  38.95900 10.31200 35.67700
H  38.81500 12.04400 35.65800
H  34.99800 6.66400 30.34700
H  36.24900 6.05000 31.47300
H  35.85900 5.31000 29.90000
H  34.01200 6.08500 26.81700
H  34.40500 6.89900 28.21600
H  35.02500 5.30300 28.00500
H  40.02300 9.47600 24.33000
H  42.92800 9.00800 24.79600
H  41.08300 6.63100 24.65100
H  41.88500 7.44800 23.35400
H  40.10900 7.30900 23.45000
H  41.96000 10.79200 23.21700
H  43.02600 11.42700 24.40400
H  40.62900 12.33000 23.55500
H  41.38100 13.03400 25.00300
H  40.21400 11.81600 25.24500
H  45.89000 11.66800 27.47700
H  46.36600 12.29200 29.18100
H  45.38800 13.18600 28.19900
H  42.83000 12.44800 33.07200
H  45.38200 10.27400 35.98200
H  43.97200 11.08500 36.85400
H  45.59100 11.85200 36.64800
Mg 9.94000 47.42300 26.76800
C  7.90100 47.47900 29.62100
C  12.33100 49.08900 28.41500
C  11.66300 47.17400 23.97000
C  6.96800 46.61900 24.86400
N  9.99500 48.27400 28.75200
C  9.21300 48.04700 29.82600
C  9.84600 48.44000 31.20400
C  11.05300 49.30100 30.61800
C  11.18900 48.81200 29.18500
C  10.84800 50.83400 30.80300
C  10.30900 47.17200 31.94800
C  9.86300 47.09100 33.38800
H  9.87300 45.81900 34.15300
N  11.77700 47.96900 26.31600
C  12.70300 48.67600 27.12100
C  13.95900 48.68800 26.45200
C  13.81600 47.94000 25.25000
C  12.34300 47.72600 25.13200
C  15.26700 49.12100 27.09100
C  14.81800 47.51900 24.17300
O  14.54600 47.02900 23.08700
C  16.24100 47.78200 24.45600
N  9.32700 47.17100 24.68700
C  10.29200 46.94100 23.77500
C  9.73100 46.44100 22.48900
C  8.17500 46.34200 22.64900
C  8.09600 46.72900 24.20100
C  10.07300 47.28600 21.20200
C  7.63000 44.98200 22.35200
C  6.11400 44.88800 21.90800
N  7.80900 47.14800 27.08300
C  6.76800 46.76500 26.27200
C  5.55900 46.60300 27.03700
C  6.00900 46.71100 28.42400
C  7.34800 47.17800 28.37500
C  4.21900 46.22200 26.47300
C  5.55100 46.64500 29.77800
O  4.42800 46.39600 30.23100
C  6.83200 47.04000 30.64100
C  7.14100 45.81600 31.48200
O  7.99700 44.99700 31.17100
O  6.36100 45.76000 32.62900
C  6.47800 44.64800 33.49900
H  13.03100 49.72200 28.96400
H  12.23700 47.09100 23.04400
H  6.06600 46.45200 24.27300
H  9.18700 49.02400 31.84600
H  12.00700 49.09500 31.10400
H  10.13700 51.20600 31.54100
H  10.66300 51.29700 29.83300
H  11.81300 51.18000 31.17200
H  11.39900 47.20800 31.92300
H  10.04900 46.27600 31.38500
H  8.80600 47.28500 33.20400
H  10.23200 47.97000 33.91600
H  15.69000 48.18000 27.44200
H  14.95500 49.77700 27.90400
H  16.03500 49.68400 26.56100
H  16.78900 47.66000 23.52200
H  16.56900 47.14900 25.28000
H  16.40300 48.81700 24.75700
H  10.16700 45.44600 22.40500
H  7.70400 47.14200 22.07700
H  10.81000 48.02300 21.52100
H  9.23400 47.82000 20.75400
H  10.59700 46.69700 20.44900
H  7.78800 44.43800 23.28300
H  8.31100 44.51200 21.64300
H  5.59500 44.47800 22.77500
H  5.98800 44.18800 21.08300
H  5.59000 45.80800 21.64700
H  3.63300 47.09400 26.18300
H  3.66500 45.77700 27.30000
H  4.36100 45.59900 25.59000
H  6.60800 47.76900 31.42000
H  7.43700 44.13300 33.43800
H  5.72100 43.87400 33.37500
H  6.45000 45.15400 34.46300

