158

Mg 42.40700 42.04200 27.00300
C  41.57600 44.30100 29.64400
C  43.29300 39.71000 29.40600
C  43.88100 40.19900 24.58100
C  41.95200 44.74000 24.69000
N  42.35100 42.03600 29.29400
C  42.06100 43.07000 30.15300
C  42.21100 42.62800 31.65200
C  42.70800 41.21600 31.46700
C  42.84600 40.97300 29.96800
C  43.96200 40.71700 32.31600
C  40.96900 42.88800 32.59800
C  40.92000 42.06900 33.86700
H  40.92400 42.75800 35.24600
N  43.27900 40.18100 26.99600
C  43.48600 39.38800 28.06800
C  44.15000 38.22900 27.60100
C  44.41400 38.30800 26.21200
C  43.89700 39.61400 25.83200
C  44.49500 37.07500 28.42200
C  45.05200 37.38100 25.17800
O  44.97900 37.50800 23.96700
C  45.98200 36.24100 25.70600
N  42.98200 42.43000 24.98400
C  43.47300 41.44100 24.21100
C  43.65200 41.93600 22.78800
C  42.63900 43.18600 22.74900
C  42.53000 43.51900 24.26200
C  45.08800 42.35500 22.39100
C  41.34700 42.96400 21.94900
C  40.28900 42.04800 22.62900
N  41.78700 44.04000 27.08100
C  41.69300 45.02400 26.05500
C  41.30000 46.28000 26.66000
C  41.20300 46.01400 28.09900
C  41.54100 44.66600 28.23900
C  41.00600 47.55900 25.94900
C  40.94600 46.68400 29.39500
O  40.62600 47.83800 29.61900
C  41.17400 45.53800 30.47200
C  42.02900 46.13100 31.42900
O  43.17000 46.44000 31.15900
O  41.37000 46.52700 32.58800
C  41.95200 47.38200 33.62100
H  43.69700 38.94900 30.07700
H  44.20900 39.63800 23.70300
H  41.84100 45.60500 24.03400
H  42.93400 43.29600 32.12000
H  42.01000 40.51800 31.92900
H  44.10200 41.52500 33.03500
H  44.79500 40.58400 31.62600
H  43.79000 39.79300 32.86800
H  40.03300 42.63200 32.10200
H  41.06900 43.90500 32.97600
H  41.79500 41.42700 33.97300
H  40.03100 41.43900 33.90100
H  44.01400 37.01800 29.39900
H  45.55300 36.91100 28.63100
H  44.00700 36.22000 27.95400
H  46.59700 35.96000 24.85100
H  45.45000 35.31700 25.93200
H  46.70900 36.61200 26.42900
H  43.40400 41.26900 21.96200
H  43.16200 44.06600 22.37600
H  45.48700 41.85600 21.50800
H  45.76900 42.26700 23.23700
H  45.10100 43.38100 22.02300
H  41.57900 42.65400 20.93000
H  40.81800 43.91200 21.85000
H  40.89100 41.55000 23.38900
H  39.70800 41.38200 21.99200
H  39.58700 42.73900 23.09600
H  41.76100 47.89100 25.23500
H  40.86200 48.42500 26.59500
H  40.00500 47.47500 25.52600
H  40.20200 45.34400 30.92600
H  42.45800 46.63800 34.23700
H  41.11500 47.72400 34.23000
H  42.60900 48.01700 33.02600
Mg -5.39400 25.20600 25.96000
C  -3.61200 26.90500 28.37700
C  -6.92300 23.39800 28.54200
C  -7.07500 23.48000 23.73600
C  -3.32800 26.64000 23.60000
N  -5.28900 25.18200 28.18900
C  -4.50100 26.00600 28.95500
C  -4.82600 25.81800 30.50800
C  -5.74800 24.50900 30.53600
C  -5.96800 24.29000 28.97400
C  -5.20600 23.27600 31.26000
C  -5.47300 27.18700 31.13000
C  -5.97000 27.43400 32.59200
H  -5.67900 26.29100 33.68400
N  -6.84800 23.64500 26.14600
C  -7.34700 23.07100 27.25400
C  -8.34300 22.11600 26.93900
C  -8.39100 22.10200 25.48300
C  -7.42900 23.13200 25.05300
C  -9.23800 21.44000 27.98500
C  -9.22200 21.14800 24.61600
O  -9.18300 21.27000 23.39700
C  -10.02000 20.08800 25.17000
N  -5.18800 24.85200 24.00000
C  -6.09400 24.29400 23.26500
C  -5.75300 24.54200 21.75400
C  -4.80400 25.73900 21.81200
C  -4.39700 25.74900 23.24900
C  -5.21400 23.30600 21.07600
C  -5.47800 27.01100 21.37700
C  -4.73600 28.02900 20.52600
N  -3.86700 26.66100 25.88200
C  -3.01100 27.01900 24.90200
C  -1.98100 27.95100 25.36800
C  -2.19600 27.93900 26.77900
C  -3.32600 27.08800 26.98200
C  -0.96200 28.66600 24.56300
C  -1.75500 28.42200 28.06200
O  -0.93700 29.20600 28.51500
C  -2.63900 27.77700 29.13900
C  -1.71100 26.98200 30.09800
O  -1.03100 26.01700 29.86600
O  -1.75700 27.54700 31.32100
C  -1.41500 26.71300 32.46400
H  -7.36900 22.81100 29.34800
H  -7.85500 23.14300 23.05000
H  -2.64600 27.05200 22.85400
H  -3.82400 25.70600 30.92100
H  -6.59300 24.86300 31.12600
H  -4.99400 22.53000 30.49500
H  -6.00900 22.90200 31.89500
H  -4.31300 23.54700 31.82400
H  -6.28100 27.31100 30.40900
H  -4.65700 27.86400 30.87500
H  -7.05100 27.55000 32.51900
H  -5.43200 28.31400 32.94400
H  -9.99700 22.21500 28.08800
H  -8.75500 21.31600 28.95500
H  -9.50700 20.42100 27.70600
H  -10.83900 20.50600 25.75500
H  -9.33200 19.44500 25.71900
H  -10.44100 19.48600 24.36400
H  -6.70700 24.70600 21.25300
H  -3.89300 25.56300 21.24000
H  -4.30000 23.59000 20.55500
H  -5.96900 22.94500 20.37800
H  -4.95900 22.55300 21.82200
H  -5.82700 27.40600 22.33100
H  -6.33100 26.70300 20.77200
H  -5.45700 28.42800 19.81200
H  -3.87600 27.68500 19.95100
H  -4.35000 28.77700 21.21800
H  -0.95400 28.20000 23.57700
H  0.01600 28.46400 24.99900
H  -1.34600 29.68600 24.58800
H  -3.21900 28.50900 29.70000
H  -0.34500 26.88000 32.59300
H  -1.64800 25.65200 32.37300
H  -1.91600 27.10500 33.34900

