158

Mg 24.80500 1.32300 29.72900
C  27.16500 1.32000 32.33400
C  22.33700 1.44200 32.10200
C  22.60200 1.55600 27.27500
C  27.35100 0.72900 27.50900
N  24.79300 1.45800 31.97800
C  25.85100 1.39800 32.83600
C  25.38200 1.74200 34.27900
C  23.84000 1.51600 34.16000
C  23.63500 1.48200 32.65800
C  23.31300 0.23400 34.79500
C  25.72200 3.16800 34.74300
C  26.29000 3.36800 36.19600
H  25.49100 2.68500 37.31200
N  22.69400 1.33300 29.69400
C  21.86100 1.47800 30.75100
C  20.50600 1.66500 30.28000
C  20.60300 1.68200 28.84000
C  22.00100 1.56700 28.54400
C  19.37800 1.88700 31.25500
C  19.45200 1.72100 27.89100
O  19.57600 1.49800 26.71200
C  18.05800 1.76800 28.42700
N  24.87000 0.68900 27.66600
C  23.85400 1.10700 26.87300
C  24.34000 1.31400 25.37300
C  25.93100 1.03000 25.43500
C  26.08000 0.77800 26.95100
C  23.50700 0.57500 24.23000
C  26.88900 2.06700 24.78800
C  27.20400 3.39900 25.60700
N  26.85100 0.99600 29.88700
C  27.73600 0.71800 28.88300
C  29.04500 0.60200 29.41100
C  28.91400 0.88300 30.76200
C  27.55400 1.11800 30.97500
C  30.20000 0.19900 28.60900
C  29.60500 0.98500 32.00100
O  30.78900 0.78600 32.29500
C  28.47000 1.23800 33.09000
C  28.54200 0.27300 34.16500
O  28.14700 -0.87000 34.12800
O  29.19300 0.75800 35.26400
C  29.51200 -0.09900 36.41200
H  21.57200 1.59300 32.86600
H  21.94600 1.88800 26.46700
H  28.18800 0.60700 26.81800
H  25.94900 1.06700 34.92000
H  23.28700 2.36300 34.56800
H  23.94400 -0.07300 35.62900
H  23.19900 -0.57900 34.07800
H  22.30900 0.50800 35.11800
H  24.95500 3.89800 34.48600
H  26.62300 3.43900 34.19400
H  26.40800 4.43000 36.40900
H  27.32800 3.06400 36.33500
H  19.69200 1.90800 32.29900
H  18.62800 1.10200 31.16600
H  18.93100 2.85600 31.03200
H  17.75000 2.75300 28.77700
H  17.83000 0.95600 29.11700
H  17.59500 1.44300 27.49500
H  24.30400 2.37600 25.13000
H  26.11600 0.02300 25.06200
H  24.17900 -0.11500 23.71900
H  23.00800 1.28700 23.57300
H  22.79300 -0.13900 24.64000
H  26.43000 2.33800 23.83700
H  27.77000 1.47600 24.53400
H  26.92600 4.30100 25.06200
H  28.28700 3.31500 25.69200
H  26.76100 3.58700 26.58500
H  31.15500 0.22400 29.13400
H  30.33500 1.03400 27.92100
H  30.20100 -0.75800 28.08800
H  28.77700 2.16300 33.57800
H  30.56700 0.01800 36.65900
H  29.11300 -1.11300 36.43200
H  29.04400 0.43400 37.23900
Mg 47.75100 15.83800 28.55300
C  45.66200 16.04100 31.47500
C  49.97400 17.58800 30.38400
C  49.44200 16.27400 25.68800
C  45.04900 14.41700 26.88000
N  47.85600 16.64300 30.76800
C  46.92800 16.51700 31.74800
C  47.48000 17.00800 33.12500
C  48.87700 17.64800 32.67800
C  48.88600 17.36300 31.12600
C  48.85500 19.22800 32.87800
C  47.47200 15.89200 34.21000
C  47.48300 16.38400 35.73400
H  47.28300 17.86700 36.05700
N  49.47300 16.64800 28.19400
C  50.31800 17.22500 29.04400
C  51.57200 17.61900 28.45100
C  51.43600 17.26200 27.06200
C  50.09800 16.68200 26.91500
C  52.77800 18.23600 29.14100
C  52.41800 17.49000 25.96200
O  52.30500 17.00400 24.83900
C  53.69100 18.23700 26.27500
N  47.25300 15.32200 26.61200
C  48.14100 15.66500 25.60500
C  47.64300 15.29500 24.23000
C  46.21100 14.62600 24.59500
C  46.19000 14.68200 26.10400
C  47.47100 16.59100 23.38600
C  45.96300 13.14900 24.00800
C  45.39800 12.96800 22.58600
N  45.72300 15.43500 28.95600
C  44.76700 14.72500 28.23200
C  43.60100 14.40000 29.00300
C  43.87500 14.88200 30.23900
C  45.19300 15.57500 30.20500
C  42.40400 13.73100 28.48000
C  43.41900 15.00400 31.63300
O  42.45500 14.47500 32.14300
C  44.54900 15.79900 32.41600
C  44.00800 16.93700 33.16900
O  43.99100 18.10900 32.77400
O  43.54700 16.49900 34.39300
C  42.91300 17.51400 35.26700
H  50.65600 18.20600 30.97200
H  49.95500 16.31400 24.72500
H  44.25100 13.89500 26.34800
H  46.87700 17.83400 33.50400
H  49.65300 17.04100 33.14500
H  49.85700 19.48700 33.22200
H  48.12400 19.57100 33.61000
H  48.79200 19.75000 31.92300
H  48.43400 15.42600 33.99400
H  46.71900 15.12400 34.03400
H  48.40300 15.98500 36.16000
H  46.61300 15.80800 36.04900
H  52.65600 18.23400 30.22400
H  53.07900 19.27400 28.99500
H  53.57500 17.53500 28.89500
H  53.41900 19.13400 26.83200
H  54.09100 18.48300 25.29100
H  54.40900 17.59100 26.77800
H  48.31900 14.54400 23.82000
H  45.42200 15.30800 24.28000
H  46.52400 16.49000 22.85600
H  48.27500 16.65800 22.65400
H  47.59400 17.44500 24.05200
H  45.16900 12.71100 24.61200
H  46.86500 12.53800 24.05100
H  45.45400 13.91700 22.05400
H  44.33200 12.74700 22.63800
H  45.90600 12.12200 22.12300
H  42.09800 14.05600 27.48500
H  41.51500 13.95000 29.07000
H  42.51800 12.64700 28.46100
H  44.82400 15.15600 33.25300
H  43.11300 18.58200 35.18000
H  43.15900 17.11800 36.25200
H  41.84100 17.40000 35.10900

