158

Mg -1.46100 17.77700 26.97600
C  -2.00300 15.83300 29.78400
C  -2.18500 20.53000 29.03800
C  -1.71700 19.82400 24.26500
C  -2.09500 14.99900 24.91900
N  -2.02500 18.16600 29.17200
C  -1.98300 17.18800 30.14900
C  -2.14400 17.78500 31.57300
C  -2.63500 19.25300 31.24900
C  -2.28700 19.35800 29.71100
C  -4.19300 19.60400 31.49700
C  -0.93800 17.75800 32.51500
C  -1.45500 17.56800 34.04100
H  -0.49200 16.78400 34.86900
N  -1.66800 19.86400 26.68700
C  -1.96300 20.81600 27.66500
C  -1.93100 22.13700 27.02600
C  -1.66000 21.86500 25.72500
C  -1.67300 20.46500 25.46900
C  -2.15300 23.41200 27.66100
C  -1.20700 22.83400 24.58800
O  -0.88000 22.60900 23.45200
C  -1.31300 24.32300 24.95800
N  -1.91100 17.39800 24.91900
C  -1.73700 18.40700 24.02500
C  -1.75300 17.86800 22.52200
C  -1.83200 16.30400 22.76700
C  -1.99900 16.17000 24.29000
C  -2.89800 18.51500 21.72300
C  -0.65800 15.53000 22.18800
C  0.74700 15.77600 22.82400
N  -1.82800 15.76900 27.24500
C  -2.03500 14.72600 26.33200
C  -2.22300 13.52100 27.05600
C  -2.19600 13.90300 28.46300
C  -1.92700 15.25900 28.49400
C  -2.34100 12.13600 26.47700
C  -2.35000 13.36200 29.80100
O  -2.62900 12.24100 30.20600
C  -2.37800 14.67900 30.73600
C  -1.35000 14.35200 31.77200
O  -0.15500 14.61000 31.66700
O  -1.89800 13.76500 32.94700
C  -0.91700 13.30500 33.94400
H  -2.45000 21.37500 29.67800
H  -1.73300 20.43800 23.36200
H  -2.33300 14.14200 24.28600
H  -3.05300 17.33000 31.96600
H  -2.07400 19.95000 31.87200
H  -4.27300 20.22700 32.38800
H  -4.68300 18.65300 31.70600
H  -4.67900 20.15700 30.69300
H  -0.39200 18.68400 32.33800
H  -0.20100 16.97700 32.32600
H  -2.51500 17.32200 34.09400
H  -1.40500 18.56300 34.48200
H  -1.23600 23.98300 27.80300
H  -2.38800 23.17600 28.69900
H  -2.97500 24.01000 27.26600
H  -2.37700 24.55300 25.02200
H  -0.85700 24.84000 24.11400
H  -0.67200 24.63300 25.78300
H  -0.79500 18.18800 22.11200
H  -2.79600 15.97800 22.37800
H  -3.80700 17.93100 21.86600
H  -2.66000 18.53700 20.66000
H  -3.14000 19.49200 22.14100
H  -0.86800 15.72000 21.13500
H  -0.90800 14.48000 22.33800
H  0.67800 16.25300 23.80100
H  1.35100 16.28300 22.07100
H  1.25200 14.82500 22.99300
H  -1.40100 11.58900 26.55800
H  -2.61600 12.14100 25.42200
H  -3.09800 11.63300 27.07800
H  -3.31100 14.77800 31.29100
H  -0.38000 12.49000 33.45800
H  -1.42200 12.86600 34.80500
H  -0.19600 14.04800 34.28500
Mg 47.10800 24.24200 27.78400
C  47.97700 26.44500 30.34800
C  46.15300 22.06500 30.11600
C  46.56300 22.16200 25.34700
C  48.10000 26.65000 25.46800
N  47.09000 24.28800 29.96600
C  47.42000 25.27800 30.84600
C  47.26900 24.85100 32.35400
C  46.55300 23.45200 32.20900
C  46.58800 23.30600 30.67200
C  47.41100 22.44000 32.99700
C  46.46500 25.87400 33.26300
C  45.89300 25.31000 34.57500
H  46.50600 26.07900 35.78500
N  46.46300 22.35600 27.74700
C  46.09000 21.59500 28.77800
C  45.61400 20.31800 28.36500
C  45.63400 20.35700 26.94800
C  46.30900 21.68300 26.63100
C  45.10500 19.27000 29.26800
C  45.33400 19.20800 25.96800
O  45.50400 19.17300 24.72300
C  44.84400 17.92900 26.61200
N  47.49500 24.32700 25.62300
C  46.99500 23.33100 24.89100
C  46.98800 23.78400 23.38000
C  47.36200 25.27200 23.39200
C  47.70200 25.46900 24.90400
C  47.89000 22.93900 22.44400
C  46.25400 26.24000 22.81500
C  46.73700 27.27400 21.80200
N  47.98100 26.04600 27.85600
C  48.29800 26.98400 26.83000
C  48.94500 28.14900 27.38600
C  48.89700 27.93500 28.77900
C  48.25000 26.70100 29.04200
C  49.56100 29.26600 26.68500
C  49.23900 28.60000 30.03000
O  49.73000 29.67600 30.34200
C  48.55800 27.68900 31.15800
C  49.54800 27.23100 32.12300
O  50.29800 26.27500 31.98600
O  49.49600 27.99800 33.30900
C  50.22000 27.53600 34.50100
H  45.71800 21.36200 30.83100
H  46.38900 21.33900 24.65100
H  48.30100 27.42900 24.72900
H  48.23800 24.69100 32.82700
H  45.55300 23.56900 32.62500
H  47.89000 22.82700 33.89700
H  48.15100 21.87500 32.43100
H  46.78400 21.67800 33.46000
H  45.70400 26.37900 32.66700
H  47.06200 26.74400 33.53700
H  46.04800 24.25000 34.77400
H  44.81200 25.44800 34.53900
H  44.06500 19.01200 29.06700
H  45.18300 19.59800 30.30400
H  45.69500 18.36000 29.15300
H  45.65400 17.53200 27.22300
H  44.54300 17.34300 25.74300
H  43.94600 18.06800 27.21400
H  45.99700 23.61800 22.95800
H  48.27500 25.51400 22.84800
H  48.59900 22.42600 23.09400
H  48.36600 23.62600 21.74400
H  47.32100 22.25600 21.81300
H  45.74600 26.79700 23.60200
H  45.43600 25.72000 22.31700
H  47.49200 26.72400 21.24000
H  47.21700 28.16100 22.21500
H  45.86900 27.62100 21.24100
H  49.90300 28.96800 25.69300
H  50.37300 29.59800 27.33200
H  48.84800 30.08500 26.58800
H  47.91300 28.36200 31.72100
H  51.25800 27.45100 34.18000
H  49.86500 26.57800 34.88100
H  50.10000 28.29400 35.27600

