158

Mg 43.58500 4.33000 46.69600
C  41.73900 7.41000 46.65000
C  40.58800 2.65600 46.60300
C  45.22500 1.62800 45.83200
C  46.61200 6.23700 46.36300
N  41.49500 5.01500 46.62200
C  40.95200 6.27100 46.64300
C  39.39500 6.27500 46.68200
C  39.11300 4.72600 46.78200
C  40.48100 4.05000 46.71900
C  38.20100 4.15600 47.93900
C  38.69400 6.94100 45.44000
C  39.20700 6.55100 44.08500
H  40.00500 7.56100 43.24200
N  42.99800 2.32700 46.57400
C  41.71300 1.81700 46.47100
C  41.73400 0.41100 46.22000
C  43.06900 0.00500 46.13300
C  43.84900 1.31000 46.13100
C  40.49900 -0.45400 46.18900
C  43.57500 -1.38600 45.96700
O  42.76700 -2.36000 45.88200
C  45.05800 -1.61100 46.16400
N  45.60100 4.03200 46.23700
C  46.05000 2.75200 46.03600
C  47.49900 2.66100 45.78700
C  48.03600 3.97900 46.29400
C  46.73100 4.81600 46.32300
C  48.24500 1.40800 46.32500
C  49.16800 4.65100 45.41300
C  50.18800 5.40300 46.23400
N  44.16300 6.39600 46.48800
C  45.41300 7.00000 46.43800
C  45.20400 8.46700 46.39500
C  43.80100 8.64600 46.58400
C  43.19300 7.35100 46.57700
C  46.27500 9.51700 46.35800
C  42.79000 9.62700 46.86000
O  42.90300 10.85200 47.06200
C  41.42600 8.87800 46.85300
C  40.65800 9.07100 48.14900
O  41.01500 8.77400 49.25300
O  39.47500 9.71700 47.96100
C  38.53300 9.74600 49.07200
H  39.61100 2.17500 46.52900
H  45.82200 0.80400 45.43600
H  47.50300 6.84200 46.54400
H  39.16600 6.81900 47.59800
H  38.63900 4.35200 45.87400
H  38.68900 3.49800 48.65900
H  37.43000 3.54800 47.46600
H  37.71700 4.92600 48.53900
H  38.77500 8.02400 45.53100
H  37.63900 6.66800 45.47000
H  38.32000 6.36800 43.47900
H  39.77200 5.62600 44.20200
H  40.82400 -1.47600 46.38300
H  40.17300 -0.49400 45.14900
H  39.74000 -0.25800 46.94600
H  45.46800 -0.85000 46.82900
H  45.59000 -1.66800 45.21400
H  45.10900 -2.54800 46.71800
H  47.68900 2.68000 44.71300
H  48.29100 3.77800 47.33500
H  47.75800 0.97600 47.20000
H  49.21700 1.73300 46.69500
H  48.45300 0.64400 45.57500
H  48.70200 5.38200 44.75200
H  49.75000 3.94200 44.82400
H  51.15100 4.89200 46.25000
H  49.85900 5.46700 47.27200
H  50.40600 6.41800 45.90300
H  45.87900 10.43300 45.92000
H  47.11700 9.21400 45.73600
H  46.61100 9.72700 47.37300
H  40.74800 9.31700 46.12100
H  38.64600 10.66300 49.65000
H  38.48600 8.89700 49.75500
H  37.53700 9.80500 48.63200
Mg -1.30600 33.88900 25.99000
C  -3.18700 32.15900 28.61300
C  0.01400 35.99500 28.24900
C  -0.08600 35.48300 23.50600
C  -3.12600 31.86600 23.74300
N  -1.69800 34.06500 28.10200
C  -2.40600 33.27100 29.00700
C  -2.06800 33.71300 30.43600
C  -1.16900 35.01000 30.24000
C  -0.86800 34.99700 28.79700
C  -1.92900 36.30700 30.79700
C  -1.36700 32.54100 31.26300
C  -2.01400 32.29800 32.70700
H  -1.10900 32.25300 33.99800
N  -0.16600 35.54300 25.83500
C  0.29300 36.33400 26.85100
C  1.21800 37.28300 26.39400
C  1.21300 37.12500 25.02100
C  0.29400 36.07000 24.72600
C  2.07400 38.16300 27.32000
C  2.14100 37.89200 24.03200
O  2.11900 37.76600 22.78400
C  3.13000 38.88900 24.51400
N  -1.81300 33.91800 23.80600
C  -1.00800 34.57100 22.99900
C  -1.05600 34.08300 21.57400
C  -1.67100 32.67700 21.73600
C  -2.27400 32.79500 23.17000
C  -1.66100 34.87000 20.48000
C  -0.60500 31.52100 21.62500
C  -1.15800 30.35000 20.80100
N  -2.82300 32.32900 26.09500
C  -3.47100 31.62300 25.07600
C  -4.42100 30.67000 25.60600
C  -4.21100 30.79500 26.99700
C  -3.35800 31.85100 27.23100
C  -5.32300 29.76400 24.84300
C  -4.67000 30.25300 28.25600
O  -5.39300 29.28300 28.44400
C  -4.03600 31.13500 29.32200
C  -5.20600 31.73800 30.02400
O  -5.74600 32.78100 29.75200
O  -5.38700 31.08200 31.21200
C  -6.20300 31.80600 32.19300
H  0.54600 36.59700 28.98900
H  0.28900 36.04800 22.65000
H  -3.68700 31.23100 23.05400
H  -3.07100 33.75600 30.86000
H  -0.25700 34.91300 30.83000
H  -1.40700 36.84400 31.58900
H  -2.87000 35.87300 31.13500
H  -2.14700 36.93900 29.93700
H  -0.35000 32.78700 31.56700
H  -1.45900 31.70300 30.57200
H  -2.64900 31.41300 32.76000
H  -2.74600 33.10200 32.78400
H  1.86300 38.09100 28.38700
H  2.04300 39.22200 27.06800
H  3.12200 37.90000 27.17800
H  2.57200 39.63600 25.07800
H  3.80200 39.38300 23.81100
H  3.84400 38.47100 25.22400
H  0.00900 34.04800 21.34500
H  -2.49900 32.43800 21.06900
H  -2.63100 34.52400 20.12300
H  -0.96000 34.97000 19.65100
H  -1.83900 35.83000 20.96400
H  -0.31500 31.17000 22.61500
H  0.26400 32.00800 21.18100
H  -0.47700 30.36200 19.95000
H  -2.13900 30.39200 20.32700
H  -1.12700 29.36500 21.26800
H  -6.20600 29.51200 25.43100
H  -4.78200 28.89000 24.48000
H  -5.62400 30.40000 24.01000
H  -3.52400 30.49300 30.03800
H  -5.55500 32.41000 32.83000
H  -6.75100 31.15600 32.87500
H  -6.78800 32.58200 31.70000

