158

Mg 35.88700 49.48000 25.78200
C  35.86300 47.56400 28.68000
C  34.24700 52.03200 27.40700
C  35.73200 51.17800 22.82800
C  36.94300 46.57100 23.97800
N  35.19600 49.74200 27.81400
C  35.46700 48.92500 28.88900
C  34.98400 49.61100 30.24000
C  34.47100 51.01700 29.81800
C  34.62000 50.91200 28.24500
C  33.11300 51.47600 30.37600
C  36.07900 49.45900 31.35100
C  35.53800 49.00000 32.70900
H  35.39600 50.01800 33.81200
N  35.22600 51.41500 25.21800
C  34.45400 52.25400 26.02800
C  34.09900 53.45200 25.33200
C  34.58900 53.20400 23.98300
C  35.21100 51.86200 23.94300
C  33.54600 54.74600 25.91900
C  34.51300 54.09900 22.67300
O  34.83500 53.73200 21.52900
C  34.06200 55.54400 22.77700
N  36.13400 48.90300 23.66800
C  36.11400 49.81100 22.70500
C  36.57700 49.16600 21.36800
C  37.10600 47.79300 21.78300
C  36.67700 47.71700 23.27800
C  35.43100 49.17200 20.29200
C  38.58700 47.47000 21.39700
C  38.92600 46.07400 20.96400
N  36.31300 47.42400 26.15600
C  36.67500 46.35400 25.35000
C  36.97400 45.20600 26.20700
C  36.63800 45.58200 27.48600
C  36.24400 47.00900 27.41400
C  37.49600 43.82900 25.77600
C  36.55700 45.14800 28.89000
O  36.74600 44.07200 29.43800
C  36.09700 46.44800 29.69800
C  34.92200 46.02300 30.46600
O  33.80400 46.03000 30.07900
O  35.36400 45.84300 31.79100
C  34.41800 45.31900 32.79300
H  33.83900 52.83700 28.02200
H  35.79500 51.62000 21.83200
H  37.36200 45.70900 23.45700
H  34.14700 48.98500 30.54800
H  35.20400 51.74600 30.16400
H  32.39300 51.88100 29.66500
H  33.38800 52.32000 31.00900
H  32.67900 50.64300 30.92900
H  36.48000 50.45500 31.53800
H  36.94400 48.87100 31.04300
H  35.92000 48.06700 33.12400
H  34.52400 48.66700 32.48300
H  34.22000 55.56400 25.66700
H  33.47500 54.68700 27.00500
H  32.65700 54.94500 25.32000
H  33.10000 55.65700 23.27700
H  33.91700 56.10000 21.85100
H  34.87000 56.07000 23.28500
H  37.36300 49.85800 21.06600
H  36.46800 47.12900 21.20000
H  34.73800 50.00200 20.42500
H  34.91900 48.21100 20.24100
H  35.83800 49.42500 19.31300
H  39.13000 47.70700 22.31200
H  38.93900 48.20800 20.67600
H  39.25000 46.26400 19.94100
H  38.06000 45.41500 21.02500
H  39.74600 45.65500 21.54800
H  37.68000 43.71200 24.70900
H  36.67300 43.19000 26.09700
H  38.40100 43.64100 26.35300
H  36.95300 46.68900 30.32800
H  34.41200 46.06500 33.58700
H  34.74400 44.34500 33.15900
H  33.43600 45.17600 32.34000
Mg 9.18300 47.00400 27.20600
C  7.48300 46.49100 30.25300
C  12.07100 47.50300 28.95700
C  10.64400 48.18800 24.37500
C  6.19600 47.17300 25.55400
N  9.76500 46.76400 29.54500
C  8.85000 46.63400 30.55800
C  9.56100 46.97300 31.88600
C  10.97000 47.52600 31.41700
C  10.97700 47.24200 29.85700
C  11.33400 48.96100 31.77900
C  9.68600 45.80700 32.91300
C  9.37500 46.16000 34.34600
H  9.70800 45.01200 35.32900
N  11.08800 47.69800 26.77700
C  12.16700 47.68200 27.57000
C  13.40700 47.89600 26.74300
C  12.95400 48.12100 25.42000
C  11.53900 47.94900 25.45600
C  14.85900 47.87600 27.27700
C  13.78500 48.36000 24.18800
O  13.24000 48.58700 23.12000
C  15.33900 48.28200 24.26200
N  8.45300 47.60600 25.22400
C  9.30800 48.01400 24.24700
C  8.56300 48.20200 22.89000
C  7.12700 47.66400 23.26500
C  7.22600 47.43300 24.72800
C  8.52400 49.75100 22.39700
C  6.76100 46.39600 22.51800
C  5.35700 46.45100 21.83400
N  7.23200 46.73100 27.70900
C  6.10600 46.79600 26.94500
C  4.90200 46.71000 27.79000
C  5.45300 46.48300 29.05300
C  6.85800 46.56200 29.00300
C  3.41100 46.61300 27.29100
C  5.05800 46.19900 30.43200
O  3.96100 46.02400 30.95300
C  6.37000 46.25800 31.27300
C  6.55800 45.00200 31.97200
O  6.66600 43.90100 31.47700
O  6.49000 45.20900 33.33400
C  6.46300 43.91400 34.08700
H  12.92100 47.65600 29.62600
H  10.99200 48.51900 23.39400
H  5.26500 47.33400 25.00600
H  8.94300 47.71700 32.38900
H  11.72100 46.89600 31.89500
H  11.57300 49.67200 30.98800
H  12.19400 48.87200 32.44300
H  10.59600 49.41500 32.44000
H  10.69500 45.40100 32.98400
H  9.01200 45.02500 32.56300
H  8.34400 46.47000 34.51600
H  9.88900 47.09500 34.57100
H  15.44700 47.08300 26.81600
H  14.78400 47.65700 28.34200
H  15.21300 48.89600 27.12500
H  15.86700 48.89800 24.99100
H  15.56700 48.76000 23.30900
H  15.67700 47.24600 24.24600
H  8.99900 47.50800 22.17100
H  6.38800 48.46500 23.26900
H  9.45900 50.24500 22.66000
H  7.67000 50.26800 22.83500
H  8.52500 49.73700 21.30700
H  6.76600 45.47000 23.09200
H  7.49800 46.32100 21.71900
H  5.40000 46.32000 20.75200
H  4.81000 47.37900 22.00700
H  4.92800 45.56600 22.30300
H  2.79500 45.90600 27.84700
H  3.26200 46.29800 26.25800
H  2.95600 47.57600 27.51900
H  6.28700 47.13700 31.91200
H  7.30900 43.26500 33.86200
H  5.58200 43.29600 33.91300
H  6.43100 44.12000 35.15700

