158

Mg -0.32700 7.33400 26.24500
C  0.95900 9.26000 28.96900
C  -0.64800 4.78300 28.59600
C  -1.40300 5.38600 23.85600
C  0.27900 9.99700 24.11700
N  0.04300 7.09800 28.50600
C  0.53300 8.04200 29.43700
C  0.38500 7.63000 30.88800
C  0.07500 6.09600 30.68200
C  -0.20300 5.98800 29.14100
C  1.23800 5.21500 31.19600
C  -0.68400 8.44300 31.61600
C  -0.85600 8.24600 33.16300
H  0.21000 7.64600 34.02300
N  -0.77100 5.28600 26.17300
C  -0.88400 4.41500 27.24900
C  -1.42900 3.12800 26.75500
C  -1.80500 3.34900 25.41500
C  -1.36000 4.71500 25.10200
C  -1.55000 1.88500 27.62800
C  -2.28300 2.30100 24.41600
O  -2.49000 2.65500 23.26200
C  -2.43100 0.84700 24.76300
N  -0.52600 7.62700 24.27000
C  -1.04300 6.69700 23.45300
C  -1.49300 7.26500 22.05700
C  -1.12400 8.71000 22.22800
C  -0.43000 8.84700 23.60900
C  -0.86800 6.66500 20.75500
C  -2.35900 9.71900 22.15700
C  -2.23600 10.77600 21.11900
N  0.36000 9.21900 26.45700
C  0.69800 10.12900 25.46100
C  1.21200 11.36900 26.05600
C  1.37800 11.01400 27.40900
C  0.88800 9.71100 27.57300
C  1.50400 12.71100 25.39500
C  1.75100 11.63500 28.57500
O  2.26300 12.73300 28.85600
C  1.39600 10.58900 29.72900
C  2.57000 10.26600 30.58200
O  3.55000 9.72700 30.29200
O  2.50000 10.93100 31.77900
C  3.59100 10.79700 32.77200
H  -0.72600 4.00300 29.35600
H  -1.86300 4.93600 22.97400
H  0.57800 10.76100 23.39600
H  1.32900 7.77800 31.41300
H  -0.85000 5.85500 31.20500
H  1.65700 4.75600 30.30100
H  0.80800 4.48400 31.88100
H  1.99300 5.77900 31.74500
H  -1.66600 8.22100 31.19700
H  -0.53100 9.51500 31.49000
H  -1.77900 7.71300 33.39100
H  -0.93300 9.26500 33.54200
H  -1.30800 0.92400 27.17400
H  -2.58000 1.87000 27.98300
H  -0.86500 2.03600 28.46200
H  -2.85500 0.24500 23.95900
H  -2.98900 0.69000 25.68600
H  -1.47400 0.32500 24.78700
H  -2.55800 7.04900 22.14300
H  -0.28400 9.00000 21.59600
H  -1.41700 5.87000 20.25100
H  0.17500 6.38300 20.90500
H  -0.79100 7.51300 20.07400
H  -2.48200 10.08900 23.17500
H  -3.25900 9.18400 21.85800
H  -1.26200 10.77100 20.62900
H  -2.43200 11.71300 21.64000
H  -3.05000 10.70100 20.39800
H  0.65200 13.28000 25.02400
H  2.12200 12.45200 24.53500
H  2.04300 13.38800 26.05900
H  0.67000 11.09000 30.36900
H  4.49500 10.35900 32.34700
H  3.16000 10.21300 33.58500
H  3.76800 11.83900 33.03900
Mg 39.99600 9.82400 29.88300
C  41.87600 11.04700 32.73400
C  37.55200 8.71900 32.06600
C  38.41800 8.49100 27.26200
C  42.72400 10.68600 27.89300
N  39.88800 9.63400 32.20300
C  40.65500 10.40900 33.14400
C  40.02200 10.32100 34.55900
C  38.70800 9.50500 34.26100
C  38.65100 9.31400 32.74100
C  38.58400 8.16800 35.01400
C  39.77000 11.79200 35.15400
C  40.67500 12.19500 36.35800
H  40.12100 12.60300 37.69800
N  38.14800 8.77300 29.66500
C  37.33900 8.43800 30.69300
C  36.21700 7.76900 30.14200
C  36.47100 7.64600 28.78300
C  37.67000 8.36000 28.45600
C  35.11200 7.24000 30.99000
C  35.60800 6.97100 27.69000
O  35.92500 6.78300 26.53100
C  34.32300 6.42200 28.05500
N  40.45800 9.71100 27.81400
C  39.68200 9.03000 26.93300
C  40.23000 9.02800 25.47800
C  41.64600 9.65700 25.74100
C  41.67600 9.99600 27.26800
C  40.40000 7.52500 24.99600
C  41.97500 10.90800 24.87100
C  41.18000 12.18400 25.25400
N  41.95700 10.69400 30.14400
C  42.90200 11.06100 29.20800
C  43.98600 11.74000 29.91400
C  43.60100 11.79800 31.29800
C  42.34100 11.06600 31.38400
C  45.18000 12.38400 29.30700
C  44.01800 12.31000 32.60100
O  45.12100 12.79300 32.91500
C  42.90800 11.78100 33.59500
C  43.63000 10.84100 34.59300
O  43.80700 9.63600 34.50300
O  44.14400 11.61600 35.59600
C  44.56600 10.98200 36.84500
H  36.72400 8.59100 32.76700
H  37.93900 8.06800 26.37700
H  43.71400 10.88900 27.48100
H  40.81500 9.87200 35.15800
H  37.79700 10.09100 34.38000
H  38.51500 7.37400 34.27000
H  37.62300 8.25500 35.52100
H  39.38000 7.98500 35.73500
H  38.73700 11.89000 35.48900
H  39.82500 12.55200 34.37500
H  41.36800 12.97300 36.03800
H  41.24000 11.28400 36.55400
H  34.21200 7.78100 30.69700
H  35.31400 7.23800 32.06100
H  35.07400 6.17600 30.75900
H  34.45900 5.72900 28.88600
H  33.83300 5.97000 27.19200
H  33.65200 7.20100 28.41800
H  39.57100 9.50300 24.75100
H  42.37100 8.86900 25.53700
H  39.98100 6.74800 25.63700
H  41.44900 7.25300 24.88000
H  39.88400 7.27400 24.06900
H  41.88700 10.49800 23.86400
H  43.04900 11.09200 24.85300
H  41.86000 12.97000 25.58400
H  40.50000 11.98500 26.08200
H  40.56200 12.47900 24.40700
H  44.99500 12.74900 28.29800
H  45.94400 11.60800 29.25700
H  45.43600 13.17400 30.01300
H  42.48200 12.65700 34.08400
H  44.21000 11.55600 37.70100
H  45.64300 11.15000 36.86800
H  44.32400 9.92000 36.88200

