158

Mg 23.08600 -6.06000 44.89800
C  25.48800 -4.08500 43.41800
C  20.73900 -4.42500 42.93600
C  20.73900 -8.67400 45.36200
C  25.41300 -8.00200 46.35700
N  23.08000 -4.52800 43.42900
C  24.25000 -3.78300 43.09400
C  23.93900 -2.59800 42.20200
C  22.40000 -2.60800 42.25300
C  22.03000 -3.91900 42.89700
C  21.63800 -1.39900 42.85800
C  24.48100 -2.88400 40.74900
C  25.07500 -1.69300 39.98800
H  26.19900 -2.06000 39.01500
N  21.03100 -6.46400 44.32100
C  20.25200 -5.58300 43.62300
C  18.89300 -6.13400 43.42400
C  18.86000 -7.38700 44.14500
C  20.26100 -7.54400 44.64400
C  17.81400 -5.50700 42.49900
C  17.68600 -8.36800 44.17900
O  16.53600 -7.96400 43.92000
C  17.71500 -9.84600 44.55500
N  23.04200 -8.11200 45.70800
C  21.99500 -8.88300 45.89400
C  22.38700 -10.18900 46.61400
C  23.77800 -9.83700 47.12300
C  24.10100 -8.60300 46.39100
C  21.35100 -10.67500 47.66300
C  24.84600 -10.93400 46.96000
C  25.88600 -11.05300 48.07500
N  25.04000 -6.15900 44.86800
C  25.94500 -6.91700 45.68600
C  27.29300 -6.34800 45.59800
C  27.15100 -5.26700 44.72200
C  25.76300 -5.20000 44.25300
C  28.53800 -6.90600 46.15600
C  27.93100 -4.19800 44.03400
O  29.15200 -3.92000 44.14100
C  26.86000 -3.44400 43.12400
C  26.97200 -2.00300 43.52400
O  26.44300 -1.42500 44.47700
O  27.77700 -1.41500 42.55300
C  27.99200 0.01500 42.69000
H  20.10500 -3.80700 42.29700
H  19.99900 -9.47700 45.39000
H  26.19400 -8.53900 46.90100
H  24.44700 -1.72000 42.60100
H  22.14800 -2.75400 41.20200
H  21.06500 -1.63700 43.75500
H  20.91300 -0.98400 42.15800
H  22.40800 -0.65400 43.05800
H  23.69500 -3.40200 40.20000
H  25.25000 -3.65600 40.72200
H  25.35000 -0.94100 40.72700
H  24.23600 -1.23700 39.46200
H  17.44200 -6.35000 41.91700
H  18.07300 -4.74200 41.76700
H  16.99800 -5.06500 43.07100
H  16.70900 -10.19800 44.32700
H  17.98200 -10.03600 45.59500
H  18.30000 -10.41300 43.83100
H  22.51100 -10.99200 45.88800
H  23.61500 -9.47400 48.13700
H  20.52000 -9.97000 47.69700
H  21.78700 -10.97800 48.61500
H  20.99200 -11.61000 47.23400
H  25.37300 -10.78800 46.01700
H  24.29700 -11.87500 46.93800
H  26.82100 -11.50800 47.74700
H  25.55800 -11.82700 48.76900
H  26.06700 -10.11600 48.60200
H  28.91000 -6.09500 46.78300
H  29.33000 -7.07900 45.42700
H  28.43600 -7.81400 46.75000
H  27.27300 -3.53100 42.12000
H  29.01000 0.26300 42.38900
H  27.77000 0.50000 43.64000
H  27.46200 0.54900 41.90100
Mg 26.06900 0.58300 30.10700
C  28.12000 0.73200 33.02000
C  23.29600 1.08700 32.22200
C  24.02800 0.05900 27.59900
C  28.85000 -0.19600 28.16800
N  25.74300 0.72900 32.42500
C  26.69900 0.85700 33.37100
C  26.12000 1.32900 34.75400
C  24.64500 1.35500 34.40400
C  24.54600 0.99800 32.94200
C  23.71500 0.46200 35.33300
C  26.70300 2.69700 35.19200
C  27.64100 2.62200 36.38200
H  27.08000 3.08600 37.73900
N  23.93300 0.64200 29.94900
C  23.01900 0.90700 30.89800
C  21.71000 0.85300 30.28500
C  21.83800 0.64400 28.91600
C  23.30400 0.42400 28.73800
C  20.40900 1.08100 31.06900
C  20.77200 0.58400 27.81400
O  21.06100 0.35700 26.61700
C  19.35300 0.60100 28.13800
N  26.41400 0.18200 28.12000
C  25.36800 -0.04400 27.29400
C  25.82200 -0.40700 25.89500
C  27.36900 0.01800 25.96400
C  27.62000 -0.07800 27.45000
C  25.52900 -1.83400 25.54300
C  27.88700 1.38900 25.36200
C  28.59400 1.27500 24.02400
N  28.07900 0.27800 30.45800
C  29.09600 -0.04600 29.56400
C  30.38400 -0.03800 30.26700
C  30.02500 0.24600 31.62800
C  28.60900 0.42400 31.69900
C  31.71700 -0.37600 29.75200
C  30.50600 0.41400 32.94900
O  31.67800 0.47600 33.32800
C  29.29700 0.66800 33.89300
C  29.27100 -0.57600 34.64000
O  28.45500 -1.50400 34.50500
O  30.23100 -0.54800 35.65000
C  30.08800 -1.50000 36.70600
H  22.53900 1.30000 32.98000
H  23.37000 -0.15300 26.75300
H  29.76300 -0.46700 27.63400
H  26.33500 0.61500 35.54900
H  24.18700 2.34300 34.44500
H  23.24500 -0.34500 34.77100
H  22.85600 1.08000 35.59300
H  24.20800 0.05100 36.21400
H  25.91200 3.40000 35.45100
H  27.26200 3.21300 34.41100
H  28.46900 3.30300 36.18500
H  28.02500 1.62800 36.61100
H  19.65500 0.37600 30.71900
H  20.12400 2.12500 30.93900
H  20.51100 0.81900 32.12200
H  18.70200 0.60100 27.26400
H  19.15100 1.48300 28.74500
H  19.12500 -0.24800 28.78300
H  25.27100 0.20700 25.18300
H  27.96400 -0.79000 25.53900
H  25.01000 -2.35000 26.35000
H  26.46400 -2.33000 25.28200
H  24.98800 -1.90400 24.59900
H  28.51800 1.96800 26.03700
H  26.95600 1.94100 25.23600
H  27.89600 1.34100 23.19000
H  29.13500 0.32900 24.00400
H  29.45500 1.93900 24.10200
H  31.83300 -0.81700 28.76200
H  31.99400 -1.16800 30.44800
H  32.30700 0.53600 29.66600
H  29.44800 1.65600 34.32800
H  29.88800 -2.51000 36.34900
H  29.16400 -1.23400 37.22000
H  30.95600 -1.50100 37.36500

