158

Mg 8.28100 3.85300 27.72600
C  9.59400 2.41400 30.52400
C  6.01800 5.63900 29.81500
C  6.93100 5.31600 24.99000
C  10.02400 1.60000 25.65500
N  7.77000 3.91100 30.01400
C  8.61600 3.35400 30.91100
C  8.26600 3.95900 32.29300
C  6.99400 4.89400 32.04000
C  6.84600 4.75800 30.52000
C  5.63100 4.43100 32.76700
C  9.52900 4.47300 33.15300
C  9.12600 5.25800 34.37000
H  9.30100 4.73700 35.83300
N  6.72600 5.31300 27.41200
C  5.94000 5.86100 28.41300
C  5.05300 6.79400 27.79700
C  5.38200 6.84400 26.41400
C  6.41900 5.79900 26.22000
C  3.92900 7.51700 28.57700
C  4.84500 7.75300 25.31300
O  5.08200 7.48800 24.15900
C  4.04800 8.94000 25.76800
N  8.40700 3.45500 25.57400
C  7.71000 4.19300 24.68900
C  7.94200 3.64000 23.27600
C  8.99400 2.43800 23.49200
C  9.15800 2.45200 24.99200
C  6.73900 3.21000 22.42600
C  10.28300 2.54900 22.66400
C  10.55600 1.33000 21.80600
N  9.52100 2.27500 27.97500
C  10.23500 1.50000 27.07200
C  10.85600 0.44400 27.78600
C  10.80000 0.82500 29.13500
C  9.89200 1.90300 29.23000
C  11.49200 -0.81600 27.18600
C  11.29000 0.52100 30.49100
O  12.09100 -0.32200 30.90100
C  10.57900 1.59500 31.45700
C  9.97100 0.75400 32.43900
O  9.02000 0.01800 32.17000
O  10.54200 0.97700 33.63700
C  9.82300 0.35800 34.72600
H  5.58700 6.31100 30.56000
H  6.70000 5.94200 24.12500
H  10.53100 0.86000 25.03200
H  7.91500 3.13400 32.91200
H  7.14800 5.91800 32.37900
H  4.88000 4.03900 32.08100
H  5.07200 5.25500 33.21000
H  5.82400 3.68400 33.53700
H  10.20700 4.95600 32.44900
H  9.88400 3.52000 33.54700
H  8.08600 5.58000 34.39200
H  9.61500 6.23100 34.39700
H  3.80100 7.08200 29.56800
H  2.97200 7.49600 28.05500
H  4.19300 8.56500 28.72000
H  4.44200 9.42700 26.66000
H  3.11800 8.39900 25.94100
H  3.99600 9.61700 24.91500
H  8.44300 4.47300 22.78200
H  8.56800 1.44700 23.33600
H  5.90200 3.59100 23.01000
H  6.67000 2.19900 22.02500
H  6.79500 3.89200 21.57700
H  11.15400 2.53900 23.32000
H  10.31800 3.47500 22.09000
H  9.63200 0.91100 21.41000
H  11.19600 0.70500 22.42900
H  11.18300 1.57900 20.95000
H  11.82700 -0.65300 26.16200
H  10.80700 -1.66200 27.22900
H  12.41400 -1.04500 27.72200
H  11.22500 2.31000 31.96700
H  9.06000 -0.34000 34.38300
H  9.35500 1.06900 35.40700
H  10.62300 -0.21100 35.20000
Mg 47.94000 34.71500 26.75600
C  46.09000 33.49400 29.39800
C  48.62800 37.51300 28.69600
C  49.57200 36.04200 24.13800
C  47.03300 31.92600 24.82300
N  47.29500 35.39900 28.79700
C  46.70500 34.64100 29.73100
C  46.87600 35.20900 31.18200
C  47.38600 36.62700 30.86300
C  47.79300 36.55500 29.32400
C  46.45600 37.79200 31.15200
C  47.96600 34.37000 31.86500
C  48.23200 34.61000 33.31300
H  47.35600 35.56000 34.12600
N  49.00900 36.54200 26.42500
C  49.23800 37.53200 27.35000
C  50.11500 38.57600 26.77900
C  50.28500 38.12900 25.41200
C  49.62000 36.84300 25.24800
C  50.52400 39.74400 27.62400
C  51.09000 38.74500 24.38200
O  51.33500 38.30500 23.24900
C  51.66300 40.10400 24.69600
N  48.23200 34.13100 24.76500
C  48.99000 34.78500 23.89500
C  49.18500 34.09700 22.49800
C  48.66200 32.62300 22.89700
C  47.95500 32.89700 24.30300
C  48.34100 34.84900 21.33900
C  49.78500 31.56900 23.07800
C  49.95900 30.49900 22.04100
N  46.81200 33.03500 26.96100
C  46.41100 32.04500 26.10400
C  45.51100 31.12600 26.69700
C  45.34900 31.63400 27.98200
C  46.22100 32.77400 28.13100
C  44.97300 29.88400 26.10800
C  44.71300 31.41400 29.17600
O  44.01400 30.47000 29.59400
C  45.13000 32.55600 30.19800
C  45.58500 31.82900 31.49500
O  46.41700 30.97200 31.66500
O  44.73900 32.27100 32.52700
C  44.97900 31.85600 33.97000
H  48.80700 38.39300 29.31800
H  50.22700 36.29600 23.30200
H  46.88500 31.06000 24.17500
H  45.98000 35.19000 31.80200
H  48.29800 36.86400 31.41100
H  45.99100 38.10000 30.21600
H  46.90400 38.66700 31.62300
H  45.68000 37.40500 31.81200
H  48.86400 34.52400 31.26700
H  47.77100 33.31100 31.69700
H  49.21900 35.06300 33.41500
H  48.22700 33.61800 33.76500
H  49.86000 40.54200 27.29300
H  51.49000 40.16400 27.34400
H  50.58500 39.59500 28.70200
H  51.95500 40.59300 23.76700
H  52.44900 40.05100 25.45000
H  50.78200 40.66700 25.00600
H  50.22600 34.08800 22.17200
H  47.92000 32.32600 22.15600
H  47.35100 34.46600 21.58600
H  48.69900 34.49100 20.37400
H  48.57500 35.89200 21.55700
H  49.58700 30.93300 23.94100
H  50.74300 32.05300 23.26700
H  49.81200 29.56400 22.58200
H  50.96700 30.47700 21.62600
H  49.25600 30.63600 21.22000
H  45.63900 29.02200 26.13800
H  44.76000 30.09500 25.06000
H  44.05100 29.60500 26.61700
H  44.26500 33.15600 30.48000
H  45.96300 31.43500 34.17600
H  44.15200 31.26600 34.36600
H  45.00200 32.85700 34.40000

