158

Mg 8.84800 3.09500 28.48700
C  10.24300 1.94600 31.47900
C  6.83200 5.33100 30.43100
C  7.19800 4.02300 25.70700
C  10.37400 0.46900 26.77200
N  8.58000 3.48700 30.72700
C  9.32000 2.92100 31.72100
C  8.99800 3.51100 33.11600
C  7.69100 4.43500 32.77300
C  7.69300 4.47100 31.25400
C  6.25700 3.94900 33.31700
C  10.14500 4.10400 33.83400
C  10.37000 3.69300 35.36400
H  9.20800 3.28600 36.31800
N  7.28100 4.51600 28.12300
C  6.59600 5.35000 29.02900
C  5.69600 6.27200 28.32900
C  5.84900 5.92700 26.94300
C  6.87600 4.77300 26.85600
C  4.66500 7.17200 28.99100
C  5.10400 6.42900 25.74100
O  5.32400 6.09900 24.57500
C  4.08000 7.39300 25.91900
N  8.90600 2.48400 26.50700
C  8.06100 2.92500 25.56600
C  8.12700 1.99700 24.26200
C  9.46200 1.21300 24.51900
C  9.66300 1.37700 26.02600
C  6.87600 1.09100 24.09800
C  10.68200 1.70400 23.76900
C  10.62500 1.35900 22.28200
N  10.04400 1.54600 28.98200
C  10.59700 0.51000 28.21900
C  11.33900 -0.38200 28.99600
C  11.31300 0.18300 30.31000
C  10.48300 1.36300 30.22000
C  12.15400 -1.51900 28.40500
C  11.68500 -0.06800 31.69900
O  12.44000 -0.93900 32.16200
C  11.06800 1.12400 32.44600
C  10.37600 0.47400 33.54300
O  9.27800 -0.00300 33.39200
O  11.17300 0.20900 34.58100
C  10.52300 -0.37600 35.72200
H  6.30200 6.09000 31.01000
H  6.69700 4.23500 24.76000
H  10.78000 -0.32000 26.13600
H  8.61200 2.67100 33.69400
H  7.85800 5.44800 33.14000
H  5.49600 4.25800 32.60100
H  6.08200 4.40500 34.29100
H  6.37100 2.87100 33.43900
H  10.07200 5.18100 33.67800
H  11.05800 3.71700 33.38100
H  10.79500 4.51900 35.93400
H  11.22100 3.01700 35.28000
H  3.60900 6.90400 28.96000
H  4.89400 8.16200 28.59700
H  4.86400 7.26000 30.05900
H  3.68800 7.56100 24.91600
H  4.54400 8.28400 26.34100
H  3.26500 6.99300 26.52200
H  8.13900 2.71300 23.44000
H  9.31400 0.14100 24.39600
H  6.38900 0.96800 25.06500
H  7.19600 0.14100 23.66900
H  6.11100 1.42300 23.39600
H  11.52200 1.20800 24.25500
H  10.86600 2.75000 24.01400
H  10.82800 2.22600 21.65300
H  9.71300 0.81200 22.04700
H  11.38300 0.58400 22.16300
H  12.21400 -1.26400 27.34700
H  11.56100 -2.43100 28.34300
H  13.04200 -1.63500 29.02600
H  11.98800 1.64400 32.71200
H  9.67000 0.23200 36.02400
H  11.21100 -0.36500 36.56800
H  10.35600 -1.42700 35.48800
Mg 47.15500 44.73500 43.06600
C  43.70200 43.80300 42.60500
C  48.06600 41.41200 42.47200
C  50.34700 45.71300 42.82400
C  46.09000 48.08900 42.99800
N  46.00600 42.86200 42.69000
C  44.64600 42.67700 42.61600
C  44.25900 41.25000 42.65900
C  45.63800 40.47200 42.84600
C  46.60600 41.60800 42.65700
C  45.74700 39.59900 44.10300
C  43.47300 40.90300 41.36100
C  43.92400 41.68200 40.07700
H  43.59600 41.04000 38.71400
N  48.99500 43.73600 42.61800
C  49.14300 42.39000 42.48900
C  50.63500 42.13300 42.35500
C  51.26600 43.40600 42.41700
C  50.18100 44.35800 42.61900
C  51.26900 40.65200 42.21300
C  52.72100 43.55900 42.16000
O  53.43700 42.55000 42.01200
C  53.38000 44.93000 41.94900
N  48.07800 46.61600 43.02700
C  49.43200 46.76300 43.03400
C  49.95600 48.25500 43.12900
C  48.53800 48.99000 43.02700
C  47.47700 47.82500 42.92700
C  50.68800 48.53500 44.44000
C  48.56700 49.94000 41.77200
C  48.99400 51.33700 42.09100
N  45.31100 45.77900 42.93000
C  45.02600 47.11900 42.83500
C  43.62200 47.45000 42.70900
C  42.99300 46.14300 42.70700
C  44.11200 45.15800 42.80400
C  42.93300 48.79300 42.67100
C  41.82700 45.36100 42.65300
O  40.60400 45.70000 42.66000
C  42.24600 43.86600 42.71900
C  41.78700 43.38700 44.00900
O  41.00600 42.42300 44.09400
O  42.27600 44.09000 45.09400
C  41.93700 43.56400 46.35100
H  48.34100 40.36100 42.58300
H  51.41300 45.94900 42.80900
H  45.68200 49.09700 42.90000
H  43.64600 41.07400 43.54200
H  45.76100 39.83300 41.97100
H  44.75500 39.28200 44.42200
H  46.25900 40.31000 44.75100
H  46.32700 38.69400 43.92200
H  42.46600 41.27200 41.55200
H  43.44600 39.82200 41.22600
H  45.01300 41.63800 40.09200
H  43.41000 42.64300 40.11500
H  52.15000 40.46100 41.60000
H  50.41300 40.05900 41.89200
H  51.47100 40.31600 43.23000
H  52.80400 45.51600 41.23300
H  54.37700 44.76400 41.54100
H  53.40200 45.51800 42.86700
H  50.55300 48.55200 42.26700
H  48.33000 49.56100 43.93200
H  51.75900 48.62000 44.25600
H  50.65000 47.65300 45.07900
H  50.37400 49.46500 44.91500
H  47.64400 49.86800 41.19600
H  49.26300 49.50800 41.05200
H  49.08500 51.48500 43.16700
H  48.12400 51.89100 41.73800
H  49.86300 51.62200 41.49900
H  43.61200 49.61400 42.43800
H  42.34500 49.09400 43.53800
H  42.30200 48.78500 41.78300
H  41.78500 43.32900 41.89000
H  41.81100 42.48100 46.36200
H  40.96600 43.95400 46.65700
H  42.63100 43.84600 47.14200

