158

Mg 2.64100 -1.03900 43.89500
C  6.04800 -0.17500 43.53100
C  1.81200 1.95700 42.38800
C  -0.47700 -2.08300 43.85700
C  3.64800 -4.30000 44.88700
N  3.83900 0.66500 43.10400
C  5.19800 0.78700 42.96200
C  5.57600 2.07700 42.26800
C  4.20100 2.93000 42.37700
C  3.17000 1.83400 42.70600
C  4.19500 4.21000 43.26000
C  6.23800 1.91600 40.81700
C  6.04900 0.58900 40.14200
H  6.49900 0.58200 38.70600
N  0.88000 -0.15100 43.20000
C  0.69900 1.09000 42.61700
C  -0.70200 1.25600 42.28500
C  -1.35500 0.05400 42.65800
C  -0.33500 -0.78400 43.28600
C  -1.18700 2.51600 41.70500
C  -2.82400 -0.28100 42.23800
O  -3.50300 0.55400 41.79200
C  -3.45000 -1.70200 42.35600
N  1.71500 -2.91400 44.25800
C  0.40900 -3.08000 44.23300
C  -0.06100 -4.46500 44.71800
C  1.29400 -5.21300 44.70500
C  2.34400 -4.07200 44.58600
C  -0.75500 -4.44200 46.14300
C  1.51600 -6.17600 43.49400
C  1.89900 -7.65800 43.79100
N  4.46500 -1.99400 44.43300
C  4.69300 -3.31900 44.74100
C  6.11800 -3.56500 44.75400
C  6.72700 -2.28400 44.48900
C  5.64000 -1.44800 44.09500
C  6.87000 -4.78500 45.16300
C  7.94500 -1.59300 44.36400
O  9.07900 -1.89900 44.81500
C  7.60000 -0.26000 43.58800
C  8.36800 0.81200 44.34300
O  9.44600 1.30200 43.93900
O  7.72700 1.23000 45.46700
C  8.41000 2.33800 46.29000
H  1.56400 2.97600 42.08400
H  -1.49200 -2.48500 43.82900
H  4.11900 -5.27800 45.00900
H  6.32600 2.52200 42.92100
H  3.77600 3.23100 41.41900
H  3.84300 3.92600 44.25100
H  3.59500 5.01900 42.84300
H  5.22800 4.54000 43.36300
H  7.30900 2.11900 40.84400
H  5.74300 2.67300 40.20800
H  4.99000 0.33200 40.16900
H  6.70100 -0.15700 40.59500
H  -2.24600 2.75500 41.60800
H  -0.77200 2.69900 40.71400
H  -0.87000 3.36400 42.31300
H  -3.48900 -2.05100 43.38800
H  -2.95100 -2.49200 41.79400
H  -4.51100 -1.71600 42.10900
H  -0.73200 -4.76800 43.91500
H  1.51800 -5.75700 45.62200
H  -0.17900 -5.02200 46.86400
H  -1.78300 -4.79600 46.21600
H  -0.52200 -3.40800 46.39600
H  2.40200 -5.73600 43.03700
H  0.62400 -6.00500 42.89100
H  1.07300 -8.24200 43.38600
H  2.02100 -7.78900 44.86600
H  2.75300 -7.88000 43.15200
H  7.79800 -4.90400 44.60300
H  6.18100 -5.62700 45.10700
H  7.19200 -4.65800 46.19700
H  7.94600 -0.38200 42.56200
H  8.49000 2.14300 47.35900
H  7.78800 3.22300 46.15300
H  9.40400 2.62500 45.94800
Mg 40.93600 7.95700 29.07800
C  42.53000 9.53500 31.88700
C  38.60600 6.74600 31.28900
C  39.49500 6.47000 26.57500
C  43.49100 9.20900 27.05600
N  40.67300 8.05300 31.43200
C  41.29700 8.96200 32.30600
C  40.70700 8.81500 33.68600
C  39.54700 7.81900 33.42200
C  39.63800 7.43500 31.96400
C  39.60400 6.45700 34.20600
C  40.33000 10.19600 34.22200
C  39.40400 10.18000 35.48400
H  40.01200 11.00400 36.66800
N  39.20900 6.81400 28.96400
C  38.35000 6.44300 29.98500
C  37.30700 5.71600 29.45100
C  37.50100 5.75800 28.03500
C  38.79200 6.33400 27.79300
C  36.13600 5.25900 30.29500
C  36.54300 5.27600 26.98500
O  36.87900 5.46100 25.81100
C  35.19900 4.64400 27.21600
N  41.40500 7.83400 27.01100
C  40.65300 7.10300 26.20800
C  41.28700 7.09300 24.81400
C  42.58600 8.03200 24.91300
C  42.50500 8.41000 26.41600
C  41.59100 5.66600 24.21000
C  42.57800 9.25400 24.02600
C  41.48500 10.37200 24.22300
N  42.74300 8.93400 29.36300
C  43.60900 9.45900 28.44100
C  44.57400 10.31000 29.02100
C  44.18800 10.27500 30.34500
C  43.00100 9.51300 30.51100
C  45.56800 11.09600 28.35700
C  44.57500 10.83800 31.60500
O  45.46000 11.61100 31.97400
C  43.51300 10.35600 32.58200
C  44.05300 9.64700 33.84500
O  44.51100 8.53500 33.87800
O  43.86900 10.43000 34.92600
C  43.97400 9.69000 36.17700
H  37.81100 6.45900 31.98000
H  39.06700 5.98400 25.69600
H  44.21600 9.43800 26.27100
H  41.49300 8.29700 34.23600
H  38.55800 8.26100 33.54400
H  39.31900 5.58700 33.61400
H  38.89000 6.57900 35.02100
H  40.64000 6.20700 34.43700
H  39.82800 10.76700 33.44100
H  41.26000 10.69600 34.49200
H  39.34300 9.15700 35.85500
H  38.34500 10.31800 35.26800
H  36.45700 5.22400 31.33600
H  35.85000 4.23900 30.03600
H  35.22500 5.85400 30.22900
H  34.49600 5.45000 27.42700
H  35.24900 3.98300 28.08100
H  34.99100 4.05800 26.32100
H  40.60000 7.57100 24.11600
H  43.33300 7.27900 24.66000
H  41.54900 5.02100 25.08700
H  42.56000 5.77700 23.72400
H  40.85200 5.32900 23.48200
H  42.45400 8.80400 23.04200
H  43.54700 9.75100 24.04900
H  41.87600 11.23200 24.76700
H  40.71500 9.88700 24.82200
H  40.89600 10.64800 23.34800
H  46.47300 10.49200 28.29300
H  45.65700 12.00800 28.94600
H  45.19700 11.44000 27.39200
H  42.97300 11.19400 33.02200
H  43.65600 10.32400 37.00400
H  45.02700 9.43500 36.29400
H  43.32400 8.81600 36.22200

