158

Mg 47.76000 25.28800 28.42000
C  48.58300 27.43100 31.09700
C  47.42700 22.75700 30.82200
C  46.95600 23.27800 25.87000
C  48.81900 27.85000 26.21900
N  47.84900 25.15400 30.74800
C  48.13000 26.21300 31.61700
C  47.98300 25.75600 33.04000
C  47.83000 24.22100 32.96100
C  47.69400 24.00000 31.45000
C  48.92100 23.33000 33.59900
C  46.84100 26.58900 33.82700
C  47.25400 27.59800 34.85100
H  46.41500 27.86200 36.09100
N  47.38800 23.24200 28.32700
C  47.18600 22.38000 29.39700
C  46.71700 21.10600 28.87600
C  46.58600 21.22700 27.49800
C  46.95500 22.64400 27.15400
C  46.54200 19.95900 29.83900
C  46.16400 20.20000 26.43500
O  46.01300 20.42100 25.25800
C  45.89200 18.82600 27.00200
N  47.89700 25.51400 26.34500
C  47.44500 24.52800 25.47900
C  47.86400 24.94400 24.04200
C  48.17600 26.46800 24.15600
C  48.28500 26.65400 25.62500
C  49.03200 24.08200 23.52900
C  47.09000 27.42100 23.56500
C  46.84400 27.39000 22.06900
N  48.57700 27.22600 28.57200
C  48.98000 28.06100 27.57600
C  49.36300 29.27900 28.18000
C  49.27700 29.10500 29.60500
C  48.72300 27.82800 29.76700
C  49.76300 30.49700 27.40800
C  49.47300 29.65200 30.84400
O  49.95400 30.75900 31.12500
C  49.03700 28.60300 31.91900
C  50.22900 28.25200 32.80900
O  51.08500 27.40000 32.57600
O  50.18800 29.10300 33.85600
C  51.21600 29.08700 34.96300
H  47.28100 22.01900 31.61300
H  46.67300 22.68100 25.00000
H  49.09700 28.67400 25.55900
H  49.01200 25.93600 33.35100
H  46.91400 24.06300 33.52900
H  49.80700 23.88900 33.90000
H  49.26400 22.52600 32.94800
H  48.50700 22.78900 34.45000
H  46.38100 25.74300 34.33700
H  46.11500 26.96400 33.10600
H  47.38600 28.58900 34.41700
H  48.15900 27.22100 35.32800
H  47.03900 20.04600 30.80500
H  46.91400 19.04200 29.38300
H  45.51400 19.69000 30.08100
H  45.38900 18.24100 26.23200
H  45.21200 18.86300 27.85300
H  46.88200 18.37900 27.09300
H  46.96000 24.77500 23.45700
H  49.13700 26.73500 23.71800
H  48.84800 23.55400 22.59400
H  49.35200 23.35100 24.27100
H  49.94100 24.62500 23.27300
H  47.36700 28.46100 23.73800
H  46.10100 27.22300 23.97900
H  47.44400 26.61800 21.58700
H  47.18300 28.32300 21.61900
H  45.79100 27.27000 21.81500
H  50.81400 30.68300 27.63000
H  49.17200 31.31000 27.82800
H  49.47000 30.51900 26.35900
H  48.15800 28.97000 32.44900
H  51.61800 30.07500 35.18800
H  52.12700 28.52100 34.76600
H  50.74600 28.71900 35.87500
Mg 16.62000 51.08800 26.75100
C  18.60500 49.60200 29.40100
C  14.43500 52.25700 29.13100
C  14.62900 52.07800 24.36300
C  18.88900 49.66000 24.44100
N  16.59100 51.07200 29.04900
C  17.44700 50.35200 29.88000
C  17.11700 50.68800 31.35200
C  15.71600 51.35500 31.23700
C  15.54000 51.60100 29.73100
C  14.51100 50.54500 31.76900
C  18.23200 51.52800 32.04600
C  18.32900 51.44900 33.60300
H  17.30500 50.67500 34.42400
N  14.75200 52.05600 26.78500
C  14.05700 52.54400 27.84800
C  12.89200 53.32900 27.36700
C  12.91400 53.27600 25.93700
C  14.09100 52.42600 25.63700
C  11.92500 54.04800 28.28900
C  12.01100 54.10200 24.94700
O  12.20600 54.08700 23.79300
C  10.97600 54.93200 25.49200
N  16.76400 50.90300 24.74200
C  15.78000 51.41800 23.97300
C  16.02300 51.12100 22.42800
C  17.50900 50.57300 22.51100
C  17.72600 50.29100 23.96000
C  14.89600 50.15900 21.98800
C  18.54200 51.68000 21.88600
C  19.40900 52.66400 22.83800
N  18.32600 49.83000 26.86500
C  19.15400 49.39500 25.78700
C  20.32200 48.65400 26.39300
C  20.10700 48.75500 27.80200
C  18.92100 49.46000 28.04000
C  21.36500 47.88200 25.61900
C  20.55800 48.21000 29.03400
O  21.45700 47.43800 29.33000
C  19.71100 48.95800 30.21800
C  19.22800 48.01000 31.21000
O  18.23500 47.32000 31.10800
O  20.05200 47.99700 32.35500
C  19.58700 47.01800 33.35500
H  13.70400 52.60100 29.86600
H  14.08900 52.34700 23.45300
H  19.56500 49.35900 23.63700
H  17.25500 49.67000 31.71700
H  15.76200 52.33100 31.72000
H  14.67500 49.50500 32.05000
H  13.70300 50.48900 31.04000
H  14.09900 51.16000 32.56900
H  17.88500 52.52700 31.78100
H  19.19100 51.23800 31.61700
H  18.45800 52.39900 34.12200
H  19.26500 50.91700 33.76800
H  11.88300 55.13300 28.20200
H  12.18300 53.89800 29.33800
H  10.90200 53.68000 28.21000
H  10.13600 54.37900 25.91200
H  10.53700 55.43800 24.63200
H  11.43300 55.66900 26.15300
H  16.00600 52.03500 21.83300
H  17.62000 49.68000 21.89600
H  14.05700 50.14900 22.68300
H  15.40000 49.19400 21.93300
H  14.48300 50.57900 21.07100
H  18.13600 52.35300 21.13000
H  19.27200 51.02900 21.40400
H  18.91700 52.90200 23.78100
H  19.63000 53.57500 22.28100
H  20.33300 52.09100 22.90900
H  22.07700 47.63200 26.40500
H  21.82500 48.53500 24.87600
H  20.95200 46.96300 25.20400
H  20.42400 49.57900 30.76100
H  19.75100 45.98900 33.03700
H  18.57600 47.09200 33.75700
H  20.11500 47.23000 34.28500

