158

Mg 43.19900 41.55100 26.74500
C  42.36300 43.66800 29.46400
C  44.40000 39.29900 28.84700
C  44.21700 39.77800 24.05700
C  42.76800 44.30400 24.64500
N  43.32400 41.58800 28.90500
C  42.86900 42.43400 29.81000
C  42.98500 41.87000 31.19500
C  43.71100 40.49000 31.04100
C  43.81500 40.40200 29.47700
C  45.13900 40.28400 31.68200
C  41.52600 41.84500 31.95200
C  41.43400 42.64000 33.24000
H  40.90200 42.03900 34.61400
N  44.10000 39.76300 26.46400
C  44.40700 38.91300 27.49900
C  44.87400 37.63600 26.96000
C  44.79700 37.75600 25.58800
C  44.37300 39.11400 25.27900
C  45.45300 36.53700 27.83100
C  45.18300 36.74600 24.53900
O  45.32800 37.02500 23.34200
C  45.66200 35.28300 24.87700
N  43.80600 42.06800 24.60900
C  43.94900 41.09400 23.72000
C  43.89100 41.66300 22.23400
C  43.28200 43.06300 22.47600
C  43.30600 43.17300 23.99300
C  45.28800 41.83700 21.36200
C  41.92200 43.40200 21.81400
C  41.67300 44.89400 21.55800
N  42.55500 43.53100 26.90000
C  42.38200 44.52700 25.95200
C  41.71800 45.74400 26.53800
C  41.71500 45.41400 27.93100
C  42.28900 44.10300 28.10300
C  41.45400 47.07000 25.89200
C  41.51400 45.88200 29.26900
O  41.14800 46.98900 29.60100
C  41.91000 44.81500 30.26700
C  43.00000 45.42900 31.11100
O  44.16300 45.57600 30.74300
O  42.43400 45.77700 32.31300
C  43.43300 46.07200 33.32300
H  44.70600 38.58300 29.61300
H  44.24000 39.14300 23.17000
H  42.52900 45.15400 24.00300
H  43.67300 42.47000 31.79100
H  43.08500 39.68400 31.42200
H  45.89300 40.13300 30.90900
H  44.94800 39.33700 32.18600
H  45.46400 41.02000 32.41700
H  41.25400 40.79400 32.05200
H  40.78100 42.19200 31.23600
H  40.85800 43.52700 32.97600
H  42.43100 42.99400 33.50100
H  45.35400 36.66900 28.90800
H  46.52700 36.41500 27.68600
H  44.93300 35.61500 27.57100
H  46.13800 35.32700 25.85600
H  46.37400 34.93200 24.12900
H  44.82000 34.59400 24.93100
H  43.18900 41.05500 21.66300
H  43.94300 43.84500 22.10200
H  46.05900 41.42200 22.01200
H  45.52200 42.90100 21.32800
H  45.47300 41.30400 20.42900
H  41.18100 43.04500 22.53000
H  41.74400 42.81000 20.91600
H  41.31300 44.98500 20.53300
H  42.55800 45.49200 21.77600
H  40.84600 45.25400 22.17000
H  42.07100 47.13800 24.99700
H  41.59600 47.87900 26.60900
H  40.42500 47.01700 25.53600
H  41.02800 44.52800 30.83900
H  44.12900 45.24800 33.16600
H  43.00000 46.10900 34.32300
H  43.84800 47.07900 33.38400
Mg -12.06600 16.77100 41.47100
C  -8.89700 15.27400 41.19800
C  -10.82000 19.51300 40.17900
C  -15.30100 17.90400 40.96500
C  -13.42900 13.57900 42.37800
N  -10.09400 17.27500 40.71100
C  -8.93600 16.56500 40.72300
C  -7.68700 17.31700 40.14800
C  -8.35700 18.73300 39.89600
C  -9.87800 18.50200 40.28100
C  -7.66200 19.96200 40.61600
C  -7.12100 16.62400 38.88700
C  -5.65200 16.34800 38.89900
H  -5.01700 16.51700 37.49700
N  -12.92800 18.54900 40.72300
C  -12.23600 19.58200 40.28500
C  -13.12900 20.65300 39.90300
C  -14.45200 20.22600 40.09100
C  -14.29600 18.82000 40.58000
C  -12.63700 21.97000 39.41100
C  -15.75500 20.95500 39.62900
O  -15.67300 22.11900 39.15300
C  -17.15900 20.31100 39.55300
N  -14.03600 16.01900 41.80500
C  -15.19300 16.65100 41.48500
C  -16.51500 15.88800 41.87000
C  -15.85900 14.49000 42.39100
C  -14.35500 14.68000 42.18300
C  -17.55300 16.65400 42.80600
C  -16.47600 13.17000 41.60700
C  -16.74300 12.00200 42.54000
N  -11.37900 14.89300 41.88800
C  -11.99300 13.66200 42.27800
C  -10.93100 12.65500 42.46400
C  -9.79300 13.26000 42.01700
C  -10.08800 14.61800 41.63700
C  -11.21800 11.27400 42.98000
C  -8.44200 12.91000 41.73800
O  -7.81800 11.78400 41.80200
C  -7.74300 14.33100 41.35300
C  -6.95700 14.84700 42.55800
O  -7.14300 14.49700 43.75400
O  -5.93600 15.63400 42.13600
C  -4.91400 15.88600 43.14600
H  -10.41200 20.48400 39.89000
H  -16.33500 18.13800 40.70300
H  -13.79500 12.56800 42.56600
H  -6.97800 17.47300 40.96100
H  -8.29200 19.07900 38.86500
H  -8.35400 20.29000 41.39200
H  -7.59900 20.85000 39.98600
H  -6.77300 19.67000 41.17400
H  -7.51200 17.14300 38.01200
H  -7.62100 15.65900 38.80000
H  -5.44200 15.29600 39.09600
H  -5.14100 17.01200 39.59500
H  -13.19800 22.11200 38.48700
H  -11.57200 21.98700 39.18000
H  -12.92300 22.75600 40.11100
H  -17.03200 19.53600 38.79700
H  -17.94700 20.97300 39.19400
H  -17.46400 19.88800 40.51100
H  -17.00900 15.66100 40.92500
H  -15.88100 14.41500 43.47800
H  -17.26000 17.70200 42.86700
H  -17.57500 16.27100 43.82600
H  -18.53000 16.54400 42.33500
H  -15.63400 12.88500 40.97600
H  -17.30400 13.36900 40.92600
H  -17.00500 12.47100 43.48800
H  -15.90800 11.31900 42.69700
H  -17.61100 11.49000 42.12200
H  -11.72900 10.71200 42.19800
H  -11.87400 11.41300 43.83900
H  -10.29100 10.76700 43.24800
H  -7.09600 14.20400 40.48500
H  -4.63000 16.93300 43.03100
H  -3.98700 15.34800 42.94800
H  -5.18400 15.78700 44.19700

