158

Mg 48.57500 45.42400 43.43100
C  45.28500 45.83500 42.23400
C  48.40700 42.21900 42.08300
C  51.94000 45.22400 43.82800
C  48.64400 48.70500 44.58400
N  47.07700 44.25900 42.16000
C  45.75600 44.61600 41.87200
C  45.00400 43.56400 41.03300
C  45.90500 42.31200 41.35400
C  47.24600 42.94200 41.93000
C  45.16000 41.38200 42.34600
C  44.86200 43.93900 39.51300
C  43.60100 43.48800 38.73000
H  43.80700 42.40800 37.74500
N  50.00600 43.95200 42.90900
C  49.69700 42.67700 42.44200
C  50.98300 41.94200 42.33300
C  51.99100 42.82200 42.82400
C  51.32500 44.02100 43.24800
C  51.00700 40.41300 41.87400
C  53.44500 42.45200 42.87600
O  53.85700 41.41100 42.36300
C  54.47300 43.35300 43.44500
N  50.04500 46.68100 44.30700
C  51.34600 46.43800 44.22100
C  52.19800 47.60200 44.76000
C  51.09700 48.67200 45.01500
C  49.87600 47.94200 44.71700
C  53.06400 47.29800 46.07400
C  51.21800 50.02400 44.15300
C  50.69100 51.27600 44.85100
N  47.14300 46.98000 43.60100
C  47.35200 48.24800 44.12300
C  46.19900 49.00300 43.88900
C  45.32400 48.06100 43.19200
C  45.97700 46.85000 43.00300
C  45.96300 50.40300 44.34700
C  44.02300 47.94600 42.60500
O  43.08300 48.74400 42.56700
C  43.85000 46.56400 41.80300
C  42.67200 45.79600 42.13900
O  41.84700 45.42700 41.27400
O  42.57600 45.53500 43.45000
C  41.36000 44.87800 43.92100
H  48.28000 41.16200 41.83600
H  53.02500 45.34000 43.80300
H  48.54100 49.74800 44.88900
H  43.96600 43.55800 41.36600
H  46.13100 41.80100 40.41700
H  45.23000 40.40500 41.86700
H  44.17400 41.81100 42.52400
H  45.59800 41.39800 43.34400
H  45.72700 43.51900 38.99900
H  45.06800 45.00400 39.41000
H  43.20200 44.39400 38.27400
H  42.86600 43.04300 39.40100
H  51.79500 40.14800 41.16900
H  50.09600 40.06900 41.38400
H  51.04400 39.83700 42.79900
H  54.05300 43.78300 44.35400
H  54.75500 44.17400 42.78600
H  55.30200 42.64800 43.51900
H  53.03300 47.82200 44.09500
H  50.99200 48.83900 46.08700
H  53.80700 48.06500 46.29400
H  53.59800 46.35800 45.93100
H  52.46800 47.10300 46.96500
H  50.72700 49.74400 43.22100
H  52.26300 50.13600 43.86400
H  51.38700 52.11200 44.78500
H  50.44300 50.94100 45.85800
H  49.73900 51.51900 44.37900
H  44.89900 50.61100 44.46200
H  46.43800 51.06600 43.62400
H  46.38300 50.54000 45.34400
H  44.00500 46.70500 40.73400
H  41.39600 43.79000 43.86000
H  40.52200 45.23400 43.32200
H  41.15500 45.05100 44.97800
Mg -10.38500 41.05100 40.57500
C  -9.18700 37.76700 39.75400
C  -7.24200 42.19100 39.33200
C  -11.71600 43.95800 39.98500
C  -13.44900 39.60800 41.18200
N  -8.40700 40.03300 39.73200
C  -8.17800 38.72900 39.48800
C  -6.80400 38.45100 38.92900
C  -6.14200 39.86800 39.07900
C  -7.32400 40.76200 39.47400
C  -5.01700 39.96000 40.08600
C  -6.90100 37.95500 37.46300
C  -5.49600 37.61300 36.91600
H  -5.46200 36.63600 35.73800
N  -9.57000 42.88100 39.91700
C  -8.29600 43.14200 39.50500
C  -8.16600 44.54100 39.44800
C  -9.40300 45.07800 39.57300
C  -10.31700 43.97800 39.70500
C  -6.79100 45.13800 39.11100
C  -9.61300 46.58900 39.63900
O  -8.65100 47.32100 39.49500
C  -10.89300 47.29500 39.88200
N  -12.28600 41.71200 40.62800
C  -12.62400 42.98500 40.43000
C  -14.08500 43.28300 40.73300
C  -14.59500 41.88300 41.15900
C  -13.39100 41.01200 40.97600
C  -14.35700 44.54300 41.58800
C  -15.84400 41.50500 40.37400
C  -16.85400 40.72700 41.13000
N  -11.12500 39.03500 40.63700
C  -12.41100 38.63900 40.94000
C  -12.42800 37.23100 40.95400
C  -11.18600 36.76200 40.47900
C  -10.45400 37.95600 40.21700
C  -13.55200 36.28600 41.21400
C  -10.35700 35.63800 40.16300
O  -10.55100 34.44400 40.25400
C  -9.02700 36.28200 39.55600
C  -7.94300 35.82400 40.36900
O  -7.92900 35.92300 41.56700
O  -7.14000 34.96900 39.61800
C  -6.26500 34.08900 40.41800
H  -6.24000 42.54900 39.08400
H  -12.18400 44.93800 39.87200
H  -14.39300 39.08800 41.36200
H  -6.21700 37.65100 39.37900
H  -5.74800 40.21500 38.12400
H  -4.02800 40.04600 39.63500
H  -5.00300 39.10800 40.76600
H  -5.12200 40.77000 40.80800
H  -7.28000 38.69000 36.75200
H  -7.64800 37.18800 37.25600
H  -4.93800 37.24600 37.77700
H  -5.10100 38.61000 36.72100
H  -6.88800 46.07500 38.56200
H  -6.16400 44.52900 38.46000
H  -6.29000 45.33800 40.05800
H  -10.51700 48.29300 40.10500
H  -11.25900 46.80000 40.78200
H  -11.56500 47.19100 39.03000
H  -14.49100 43.46100 39.73700
H  -14.77400 41.93400 42.23300
H  -15.23000 44.36100 42.21400
H  -14.61000 45.34300 40.89300
H  -13.45500 44.84000 42.12500
H  -15.51300 40.97000 39.48400
H  -16.32800 42.40600 39.99600
H  -16.80600 39.71400 40.73100
H  -17.85200 41.16400 41.09000
H  -16.59500 40.72000 42.18800
H  -13.80000 35.58400 40.41900
H  -14.49200 36.74200 41.52800
H  -13.28900 35.68700 42.08600
H  -8.88600 36.07400 38.49600
H  -5.67100 33.48600 39.73100
H  -6.96900 33.46300 40.96600
H  -5.64600 34.70700 41.06800

