158

Mg 35.88900 2.43900 30.48700
C  33.42200 3.33200 32.75400
C  38.27200 2.24700 33.08000
C  38.31200 1.79800 28.21200
C  33.61900 3.16100 27.90500
N  35.81900 2.87100 32.63200
C  34.67200 2.98900 33.40200
C  34.91200 2.99600 34.85700
C  36.55700 2.83200 34.88100
C  36.98900 2.62000 33.42400
C  37.32300 4.01500 35.55400
C  34.04900 1.95300 35.65500
C  33.97700 2.10000 37.21000
H  34.79300 3.16500 37.98600
N  37.97600 2.08700 30.63000
C  38.72100 1.89000 31.76800
C  40.05100 1.42000 31.40400
C  40.12600 1.45900 30.00300
C  38.79600 1.71700 29.52900
C  41.11600 1.01900 32.37400
C  41.42400 1.26500 29.12900
O  41.34700 1.48900 27.92200
C  42.71900 0.72900 29.70600
N  35.92200 2.54400 28.38100
C  37.08700 2.14500 27.73100
C  36.85400 2.37200 26.22600
C  35.31300 2.47300 26.13400
C  34.89000 2.69600 27.51100
C  37.75600 3.49800 25.60000
C  34.47500 1.35600 25.37500
C  34.03100 0.15700 26.18100
N  33.89000 3.04800 30.31300
C  33.13000 3.34100 29.21600
C  31.78200 3.67400 29.64500
C  31.84700 3.74100 31.05300
C  33.12000 3.24500 31.37700
C  30.60100 4.02300 28.78100
C  31.11700 3.99800 32.25800
O  29.99100 4.50200 32.42200
C  32.11500 3.65200 33.42700
C  32.23900 4.81200 34.35300
O  32.80200 5.87800 34.02200
O  31.62700 4.46800 35.54700
C  31.55000 5.45100 36.57200
H  38.88300 2.24400 33.98600
H  39.01600 1.61600 27.39800
H  32.90700 3.33600 27.09600
H  34.68900 4.01300 35.17700
H  36.88800 1.95700 35.44000
H  36.95100 4.01700 36.57900
H  36.94600 4.93100 35.10100
H  38.40700 4.02900 35.44200
H  34.49800 0.96800 35.52800
H  33.07300 1.95100 35.17100
H  34.29000 1.16300 37.67200
H  32.92200 2.11800 37.48300
H  41.93100 1.74200 32.41500
H  41.57600 0.04200 32.22700
H  40.83000 0.93100 33.42300
H  43.36000 0.52500 28.84900
H  42.53600 -0.17800 30.28300
H  43.28600 1.36400 30.38700
H  37.13100 1.43700 25.73800
H  35.01600 3.45100 25.75600
H  37.07000 4.13500 25.04200
H  38.49700 3.13000 24.89100
H  38.18800 4.27900 26.22600
H  35.16500 1.01200 24.60500
H  33.64200 1.86400 24.88900
H  34.41200 -0.70100 25.62800
H  32.94200 0.10000 26.20800
H  34.52300 0.09200 27.15100
H  29.73300 4.10200 29.43500
H  30.42300 3.39600 27.90700
H  30.81400 4.96400 28.27400
H  31.62700 2.85700 33.99200
H  31.85900 6.44300 36.24500
H  31.90000 5.12400 37.55200
H  30.50500 5.65100 36.81100
Mg -10.31900 16.90100 41.65900
C  -6.90600 16.08200 41.40500
C  -9.65200 20.09200 41.13500
C  -13.61900 17.27500 40.99100
C  -11.01200 13.24200 41.58400
N  -8.44600 17.98100 41.45500
C  -7.19500 17.47600 41.33300
C  -6.20800 18.72500 41.03800
C  -7.15500 19.91200 41.65400
C  -8.50900 19.33700 41.46900
C  -6.96800 20.47500 43.09500
C  -5.99700 18.91000 39.51200
C  -4.52100 18.60600 38.98300
H  -4.38400 17.71900 37.74400
N  -11.46700 18.48100 41.11900
C  -10.98800 19.73500 40.91700
C  -11.99200 20.48600 40.43200
C  -13.23100 19.73500 40.39900
C  -12.85500 18.41900 40.84900
C  -11.87900 21.92600 40.14700
C  -14.64100 20.23900 40.00900
O  -14.76900 21.47400 39.88000
C  -15.97000 19.37800 39.96000
N  -12.06800 15.40000 41.48300
C  -13.25700 15.90600 41.22100
C  -14.33200 14.83000 41.35800
C  -13.55400 13.47000 41.28800
C  -12.12900 14.01500 41.43900
C  -15.25300 14.93600 42.60500
C  -13.77700 12.61000 40.04800
C  -13.82500 11.10500 40.24300
N  -9.26900 15.07000 41.74400
C  -9.67400 13.73200 41.68200
C  -8.49200 12.90100 41.79500
C  -7.39400 13.78400 41.64900
C  -7.91800 15.07000 41.59400
C  -8.50700 11.40100 42.01800
C  -5.91900 13.78900 41.51600
O  -5.07700 12.93300 41.55100
C  -5.60200 15.39400 41.39500
C  -4.69400 15.66900 42.47500
O  -3.47000 15.44600 42.33600
O  -5.24800 16.35300 43.55200
C  -4.38200 17.02700 44.49900
H  -9.52200 21.17000 41.02100
H  -14.69900 17.43300 40.95200
H  -11.17200 12.17600 41.41100
H  -5.31700 18.63100 41.66000
H  -6.90200 20.74000 40.99200
H  -5.94900 20.36300 43.46500
H  -7.61700 19.93200 43.78200
H  -7.31100 21.50600 43.00600
H  -6.10900 19.95600 39.22800
H  -6.64000 18.32800 38.85200
H  -3.86700 18.25700 39.78200
H  -4.08100 19.56400 38.70700
H  -12.70300 22.49600 40.57700
H  -11.98000 22.00500 39.06500
H  -11.01800 22.50800 40.47700
H  -15.82300 18.76900 39.06700
H  -16.86700 19.96400 39.76200
H  -16.30000 18.92400 40.89400
H  -14.97500 14.87400 40.47900
H  -13.77900 12.87000 42.16900
H  -14.65100 14.76900 43.49800
H  -15.93300 14.08500 42.59100
H  -15.80700 15.84900 42.82500
H  -12.99300 12.77400 39.30900
H  -14.66900 12.89200 39.48800
H  -13.12400 10.60500 39.57400
H  -14.84800 10.77300 40.06600
H  -13.53500 10.77500 41.24000
H  -9.45800 10.93700 42.28000
H  -7.73000 11.10300 42.72100
H  -8.16900 10.98700 41.06800
H  -4.95400 15.50700 40.52600
H  -4.70600 16.78600 45.51100
H  -4.44700 18.09600 44.29400
H  -3.30900 16.83800 44.48500

