158

Mg 56.36600 24.77200 44.79100
C  53.56200 26.36200 43.56300
C  55.24200 21.75100 43.69000
C  59.36200 23.54200 45.14000
C  57.64900 28.01100 45.51700
N  54.70800 24.14500 43.73900
C  53.69200 24.96600 43.35700
C  52.64200 24.14600 42.49600
C  52.95300 22.75300 43.00700
C  54.40400 22.85800 43.44300
C  52.03200 22.22000 44.07100
C  52.99000 24.18300 40.95500
C  51.76500 24.16000 39.99800
H  51.82100 24.64400 38.55300
N  57.15600 22.81100 44.58100
C  56.52200 21.70400 44.19200
C  57.47300 20.65600 44.35000
C  58.69500 21.11100 44.73900
C  58.44600 22.56200 44.79000
C  57.05000 19.26300 44.01200
C  59.98900 20.26600 44.99500
O  59.93700 19.04700 44.89000
C  61.32600 20.80300 45.40500
N  58.21800 25.63700 45.19600
C  59.35700 24.90400 45.26900
C  60.62600 25.75000 45.55700
C  59.99900 27.15400 45.73800
C  58.48100 26.92700 45.50800
C  61.61600 25.29400 46.52100
C  60.59700 28.35500 44.87100
C  60.38900 28.19900 43.36200
N  55.64400 26.80500 44.88300
C  56.25600 27.99500 45.25300
C  55.24500 29.06800 45.13200
C  54.12700 28.39600 44.45600
C  54.49300 27.07400 44.28700
C  55.44500 30.51900 45.54000
C  52.93500 28.68500 43.80800
O  52.37800 29.73100 43.51300
C  52.36300 27.32300 43.40300
C  51.98500 27.55500 41.95800
O  52.72200 27.57800 41.01800
O  50.61700 27.79100 41.92100
C  49.85200 28.05300 40.67500
H  54.74800 20.79800 43.49200
H  60.38500 23.17400 45.24700
H  58.12300 28.97100 45.73200
H  51.66000 24.55500 42.73200
H  52.99800 21.96900 42.25100
H  51.22600 22.92200 44.28400
H  52.44300 21.90600 45.03100
H  51.44400 21.32200 43.87900
H  53.61400 23.33700 40.66500
H  53.55700 25.07200 40.67700
H  51.03000 24.68200 40.61000
H  51.32500 23.16900 40.11200
H  57.86200 18.95400 43.35400
H  56.12100 19.17500 43.44900
H  56.96100 18.64300 44.90400
H  61.15200 21.19200 46.40800
H  61.50700 21.50200 44.58800
H  62.16300 20.10800 45.45700
H  61.11600 25.73500 44.58400
H  59.98500 27.45900 46.78400
H  61.19900 24.57400 47.22500
H  61.98500 26.20100 46.99900
H  62.39500 24.75300 45.98300
H  61.66100 28.36100 45.10800
H  60.15600 29.30100 45.18200
H  59.76900 27.31400 43.21500
H  61.35500 28.16300 42.85900
H  59.78800 29.05300 43.05200
H  54.84600 31.00100 44.76700
H  56.47300 30.87700 45.59600
H  55.04800 30.77100 46.52300
H  51.43000 26.98400 43.85300
H  49.01000 27.36000 40.66000
H  50.49900 27.65400 39.89500
H  49.42100 29.03700 40.49100
Mg 48.41500 34.33500 27.34500
C  46.92000 33.03600 30.11300
C  49.01100 37.24200 29.14500
C  49.31700 35.78700 24.42000
C  47.53700 31.50700 25.55300
N  48.14500 35.00600 29.51800
C  47.52500 34.28300 30.46800
C  47.64000 35.01700 31.83800
C  47.91200 36.52800 31.29200
C  48.47600 36.24400 29.95200
C  46.65800 37.52300 31.30800
C  48.75100 34.47200 32.67500
C  48.58000 34.52000 34.21100
H  47.51600 35.37400 34.87400
N  49.02300 36.20900 26.82700
C  49.26900 37.25100 27.70900
C  49.98000 38.30700 27.09100
C  49.94800 38.03500 25.67800
C  49.41000 36.63000 25.59300
C  50.41000 39.54100 27.83100
C  50.47600 38.82200 24.49300
O  50.30200 38.43700 23.34400
C  51.06300 40.20800 24.65500
N  48.42300 33.72000 25.28100
C  48.87700 34.48800 24.28800
C  48.76200 33.77300 22.92300
C  48.18400 32.44200 23.31700
C  48.12600 32.51600 24.78300
C  47.96400 34.52200 21.77700
C  48.96900 31.24500 22.76300
C  50.16500 30.58200 23.47600
N  47.41700 32.62500 27.65100
C  47.11700 31.53300 26.89800
C  46.44100 30.56400 27.70300
C  46.21700 31.12300 28.92800
C  46.84500 32.38300 28.85600
C  45.95800 29.19000 27.28400
C  45.58600 30.86400 30.14800
O  44.90000 29.89300 30.60600
C  45.90000 32.18900 30.99600
C  46.20100 31.80300 32.40000
O  47.23300 31.23600 32.85300
O  45.06500 32.21900 33.09200
C  44.80900 31.75500 34.44100
H  49.26100 38.15600 29.68900
H  49.66900 36.26400 23.50300
H  47.43900 30.52100 25.09400
H  46.73000 34.78600 32.39100
H  48.71800 36.99100 31.86100
H  46.45000 37.78700 30.27100
H  47.03300 38.43000 31.78300
H  45.79500 37.14900 31.85900
H  49.67100 34.99700 32.41600
H  48.83300 33.41400 32.42700
H  49.63600 34.66100 34.43900
H  48.39700 33.47200 34.44700
H  50.72000 39.25100 28.83500
H  49.61700 40.27100 27.99800
H  51.28300 40.05900 27.43400
H  50.33200 40.92200 25.03500
H  51.61900 40.60200 23.80500
H  51.80300 40.15600 25.45400
H  49.77100 33.57800 22.56000
H  47.15800 32.40300 22.95200
H  48.65100 34.57500 20.93300
H  47.55700 35.50900 21.99600
H  47.08200 33.94500 21.49900
H  49.27700 31.47100 21.74300
H  48.20600 30.46700 22.73000
H  50.43400 31.14700 24.36800
H  50.98700 30.49800 22.76400
H  49.91500 29.54700 23.70800
H  46.35300 28.91000 26.30700
H  44.87900 29.13200 27.14100
H  46.27500 28.40900 27.97500
H  44.96700 32.74500 30.90600
H  44.70600 32.66700 35.02900
H  45.50800 31.04800 34.88900
H  43.87300 31.24700 34.20800

