158

Mg 8.78500 48.08200 27.50500
C  6.76200 47.84600 30.41600
C  11.56100 48.00900 29.52300
C  10.63000 48.60300 24.80000
C  5.85800 48.61200 25.55000
N  9.03500 48.33700 29.78500
C  8.11100 47.95200 30.79300
C  8.76200 47.71200 32.18600
C  10.27000 48.06300 31.81300
C  10.32800 48.17200 30.24500
C  10.75300 49.30600 32.54600
C  8.72400 46.27600 32.82400
C  9.83400 45.83400 33.83700
H  9.39300 45.47200 35.24300
N  10.80100 48.28900 27.20400
C  11.76900 48.12900 28.16000
C  13.07200 48.23000 27.52500
C  12.83900 48.25400 26.15100
C  11.37500 48.25000 25.94000
C  14.37500 48.32600 28.37200
C  13.81900 48.14100 25.05400
O  13.55000 48.09900 23.86800
C  15.27500 48.14300 25.41000
N  8.25500 48.59000 25.48200
C  9.25200 48.74800 24.55900
C  8.68700 49.15200 23.19000
C  7.15600 48.91900 23.33500
C  7.05400 48.72400 24.82200
C  9.10900 50.57800 22.72900
C  6.68600 47.70500 22.45300
C  7.03900 46.30100 22.84500
N  6.76000 48.20000 27.90500
C  5.68700 48.34400 26.97700
C  4.47400 48.18400 27.72700
C  4.85000 48.00000 29.02900
C  6.25300 47.94400 29.10900
C  3.05200 48.18600 27.25900
C  4.29100 47.66600 30.34300
O  3.13600 47.64100 30.75900
C  5.55200 47.53800 31.27300
C  5.54000 46.17200 31.92100
O  5.95000 45.12200 31.45500
O  5.16000 46.25500 33.20700
C  5.23000 45.04900 33.96700
H  12.46000 47.80000 30.10800
H  11.24800 48.67300 23.90300
H  5.01400 48.81000 24.88500
H  8.37200 48.35900 32.97200
H  10.91800 47.20800 32.00400
H  10.78000 50.05900 31.75900
H  11.72700 49.17400 33.01700
H  10.12700 49.66300 33.36400
H  8.63900 45.56200 32.00500
H  7.84500 46.28700 33.46900
H  10.47900 46.68800 34.04300
H  10.33400 44.94700 33.44900
H  14.99000 47.43400 28.25700
H  14.32300 48.53200 29.44100
H  14.97000 49.16100 28.00100
H  15.55700 49.09300 25.86400
H  15.93400 48.10200 24.54300
H  15.50200 47.31400 26.08000
H  9.14300 48.42500 22.51700
H  6.63500 49.79700 22.95500
H  8.23600 51.23000 22.70200
H  9.42700 50.61100 21.68800
H  9.96200 50.92600 23.31100
H  7.06200 47.77300 21.43200
H  5.60300 47.82200 22.42000
H  6.20200 45.67500 23.15200
H  7.93500 46.28800 23.46600
H  7.40400 45.74800 21.97900
H  2.89600 47.33000 26.60300
H  2.71400 49.12000 26.80900
H  2.36700 47.88500 28.05200
H  5.37000 48.21700 32.10600
H  5.46000 45.19200 35.02300
H  6.06000 44.37900 33.74400
H  4.32700 44.45700 33.82000
Mg -11.24400 38.98200 42.20600
C  -10.17500 35.65400 41.74200
C  -8.33900 39.93800 40.58000
C  -12.42000 42.06400 42.26200
C  -14.41100 37.68800 43.23300
N  -9.48900 37.83200 41.09600
C  -9.23000 36.49700 41.11000
C  -7.89800 36.19300 40.45700
C  -7.30600 37.58400 39.99600
C  -8.44900 38.52700 40.58400
C  -5.97000 37.98300 40.69900
C  -7.97600 35.28800 39.18200
C  -6.73400 34.33600 38.87100
H  -5.84100 34.93900 37.82800
N  -10.47700 40.70800 41.57800
C  -9.25300 40.94900 40.99800
C  -8.95600 42.43100 40.94100
C  -10.07000 42.99000 41.58800
C  -11.07400 41.93900 41.79200
C  -7.69300 43.07100 40.41300
C  -10.27100 44.45300 41.95000
O  -9.54000 45.33300 41.49100
C  -11.35300 44.89400 42.90000
N  -13.12400 39.75100 42.78700
C  -13.41200 41.06400 42.65000
C  -14.90800 41.43200 42.94700
C  -15.49000 40.02600 43.33100
C  -14.30500 39.08100 43.15200
C  -15.11600 42.44600 44.11100
C  -16.71500 39.51900 42.37800
C  -18.08000 39.33100 43.09200
N  -12.09800 37.12300 42.68700
C  -13.39600 36.75700 43.04100
C  -13.49000 35.33900 43.18400
C  -12.26800 34.90900 42.72400
C  -11.45000 35.99300 42.36700
C  -14.69200 34.58300 43.56100
C  -11.49500 33.73700 42.49500
O  -11.69200 32.59700 42.70400
C  -10.10700 34.10800 41.83900
C  -8.88000 33.63100 42.57400
O  -8.78200 33.63500 43.76600
O  -7.95700 33.18600 41.72200
C  -6.63700 32.94700 42.46000
H  -7.38300 40.36100 40.26300
H  -12.81700 43.08100 42.23200
H  -15.39400 37.23900 43.38800
H  -7.34100 35.68000 41.24100
H  -7.19100 37.66400 38.91500
H  -6.10900 38.62500 41.56800
H  -5.47900 38.44500 39.84300
H  -5.34800 37.14400 41.01300
H  -8.16800 35.85100 38.26900
H  -8.90000 34.70900 39.16700
H  -7.04600 33.31400 38.65500
H  -6.16000 34.33700 39.79700
H  -7.50200 44.04200 40.86900
H  -7.83300 43.25700 39.34800
H  -6.84000 42.48500 40.75500
H  -11.49400 44.15400 43.68700
H  -12.15600 45.02300 42.17400
H  -11.03900 45.74100 43.51000
H  -15.27100 41.81700 41.99400
H  -15.77500 40.00300 44.38300
H  -15.81100 41.98200 44.81200
H  -15.45100 43.41400 43.73600
H  -14.17700 42.60600 44.64100
H  -16.42000 38.62300 41.83300
H  -16.76700 40.35600 41.68200
H  -18.05100 39.53900 44.16200
H  -18.36700 38.29000 42.94200
H  -18.89600 39.98500 42.78400
H  -14.77000 34.17900 44.57000
H  -14.66200 33.68200 42.94900
H  -15.67200 34.94700 43.25400
H  -10.08300 33.73500 40.81500
H  -6.38600 31.89200 42.34700
H  -6.52200 33.28600 43.49000
H  -5.88600 33.39900 41.81300

