158

Mg 27.36600 49.96600 26.54800
C  25.57600 51.31600 29.18800
C  29.91900 49.14700 28.80200
C  29.16000 48.88000 23.96300
C  25.10300 51.32100 24.37100
N  27.61700 50.19000 28.81300
C  26.68100 50.66800 29.70200
C  27.16100 50.46500 31.15500
C  28.61700 49.84800 30.92700
C  28.71400 49.68400 29.41600
C  29.64200 50.89400 31.41800
C  26.26100 49.54700 32.06000
C  25.90400 50.28900 33.39700
H  26.89400 50.05900 34.60100
N  29.28700 49.00900 26.39200
C  30.14400 48.77700 27.36800
C  31.25300 48.09400 26.77900
C  30.98800 47.83000 25.43400
C  29.76700 48.58300 25.17000
C  32.31800 47.60100 27.74700
C  31.76000 46.98100 24.48200
O  31.44400 46.88100 23.31400
C  32.89900 46.03900 25.00400
N  27.27800 50.26400 24.46900
C  28.07300 49.61800 23.63300
C  27.58300 49.79700 22.16200
C  26.20300 50.40300 22.32100
C  26.17900 50.70000 23.79600
C  28.49900 50.52300 21.17400
C  24.98600 49.63000 21.77000
C  24.82700 48.14100 22.29900
N  25.62900 51.03800 26.70500
C  24.79500 51.50200 25.69100
C  23.63100 52.11700 26.31100
C  23.91100 52.06600 27.71600
C  25.14100 51.46800 27.87300
C  22.42200 52.67100 25.67400
C  23.37200 52.42500 29.01500
O  22.25100 52.92800 29.29100
C  24.36000 51.85100 30.06500
C  24.66100 52.97100 30.94600
O  25.66400 53.72500 30.88100
O  23.77000 53.02800 32.01000
C  24.05800 53.99600 33.06700
H  30.67300 48.85000 29.53400
H  29.68100 48.45200 23.10400
H  24.33400 51.71000 23.69900
H  27.22100 51.47400 31.56200
H  28.76700 48.86800 31.38000
H  29.25200 51.38500 32.31000
H  29.82400 51.62300 30.62800
H  30.50300 50.28400 31.68900
H  26.85000 48.72500 32.46800
H  25.32100 49.24900 31.59400
H  24.90300 49.96500 33.68400
H  25.91000 51.35100 33.15500
H  32.07700 46.56800 27.99700
H  32.24800 48.13700 28.69300
H  33.35800 47.68400 27.43000
H  33.86200 46.52600 25.16200
H  32.97400 45.29900 24.20800
H  32.59600 45.47300 25.88500
H  27.34800 48.75500 21.94400
H  26.23300 51.36000 21.80000
H  28.11200 51.46500 20.78700
H  28.85900 49.82900 20.41300
H  29.38000 50.93200 21.66900
H  24.98900 49.53800 20.68400
H  24.08100 50.15900 22.06800
H  23.78100 48.04000 22.58700
H  25.42600 48.02900 23.20300
H  24.98300 47.29700 21.62800
H  21.95000 52.02500 24.93500
H  22.68000 53.56700 25.10800
H  21.66400 52.94800 26.40700
H  23.91400 51.18300 30.80100
H  24.94900 53.70800 33.62600
H  23.25500 54.04200 33.80300
H  24.28000 55.01000 32.73500
Mg 0.70200 44.02000 26.15700
C  2.11400 43.92200 29.24000
C  -2.42500 43.16600 27.47800
C  -0.63300 44.13200 23.05300
C  3.89200 44.64000 24.75100
N  0.00800 43.43200 28.06400
C  0.81000 43.55200 29.25100
C  -0.04000 43.57900 30.57200
C  -1.45800 43.17300 30.00200
C  -1.34700 43.28900 28.40200
C  -2.03300 41.85700 30.54900
C  -0.03400 44.95100 31.34800
C  -0.16600 44.84500 32.86200
H  -0.38400 43.51400 33.68400
N  -1.22200 43.63800 25.39200
C  -2.34800 43.28800 26.17500
C  -3.50700 43.22900 25.29700
C  -3.06200 43.63900 23.99000
C  -1.58900 43.82700 24.08800
C  -4.94100 42.86100 25.86000
C  -3.85300 43.98900 22.71800
O  -3.34300 44.38800 21.71300
C  -5.37100 44.00900 22.71300
N  1.51000 44.18300 24.16500
C  0.78300 44.23600 23.02900
C  1.55300 44.67700 21.79600
C  2.95100 45.09000 22.42600
C  2.82000 44.60000 23.86800
C  1.65000 43.62800 20.77800
C  3.14700 46.62400 22.34500
C  2.88400 47.47900 21.09200
N  2.62100 44.30800 26.78800
C  3.84500 44.44200 26.11900
C  4.86700 44.47500 27.12800
C  4.24300 44.27200 28.33800
C  2.92300 44.12700 28.05000
C  6.38200 44.65600 26.89000
C  4.54600 44.08000 29.69500
O  5.56000 44.21200 30.38900
C  3.12000 43.85000 30.38300
C  3.16400 42.59600 31.16200
O  2.85100 41.45600 30.77400
O  3.68400 42.80100 32.48700
C  3.92800 41.62300 33.31700
H  -3.39000 43.10500 27.98700
H  -1.05800 44.26100 22.05500
H  4.91900 44.75800 24.40000
H  0.31700 42.87100 31.32000
H  -2.20600 43.92400 30.25500
H  -1.12700 41.30800 30.80600
H  -2.51200 41.25600 29.77600
H  -2.77700 42.12900 31.29800
H  -0.93500 45.50800 31.09000
H  0.74900 45.65200 31.05800
H  -0.95500 45.50800 33.21800
H  0.67600 45.36800 33.31600
H  -4.82400 41.98900 26.50300
H  -5.54400 42.66700 24.97200
H  -5.26700 43.68300 26.49700
H  -5.79400 43.03700 22.46000
H  -5.58000 44.62600 21.83900
H  -5.82400 44.39100 23.62800
H  1.13000 45.52500 21.25700
H  3.80000 44.61700 21.93200
H  1.10200 42.72200 21.03600
H  2.68400 43.44100 20.48800
H  1.21700 44.05000 19.87200
H  4.21900 46.77900 22.47400
H  2.66500 47.06900 23.21600
H  3.83800 47.95100 20.85900
H  2.08100 48.18100 21.31500
H  2.57900 46.79200 20.30200
H  6.89000 43.75300 26.55100
H  6.61800 45.10700 27.85300
H  6.54100 45.42700 26.13600
H  2.93000 44.64600 31.10200
H  3.06700 40.96200 33.22500
H  3.98000 42.00600 34.33600
H  4.88000 41.18300 33.01700

