158

Mg 8.69500 4.20300 27.90400
C  9.97300 2.56600 30.84600
C  6.94300 6.35400 30.04700
C  7.40000 5.60700 25.24500
C  10.27900 1.82400 25.98300
N  8.47700 4.46500 30.18900
C  9.12300 3.68000 31.09100
C  8.85300 4.20500 32.51700
C  7.67800 5.27800 32.31600
C  7.74800 5.44900 30.76000
C  6.30500 4.75600 32.74200
C  10.10800 4.89500 33.13900
C  10.50700 4.26800 34.52400
H  10.89200 5.15900 35.72000
N  7.37800 5.79900 27.70000
C  6.79800 6.59900 28.66300
C  6.01200 7.65000 28.03000
C  6.12200 7.47400 26.56800
C  6.95300 6.24100 26.41900
C  5.27000 8.80800 28.75800
C  5.44400 8.08200 25.38100
O  5.52400 7.65800 24.24800
C  4.58600 9.30000 25.71800
N  8.71400 3.70300 25.92200
C  8.14600 4.49000 24.99100
C  8.47500 3.98100 23.53900
C  9.65800 2.96400 23.71800
C  9.53000 2.76500 25.28300
C  7.25800 3.44100 22.79200
C  11.06700 3.44900 23.32500
C  11.93900 2.37100 22.51500
N  9.78200 2.48000 28.24900
C  10.40700 1.61500 27.37600
C  11.28000 0.72700 28.12700
C  11.15600 1.08900 29.47600
C  10.21400 2.18000 29.48000
C  12.15600 -0.34100 27.60900
C  11.63700 0.80400 30.82300
O  12.50300 0.05000 31.24800
C  10.92400 1.79900 31.70400
C  10.14700 0.98900 32.70500
O  9.21100 0.26900 32.35400
O  10.73200 1.15100 33.91300
C  10.17500 0.31000 34.99200
H  6.40700 6.96500 30.77700
H  7.06800 6.01700 24.28800
H  10.90100 1.22200 25.31700
H  8.45600 3.39500 33.12900
H  7.91600 6.26400 32.71400
H  6.40400 3.72500 33.08300
H  5.68400 4.67900 31.84900
H  5.89800 5.38500 33.53300
H  9.96300 5.97400 33.20000
H  10.94700 4.91600 32.44300
H  11.43500 3.74000 34.30600
H  9.80700 3.52000 34.89600
H  5.81600 9.75100 28.74500
H  5.08700 8.62900 29.81800
H  4.28100 8.96400 28.32500
H  3.73000 9.02900 26.33600
H  4.15400 9.60800 24.76600
H  5.27300 10.05000 26.11000
H  8.71400 4.75900 22.81300
H  9.53200 1.96300 23.30400
H  7.50900 2.48700 22.32800
H  7.23100 4.15700 21.97000
H  6.35700 3.51700 23.40100
H  11.51200 3.78200 24.26200
H  11.03200 4.35000 22.71300
H  12.21700 2.74900 21.53100
H  11.45200 1.40700 22.65800
H  12.91300 2.28200 22.99500
H  12.61900 -0.07500 26.65900
H  11.57200 -1.25900 27.66000
H  13.01300 -0.39200 28.28200
H  11.62900 2.49600 32.15700
H  9.23200 -0.18400 34.75900
H  9.96700 1.00300 35.80700
H  10.92000 -0.42200 35.30500
Mg 24.38700 -5.53900 45.77900
C  26.55500 -3.57200 43.87400
C  21.92600 -4.93700 43.40200
C  22.65900 -8.15100 46.92300
C  27.23800 -6.75100 47.52700
N  24.27800 -4.46200 43.80900
C  25.28400 -3.64100 43.31500
C  24.86600 -2.95300 42.06400
C  23.32600 -3.20800 41.96400
C  23.14100 -4.26200 43.10900
C  22.49300 -1.89400 41.91900
C  25.72200 -3.33600 40.77600
C  26.46100 -2.12000 40.24000
H  26.17300 -1.69500 38.85200
N  22.51500 -6.32700 45.33600
C  21.63400 -5.88900 44.36200
C  20.39500 -6.59400 44.42600
C  20.57200 -7.56900 45.50400
C  21.98400 -7.39200 45.97700
C  19.13200 -6.31300 43.63200
C  19.46300 -8.47000 45.97100
O  18.35000 -8.52300 45.47600
C  19.67600 -9.18400 47.31300
N  24.87200 -7.31000 46.91000
C  23.95300 -8.14400 47.36000
C  24.48200 -9.15400 48.35800
C  25.92100 -8.69200 48.63400
C  26.01100 -7.42400 47.63500
C  23.56400 -9.36600 49.57600
C  27.09400 -9.71000 48.23800
C  28.16100 -9.95000 49.40900
N  26.51300 -5.11000 45.85500
C  27.45700 -5.56700 46.70200
C  28.71100 -4.84400 46.41700
C  28.36400 -4.01500 45.29900
C  27.07200 -4.26400 44.96700
C  30.06600 -5.13700 47.07900
C  28.88400 -3.12100 44.39500
O  30.02600 -2.63000 44.27700
C  27.73000 -2.70600 43.45200
C  27.50100 -1.23900 43.67000
O  26.91900 -0.66800 44.60600
O  28.12500 -0.50200 42.64100
C  28.37300 0.96400 42.88400
H  21.08300 -4.69600 42.75100
H  22.04600 -8.95400 47.33700
H  28.03000 -7.16800 48.15300
H  24.82400 -1.88100 42.26000
H  23.05100 -3.81600 41.10200
H  21.65400 -2.05600 42.59600
H  22.12000 -1.85300 40.89500
H  23.03900 -0.96600 42.08300
H  25.05200 -3.78200 40.04200
H  26.42300 -4.13600 41.01300
H  27.52100 -2.34000 40.37200
H  26.25800 -1.21800 40.81700
H  19.44900 -5.85400 42.69600
H  18.43900 -5.62600 44.11900
H  18.52800 -7.20500 43.46900
H  18.72800 -9.56700 47.69300
H  20.14000 -8.47500 47.99900
H  20.36500 -10.02500 47.24400
H  24.52100 -10.15400 47.92400
H  25.95200 -8.25500 49.63200
H  23.25300 -10.40900 49.64900
H  22.78300 -8.60600 49.60200
H  24.19400 -9.30400 50.46300
H  27.54400 -9.48600 47.27100
H  26.50200 -10.62200 48.15300
H  27.84400 -9.45200 50.32500
H  29.09300 -9.50600 49.06000
H  28.22000 -11.02400 49.58700
H  29.92100 -4.93100 48.14000
H  30.87400 -4.49700 46.72600
H  30.36700 -6.18100 46.99100
H  28.00800 -2.97300 42.43300
H  28.70900 1.30900 41.90600
H  29.22100 1.04000 43.56600
H  27.60500 1.63200 43.27500

