158

Mg 2.60600 -3.04100 44.66900
C  5.93000 -2.18500 44.44200
C  1.75500 -0.82300 42.36100
C  -0.52900 -4.23300 44.94600
C  3.71500 -5.68200 46.83100
N  3.75300 -1.75100 43.43400
C  5.08200 -1.51600 43.50900
C  5.57500 -0.39100 42.50400
C  4.21800 0.06700 41.88000
C  3.16100 -0.80700 42.67900
C  3.77500 1.55900 41.96400
C  6.62900 -0.93800 41.43600
C  7.85300 -0.11300 41.15000
H  7.94100 0.37000 39.60500
N  0.81100 -2.72200 43.62000
C  0.67000 -1.58500 42.86700
C  -0.71600 -1.51800 42.39800
C  -1.44300 -2.51800 43.19700
C  -0.40000 -3.14300 44.03100
C  -1.29900 -0.48600 41.33000
C  -2.97300 -2.72600 43.25900
O  -3.74900 -2.21000 42.45900
C  -3.61600 -3.52200 44.31500
N  1.66200 -4.80800 45.70300
C  0.38100 -5.00900 45.63400
C  -0.03600 -6.28700 46.33400
C  1.35100 -6.89100 46.73400
C  2.36100 -5.76400 46.42100
C  -0.97800 -5.92300 47.49900
C  1.71100 -8.27900 45.96400
C  1.50900 -9.61800 46.67600
N  4.40700 -3.77100 45.59000
C  4.65300 -4.80400 46.39000
C  5.99600 -4.74400 46.82600
C  6.58300 -3.67400 46.11400
C  5.56600 -3.25400 45.26200
C  6.57600 -5.68000 47.76100
C  7.81600 -2.98600 45.79400
O  8.94100 -3.08300 46.28600
C  7.43600 -1.92800 44.74900
C  7.53500 -0.52200 45.27300
O  7.03400 -0.05700 46.28200
O  8.39500 0.18700 44.46700
C  8.65100 1.62000 44.85100
H  1.50900 -0.18600 41.51000
H  -1.48500 -4.71800 45.15100
H  3.99300 -6.47200 47.53200
H  6.06100 0.34400 43.14500
H  4.23300 -0.24600 40.83600
H  3.55800 1.97500 40.98100
H  4.65600 2.05500 42.37200
H  2.89600 1.76500 42.57400
H  6.10900 -1.35300 40.57300
H  7.01500 -1.90200 41.76700
H  8.73800 -0.65400 41.48500
H  7.90000 0.81400 41.72000
H  -1.73700 0.30200 41.94300
H  -2.20600 -0.89100 40.88100
H  -0.56300 -0.05000 40.65500
H  -3.43300 -4.54500 43.98700
H  -4.68700 -3.32300 44.27800
H  -3.22500 -3.28000 45.30300
H  -0.56900 -6.90000 45.60800
H  1.47400 -6.98800 47.81300
H  -0.86400 -6.65300 48.30000
H  -2.01300 -6.17200 47.26400
H  -0.95400 -4.87600 47.80100
H  2.71200 -8.16100 45.55000
H  1.09500 -8.22200 45.06600
H  1.33500 -9.48400 47.74400
H  2.41600 -10.16300 46.41700
H  0.67300 -10.13700 46.20600
H  6.84200 -6.50400 47.09800
H  5.90700 -5.96400 48.57300
H  7.42300 -5.33700 48.35500
H  8.13900 -2.16900 43.95200
H  8.31600 1.96700 45.82800
H  8.12600 2.27400 44.15600
H  9.68400 1.96200 44.78200
Mg -10.06600 37.32300 42.33600
C  -7.91600 34.81500 41.53100
C  -7.94900 39.71200 41.30100
C  -12.55400 39.79100 42.68700
C  -12.58800 34.96600 42.84000
N  -8.12300 37.24500 41.58300
C  -7.43200 36.10300 41.22900
C  -6.07700 36.47800 40.65900
C  -5.97000 38.04400 40.72800
C  -7.44300 38.38000 41.28300
C  -4.79500 38.67200 41.56700
C  -5.91900 35.95100 39.20000
C  -4.50100 35.57700 38.78600
H  -4.05200 35.99900 37.31800
N  -10.22400 39.48500 42.01700
C  -9.19500 40.24800 41.62500
C  -9.53900 41.57800 41.50500
C  -10.81400 41.67700 42.15000
C  -11.24700 40.24700 42.36000
C  -8.62900 42.62200 40.92500
C  -11.61600 42.94300 42.48000
O  -11.08800 44.04000 42.18800
C  -12.93700 42.96000 43.25400
N  -12.21300 37.40500 42.81500
C  -12.98200 38.47600 42.77100
C  -14.44300 38.13300 42.86100
C  -14.51500 36.61300 42.84600
C  -13.00300 36.31000 42.79600
C  -15.11200 38.67200 44.17800
C  -15.35300 36.01500 41.72800
C  -16.18700 34.74000 42.11800
N  -10.21000 35.29900 42.40100
C  -11.23300 34.46000 42.71100
C  -10.75100 33.10300 42.73700
C  -9.45500 33.21200 42.15000
C  -9.20900 34.57200 42.05900
C  -11.42400 31.86100 43.16000
C  -8.39200 32.47800 41.57700
O  -8.28900 31.30500 41.24400
C  -7.27600 33.47000 41.24000
C  -6.00500 33.21800 42.09400
O  -5.05800 32.49000 41.75000
O  -5.99800 33.96100 43.25100
C  -4.73600 34.07500 44.03800
H  -7.23000 40.47500 40.99700
H  -13.28200 40.60500 42.66900
H  -13.40800 34.24500 42.81300
H  -5.33900 36.10100 41.36700
H  -5.85000 38.56200 39.77700
H  -3.92600 38.01900 41.64800
H  -5.14800 38.96500 42.55600
H  -4.38200 39.49100 40.97800
H  -6.27600 36.76500 38.56800
H  -6.50700 35.04100 39.07800
H  -4.36800 34.49900 38.87200
H  -3.77500 36.04900 39.44800
H  -8.60200 42.75800 39.84400
H  -7.59700 42.38600 41.18400
H  -8.83800 43.62200 41.30500
H  -13.08800 43.92300 43.74000
H  -12.87700 42.30300 44.12200
H  -13.69600 42.63400 42.54300
H  -14.91700 38.46600 41.93800
H  -14.93800 36.21900 43.77000
H  -14.44100 39.17900 44.87100
H  -15.67800 37.90600 44.70900
H  -15.87100 39.38600 43.85900
H  -14.79400 35.72400 40.83900
H  -16.06300 36.77700 41.40800
H  -17.24800 34.89800 41.92800
H  -16.07400 34.48900 43.17300
H  -15.83100 33.98000 41.42300
H  -11.33600 31.75000 44.24100
H  -11.00400 31.05100 42.56300
H  -12.50200 31.99600 43.08000
H  -7.05300 33.43100 40.17400
H  -3.89700 33.78000 43.40700
H  -4.84900 33.49900 44.95600
H  -4.42200 35.10700 44.19300

