158

Mg 8.12400 2.48900 28.40100
C  9.55800 1.03900 31.25900
C  6.48100 4.72700 30.36500
C  6.16100 3.32100 25.77000
C  9.35200 -0.31100 26.46000
N  7.93000 2.73900 30.62100
C  8.68700 2.09900 31.59200
C  8.54500 2.79300 32.93600
C  7.35200 3.83500 32.58800
C  7.24800 3.82700 31.09700
C  6.00400 3.53100 33.27600
C  9.79300 3.44000 33.56700
C  10.39800 2.76300 34.82100
H  10.79100 3.72800 35.89800
N  6.76700 4.04900 27.99400
C  6.21600 4.90900 28.93800
C  5.27100 5.78800 28.24300
C  5.23800 5.42800 26.85600
C  6.11500 4.28500 26.83500
C  4.47200 6.97200 28.93300
C  4.44600 6.04700 25.63000
O  4.47900 5.68300 24.46900
C  3.51100 7.26400 25.84800
N  7.85200 1.61900 26.38800
C  6.92500 2.17400 25.58400
C  7.13000 1.59300 24.12100
C  8.00500 0.35500 24.37900
C  8.39400 0.55700 25.84800
C  5.87700 1.12400 23.37500
C  9.07700 0.08900 23.26200
C  9.02800 -1.18400 22.37800
N  9.23900 0.77100 28.73600
C  9.65700 -0.23600 27.83600
C  10.48600 -1.20800 28.60600
C  10.48800 -0.70300 29.89300
C  9.70900 0.45900 29.94900
C  11.29800 -2.33400 28.02500
C  10.93400 -0.95900 31.31200
O  11.74200 -1.75300 31.80100
C  10.32400 0.15200 32.17600
C  9.43800 -0.58800 33.16100
O  8.31600 -1.00100 32.97800
O  10.12300 -0.63600 34.34600
C  9.38500 -1.41400 35.41200
H  6.09400 5.54000 30.98200
H  5.60800 3.63200 24.88100
H  9.73600 -1.05700 25.76000
H  8.20800 2.16400 33.76000
H  7.63700 4.79500 33.01800
H  6.09000 2.47300 33.52200
H  5.21800 3.47200 32.52300
H  5.78500 4.36700 33.94000
H  9.71100 4.51600 33.71900
H  10.57700 3.36400 32.81300
H  11.29100 2.25500 34.45500
H  9.75500 1.96800 35.19700
H  4.81800 7.94200 28.57600
H  4.85400 7.05400 29.95000
H  3.43100 6.89300 28.62000
H  2.75100 7.06100 26.60300
H  2.93900 7.55800 24.96800
H  4.10300 8.08900 26.24500
H  7.68300 2.23900 23.43900
H  7.34300 -0.50700 24.45800
H  5.07800 1.33800 24.08600
H  5.77300 0.10700 22.99900
H  5.72100 1.93500 22.66300
H  10.09300 0.20600 23.63800
H  9.03000 0.83500 22.46800
H  8.95300 -0.98700 21.30800
H  8.15900 -1.80400 22.59800
H  9.92800 -1.78900 22.48400
H  12.02400 -2.03600 27.26900
H  10.75200 -3.17600 27.59800
H  11.80800 -2.67400 28.92600
H  11.23200 0.62200 32.55300
H  8.88500 -2.27300 34.96500
H  8.60300 -0.83400 35.90000
H  9.98200 -1.85600 36.21000
Mg 39.97500 10.09500 30.02100
C  41.98600 11.02200 32.78000
C  37.82200 8.63200 32.22900
C  38.61400 8.67000 27.42900
C  42.72200 11.19000 27.90500
N  39.91300 9.85000 32.29200
C  40.80100 10.46900 33.20900
C  40.19200 10.37400 34.63600
C  38.96700 9.36300 34.48200
C  38.92900 9.25500 32.92700
C  39.14800 7.94900 35.10700
C  39.76100 11.76900 34.99200
C  40.55400 12.36800 36.13600
H  39.84000 13.17700 37.18800
N  38.30100 8.94900 29.87300
C  37.52100 8.49700 30.89500
C  36.40200 7.79600 30.33800
C  36.59200 7.84000 28.85400
C  37.88100 8.42900 28.67200
C  35.48200 6.98600 31.19200
C  35.70200 7.33900 27.88600
O  35.90600 7.43100 26.63900
C  34.38000 6.75400 28.29200
N  40.58700 9.93000 27.96800
C  39.80200 9.31300 27.08900
C  40.29700 9.39700 25.61000
C  41.63000 10.24800 25.80900
C  41.64600 10.52500 27.33400
C  40.48100 8.07400 24.86600
C  41.63100 11.63000 25.06400
C  40.97600 11.72900 23.75400
N  41.99100 10.77100 30.24200
C  42.90900 11.23400 29.30000
C  43.97800 11.80900 29.89000
C  43.63200 11.90300 31.28400
C  42.46200 11.12400 31.44500
C  45.28200 12.31000 29.31700
C  44.12500 12.22800 32.61500
O  45.11900 12.79200 32.93100
C  43.02000 11.82800 33.56500
C  43.73700 10.88200 34.43900
O  44.34600 9.89600 34.02300
O  43.56100 11.18500 35.77200
C  44.22800 10.36900 36.76900
H  37.08800 8.12200 32.85700
H  38.07600 8.29700 26.55400
H  43.51100 11.69600 27.34400
H  40.98300 9.86700 35.18900
H  37.98200 9.72000 34.78400
H  38.41300 7.82400 35.90200
H  40.10500 7.79900 35.60700
H  39.18000 7.09800 34.42800
H  38.76100 11.60900 35.39600
H  39.86500 12.47100 34.16500
H  41.24900 13.08200 35.69300
H  41.21500 11.65300 36.62500
H  34.80300 7.73100 31.60700
H  35.95100 6.50600 32.05100
H  34.97100 6.14600 30.72300
H  34.06700 7.45600 29.06500
H  34.51500 5.77800 28.75800
H  33.63300 6.71500 27.49900
H  39.54400 9.98000 25.08000
H  42.47600 9.64700 25.47700
H  41.35700 8.14800 24.22300
H  39.54100 7.89900 24.34200
H  40.77800 7.29700 25.57000
H  42.65800 11.88300 24.80100
H  41.32500 12.43800 25.72800
H  40.79900 10.73600 23.34000
H  41.62400 12.19000 23.00800
H  40.00200 12.21800 23.74500
H  45.90200 11.52200 28.89000
H  45.80600 12.72600 30.17700
H  44.90900 13.05000 28.60800
H  42.64500 12.67300 34.14300
H  43.83900 9.36000 36.63000
H  44.09100 10.75400 37.78000
H  45.30000 10.37600 36.57100

