158

Mg 50.61900 44.83600 42.29300
C  47.37500 45.22300 41.07900
C  50.39700 41.38400 41.28000
C  53.92500 44.49200 42.53600
C  51.02200 48.37400 42.05000
N  49.07200 43.49600 41.20000
C  47.82900 43.91200 40.90600
C  47.08200 42.78200 40.22400
C  47.94600 41.47400 40.65300
C  49.27500 42.14300 40.95900
C  47.45800 40.63400 41.91200
C  47.11000 43.02900 38.67400
C  45.80500 42.65000 37.90200
H  46.01600 42.28600 36.43100
N  51.94600 43.13000 42.08200
C  51.62000 41.84600 41.78600
C  52.84600 41.04900 41.93700
C  53.86700 41.88200 42.41100
C  53.26300 43.23300 42.42800
C  52.95600 39.60400 41.49300
C  55.35600 41.43400 42.64500
O  55.74900 40.27000 42.58500
C  56.32700 42.43100 43.13000
N  52.21500 46.27700 42.14900
C  53.50900 45.84800 42.44400
C  54.44800 47.08700 42.50900
C  53.45600 48.22600 42.32200
C  52.12200 47.63100 42.20100
C  55.29900 47.20800 43.85500
C  53.76900 49.10300 41.00700
C  53.56800 50.62700 41.20900
N  49.41500 46.45200 41.86400
C  49.69700 47.86400 41.82700
C  48.50400 48.57100 41.47600
C  47.59200 47.62500 41.16000
C  48.17900 46.32700 41.40500
C  48.42800 50.09100 41.48900
C  46.23800 47.36300 40.62300
O  45.39400 48.09300 40.17300
C  46.00200 45.80600 40.65100
C  44.86100 45.37900 41.41400
O  43.96900 44.68700 40.98300
O  44.79600 46.05600 42.56700
C  43.42200 46.15900 43.15100
H  50.25000 40.31500 41.11000
H  55.00300 44.33600 42.62200
H  51.08200 49.46100 41.97600
H  46.02900 42.73700 40.50100
H  48.15900 40.77800 39.84200
H  46.38900 40.79300 42.05400
H  47.89100 40.93600 42.86600
H  47.58000 39.56300 41.74900
H  47.93900 42.49700 38.20700
H  47.22700 44.10800 38.57600
H  45.08200 43.46600 37.90300
H  45.32300 41.82600 38.42600
H  51.95200 39.24500 41.26700
H  53.38400 39.04200 42.32300
H  53.69400 39.33600 40.73600
H  55.72200 42.89100 43.91100
H  56.60800 43.11900 42.33300
H  57.15300 42.04400 43.72700
H  55.05700 46.97100 41.61200
H  53.39900 48.92500 43.15600
H  56.27600 47.64400 43.64600
H  55.57600 46.24500 44.28300
H  54.89200 47.87300 44.61700
H  53.20000 48.80700 40.12500
H  54.83300 49.07100 40.77100
H  54.50000 51.08400 40.87700
H  53.41700 50.99100 42.22500
H  52.77500 51.01600 40.57000
H  49.00100 50.48900 42.32700
H  47.36400 50.32000 41.55100
H  48.77000 50.40700 40.50400
H  45.66800 45.46900 39.67000
H  43.48000 45.59600 44.08300
H  42.59100 45.79100 42.55000
H  43.22500 47.16300 43.52600
Mg 10.98600 46.98100 25.86900
C  8.78800 47.20100 28.67700
C  13.40200 48.14600 27.91400
C  13.00800 46.80900 23.26800
C  8.21100 46.06100 23.97500
N  11.02400 47.70800 27.97200
C  10.08200 47.62900 28.96300
C  10.59500 47.99700 30.38500
C  11.90600 48.74400 29.99100
C  12.17700 48.20500 28.52700
C  11.77800 50.28100 30.05000
C  10.69700 46.78300 31.33000
C  10.49800 46.89300 32.83100
H  10.56400 45.60600 33.67500
N  12.86200 47.44800 25.56600
C  13.78500 47.80000 26.59500
C  15.11700 47.88600 26.07000
C  15.02500 47.58500 24.70500
C  13.57400 47.27900 24.42900
C  16.33200 48.28000 26.87500
C  16.11600 47.28400 23.68300
O  15.90900 46.83200 22.52600
C  17.51400 47.41600 24.11200
N  10.58700 46.53400 23.83800
C  11.64200 46.51200 22.98900
C  11.15700 45.91100 21.65900
C  9.53800 45.77800 21.83100
C  9.42600 46.18900 23.29700
C  11.56300 46.79000 20.41600
C  8.99100 44.32400 21.51100
C  8.98900 43.29400 22.60600
N  8.87600 46.56000 26.18400
C  7.86400 46.23900 25.29200
C  6.62800 46.18300 25.94700
C  6.87800 46.51700 27.26100
C  8.30100 46.77100 27.38500
C  5.31600 45.78400 25.20300
C  6.32900 46.65000 28.58400
O  5.25500 46.32800 29.02800
C  7.47100 46.96800 29.52800
C  7.62200 45.73700 30.38600
O  8.17100 44.71600 30.01000
O  6.93600 45.99300 31.53100
C  7.01100 44.79500 32.42600
H  14.22800 48.44700 28.56100
H  13.77600 46.80200 22.49200
H  7.40700 45.97500 23.24100
H  9.99300 48.79200 30.82500
H  12.74100 48.48000 30.64100
H  10.84900 50.66700 30.47000
H  11.69100 50.77800 29.08300
H  12.57500 50.71400 30.65300
H  11.65500 46.28900 31.17100
H  10.02500 45.97900 31.03100
H  9.52000 47.35100 32.97700
H  11.16900 47.64000 33.25400
H  17.07700 47.48600 26.92800
H  16.11000 48.27900 27.94200
H  16.76400 49.25200 26.63500
H  18.26300 47.27400 23.33300
H  17.63400 46.60200 24.82700
H  17.68500 48.41500 24.51300
H  11.60900 44.91900 21.65500
H  9.00200 46.45200 21.16200
H  10.77000 46.80400 19.66800
H  12.51800 46.41300 20.05000
H  11.70600 47.76900 20.87400
H  9.62800 44.00000 20.68800
H  7.95500 44.30500 21.16900
H  8.09100 43.20300 23.21900
H  9.70000 43.62900 23.36100
H  9.33600 42.33800 22.21500
H  4.80900 46.72200 24.97600
H  4.67800 45.15300 25.82300
H  5.68500 45.34200 24.27800
H  7.16800 47.80300 30.16000
H  6.08000 44.24900 32.27400
H  7.03300 45.03100 33.49000
H  7.88300 44.14700 32.34400

