158

Mg 24.71800 1.49300 29.53800
C  26.44800 1.14900 32.53600
C  21.83300 1.99300 31.37800
C  23.00500 1.36000 26.69400
C  27.75900 0.63500 27.78600
N  24.19800 1.56300 31.70700
C  25.11900 1.56400 32.69600
C  24.44300 1.87700 34.05400
C  22.94000 2.11200 33.70700
C  22.94200 1.77400 32.18400
C  22.02600 1.19800 34.45700
C  25.00300 3.11500 34.80700
C  25.46500 2.89300 36.20700
H  25.40900 4.03900 37.14100
N  22.70800 1.76100 29.12300
C  21.68800 1.97700 29.98000
C  20.47800 2.03100 29.27900
C  20.78200 1.91000 27.87500
C  22.24400 1.74900 27.84500
C  19.21300 2.33700 29.96400
C  19.79700 1.94100 26.71000
O  20.16100 1.68200 25.52800
C  18.40800 2.16300 26.81200
N  25.36700 1.21200 27.54700
C  24.41000 1.16800 26.54200
C  24.99500 0.66700 25.27300
C  26.48400 0.82100 25.56200
C  26.58700 0.92000 27.02000
C  24.46900 -0.73600 24.99100
C  27.16500 2.01700 24.76800
C  26.48300 3.40400 24.94000
N  26.74600 1.03000 29.99600
C  27.84100 0.76100 29.18900
C  28.98700 0.60100 30.05300
C  28.49200 0.78000 31.34000
C  27.11400 1.04800 31.28600
C  30.37000 0.25000 29.65900
C  28.90200 0.77500 32.67100
O  30.00900 0.66700 33.16400
C  27.61200 0.99600 33.50100
C  27.46100 -0.18200 34.42300
O  26.70700 -1.14900 34.35000
O  28.43600 -0.10300 35.39500
C  28.43400 -1.02800 36.50700
H  21.02900 2.30700 32.04700
H  22.44000 1.13600 25.78700
H  28.67400 0.45100 27.21900
H  24.59300 0.98000 34.65300
H  22.67000 3.13800 33.95600
H  21.57700 0.54500 33.70800
H  21.25600 1.73700 35.00800
H  22.63300 0.57800 35.11700
H  24.32900 3.97100 34.76200
H  25.87000 3.38600 34.20400
H  26.45600 2.44000 36.24600
H  24.89200 2.08900 36.66800
H  19.12100 2.46700 31.04200
H  18.56300 1.54300 29.59500
H  18.80700 3.25500 29.54000
H  18.26100 2.88300 27.61600
H  18.00300 1.18300 27.06600
H  17.88000 2.56200 25.94700
H  24.78800 1.32300 24.42700
H  27.00400 -0.09100 25.26900
H  23.74700 -0.54600 24.19600
H  24.02500 -1.18600 25.87900
H  25.16200 -1.42600 24.51000
H  27.18400 1.72400 23.71800
H  28.19700 2.22600 25.04800
H  25.75900 3.46600 25.75200
H  25.97500 3.68100 24.01600
H  27.25300 4.12600 25.21300
H  30.56500 0.47300 28.61000
H  30.62400 -0.80100 29.79100
H  31.03800 0.78800 30.33300
H  27.74600 1.84100 34.17600
H  27.59700 -0.68800 37.11700
H  29.28200 -1.04800 37.19200
H  28.25800 -2.06000 36.20400
Mg 54.55900 24.82400 44.51600
C  52.24000 27.25200 43.52600
C  52.49600 22.39300 43.28600
C  57.15100 22.66900 44.49400
C  56.85400 27.44500 45.03300
N  52.57300 24.87500 43.56400
C  51.86200 25.94800 43.14300
C  50.57500 25.48500 42.27300
C  50.43600 24.11200 42.92800
C  51.93900 23.73600 43.27400
C  49.62900 23.91000 44.25100
C  51.00100 25.50400 40.76700
C  49.97200 26.21000 39.78500
H  49.75800 25.47800 38.48800
N  54.75400 22.73900 44.02300
C  53.77600 21.93300 43.59200
C  54.32300 20.60900 43.43300
C  55.64400 20.64700 43.93000
C  55.96600 22.02700 44.16400
C  53.40400 19.46400 42.88600
C  56.52900 19.42600 44.10600
O  56.18800 18.29100 43.83000
C  57.95800 19.53100 44.52800
N  56.79900 25.05800 44.42600
C  57.58200 23.99200 44.60100
C  58.98800 24.44000 44.97300
C  58.95500 26.01900 44.89700
C  57.46300 26.20200 44.88100
C  59.55700 23.94300 46.32200
C  59.78800 26.79100 43.87900
C  60.91800 27.64500 44.42600
N  54.51900 26.95500 44.60300
C  55.50800 27.89000 44.91700
C  54.87700 29.25300 44.85000
C  53.59000 29.02400 44.29100
C  53.47300 27.66200 44.13600
C  55.54300 30.54300 45.15100
C  52.43000 29.67100 43.80600
O  52.18600 30.85100 43.74700
C  51.49800 28.57600 43.39400
C  50.99000 28.81400 42.04300
O  51.61200 29.07500 40.98700
O  49.64100 28.77000 42.11100
C  48.87600 29.50800 41.12100
H  51.82500 21.61000 42.92700
H  57.98000 21.95800 44.46100
H  57.53100 28.29800 45.12300
H  49.73700 26.16800 42.41100
H  50.13300 23.36800 42.19100
H  49.08100 24.84700 44.35300
H  50.31700 23.67900 45.06400
H  48.93000 23.08700 44.10000
H  51.44900 24.57400 40.41500
H  51.83800 26.18500 40.61400
H  50.41400 27.17200 39.53000
H  49.02700 26.32400 40.31700
H  53.92600 18.51000 42.82000
H  53.00800 19.70100 41.89900
H  52.52800 19.21100 43.48300
H  58.49500 18.59700 44.69500
H  58.07800 20.10300 45.44700
H  58.51900 20.11800 43.80000
H  59.74900 24.07700 44.28200
H  59.29600 26.38900 45.86400
H  58.78700 23.97100 47.09300
H  60.38100 24.55300 46.69000
H  59.84400 22.91400 46.10500
H  59.08900 27.35900 43.26400
H  60.22900 26.01000 43.25900
H  61.95400 27.34900 44.26000
H  60.81300 27.83600 45.49400
H  60.79800 28.63600 43.98800
H  54.94400 31.35200 44.73400
H  56.50600 30.49200 44.64200
H  55.76900 30.66700 46.21100
H  50.64600 28.56700 44.07300
H  48.89700 29.01800 40.14800
H  49.19700 30.53600 40.95400
H  47.84800 29.45800 41.48100

