158

Mg -1.50900 17.89000 26.01700
C  -1.60600 15.41400 28.58700
C  -1.86600 20.29100 28.46200
C  -1.42700 20.08000 23.69200
C  -1.33800 15.26600 23.74000
N  -1.63000 17.80900 28.29300
C  -1.51200 16.76100 29.13800
C  -1.50200 17.28800 30.63800
C  -2.01600 18.77400 30.52400
C  -1.91100 18.98100 29.00400
C  -3.51600 19.09600 30.96000
C  -0.11000 17.23500 31.43300
C  -0.10900 17.85600 32.89400
H  0.32400 17.09000 34.08000
N  -1.33600 19.93000 26.07000
C  -1.68200 20.69600 27.14000
C  -1.68500 22.12900 26.67300
C  -1.53200 22.12100 25.31200
C  -1.50500 20.71800 24.97200
C  -2.02900 23.30600 27.69000
C  -1.66200 23.30100 24.27200
O  -1.62700 23.07300 23.05100
C  -1.86200 24.67400 24.79400
N  -1.41300 17.68400 24.00900
C  -1.44300 18.77400 23.20600
C  -1.41200 18.42600 21.65300
C  -1.40300 16.84600 21.65100
C  -1.40000 16.56900 23.21300
C  -2.61600 19.03200 20.84100
C  -0.17100 16.19000 21.01700
C  -0.42000 14.93100 20.24100
N  -1.70100 15.74000 26.08400
C  -1.72400 14.84300 25.01900
C  -1.78300 13.44100 25.65800
C  -1.76100 13.62100 27.11100
C  -1.63100 15.04200 27.23300
C  -1.72700 12.20300 24.85800
C  -1.81200 12.97900 28.44000
O  -1.85700 11.81000 28.81900
C  -1.80600 14.14100 29.40500
C  -0.72800 13.84800 30.35600
O  0.46500 13.95600 30.13000
O  -1.26300 13.43500 31.58800
C  -0.33600 12.93500 32.59600
H  -2.15900 21.16800 29.04400
H  -1.28300 20.76000 22.85000
H  -1.36000 14.43500 23.03200
H  -2.29900 16.83300 31.22700
H  -1.39400 19.48900 31.06200
H  -4.24300 19.20200 30.15500
H  -3.51500 20.03500 31.51400
H  -3.90200 18.26300 31.54700
H  0.71300 17.61700 30.82900
H  0.11000 16.17500 31.56200
H  -1.13900 18.14100 33.10700
H  0.43200 18.80000 32.96300
H  -3.04500 23.67600 27.55200
H  -1.29000 24.03800 27.36100
H  -1.71600 23.17600 28.72600
H  -1.73800 25.42600 24.01500
H  -1.08800 24.80500 25.55000
H  -2.84300 24.55100 25.25300
H  -0.53100 18.74900 21.09800
H  -2.33900 16.53100 21.19200
H  -2.30500 19.71100 20.04700
H  -3.19000 19.66600 21.51700
H  -3.19300 18.18600 20.46700
H  0.52300 16.00500 21.83700
H  0.26000 16.81100 20.23200
H  0.41400 14.23000 20.26800
H  -0.38800 15.12800 19.16900
H  -1.42100 14.54700 20.43900
H  -2.07400 12.30400 23.83000
H  -2.34900 11.57100 25.49200
H  -0.71900 11.80400 24.97100
H  -2.70100 14.21600 30.02400
H  -0.78700 13.37300 33.48600
H  0.70600 13.22800 32.47100
H  -0.35300 11.89400 32.92100
Mg 26.63200 49.87700 26.58800
C  24.39100 50.93800 29.03500
C  28.84400 49.01200 29.00700
C  28.70400 48.84600 24.19000
C  24.41600 51.00100 24.22500
N  26.54400 50.08300 28.75500
C  25.50300 50.31200 29.58600
C  25.81600 49.87900 31.02400
C  27.32100 49.43400 30.93300
C  27.57900 49.48400 29.41400
C  28.27100 50.37300 31.70900
C  24.78900 48.84500 31.60200
C  23.80500 49.44900 32.61400
H  23.74100 48.77300 34.03900
N  28.51000 49.06300 26.56200
C  29.26200 48.79800 27.70300
C  30.48600 48.17900 27.28500
C  30.51200 48.27800 25.84800
C  29.21200 48.74600 25.47200
C  31.57000 47.69100 28.17600
C  31.64300 48.06700 24.82700
O  31.56800 48.38800 23.62400
C  32.96200 47.59300 25.41200
N  26.68200 50.05200 24.47000
C  27.57000 49.46600 23.66600
C  27.07500 49.41900 22.20900
C  25.60900 49.95600 22.36700
C  25.58200 50.34700 23.77500
C  27.96500 50.27100 21.19800
C  24.53200 48.88500 21.95900
C  24.34400 47.75200 22.94500
N  24.84300 50.74900 26.52100
C  24.08300 51.28100 25.53600
C  22.89900 51.92300 26.03200
C  22.99700 51.84000 27.41900
C  24.15700 51.12700 27.66600
C  21.84700 52.67600 25.27100
C  22.33300 52.23900 28.63000
O  21.34200 52.92900 28.82400
C  23.13800 51.47800 29.78600
C  23.49800 52.56800 30.81000
O  24.47000 53.30400 30.77400
O  22.53200 52.56200 31.73900
C  22.69000 53.66300 32.73700
H  29.42400 48.46600 29.75400
H  29.36900 48.63300 23.35000
H  23.60500 51.16600 23.51200
H  25.81700 50.76500 31.66000
H  27.34900 48.45200 31.40600
H  29.05300 50.79600 31.07900
H  28.85500 49.91100 32.50500
H  27.74800 51.24000 32.11200
H  25.38700 48.11200 32.14400
H  24.23100 48.40700 30.77400
H  22.79900 49.47200 32.19500
H  23.98600 50.50100 32.83400
H  31.80000 46.63700 28.02500
H  31.48000 47.84700 29.25100
H  32.39100 48.37100 27.94900
H  33.38100 48.24000 26.18300
H  33.55800 47.42500 24.51500
H  32.71600 46.65200 25.90400
H  27.03300 48.35200 21.99200
H  25.46900 50.78200 21.67000
H  28.95500 50.48200 21.60200
H  27.50500 51.19900 20.86000
H  28.16600 49.69000 20.29800
H  24.71300 48.68200 20.90400
H  23.59800 49.44300 22.01400
H  25.07300 47.90000 23.74200
H  24.44300 46.84800 22.34400
H  23.35900 47.72400 23.41100
H  20.92600 52.81100 25.83800
H  21.63900 52.09400 24.37300
H  22.29200 53.58600 24.87000
H  22.49100 50.70300 30.19800
H  23.47600 53.27900 33.38800
H  21.79100 53.76100 33.34500
H  22.89100 54.57800 32.17900

