158

Mg 8.63000 4.39700 27.40500
C  9.88000 2.97800 30.33300
C  6.71800 6.51700 29.46200
C  7.14200 5.76400 24.65700
C  10.40900 2.26200 25.41100
N  8.25000 4.64300 29.66300
C  8.99700 4.02700 30.62400
C  8.61800 4.63000 31.98200
C  7.62000 5.80200 31.70100
C  7.43700 5.63500 30.15600
C  6.39900 5.77200 32.57900
C  9.82300 4.97700 32.84800
C  9.56300 5.81100 34.10100
H  10.22500 5.22300 35.37700
N  7.12000 5.83000 27.11800
C  6.49300 6.61100 28.05900
C  5.64400 7.58900 27.42700
C  5.70100 7.43200 26.05300
C  6.67700 6.32200 25.84800
C  4.86300 8.62400 28.19400
C  5.06400 8.11400 24.93200
O  5.08100 7.76600 23.78500
C  4.27500 9.32200 25.10300
N  8.64700 3.97200 25.33400
C  7.97900 4.67400 24.38300
C  8.32000 4.25400 22.98800
C  9.41200 3.10900 23.25100
C  9.58200 3.11400 24.76500
C  7.09900 3.85400 22.22600
C  10.78200 3.41700 22.49800
C  11.46900 2.18500 21.86900
N  9.86500 2.89000 27.70200
C  10.55300 2.10700 26.79900
C  11.26100 1.10800 27.54500
C  11.00300 1.35700 28.94100
C  10.22700 2.49400 28.99700
C  12.15800 0.02600 27.13300
C  11.32900 0.99300 30.30300
O  12.05800 0.08500 30.67700
C  10.50000 2.00700 31.31300
C  9.59100 1.20300 32.25200
O  8.91000 0.21700 31.98800
O  9.94100 1.63500 33.53400
C  9.49000 0.64000 34.61700
H  6.24500 7.34700 29.99100
H  6.85400 6.30500 23.75300
H  10.91300 1.49000 24.82600
H  8.02200 3.84000 32.44000
H  8.12600 6.75700 31.84300
H  5.64000 5.27500 31.97500
H  6.06800 6.80000 32.72600
H  6.46800 5.39500 33.59900
H  10.24100 5.66700 32.11500
H  10.47800 4.14500 33.10800
H  8.50800 5.75300 34.37000
H  9.88200 6.82900 33.87400
H  5.31100 9.58800 27.95400
H  4.73300 8.54300 29.27300
H  3.86700 8.71900 27.76300
H  3.20400 9.19500 25.25800
H  4.43400 9.77700 24.12500
H  4.67600 10.01900 25.83800
H  8.93900 5.06800 22.61100
H  9.08000 2.09700 23.01700
H  7.07100 2.81100 21.91000
H  6.91600 4.56400 21.42000
H  6.20600 3.96400 22.84200
H  11.47200 3.91000 23.18300
H  10.54700 4.09900 21.68100
H  11.73000 2.43800 20.84200
H  10.84400 1.29200 21.89800
H  12.49700 2.08900 22.21900
H  11.49500 -0.80700 26.90100
H  12.90600 -0.22000 27.88700
H  12.63100 0.39400 26.22300
H  11.27700 2.43900 31.94500
H  8.48800 0.22900 34.50000
H  9.39900 1.19400 35.55100
H  10.18000 -0.19100 34.76700
Mg 17.59300 0.02300 27.31100
C  16.06400 1.92800 29.80600
C  19.06900 -1.90500 29.68700
C  19.15000 -1.72900 24.79600
C  16.00800 1.97700 25.02600
N  17.67300 0.18500 29.48200
C  16.94600 0.99200 30.33200
C  17.19400 0.54800 31.80900
C  18.31600 -0.52400 31.71700
C  18.37400 -0.80700 30.16600
C  19.62100 -0.03900 32.33900
C  15.86400 0.07100 32.56800
C  15.56700 0.70500 33.96900
H  16.65500 1.21000 34.87400
N  18.83800 -1.67200 27.30200
C  19.35000 -2.31000 28.35400
C  20.20500 -3.40600 27.96600
C  20.20900 -3.41000 26.54100
C  19.34200 -2.24100 26.12900
C  20.83100 -4.34600 28.87100
C  20.82400 -4.39600 25.60300
O  20.89800 -4.22700 24.36700
C  21.52600 -5.69100 26.13500
N  17.62900 0.15800 25.29600
C  18.38100 -0.61700 24.46500
C  18.35400 -0.19700 22.97900
C  17.35800 0.98600 23.00900
C  16.94200 1.00000 24.51500
C  19.74200 0.22400 22.43200
C  16.09100 0.74500 22.06500
C  15.65000 1.81900 21.09900
N  16.31600 1.70900 27.32500
C  15.70400 2.36500 26.33800
C  14.69800 3.37700 26.82100
C  14.85500 3.22700 28.22800
C  15.79500 2.18800 28.48000
C  13.85300 4.27000 26.08900
C  14.43800 3.70500 29.53200
O  13.72700 4.65700 29.75900
C  15.30000 2.94900 30.62700
C  16.04000 3.89400 31.40500
O  17.23200 4.17100 31.35000
O  15.28600 4.14200 32.58800
C  15.99900 5.04700 33.49700
H  19.54800 -2.41800 30.52400
H  19.64900 -2.17900 23.93500
H  15.38900 2.57500 24.35400
H  17.48700 1.38700 32.44100
H  17.99300 -1.44800 32.19700
H  20.41000 0.08500 31.59700
H  19.98600 -0.74400 33.08500
H  19.53300 0.94800 32.79500
H  15.71600 -0.99200 32.75400
H  15.06000 0.33200 31.88000
H  15.06100 -0.05500 34.56400
H  14.75800 1.41300 33.79000
H  20.22100 -5.24600 28.79500
H  20.88900 -3.95300 29.88600
H  21.89200 -4.47100 28.65000
H  22.45400 -5.45000 26.65400
H  21.64800 -6.36900 25.29100
H  20.82600 -6.29700 26.71000
H  18.00000 -1.06000 22.41400
H  17.82900 1.95900 22.87100
H  20.46500 0.09000 23.23700
H  19.78600 1.19800 21.94400
H  20.04200 -0.51300 21.68600
H  15.30800 0.37300 22.72600
H  16.36000 -0.11000 21.44400
H  15.91300 1.63400 20.05700
H  16.17500 2.73300 21.37500
H  14.56800 1.88000 21.21800
H  13.50700 3.93700 25.11000
H  14.42300 5.18400 25.92000
H  12.93200 4.56000 26.59500
H  14.60500 2.44200 31.29600
H  15.27400 5.30100 34.27000
H  16.34700 5.88200 32.88900
H  16.81200 4.42000 33.86500

