158

Mg 2.17400 -1.08700 43.96300
C  5.57600 0.12800 43.49100
C  1.11500 1.65000 42.04400
C  -0.81400 -2.30400 44.07800
C  3.50800 -3.71900 45.71100
N  3.33800 0.63600 42.75700
C  4.65200 0.90600 42.74700
C  4.87200 2.10000 41.85700
C  3.41800 2.68100 41.61500
C  2.52800 1.61400 42.17400
C  3.30200 4.06100 42.33800
C  5.61200 1.46000 40.55600
C  6.85400 2.35500 40.07300
H  7.23800 2.31800 38.57600
N  0.35200 -0.45700 43.07100
C  0.08900 0.72600 42.46700
C  -1.35600 0.95500 42.32900
C  -1.92300 -0.17100 43.03800
C  -0.76600 -1.04900 43.38500
C  -2.06100 2.05800 41.47900
C  -3.43900 -0.42200 43.29200
O  -4.28000 0.30500 42.90900
C  -3.97700 -1.60800 43.99100
N  1.51800 -2.87200 44.56100
C  0.17500 -3.08900 44.63300
C  -0.10800 -4.45200 45.30600
C  1.33300 -5.01000 45.74400
C  2.21400 -3.85400 45.27100
C  -1.14800 -4.58900 46.39500
C  1.78400 -6.38600 45.13400
C  2.58600 -7.37100 46.02900
N  4.10300 -1.73000 44.49000
C  4.52600 -2.78000 45.25400
C  5.94500 -2.76600 45.53800
C  6.34300 -1.63800 44.85400
C  5.22500 -1.05100 44.22000
C  6.67900 -3.80600 46.40100
C  7.53600 -0.91900 44.62400
O  8.68200 -1.14700 44.97500
C  7.10300 0.26900 43.73000
C  7.42700 1.50600 44.40300
O  7.29500 1.74900 45.63600
O  8.06200 2.32500 43.48800
C  8.48900 3.68400 43.98100
H  0.75100 2.60100 41.64800
H  -1.82300 -2.69100 44.23000
H  3.94400 -4.64100 46.10100
H  5.48700 2.86200 42.33400
H  3.24100 2.75200 40.54200
H  4.26000 4.54200 42.53400
H  2.66200 3.88200 43.20200
H  2.72600 4.78000 41.75500
H  4.83500 1.42800 39.79200
H  5.88300 0.40500 40.59100
H  7.61300 2.29700 40.85200
H  6.54900 3.38900 40.23200
H  -2.61400 2.70600 42.15900
H  -2.78900 1.53000 40.86400
H  -1.40400 2.67800 40.86900
H  -4.99500 -1.40300 44.32200
H  -3.46900 -1.70200 44.95100
H  -3.82400 -2.52300 43.41900
H  -0.44600 -4.97800 44.41400
H  1.53300 -4.96200 46.81500
H  -0.79200 -5.14900 47.26000
H  -1.90100 -5.22100 45.92300
H  -1.47400 -3.59600 46.70600
H  2.34200 -6.21000 44.21500
H  0.86600 -6.93000 44.91000
H  2.44600 -7.36100 47.11000
H  3.66100 -7.24800 45.90400
H  2.24500 -8.37100 45.76200
H  7.52100 -3.40900 46.96800
H  7.23600 -4.53100 45.80800
H  6.04700 -4.42900 47.03400
H  7.60100 0.43500 42.77500
H  7.69700 4.34900 43.63500
H  9.45400 3.97000 43.56100
H  8.56400 3.92200 45.04300
Mg 25.89700 1.37300 29.14000
C  27.72400 1.06900 32.12100
C  23.06900 1.83700 31.02300
C  23.99100 1.45600 26.24900
C  28.69000 0.68900 27.27900
N  25.39500 1.05200 31.37800
C  26.32400 1.19500 32.42100
C  25.68000 1.59800 33.74800
C  24.20500 1.78800 33.30500
C  24.17100 1.53300 31.84900
C  23.12400 0.91300 34.06700
C  26.30800 2.86500 34.43600
C  26.91400 2.59900 35.83000
H  26.42000 3.49000 36.92200
N  23.88500 1.63900 28.70700
C  22.86300 1.76500 29.65100
C  21.58100 1.91200 29.00500
C  21.80900 1.78800 27.59700
C  23.30100 1.63800 27.50100
C  20.32300 2.16300 29.80800
C  20.76300 1.83700 26.51300
O  21.08500 1.80300 25.30300
C  19.31400 2.08100 26.83100
N  26.32100 1.11000 27.15000
C  25.37000 1.19300 26.15300
C  25.92800 0.94000 24.71900
C  27.42500 0.77300 25.04500
C  27.51700 0.84200 26.58200
C  25.34500 -0.24600 24.00300
C  28.39800 1.80000 24.35500
C  29.01600 1.24900 23.05500
N  27.84200 0.94300 29.49700
C  28.88700 0.71900 28.65300
C  30.03500 0.36800 29.43600
C  29.62100 0.55300 30.77100
C  28.27200 0.87000 30.80400
C  31.40200 -0.17900 28.94400
C  30.11900 0.54600 32.15500
O  31.25300 0.45100 32.66100
C  28.90700 0.94000 33.09600
C  28.77100 -0.11000 34.12600
O  28.38300 -1.24400 33.92300
O  29.12000 0.35700 35.39100
C  29.20100 -0.49700 36.55800
H  22.25500 2.30300 31.58300
H  23.32500 1.60600 25.39800
H  29.59000 0.33600 26.77000
H  25.80500 0.72700 34.39200
H  23.96500 2.83300 33.49900
H  22.45400 0.38800 33.38600
H  22.55000 1.48700 34.79400
H  23.55200 0.11100 34.66800
H  25.61600 3.70700 34.42200
H  27.18500 3.23400 33.90500
H  27.97600 2.82900 35.91600
H  26.81100 1.58400 36.21400
H  19.82100 1.26600 30.17000
H  19.55800 2.69500 29.24200
H  20.58300 2.83500 30.62600
H  18.68800 1.94700 25.95000
H  19.17900 3.14900 27.00200
H  18.91200 1.47600 27.64400
H  25.59100 1.73100 24.05000
H  27.74800 -0.22200 24.74000
H  25.64500 -0.40200 22.96600
H  24.26500 -0.13800 24.10600
H  25.71700 -1.11200 24.55000
H  29.22100 1.99400 25.04300
H  27.89900 2.75200 24.17500
H  28.82900 1.84000 22.15800
H  28.49400 0.32800 22.80100
H  30.05800 0.93500 23.11800
H  31.11400 -0.94100 28.22000
H  31.94000 -0.72100 29.72100
H  32.02900 0.55300 28.43500
H  29.15600 1.86000 33.62400
H  28.38100 -0.17800 37.20200
H  30.12500 -0.34000 37.11400
H  29.20300 -1.57100 36.37000

