158

Mg 6.26300 54.89400 39.56400
C  5.78000 51.38200 39.23600
C  9.63200 54.37900 39.34000
C  6.70000 58.28300 39.32200
C  2.76200 55.36700 39.29300
N  7.51500 53.07800 39.30100
C  7.13800 51.73800 39.25900
C  8.40500 50.88300 39.10400
C  9.59400 51.88100 39.43500
C  8.89300 53.22400 39.29300
C  10.34700 51.72600 40.75900
C  8.59300 50.26400 37.67100
C  8.40000 51.17900 36.51900
H  7.72400 50.53400 35.27000
N  7.97100 56.16100 39.34700
C  9.28500 55.71200 39.22000
C  10.15400 56.92200 39.09500
C  9.35000 58.03900 39.31100
C  7.90700 57.53400 39.35200
C  11.60300 56.78700 38.81000
C  9.84700 59.44500 39.45700
O  10.99500 59.69700 39.55200
C  8.92800 60.65300 39.47400
N  4.92100 56.58400 39.35100
C  5.34100 57.87300 39.36900
C  4.14800 58.89000 39.34900
C  2.90100 57.94800 39.24500
C  3.52700 56.53600 39.23300
C  3.87600 59.82100 40.55800
C  1.96000 58.19400 38.04600
C  0.36600 58.24300 38.31000
N  4.53400 53.69500 39.52600
C  3.22100 53.98000 39.41200
C  2.49700 52.73600 39.52200
C  3.41000 51.68500 39.49000
C  4.67600 52.32300 39.41700
C  1.04800 52.82600 39.61300
C  3.63500 50.20700 39.50300
O  2.91000 49.23400 39.61800
C  5.19800 50.01400 39.32000
C  5.56600 49.03900 38.24000
O  5.42700 49.27500 37.03100
O  6.10400 47.85200 38.71200
C  6.21800 46.78900 37.63900
H  10.72300 54.32000 39.33800
H  6.69000 59.36700 39.18700
H  1.71000 55.65900 39.33100
H  8.37200 50.10300 39.86400
H  10.32300 51.89000 38.62500
H  10.43000 52.56500 41.45000
H  11.36800 51.51800 40.44200
H  9.93200 50.85700 41.26900
H  8.16600 49.26200 37.65300
H  9.67500 50.13200 37.69700
H  9.40100 51.46500 36.19500
H  7.89800 52.13900 36.63500
H  11.73600 55.86200 38.24900
H  12.09500 56.69400 39.77900
H  11.94100 57.56500 38.12500
H  9.58900 61.49800 39.66800
H  8.13200 60.51400 40.20600
H  8.49700 60.68400 38.47300
H  4.07300 59.50300 38.45100
H  2.34500 57.86900 40.17900
H  4.63200 60.60600 40.54100
H  3.97900 59.27600 41.49600
H  2.89700 60.27800 40.41500
H  2.21200 57.37100 37.37700
H  2.24900 59.09500 37.50600
H  0.25700 58.23500 39.39500
H  -0.11600 57.35100 37.91000
H  -0.00000 59.17000 37.86900
H  0.62300 52.42000 38.69500
H  0.61500 53.82500 39.66200
H  0.79300 52.27200 40.51600
H  5.48900 49.66100 40.30900
H  6.95900 47.15400 36.92700
H  5.21900 46.72900 37.20800
H  6.43800 45.78900 38.01300
Mg -0.74100 34.83000 26.84200
C  -2.77900 33.13000 29.35300
C  0.42300 36.85700 29.29100
C  0.71300 36.68200 24.40900
C  -2.29900 32.89900 24.39800
N  -1.30400 35.07400 29.02900
C  -1.95500 34.15600 29.87400
C  -1.86100 34.54500 31.37600
C  -0.90800 35.79200 31.18900
C  -0.50100 35.91000 29.69000
C  -1.54000 37.11100 31.72600
C  -1.23900 33.39300 32.29500
C  -1.83600 33.18100 33.67700
H  -1.00600 32.96600 34.96000
N  0.47100 36.49500 26.84900
C  0.93500 37.07500 27.99000
C  1.94300 37.99200 27.65700
C  2.01000 38.09100 26.21200
C  1.05200 37.00800 25.75400
C  2.69000 38.77400 28.72400
C  2.91200 38.89900 25.41500
O  2.92100 38.69500 24.20500
C  3.85300 39.93000 25.98800
N  -0.88300 34.89600 24.74700
C  -0.16400 35.69500 23.96700
C  -0.36300 35.44300 22.39400
C  -1.16400 34.14400 22.42600
C  -1.46800 33.93300 23.91800
C  -1.10000 36.60200 21.64700
C  -0.50500 32.84600 21.82800
C  0.54600 32.04900 22.65100
N  -2.16900 33.28600 26.80300
C  -2.65300 32.57500 25.71200
C  -3.53800 31.52700 26.23600
C  -3.57700 31.63700 27.64500
C  -2.81300 32.81500 27.91500
C  -4.12200 30.40200 25.44500
C  -4.14000 31.16000 28.93500
O  -4.82400 30.19200 29.26000
C  -3.56400 32.07100 30.10200
C  -4.69500 32.56400 30.94200
O  -5.52800 33.41900 30.58000
O  -4.56100 31.99900 32.13200
C  -5.56600 32.42000 33.12800
H  0.80400 37.34900 30.18900
H  1.28200 37.10700 23.58000
H  -2.63500 32.16100 23.66800
H  -2.81700 34.76400 31.85200
H  -0.04800 35.56500 31.82000
H  -2.57500 36.93000 31.43600
H  -1.24300 38.04900 31.25700
H  -1.49200 37.30800 32.79700
H  -0.21200 33.71400 32.47200
H  -1.13700 32.47900 31.71000
H  -2.41400 32.25800 33.64500
H  -2.57000 33.96900 33.84500
H  2.95100 38.15700 29.58300
H  2.11100 39.65700 28.99600
H  3.64400 39.12200 28.32800
H  4.34000 40.49900 25.19600
H  4.66200 39.45600 26.54300
H  3.31800 40.64900 26.60800
H  0.57800 35.19800 21.90100
H  -2.11900 34.28300 21.92000
H  -0.46500 36.93500 20.82700
H  -1.14200 37.36100 22.42900
H  -2.10500 36.33600 21.31800
H  -0.10600 33.00200 20.82600
H  -1.27200 32.11900 21.56300
H  0.65200 32.46800 23.65100
H  1.54700 31.99900 22.22100
H  0.14500 31.04800 22.81300
H  -3.57100 30.32100 24.50900
H  -5.16600 30.58000 25.18800
H  -4.02300 29.42200 25.91400
H  -2.89100 31.45500 30.69800
H  -5.76800 31.50000 33.67700
H  -6.45800 32.77900 32.61400
H  -5.08600 33.07900 33.85100

