158

Mg 47.32200 24.58800 27.91000
C  48.14600 26.48800 30.56700
C  47.00900 21.73700 30.00700
C  46.44600 22.68200 25.21200
C  48.14800 27.15700 25.73200
N  47.67300 24.20400 30.04500
C  47.76700 25.17700 30.97200
C  47.68900 24.66200 32.42100
C  47.58900 23.16700 32.11700
C  47.39100 22.97100 30.63300
C  48.64600 22.17300 32.75200
C  46.57300 25.37900 33.22000
C  46.90400 26.32600 34.33300
H  45.87900 26.57300 35.53200
N  46.85900 22.51600 27.63300
C  46.78500 21.56000 28.57600
C  46.59900 20.26800 27.92200
C  46.25500 20.54800 26.55300
C  46.47800 21.95600 26.43600
C  46.64400 18.93500 28.69600
C  45.87900 19.61800 25.41900
O  45.61700 19.99400 24.27100
C  45.79100 18.22200 25.70900
N  47.44500 24.83000 25.76700
C  46.91500 23.94500 24.91700
C  46.82700 24.56500 23.46500
C  47.21000 26.02400 23.63400
C  47.59900 26.08900 25.13400
C  47.63400 23.79800 22.36000
C  45.97600 26.99700 23.29800
C  46.19300 28.38600 22.68300
N  48.08600 26.40400 28.03600
C  48.40900 27.36800 27.09500
C  49.05400 28.45800 27.77300
C  48.90600 28.19400 29.15800
C  48.31100 26.94000 29.27300
C  49.65800 29.60000 27.04300
C  49.12800 28.73100 30.46900
O  49.67800 29.84000 30.72700
C  48.62700 27.66000 31.43500
C  49.88400 27.24800 32.31500
O  50.64000 26.26300 32.11900
O  49.96200 28.11800 33.35800
C  50.73600 27.65500 34.50200
H  46.83900 20.91300 30.70300
H  46.11800 22.26900 24.25500
H  48.47100 27.96100 25.06600
H  48.63000 24.79600 32.95400
H  46.60300 22.83400 32.44000
H  49.12300 22.72800 33.56000
H  49.41400 21.92600 32.02000
H  48.11300 21.31300 33.15900
H  45.89100 24.56800 33.47800
H  46.04100 25.93000 32.44400
H  46.98300 27.31300 33.87700
H  47.84700 26.04200 34.80200
H  47.03100 18.23600 27.95400
H  45.64600 18.59500 28.97100
H  47.33500 18.96300 29.53800
H  46.80600 17.87700 25.51700
H  45.10800 17.72400 25.02100
H  45.29500 17.95100 26.64100
H  45.77400 24.50800 23.19100
H  48.10300 26.23500 23.04600
H  48.28400 23.08500 22.86800
H  48.20900 24.45400 21.70700
H  47.04500 23.09600 21.76800
H  45.47900 26.92500 24.26600
H  45.35800 26.57100 22.50800
H  45.84400 28.41300 21.65100
H  47.23500 28.70600 22.71400
H  45.54100 29.12400 23.14800
H  50.11200 29.19200 26.14000
H  50.50100 30.06200 27.55600
H  48.89700 30.35900 26.86500
H  47.87900 28.03200 32.13500
H  50.62600 28.45400 35.23600
H  51.80400 27.67800 34.28700
H  50.34800 26.67100 34.76600
Mg -10.17800 17.29300 41.00600
C  -6.67000 17.28900 41.00700
C  -10.08500 20.58500 40.33400
C  -13.50000 17.12500 40.54500
C  -10.17100 13.74700 41.44200
N  -8.45800 18.74100 40.44800
C  -7.11500 18.56600 40.57200
C  -6.36400 19.86000 40.25000
C  -7.51500 20.92700 40.47900
C  -8.80200 20.05500 40.44600
C  -7.36900 21.93000 41.72200
C  -5.78600 19.80400 38.82400
C  -4.31300 19.32200 38.77700
H  -4.10000 18.20200 37.76400
N  -11.61300 18.70200 40.58100
C  -11.35900 19.95300 40.23800
C  -12.61400 20.66000 39.96900
C  -13.68800 19.73500 40.09500
C  -12.89600 18.41800 40.46200
C  -12.60800 22.12600 39.47000
C  -15.17500 19.96300 39.81500
O  -15.49200 21.08600 39.54200
C  -16.27400 18.88300 39.75100
N  -11.60100 15.63500 41.04100
C  -12.88500 15.85400 40.72200
C  -13.71300 14.56600 40.59800
C  -12.64800 13.46300 40.97800
C  -11.38200 14.32400 41.15300
C  -14.98900 14.57900 41.52600
C  -12.46500 12.28400 39.99600
C  -11.74900 12.61400 38.63100
N  -8.78700 15.78700 41.21800
C  -8.91500 14.44100 41.42700
C  -7.67900 13.82900 41.74700
C  -6.68600 14.87500 41.60600
C  -7.43500 16.10300 41.28000
C  -7.47200 12.37400 41.86300
C  -5.30700 15.23100 41.62700
O  -4.32200 14.51500 41.90100
C  -5.21900 16.76400 41.28300
C  -4.39800 17.34900 42.34500
O  -3.30300 16.94300 42.63700
O  -4.99800 18.45100 42.92100
C  -4.20600 19.19300 43.89600
H  -10.10300 21.66600 40.18000
H  -14.56500 17.11900 40.30100
H  -10.14500 12.65600 41.41100
H  -5.50900 19.99600 40.91200
H  -7.54200 21.44800 39.52200
H  -6.39900 21.78900 42.19800
H  -8.15400 21.69100 42.43900
H  -7.58500 22.97400 41.49200
H  -5.95200 20.76500 38.33800
H  -6.38100 19.12200 38.21600
H  -3.92600 18.83800 39.67400
H  -3.72300 20.19200 38.48800
H  -13.45500 22.23400 38.79300
H  -11.71200 22.36900 38.89800
H  -12.70200 22.79400 40.32700
H  -16.07600 18.18300 38.93900
H  -17.20300 19.44000 39.63000
H  -16.33900 18.28700 40.66100
H  -14.07700 14.42800 39.58000
H  -12.75300 13.07500 41.99200
H  -14.61400 14.66700 42.54600
H  -15.54500 13.66400 41.32500
H  -15.63900 15.42400 41.30000
H  -13.44300 11.88800 39.72000
H  -11.94100 11.54500 40.60300
H  -12.49600 12.48000 37.84900
H  -10.86700 12.02000 38.38900
H  -11.49000 13.67200 38.58300
H  -8.31300 11.89700 42.36600
H  -6.49000 12.17000 42.29000
H  -7.51000 11.96800 40.85200
H  -4.58400 16.81100 40.39900
H  -3.25600 19.46800 43.43800
H  -3.97500 18.46700 44.67500
H  -4.67000 20.14300 44.16300

