158

Mg 16.60800 -1.36300 28.57300
C  15.37500 0.71700 30.97000
C  18.63500 -2.96200 30.99100
C  17.92000 -3.25700 26.09600
C  14.49300 0.16700 26.17900
N  16.84700 -1.27800 30.78700
C  16.22300 -0.28600 31.53700
C  16.59800 -0.40100 33.02000
C  17.79300 -1.32500 32.95900
C  17.78100 -1.91900 31.48600
C  19.18900 -0.81700 33.46100
C  15.38500 -0.93200 33.81000
C  15.21700 -0.32600 35.21500
H  16.41300 0.41900 35.89000
N  18.07100 -2.77200 28.52000
C  18.72000 -3.37700 29.66400
C  19.48400 -4.51700 29.23100
C  19.22100 -4.71200 27.79800
C  18.40100 -3.53600 27.40600
C  20.24300 -5.50700 30.12100
C  19.69500 -5.80800 26.77900
O  19.31100 -5.92600 25.62800
C  20.43400 -7.04300 27.36200
N  16.35000 -1.39200 26.42000
C  16.99800 -2.27300 25.63400
C  16.59400 -2.31000 24.14100
C  15.42400 -1.20600 24.18500
C  15.39000 -0.77800 25.66900
C  17.77800 -1.93200 23.10500
C  14.05300 -1.45700 23.49900
C  13.93200 -1.08400 22.04100
N  15.16700 0.17300 28.51000
C  14.41500 0.66800 27.49200
C  13.64400 1.79600 28.00200
C  13.97400 1.83300 29.34700
C  14.92300 0.84500 29.66900
C  12.86100 2.73600 27.10000
C  13.71300 2.56400 30.60700
O  12.97500 3.46900 30.91400
C  14.63900 1.83500 31.71600
C  15.58800 2.86200 32.28200
O  16.82800 2.84400 32.19900
O  14.86900 3.66900 33.12600
C  15.72100 4.57100 33.95500
H  19.28100 -3.56500 31.63300
H  18.39800 -3.89900 25.35400
H  13.86000 0.70700 25.47100
H  16.87200 0.60800 33.32900
H  17.69700 -2.14600 33.67000
H  19.12000 0.21200 33.81600
H  19.80900 -0.82700 32.56500
H  19.71400 -1.38800 34.22700
H  15.34300 -2.01600 33.91500
H  14.51000 -0.67800 33.21200
H  14.93100 -1.12900 35.89500
H  14.38900 0.37800 35.14100
H  20.60700 -4.90900 30.95700
H  21.18600 -5.71400 29.61600
H  19.58400 -6.33700 30.37600
H  19.84100 -7.36700 28.21700
H  21.47200 -6.76100 27.53800
H  20.39300 -7.88600 26.67200
H  16.21900 -3.29700 23.87000
H  15.73400 -0.27000 23.72000
H  17.54800 -1.07600 22.47000
H  17.98000 -2.84600 22.54600
H  18.65300 -1.78500 23.73800
H  13.30100 -0.94300 24.09800
H  13.82900 -2.51100 23.66100
H  14.84900 -0.78400 21.53300
H  13.19300 -0.29100 21.92700
H  13.57500 -2.01300 21.59600
H  12.25400 2.14600 26.41300
H  13.57600 3.24600 26.45400
H  12.10100 3.36300 27.56800
H  13.94200 1.59200 32.51800
H  16.43100 5.11700 33.33400
H  16.32400 4.03500 34.68900
H  14.97000 5.25100 34.35800
Mg 28.53800 57.40100 41.76600
C  25.87000 55.39900 40.50700
C  30.69600 55.40500 40.08600
C  30.77500 59.71100 42.19000
C  25.96400 59.68200 42.69200
N  28.33100 55.64600 40.53300
C  27.19800 54.96100 40.15400
C  27.50500 53.85200 39.20900
C  29.00300 53.57000 39.45900
C  29.41300 54.95500 40.14500
C  29.43800 52.52400 40.40400
C  27.10300 54.26100 37.72000
C  26.46300 53.25300 36.81300
H  26.91500 53.22300 35.36600
N  30.56700 57.47100 41.32200
C  31.25000 56.55400 40.57400
C  32.69700 56.94100 40.54400
C  32.73900 58.21900 41.17400
C  31.36900 58.52600 41.64500
C  33.73900 56.03200 39.90500
C  34.03200 58.98600 41.36800
O  35.02900 58.56800 40.86400
C  34.05500 60.19500 42.20400
N  28.36100 59.39100 42.28700
C  29.46000 60.12400 42.50300
C  29.16000 61.52900 42.87000
C  27.61400 61.54300 43.00200
C  27.26700 60.08300 42.72600
C  29.80000 62.02700 44.19700
C  26.86200 62.55900 42.13300
C  25.72700 63.33700 42.74800
N  26.34400 57.45600 41.84100
C  25.50000 58.41400 42.27500
C  24.11500 57.96800 42.15600
C  24.21800 56.73900 41.46200
C  25.58500 56.54300 41.28100
C  22.81400 58.60000 42.72400
C  23.48000 55.69600 40.84900
O  22.28800 55.52300 40.70500
C  24.51600 54.74800 40.13800
C  24.37400 53.42500 40.74200
O  24.75500 53.07800 41.83400
O  23.75000 52.53500 39.85700
C  23.62000 51.08600 40.22800
H  31.41500 54.86100 39.47000
H  31.48400 60.54100 42.23400
H  25.14700 60.34200 42.99300
H  27.02300 52.92100 39.50800
H  29.56300 53.35700 38.54900
H  29.83800 52.88000 41.35300
H  30.14400 51.85100 39.91700
H  28.64700 51.81100 40.63500
H  28.04800 54.44700 37.20900
H  26.54200 55.19500 37.67800
H  25.37700 53.28200 36.90100
H  26.53400 52.29700 37.33100
H  33.74800 56.03500 38.81500
H  33.57000 54.97600 40.11600
H  34.72300 56.17300 40.35100
H  33.76500 60.99700 41.52500
H  35.00000 60.58900 42.57700
H  33.40100 59.93300 43.03500
H  29.47300 62.08200 41.98500
H  27.41400 61.70300 44.06100
H  30.68700 62.57300 43.87800
H  30.10600 61.21000 44.85100
H  29.23800 62.78000 44.74900
H  26.60300 62.15900 41.15200
H  27.65100 63.26600 41.87700
H  26.08000 64.36700 42.78900
H  25.41200 63.06800 43.75600
H  24.87700 63.40100 42.06800
H  22.67800 58.33500 43.77200
H  21.92800 58.24800 42.19500
H  22.76100 59.68300 42.61500
H  24.45000 54.78200 39.05100
H  24.39400 50.59200 40.81600
H  23.57200 50.50700 39.30600
H  22.70900 51.11100 40.82800

