158

Mg 35.44700 2.52400 30.26100
C  32.83300 3.57400 32.48500
C  37.63200 2.86200 32.83900
C  37.83600 1.96900 28.07500
C  33.03300 2.66800 27.69700
N  35.23000 3.13700 32.38400
C  34.03400 3.30700 33.07000
C  34.31200 3.26400 34.57200
C  35.85200 3.38300 34.62200
C  36.27400 3.04500 33.24500
C  36.39100 4.75400 35.13900
C  33.86300 1.98500 35.26800
C  33.99700 2.08700 36.77800
H  34.60800 3.20900 37.55500
N  37.50600 2.50800 30.43700
C  38.24700 2.58800 31.59500
C  39.63300 2.29900 31.30200
C  39.72300 2.05000 29.88100
C  38.32300 2.17700 29.36500
C  40.67000 2.10000 32.35400
C  40.91900 1.58300 28.99200
O  40.85100 1.44400 27.78000
C  42.27600 1.30000 29.62300
N  35.46400 2.35800 28.15200
C  36.55800 2.03500 27.50600
C  36.32100 1.76900 26.03100
C  34.71800 1.99900 25.93700
C  34.36100 2.32600 27.35000
C  37.14800 2.58300 24.97500
C  34.01700 0.72800 25.37500
C  33.31800 0.90100 23.93500
N  33.30900 2.90500 30.04900
C  32.47000 3.01100 28.94200
C  31.10900 3.38400 29.31800
C  31.26300 3.68700 30.73100
C  32.56500 3.39900 31.09800
C  29.94300 3.55500 28.38500
C  30.55100 4.12500 31.96800
O  29.44500 4.65200 32.02100
C  31.47000 3.88900 33.16000
C  31.51800 5.09100 34.03400
O  31.90900 6.22200 33.72400
O  31.06500 4.78800 35.33700
C  31.00500 5.83200 36.40400
H  38.45400 2.89700 33.55800
H  38.51300 1.46200 27.38400
H  32.34400 2.65900 26.84900
H  33.85200 4.05000 35.17200
H  36.31300 2.57100 35.18500
H  35.65100 5.55000 35.21200
H  37.03100 5.06800 34.31500
H  37.04800 4.52300 35.97700
H  34.62700 1.29500 34.91000
H  32.83600 1.73600 34.99900
H  34.24700 1.07100 37.08500
H  32.94200 2.11300 37.05200
H  40.96500 1.05100 32.36900
H  40.26900 2.29000 33.34900
H  41.58500 2.68700 32.27900
H  42.78800 2.21600 29.92100
H  42.79400 0.68100 28.89200
H  42.19800 0.66900 30.50800
H  36.53500 0.70700 25.91300
H  34.36000 2.80000 25.29000
H  36.59100 3.24100 24.30900
H  37.80500 1.96300 24.36500
H  37.71800 3.23900 25.63300
H  33.31700 0.49800 26.17700
H  34.73200 -0.09400 25.33900
H  32.28100 0.59800 24.08100
H  33.78300 0.17000 23.27300
H  33.38900 1.85900 23.42000
H  29.98700 2.82100 27.58000
H  30.09200 4.54600 27.95700
H  28.99100 3.34900 28.87500
H  31.01800 3.03700 33.66800
H  31.14900 5.41400 37.40000
H  30.04100 6.28500 36.63700
H  31.68700 6.66700 36.24600
Mg -1.02700 35.21100 27.48700
C  -2.53900 33.40300 29.81000
C  0.19300 37.39600 29.70000
C  -0.02000 37.23200 24.79700
C  -2.60600 33.17100 24.99600
N  -1.23300 35.35000 29.45500
C  -1.82000 34.48800 30.31000
C  -1.56200 34.85600 31.76200
C  -0.89000 36.25200 31.70400
C  -0.54400 36.30300 30.15800
C  -1.68000 37.48300 32.16400
C  -0.68300 33.84300 32.56500
C  -1.24100 33.36900 33.95100
H  -0.29700 33.30700 35.17700
N  0.08000 36.93600 27.24500
C  0.46500 37.69500 28.33800
C  1.24300 38.86900 27.88400
C  1.18900 38.80800 26.43900
C  0.33000 37.66100 26.11000
C  2.04400 39.73200 28.78900
C  1.81400 39.66000 25.43500
O  1.81700 39.35100 24.24600
C  2.67500 40.77400 25.81500
N  -1.25200 35.08200 25.29300
C  -0.62800 36.03900 24.44100
C  -0.93700 35.70800 22.91400
C  -1.47700 34.21400 23.06400
C  -1.83700 34.17500 24.52000
C  -2.00500 36.65100 22.29700
C  -0.42000 33.16100 22.68500
C  -0.87700 31.96200 21.88600
N  -2.25700 33.57500 27.35700
C  -2.87200 32.85800 26.33100
C  -3.76600 31.84600 26.84600
C  -3.57800 31.99800 28.20800
C  -2.78600 33.10800 28.45900
C  -4.61900 30.84600 26.19200
C  -3.97500 31.43200 29.46400
O  -4.67300 30.50700 29.72600
C  -3.29000 32.38500 30.60100
C  -4.48900 32.98400 31.31600
O  -5.07600 34.03000 31.00100
O  -4.81600 32.39900 32.48000
C  -6.05100 32.96300 33.02200
H  0.75000 37.99100 30.42700
H  0.36900 37.70800 23.89500
H  -3.14400 32.55000 24.27700
H  -2.53400 34.80200 32.25200
H  0.09300 36.17400 32.16800
H  -1.23200 38.47600 32.12200
H  -2.12000 37.37500 33.15500
H  -2.54300 37.54200 31.50000
H  0.27600 34.23300 32.90600
H  -0.41300 32.97800 31.95900
H  -1.65600 32.38300 33.74100
H  -2.09200 33.96400 34.28100
H  2.03300 39.32500 29.80000
H  1.51200 40.68000 28.71500
H  3.07200 39.94000 28.49500
H  3.50700 40.38300 26.40100
H  2.09600 41.48500 26.40400
H  2.97700 41.31000 24.91600
H  -0.09200 35.90600 22.25500
H  -2.37500 34.07100 22.46300
H  -2.68500 36.11700 21.63300
H  -1.54200 37.39600 21.65100
H  -2.53000 37.11300 23.13300
H  -0.05800 32.74800 23.62700
H  0.37100 33.76700 22.24400
H  -0.09000 31.63300 21.20700
H  -1.83700 32.09500 21.38700
H  -1.06100 31.05500 22.46200
H  -4.32600 29.82000 26.41800
H  -4.57800 31.05400 25.12300
H  -5.63500 31.02100 26.54600
H  -2.70000 31.81300 31.31700
H  -6.73800 33.16300 32.20000
H  -5.90700 33.90800 33.54800
H  -6.44700 32.18000 33.66900

