158

Mg 9.31000 2.92700 27.76000
C  10.63800 1.59100 30.58000
C  7.21100 4.93100 29.75200
C  7.54200 3.95900 25.02300
C  10.86400 0.58000 25.83300
N  9.05400 3.17500 29.93600
C  9.70200 2.53000 30.90200
C  9.30300 3.12400 32.23800
C  8.10500 4.05800 31.90000
C  8.13000 4.07900 30.38600
C  6.69500 3.70800 32.56900
C  10.49600 3.83300 32.90600
C  10.96400 3.42900 34.28700
H  9.93200 3.18600 35.44500
N  7.66400 4.35900 27.37700
C  6.98400 5.04800 28.36900
C  5.96500 5.92000 27.71600
C  6.10000 5.69000 26.33800
C  7.11000 4.62500 26.19700
C  5.27000 7.09500 28.50600
C  5.41700 6.32400 25.11100
O  5.66200 6.08700 23.93200
C  4.26700 7.25000 25.46500
N  9.29000 2.42400 25.67400
C  8.45400 2.99100 24.72000
C  8.75500 2.37900 23.34800
C  9.90000 1.25800 23.60800
C  10.07000 1.41600 25.12000
C  7.53700 2.01300 22.58200
C  11.13500 1.41800 22.77000
C  11.32700 0.16600 21.92800
N  10.57300 1.40700 28.07900
C  11.21900 0.50600 27.17800
C  12.13600 -0.29600 27.90100
C  11.96800 0.09000 29.24900
C  10.96400 1.06400 29.30400
C  13.13400 -1.25100 27.36300
C  12.36000 -0.17800 30.58100
O  13.11400 -0.97700 31.00600
C  11.59100 0.81200 31.45600
C  10.87200 0.05000 32.66200
O  9.81400 -0.51300 32.64200
O  11.67400 0.12200 33.81300
C  11.37700 -0.68100 35.00000
H  6.78400 5.65800 30.44700
H  7.21500 4.51700 24.14300
H  11.33700 -0.19000 25.22000
H  8.96000 2.35000 32.92400
H  8.29900 5.04800 32.31400
H  6.50300 4.59000 33.18000
H  6.90700 2.89100 33.25900
H  5.94200 3.36700 31.85800
H  10.22200 4.88200 33.02100
H  11.35100 3.81800 32.23000
H  11.62000 4.21900 34.65200
H  11.59100 2.56900 34.05300
H  5.65000 8.06500 28.18600
H  5.45100 7.19400 29.57600
H  4.23600 7.10000 28.16000
H  3.47300 6.68700 25.95500
H  3.72500 7.61200 24.59200
H  4.58400 8.14400 26.00100
H  9.23400 3.21500 22.83900
H  9.35700 0.34200 23.37700
H  7.34300 1.05200 22.10500
H  7.54700 2.69900 21.73500
H  6.67500 2.22500 23.21400
H  12.04500 1.47800 23.36700
H  10.97500 2.28900 22.13400
H  11.19600 0.38500 20.86800
H  10.75400 -0.72600 22.18300
H  12.36100 -0.17600 21.96900
H  13.27900 -1.08400 26.29500
H  12.77700 -2.28000 27.39000
H  14.07300 -1.14700 27.90700
H  12.34200 1.49800 31.84700
H  11.53100 -0.03600 35.86600
H  12.12600 -1.45800 35.15300
H  10.33400 -0.98700 35.09000
Mg 25.57200 -7.59900 47.40000
C  27.84800 -5.27900 46.39000
C  23.19200 -6.34900 45.12500
C  23.57100 -10.14500 48.05600
C  28.20600 -9.13700 49.18300
N  25.61400 -6.04300 45.80200
C  26.64600 -5.14500 45.60700
C  26.37800 -4.25800 44.43300
C  24.83600 -4.48400 44.18000
C  24.47500 -5.69200 45.10500
C  23.82700 -3.31700 44.39100
C  27.22700 -4.47200 43.20200
C  28.00100 -3.25700 42.62400
H  27.62300 -2.80800 41.20100
N  23.54600 -8.17300 46.72000
C  22.75800 -7.51300 45.81400
C  21.51600 -8.17900 45.60600
C  21.58000 -9.36000 46.49300
C  22.89600 -9.20600 47.18600
C  20.37400 -7.69400 44.67600
C  20.47600 -10.41200 46.65400
O  19.47400 -10.39100 46.02000
C  20.69100 -11.54700 47.56500
N  25.92800 -9.36600 48.25300
C  24.88500 -10.26000 48.49500
C  25.28900 -11.34100 49.44000
C  26.84700 -11.21700 49.55500
C  27.01000 -9.79100 48.97500
C  24.53800 -11.26900 50.80800
C  27.59400 -12.24100 48.78800
C  28.48800 -13.25700 49.57500
N  27.61700 -7.25500 47.89500
C  28.53200 -7.90300 48.69500
C  29.75800 -7.12600 48.74600
C  29.52000 -6.10600 47.91200
C  28.24100 -6.22200 47.39800
C  31.06200 -7.46400 49.44400
C  30.08800 -4.85300 47.40600
O  31.15200 -4.26400 47.66900
C  29.02500 -4.23800 46.32200
C  28.56200 -2.87500 46.60800
O  27.75900 -2.58700 47.49700
O  28.92100 -1.99200 45.60600
C  28.18400 -0.68400 45.72500
H  22.53200 -5.88300 44.39000
H  22.92900 -10.93200 48.45900
H  28.95800 -9.58500 49.83600
H  26.52700 -3.25800 44.84100
H  24.71600 -4.78400 43.13900
H  23.25300 -3.40500 45.31300
H  23.17200 -3.31500 43.51900
H  24.22900 -2.30700 44.30800
H  26.63400 -4.84100 42.36500
H  27.85000 -5.34700 43.38800
H  29.06900 -3.42300 42.76400
H  27.93000 -2.41600 43.31300
H  20.31900 -6.60600 44.70700
H  19.46800 -8.01300 45.19100
H  20.41600 -8.08800 43.66100
H  20.73300 -11.31600 48.63000
H  21.60100 -12.05900 47.25400
H  19.92200 -12.31200 47.45600
H  24.88800 -12.15300 48.83300
H  27.21800 -11.05900 50.56700
H  23.80900 -10.45900 50.82500
H  25.23800 -11.04300 51.61200
H  24.11200 -12.19600 51.19200
H  28.09200 -11.75300 47.95000
H  26.90700 -12.88300 48.23600
H  29.54200 -13.10000 49.34500
H  28.41100 -14.30100 49.27000
H  28.41900 -13.02600 50.63800
H  31.74700 -7.89700 48.71500
H  30.78400 -8.26300 50.13200
H  31.54400 -6.61200 49.92400
H  29.63000 -4.21300 45.41600
H  27.12500 -0.93600 45.78300
H  28.42200 -0.17600 44.79000
H  28.53000 -0.10800 46.58300

