158

Mg 54.28100 24.86700 43.88000
C  51.52600 26.99100 43.68000
C  52.34800 22.27800 42.67700
C  57.02200 22.98100 43.25300
C  56.33000 27.59100 44.47000
N  52.18300 24.65900 43.08500
C  51.18500 25.65000 43.18100
C  49.81900 25.12100 42.74200
C  50.10300 23.55300 42.78900
C  51.63500 23.47600 42.83200
C  49.39700 22.71900 43.93500
C  49.19600 25.57400 41.37800
C  50.06900 25.88100 40.13000
H  49.80100 25.06800 38.83200
N  54.60200 22.88700 43.18100
C  53.70800 22.02500 42.76600
C  54.33400 20.70200 42.48000
C  55.73600 20.88600 42.55300
C  55.84100 22.26700 43.01000
C  53.46400 19.49800 42.07700
C  56.80200 19.89700 42.20000
O  56.39900 18.81300 41.72900
C  58.20700 20.09900 42.45500
N  56.39400 25.29800 43.74200
C  57.33000 24.31100 43.65600
C  58.80000 24.82900 43.84600
C  58.54800 26.29000 44.24400
C  57.04200 26.40800 44.16000
C  59.64600 23.88900 44.85500
C  59.39100 27.35100 43.42600
C  60.67200 27.85600 44.19800
N  53.98800 26.85000 44.20000
C  54.92100 27.84800 44.46900
C  54.21600 29.11400 44.74300
C  52.87100 28.78900 44.42900
C  52.83700 27.45700 44.05900
C  54.83100 30.46700 45.11800
C  51.55100 29.29300 44.34300
O  51.04700 30.34400 44.72500
C  50.66300 28.21200 43.69700
C  50.24800 28.63400 42.32800
O  51.03100 28.56200 41.37900
O  48.93700 29.11700 42.29100
C  48.69600 29.87700 41.04200
H  51.67100 21.49900 42.32000
H  57.99900 22.57400 42.98700
H  56.95900 28.44200 44.73900
H  49.18800 25.44900 43.56800
H  49.75800 23.05500 41.88300
H  48.83300 23.39700 44.57600
H  50.20300 22.10800 44.34200
H  48.66700 22.11700 43.39400
H  48.57700 26.41300 41.69600
H  48.44800 24.85600 41.04200
H  51.12400 25.71300 40.34500
H  49.94300 26.93800 39.89500
H  53.14500 19.48300 41.03500
H  52.46100 19.53200 42.50300
H  53.90100 18.55100 42.39400
H  58.71400 19.14900 42.28800
H  58.32800 20.41200 43.49200
H  58.59100 20.86400 41.78000
H  59.32400 24.70500 42.89800
H  58.91900 26.37900 45.26500
H  59.00400 23.01900 44.99600
H  59.61600 24.40200 45.81600
H  60.65300 23.60000 44.55600
H  58.71500 28.19500 43.28600
H  59.70500 26.89400 42.48700
H  61.50800 27.41500 43.65600
H  60.71000 27.51900 45.23400
H  60.77000 28.93800 44.11500
H  55.91100 30.32200 45.09500
H  54.49700 30.78800 46.10500
H  54.60600 31.22200 44.36500
H  49.77800 28.13300 44.32900
H  49.56300 30.46000 40.73200
H  48.07200 30.70900 41.36800
H  48.27000 29.17100 40.32900
Mg 46.77900 16.62600 28.10300
C  45.07800 16.07200 31.17700
C  49.14400 18.33300 30.02300
C  48.25400 17.55200 25.27300
C  44.15000 15.23300 26.36200
N  47.06900 17.16400 30.38100
C  46.34200 16.64600 31.39300
C  46.97800 17.00000 32.75800
C  48.11100 18.10200 32.34700
C  48.18200 17.85900 30.81900
C  47.85700 19.56900 32.88100
C  47.32700 15.80800 33.65100
C  47.38800 15.99900 35.14200
H  47.19800 17.31200 35.76200
N  48.54900 17.65300 27.70000
C  49.37000 18.23200 28.63100
C  50.58100 18.77600 27.95400
C  50.23500 18.66600 26.51900
C  48.98800 17.95200 26.42900
C  51.75400 19.35900 28.65600
C  51.05600 19.16500 25.40700
O  50.68400 19.23300 24.25000
C  52.38300 19.73100 25.64100
N  46.33500 16.21800 26.06300
C  47.11700 16.71900 25.11200
C  46.53300 16.41200 23.67800
C  45.27400 15.62100 24.01100
C  45.21700 15.64300 25.57500
C  46.31900 17.68300 22.84500
C  45.29000 14.12200 23.31700
C  44.09400 13.69200 22.43300
N  44.93500 15.84900 28.55600
C  43.99900 15.23800 27.76100
C  42.92800 14.78800 28.58400
C  43.29300 15.07000 29.89300
C  44.56900 15.68800 29.87000
C  41.60900 14.18800 27.99500
C  42.89300 14.91000 31.23600
O  41.87300 14.43300 31.70200
C  43.98400 15.63200 32.14800
C  43.43200 16.88600 32.90900
O  42.91500 17.89400 32.44700
O  43.57200 16.58300 34.20500
C  42.99100 17.49700 35.21100
H  49.86500 18.92900 30.58600
H  48.72000 17.89200 24.34500
H  43.28100 14.97600 25.75300
H  46.15400 17.45100 33.31000
H  49.10000 17.84200 32.72300
H  48.60800 19.93800 33.57900
H  46.88400 19.56900 33.37100
H  47.70500 20.27800 32.06800
H  48.33700 15.56400 33.32300
H  46.56500 15.06400 33.41800
H  48.26300 15.44300 35.47800
H  46.48400 15.50500 35.49800
H  52.69300 19.12200 28.15700
H  51.82200 18.88000 29.63300
H  51.69200 20.42900 28.85600
H  52.25700 20.58200 26.31000
H  52.90200 20.19000 24.80000
H  52.88400 18.88100 26.10400
H  47.25800 15.76500 23.18500
H  44.39600 16.14000 23.62800
H  46.28900 18.64200 23.36100
H  45.36000 17.50400 22.35800
H  47.12000 17.83100 22.12200
H  45.32000 13.38800 24.12200
H  46.16400 14.14800 22.66500
H  43.72000 12.75200 22.83700
H  44.44100 13.62200 21.40200
H  43.33000 14.45200 22.60100
H  41.12300 14.97700 27.42200
H  40.95700 13.67800 28.70500
H  41.86400 13.37500 27.31500
H  44.33100 14.87900 32.85400
H  43.38700 17.25700 36.19800
H  41.90300 17.43100 35.23000
H  43.23600 18.53700 34.99800

