158

Mg 1.52400 -1.94300 44.16900
C  4.92100 -1.05900 43.70500
C  0.75300 1.06500 42.60500
C  -1.61000 -3.04700 43.94400
C  2.65600 -5.19700 44.98000
N  2.69000 -0.17900 43.27700
C  4.10500 -0.03200 43.23900
C  4.54600 1.26700 42.58900
C  3.15900 2.06100 42.51300
C  2.08000 0.95400 42.84500
C  2.93600 3.33100 43.36200
C  5.18800 0.96500 41.26500
C  6.64100 1.55700 41.11500
H  6.64800 2.54400 39.90800
N  -0.19800 -1.15700 43.34800
C  -0.31700 0.10300 42.73600
C  -1.61400 0.27500 42.17200
C  -2.41600 -0.90000 42.51700
C  -1.44300 -1.78100 43.31600
C  -1.94900 1.35700 41.23500
C  -3.80700 -1.15900 42.10500
O  -4.35500 -0.22800 41.48400
C  -4.49900 -2.46500 42.45300
N  0.71300 -3.84100 44.39200
C  -0.68000 -3.99500 44.42400
C  -1.14700 -5.48400 44.66500
C  0.27000 -6.11700 44.88500
C  1.27000 -4.96400 44.84400
C  -2.06400 -5.72500 45.93200
C  0.46200 -7.26600 43.80200
C  0.01100 -8.69200 44.23800
N  3.43700 -2.96100 44.52400
C  3.75500 -4.25800 44.83200
C  5.17800 -4.39700 44.89400
C  5.62800 -3.14500 44.62900
C  4.55200 -2.32700 44.26300
C  5.80600 -5.70600 45.20700
C  6.81900 -2.44000 44.48000
O  7.98400 -2.79600 44.70300
C  6.40600 -1.01700 43.96300
C  6.78000 0.09600 44.88600
O  6.10600 0.43800 45.78400
O  7.91000 0.76200 44.47900
C  8.37600 2.02100 45.17800
H  0.62200 2.06100 42.17700
H  -2.68100 -3.25100 43.88300
H  3.01200 -6.17500 45.31000
H  5.22200 1.81200 43.24800
H  2.85400 2.37800 41.51500
H  3.97600 3.62700 43.50500
H  2.47900 3.15800 44.33600
H  2.45000 4.18300 42.88700
H  4.57900 1.34000 40.44200
H  5.21300 -0.09200 40.99900
H  7.35100 0.74100 40.98000
H  6.89900 2.04800 42.05400
H  -2.30200 0.95400 40.28600
H  -1.13300 2.00700 40.91800
H  -2.67700 1.98700 41.74600
H  -5.45200 -2.54600 41.93100
H  -4.63900 -2.54900 43.53000
H  -3.92900 -3.28600 42.01700
H  -1.57400 -5.73700 43.69500
H  0.42400 -6.63800 45.83000
H  -3.09100 -5.53500 45.62200
H  -1.64800 -5.04500 46.67500
H  -2.08100 -6.71100 46.39500
H  1.51300 -7.28900 43.51500
H  -0.00900 -6.90000 42.89000
H  -0.71100 -9.07900 43.51900
H  -0.46100 -8.67500 45.22000
H  0.86100 -9.37000 44.31400
H  5.58200 -6.36300 44.36700
H  5.47500 -6.08200 46.17500
H  6.85300 -5.48200 45.41100
H  6.92700 -0.85600 43.01900
H  8.18900 2.94800 44.63700
H  9.45500 2.06300 45.32600
H  7.88400 2.07900 46.14900
Mg 41.35200 40.99400 26.89000
C  40.71300 43.28700 29.57100
C  42.30500 38.79700 29.39200
C  42.08100 38.92700 24.56000
C  40.85900 43.67300 24.60000
N  41.45100 41.02800 29.20800
C  41.11400 42.01500 30.05700
C  41.04200 41.55000 31.51100
C  41.91900 40.29400 31.43400
C  41.93800 40.00400 29.89500
C  43.44000 40.56600 32.00400
C  39.63300 41.38400 32.13700
C  39.25600 42.36500 33.30700
H  38.48800 41.77900 34.51200
N  41.95700 39.09000 27.00600
C  42.26700 38.40200 28.14000
C  42.67800 37.03200 27.76300
C  42.68900 37.03800 26.31300
C  42.15100 38.36900 25.87300
C  42.97200 35.89200 28.70300
C  43.07500 35.92900 25.36700
O  42.91300 35.96800 24.17000
C  43.60300 34.64600 25.89600
N  41.64700 41.31500 24.84200
C  41.77400 40.17700 24.10700
C  41.73500 40.52500 22.60700
C  41.22700 41.96600 22.67600
C  41.26600 42.34700 24.10800
C  43.07300 40.30800 21.96500
C  39.90200 42.31400 21.98700
C  38.63400 41.74200 22.63100
N  40.75900 42.99700 26.96900
C  40.70600 43.99300 26.01200
C  40.33300 45.26300 26.58700
C  40.31500 44.98000 27.99500
C  40.61600 43.59600 28.14500
C  40.02400 46.56800 25.85200
C  40.07400 45.69700 29.25600
O  39.92000 46.92000 29.41500
C  40.30400 44.57400 30.34400
C  41.36600 45.09900 31.31600
O  42.56100 44.93700 31.19000
O  40.82000 45.75500 32.38800
C  41.69600 46.41300 33.43400
H  42.66800 38.09300 30.14400
H  42.29800 38.18800 23.78600
H  40.65700 44.43500 23.84500
H  41.63000 42.30100 32.04000
H  41.42400 39.42800 31.87300
H  44.14300 40.62200 31.17300
H  43.64500 39.89400 32.83700
H  43.52600 41.54400 32.47700
H  39.50500 40.37500 32.53000
H  38.88600 41.62500 31.38100
H  38.69000 43.19300 32.87800
H  40.15600 42.80300 33.73700
H  42.28400 35.05500 28.58200
H  42.91100 36.24300 29.73300
H  43.95900 35.50300 28.45300
H  42.79300 34.23000 26.49500
H  44.51500 34.76100 26.48200
H  43.66700 34.02400 25.00300
H  41.05000 39.83100 22.12000
H  41.92600 42.63800 22.17700
H  43.13600 39.36200 21.42600
H  43.83000 40.26700 22.74800
H  43.31500 41.05400 21.20800
H  39.92900 41.80700 21.02200
H  39.80200 43.39500 21.88300
H  38.87500 41.10000 23.47900
H  37.97600 41.24300 21.91900
H  38.13500 42.62200 23.03700
H  39.62400 47.29700 26.55700
H  39.23700 46.40600 25.11600
H  40.88900 47.02800 25.37300
H  39.36400 44.47500 30.88600
H  42.76300 46.30800 33.23300
H  41.55500 45.86200 34.36400
H  41.42100 47.44500 33.65100

