158

Mg 25.20400 1.69800 30.05200
C  27.05100 1.80300 33.03800
C  22.32100 1.96000 31.93800
C  23.40900 1.33500 27.21700
C  28.03100 0.66700 28.29700
N  24.75500 1.85200 32.23400
C  25.65400 2.05500 33.18500
C  25.03200 2.30700 34.51000
C  23.46900 2.27200 34.22100
C  23.48700 1.93900 32.71700
C  22.64900 1.43600 35.13900
C  25.51300 3.68200 35.10400
C  26.33700 3.65400 36.38500
H  25.87700 4.56100 37.62700
N  23.18600 1.62000 29.64100
C  22.14600 1.81600 30.53100
C  20.89500 1.83300 29.78700
C  21.23300 1.54900 28.36900
C  22.66700 1.49200 28.34400
C  19.50300 1.92700 30.47000
C  20.25700 1.25200 27.20600
O  20.57500 1.24600 26.03000
C  18.80000 1.06100 27.49800
N  25.64000 1.04600 28.04000
C  24.80700 1.23200 26.99100
C  25.48000 1.15400 25.64800
C  26.97900 0.86500 26.02100
C  26.89400 0.81200 27.50600
C  24.73100 0.28400 24.55900
C  28.01100 1.79800 25.33300
C  28.07300 1.77700 23.80400
N  27.18600 1.38800 30.49200
C  28.16700 0.91400 29.66200
C  29.28600 0.77600 30.50700
C  28.95400 1.11400 31.75700
C  27.61300 1.47100 31.78400
C  30.55900 0.32300 29.88600
C  29.43800 1.32500 33.12800
O  30.59300 1.09100 33.49400
C  28.27000 1.69600 34.10100
C  28.19700 0.51800 35.07800
O  27.68300 -0.57600 34.93100
O  28.94800 0.90500 36.19200
C  29.06800 -0.12400 37.25100
H  21.36200 1.98000 32.45900
H  22.92600 1.36900 26.23900
H  28.96800 0.42200 27.79100
H  25.42500 1.44000 35.04000
H  23.05800 3.28100 34.18500
H  22.50300 0.53600 34.54200
H  21.65300 1.80700 35.38100
H  23.24100 1.11900 35.99800
H  24.71000 4.41200 35.20100
H  26.19500 4.05400 34.34000
H  27.31500 4.06100 36.12600
H  26.35700 2.65600 36.82300
H  19.14400 0.99700 30.90800
H  18.86300 2.48300 29.78400
H  19.61900 2.56000 31.35000
H  18.30500 0.65100 26.61800
H  18.56400 2.11300 27.65800
H  18.46500 0.47900 28.35700
H  25.42300 2.15600 25.22300
H  27.22600 -0.09100 25.55800
H  23.71300 -0.03000 24.79000
H  25.28300 -0.61700 24.29400
H  24.51400 0.88400 23.67600
H  29.05400 1.60800 25.58900
H  27.79600 2.81600 25.65600
H  28.99000 1.28500 23.47900
H  28.07900 2.79700 23.42200
H  27.24200 1.15500 23.47000
H  30.96100 1.18000 29.34500
H  30.53600 -0.48900 29.15800
H  31.26000 0.08300 30.68600
H  28.39100 2.58200 34.72400
H  29.56100 -0.98200 36.79500
H  28.12700 -0.52500 37.63000
H  29.65200 0.27900 38.07900
Mg 43.76600 4.88300 47.75500
C  41.66700 7.80600 47.57300
C  40.91400 2.97500 47.67900
C  45.65700 2.35100 47.08600
C  46.42200 7.06900 47.11100
N  41.61900 5.36200 47.51900
C  40.99800 6.60400 47.58000
C  39.45700 6.49700 47.48800
C  39.26900 4.88700 47.65100
C  40.71000 4.34600 47.69300
C  38.43200 4.45100 48.86100
C  38.72100 7.09800 46.25200
C  39.37600 6.96200 44.85800
H  39.56700 8.25300 43.95700
N  43.37300 2.89600 47.50900
C  42.14300 2.29000 47.54900
C  42.22500 0.85200 47.35900
C  43.66100 0.64700 47.00500
C  44.28500 2.01900 47.13400
C  41.06800 -0.10500 47.35800
C  44.26200 -0.62700 46.65800
O  43.60000 -1.67300 46.62400
C  45.74700 -0.71000 46.26800
N  45.73200 4.73000 47.16600
C  46.34600 3.53600 47.09400
C  47.87900 3.58600 46.83700
C  48.04200 5.09100 46.60700
C  46.63600 5.66600 46.97400
C  48.73900 3.01700 47.95300
C  48.59200 5.48200 45.20600
C  50.10300 5.87700 45.06200
N  44.04900 7.03600 47.61900
C  45.19500 7.69900 47.39000
C  44.97700 9.11900 47.49200
C  43.57400 9.22800 47.58900
C  43.04800 7.94900 47.55200
C  46.05200 10.21900 47.33800
C  42.43900 10.09600 47.68400
O  42.31200 11.36800 47.70500
C  41.17100 9.20900 47.55200
C  40.22100 9.49000 48.65100
O  40.30700 8.99000 49.72800
O  39.30000 10.36400 48.24800
C  38.39800 10.75300 49.36000
H  39.96900 2.43500 47.77000
H  46.43600 1.60500 46.91600
H  47.30000 7.70400 46.98200
H  39.08500 7.09200 48.32200
H  38.73400 4.48400 46.79100
H  39.08100 3.96300 49.58800
H  37.73800 3.65400 48.59400
H  37.95700 5.29100 49.36800
H  38.49300 8.13900 46.47700
H  37.70300 6.74600 46.08400
H  38.84200 6.12800 44.40100
H  40.41900 6.66500 44.96400
H  40.11300 0.41500 47.42900
H  41.17600 -0.77200 48.21300
H  41.15500 -0.67300 46.43100
H  46.42100 -0.56300 47.11200
H  46.11200 -0.09600 45.44500
H  46.12400 -1.66400 45.90100
H  47.88700 2.98800 45.92600
H  48.61200 5.47000 47.45500
H  49.18200 2.13100 47.49800
H  48.17600 2.65600 48.81300
H  49.52800 3.68700 48.29400
H  48.03200 6.30100 44.75600
H  48.42000 4.61200 44.57100
H  50.52200 5.21100 44.30800
H  50.59700 5.83800 46.03300
H  50.06500 6.90900 44.71400
H  46.74300 10.16500 48.17900
H  45.58900 11.20100 47.24000
H  46.62000 9.95100 46.44800
H  40.81900 9.43900 46.54600
H  37.75300 9.97400 49.76700
H  37.71700 11.46300 48.89100
H  38.97100 11.23600 50.15200

