158

Mg 47.34800 25.31800 27.72400
C  48.11700 27.50600 30.34300
C  47.07200 22.78600 29.97200
C  46.77200 23.20400 25.13900
C  48.14200 27.89800 25.50900
N  47.66100 25.23900 29.89800
C  47.82700 26.21700 30.81400
C  47.65600 25.83700 32.27500
C  47.46400 24.29700 32.05800
C  47.43000 24.04100 30.58200
C  48.60000 23.47600 32.79500
C  46.57300 26.59500 33.01800
C  46.31000 25.99200 34.49500
H  45.85500 26.94300 35.57300
N  46.95900 23.28500 27.59700
C  46.92600 22.39100 28.59600
C  46.56800 21.10300 28.15300
C  46.37900 21.17400 26.68900
C  46.76900 22.62100 26.39100
C  46.22200 19.97300 29.11200
C  45.92900 20.03100 25.66400
O  45.72100 20.36500 24.51700
C  45.62200 18.54800 26.10100
N  47.61000 25.47300 25.65700
C  47.06400 24.51900 24.80600
C  47.20400 24.87100 23.35300
C  47.53600 26.42500 23.41200
C  47.73400 26.63400 24.95900
C  48.17900 24.07700 22.46800
C  46.43900 27.31900 22.71500
C  46.93800 28.54400 21.96700
N  48.10200 27.32400 27.83700
C  48.34200 28.25300 26.83500
C  48.77800 29.46900 27.42300
C  48.62300 29.25100 28.82900
C  48.28500 27.88900 29.01500
C  49.11700 30.79300 26.74400
C  48.69600 29.88700 30.16400
O  49.05700 31.02100 30.45600
C  48.39800 28.76300 31.14200
C  49.50100 28.67700 32.16800
O  50.60400 28.19700 32.13000
O  49.00000 29.15400 33.32200
C  49.86200 29.10100 34.51300
H  46.85500 22.15200 30.83500
H  46.54900 22.47600 24.35600
H  48.36700 28.76300 24.88100
H  48.66100 25.94400 32.68300
H  46.51600 23.98400 32.49500
H  49.08500 22.64900 32.27600
H  48.12700 23.12000 33.71000
H  49.45400 24.10500 33.04600
H  45.61200 26.51700 32.51000
H  46.84400 27.64300 33.14700
H  47.13800 25.39700 34.88100
H  45.48700 25.28100 34.41600
H  45.15700 19.84800 28.91600
H  46.41800 20.33200 30.12200
H  46.90700 19.15900 28.87400
H  44.66900 18.45100 26.62300
H  46.46000 18.23700 26.72500
H  45.60700 17.87000 25.24800
H  46.24600 24.66200 22.87600
H  48.46400 26.66600 22.89300
H  49.07400 24.52800 22.04100
H  47.64900 23.64000 21.62200
H  48.59500 23.24800 23.04200
H  45.68600 27.62100 23.44300
H  45.94700 26.70300 21.96100
H  46.53700 28.59300 20.95400
H  48.01700 28.67400 22.05200
H  46.57100 29.46600 22.41700
H  48.33800 31.51200 27.00000
H  49.37200 30.72000 25.68700
H  50.04500 31.05700 27.25200
H  47.51300 29.10400 31.67800
H  49.51200 29.75000 35.31600
H  50.87100 29.45300 34.29500
H  49.93300 28.06400 34.83900
Mg -5.62500 25.69700 25.94500
C  -4.36300 27.26400 28.90800
C  -7.38900 23.50100 27.88500
C  -6.29500 23.93900 23.26200
C  -3.30400 27.63300 24.26300
N  -5.75200 25.33700 28.09900
C  -5.22800 26.18300 29.18000
C  -5.81900 25.70000 30.48600
C  -6.44700 24.31000 30.10100
C  -6.60300 24.37700 28.61700
C  -5.48800 23.09000 30.45500
C  -6.77600 26.73900 31.03000
C  -6.86100 27.02800 32.55300
H  -6.27200 26.02900 33.57900
N  -6.78300 24.08700 25.55600
C  -7.48500 23.28200 26.48300
C  -8.12700 22.23200 25.80200
C  -7.85400 22.35800 24.39300
C  -6.96200 23.52800 24.32600
C  -8.86300 21.06200 26.46300
C  -8.21600 21.50300 23.13800
O  -7.80600 21.63300 22.02200
C  -9.29200 20.47000 23.29800
N  -4.87400 25.70700 24.11100
C  -5.24600 24.84600 23.11800
C  -4.54100 25.12800 21.80300
C  -3.57900 26.31100 22.09400
C  -3.94600 26.62400 23.57100
C  -3.84800 23.78500 21.21200
C  -3.58600 27.44000 20.97500
C  -4.64800 28.55400 21.08400
N  -4.19100 27.27200 26.43200
C  -3.40300 27.98500 25.57500
C  -2.77300 29.05100 26.29900
C  -3.07200 28.77900 27.66300
C  -3.93300 27.66800 27.66000
C  -1.96200 30.16500 25.78400
C  -2.84400 29.11000 29.04400
O  -2.19100 30.02200 29.47500
C  -3.63500 28.14200 29.94000
C  -2.66800 27.44200 30.79600
O  -1.50200 27.25000 30.47600
O  -3.16000 27.36600 32.11700
C  -2.11900 27.31000 33.18500
H  -7.78800 22.72500 28.54100
H  -6.62100 23.58400 22.28200
H  -2.50800 28.12900 23.70400
H  -5.07000 25.60400 31.27200
H  -7.41300 24.06600 30.54300
H  -4.65600 23.46900 31.04800
H  -5.05100 22.72700 29.52500
H  -5.96800 22.30700 31.04200
H  -7.77400 26.34900 30.83000
H  -6.71300 27.69300 30.50600
H  -7.89600 27.10700 32.88300
H  -6.31500 27.95800 32.70900
H  -9.84600 21.53100 26.46500
H  -8.57600 20.89500 27.50200
H  -9.01800 20.08500 26.00400
H  -9.92700 20.43400 22.41200
H  -9.99900 20.77600 24.06900
H  -8.84800 19.48300 23.42200
H  -5.31900 25.50100 21.13700
H  -2.56500 25.92600 22.19700
H  -4.21600 23.70100 20.18900
H  -4.25700 22.90200 21.70400
H  -2.77000 23.92800 21.27900
H  -3.75300 27.01500 19.98500
H  -2.57500 27.84600 20.95700
H  -4.93600 28.86100 22.09000
H  -5.46700 28.22400 20.44500
H  -4.19100 29.40100 20.57300
H  -1.63100 30.88300 26.53400
H  -2.72800 30.68200 25.20500
H  -1.13900 29.96600 25.09700
H  -4.36800 28.73500 30.48800
H  -2.10400 26.36500 33.72800
H  -2.36700 28.11200 33.88000
H  -1.18900 27.59000 32.69100

