158

Mg -11.73500 37.74800 42.74100
C  -9.54000 35.17300 41.88700
C  -9.46300 39.95600 41.16000
C  -13.89500 40.02100 43.24100
C  -14.08000 35.24400 43.82500
N  -9.74300 37.56700 41.55500
C  -9.05100 36.40100 41.42000
C  -7.83600 36.64300 40.55800
C  -7.65100 38.15800 40.65800
C  -9.03900 38.62100 41.19600
C  -6.49800 38.78700 41.56000
C  -7.98500 35.99200 39.12100
C  -7.15000 36.59000 37.99800
H  -6.50600 35.59400 37.00200
N  -11.73100 39.71000 42.23000
C  -10.67800 40.42400 41.69200
C  -11.10900 41.83500 41.71900
C  -12.41000 41.90800 42.30600
C  -12.67900 40.48600 42.65100
C  -10.20000 42.95700 41.21000
C  -13.16500 43.12700 42.55700
O  -12.68100 44.20400 42.18600
C  -14.60300 43.24600 43.01700
N  -13.87800 37.63000 43.21400
C  -14.44000 38.79400 43.54900
C  -15.75200 38.59700 44.35300
C  -15.65700 37.04400 44.68400
C  -14.51600 36.60000 43.81600
C  -16.03600 39.43500 45.61300
C  -16.99600 36.21400 44.54100
C  -17.39900 35.42200 45.82400
N  -11.92500 35.67900 42.83400
C  -12.86800 34.80000 43.37000
C  -12.36100 33.43200 43.31800
C  -11.01000 33.53000 42.83500
C  -10.77900 34.92700 42.48600
C  -13.15900 32.17200 43.60400
C  -9.86000 32.78600 42.52600
O  -9.54200 31.61200 42.78200
C  -8.82800 33.80800 41.89100
C  -7.52700 33.85100 42.68400
O  -7.27500 34.63800 43.58300
O  -6.66900 32.90800 42.20500
C  -5.33200 32.86400 42.82000
H  -8.80300 40.68600 40.68700
H  -14.56300 40.81300 43.58900
H  -14.75700 34.49700 44.24500
H  -7.01200 36.09300 41.01400
H  -7.54300 38.56600 39.65300
H  -6.90600 39.26000 42.45300
H  -5.97300 39.57600 41.02300
H  -5.87200 37.95700 41.88800
H  -9.05900 35.97100 38.93600
H  -7.74800 34.92800 39.13200
H  -6.32500 37.04600 38.54500
H  -7.70300 37.39500 37.51400
H  -9.15800 42.63900 41.23300
H  -10.27000 43.94500 41.66600
H  -10.37000 43.17500 40.15500
H  -15.18300 42.47200 42.51400
H  -14.99100 44.17500 42.59800
H  -14.65900 43.10500 44.09600
H  -16.61000 38.80400 43.71300
H  -15.30300 36.91400 45.70700
H  -16.81400 40.16200 45.38100
H  -15.13900 40.00700 45.85200
H  -16.47600 38.89300 46.45000
H  -16.72100 35.56800 43.70700
H  -17.85300 36.81500 44.23500
H  -16.61100 35.60200 46.55400
H  -17.47900 34.34500 45.67300
H  -18.38800 35.78700 46.10100
H  -12.73600 31.42800 42.93000
H  -14.20900 32.32100 43.35100
H  -13.05400 31.89500 44.65300
H  -8.49000 33.48200 40.90700
H  -4.62100 32.41400 42.12800
H  -5.28100 32.24300 43.71500
H  -4.94600 33.84700 43.08900
Mg -1.94100 34.28600 25.78000
C  -3.65000 32.58700 28.30100
C  -0.70200 36.36800 28.11300
C  -0.36400 35.62300 23.33700
C  -3.52700 32.01300 23.41700
N  -2.29600 34.56400 28.00200
C  -2.90000 33.64100 28.84600
C  -2.83700 34.04800 30.24000
C  -2.00900 35.36100 30.09900
C  -1.53200 35.41400 28.67500
C  -2.77700 36.68900 30.46400
C  -2.26400 32.91600 31.18300
C  -1.49300 33.26500 32.48700
H  -1.79900 32.37500 33.67800
N  -0.72000 35.85400 25.71300
C  -0.25800 36.58900 26.76400
C  0.68000 37.61400 26.24400
C  0.81600 37.35700 24.86300
C  -0.16400 36.28000 24.59400
C  1.38500 38.63900 27.08700
C  1.75000 37.99900 23.75000
O  1.77200 37.72700 22.56100
C  2.65200 39.06700 24.06400
N  -2.04900 33.89400 23.62500
C  -1.20400 34.59700 22.81000
C  -0.98300 33.90200 21.43300
C  -1.86600 32.69500 21.59500
C  -2.51900 32.89800 22.95200
C  -1.24100 34.81600 20.23300
C  -1.16600 31.29600 21.39900
C  0.06700 31.14000 22.30100
N  -3.38200 32.79600 25.75200
C  -3.90600 31.91900 24.72800
C  -4.84500 30.97400 25.35800
C  -4.76800 31.24900 26.73100
C  -3.84600 32.34900 26.92200
C  -5.66400 29.96200 24.71100
C  -5.35800 30.77900 27.97100
O  -6.17100 29.89200 28.18700
C  -4.62500 31.65900 29.05300
C  -5.60600 32.36700 29.86700
O  -6.34000 33.17000 29.44400
O  -5.63200 31.84600 31.11400
C  -6.29500 32.56700 32.18300
H  -0.17400 37.08700 28.74200
H  0.38100 35.93300 22.60100
H  -3.88000 31.14500 22.85700
H  -3.80900 34.36300 30.61900
H  -1.21400 35.33900 30.84500
H  -2.47900 37.01700 31.46000
H  -3.84200 36.47300 30.54200
H  -2.71900 37.41500 29.65300
H  -1.42800 32.40000 30.71100
H  -3.11700 32.29000 31.44500
H  -1.82700 34.27700 32.71600
H  -0.40900 33.18600 32.40800
H  1.26000 39.59600 26.57800
H  2.41000 38.29300 27.21600
H  1.01100 38.64100 28.11000
H  2.17700 39.81200 24.70300
H  3.09100 39.37400 23.11500
H  3.31200 38.50200 24.72200
H  0.04600 33.56400 21.30700
H  -2.64200 32.76000 20.83200
H  -0.31600 35.04500 19.70500
H  -1.63900 35.73900 20.65400
H  -1.95100 34.47700 19.47900
H  -0.80500 31.08700 20.39200
H  -1.92800 30.54800 21.61800
H  -0.07900 31.74200 23.19800
H  1.03400 31.37600 21.85600
H  0.12000 30.10900 22.65100
H  -5.34600 28.97300 25.03900
H  -5.55600 30.09700 23.63500
H  -6.68700 30.22300 24.98000
H  -4.20700 30.83800 29.63500
H  -5.68400 33.44000 32.41200
H  -6.25500 32.00000 33.11300
H  -7.34400 32.78600 31.98000

