158

Mg 2.01700 -1.50600 44.49400
C  5.42400 -0.62600 43.75900
C  1.12400 1.11200 42.30900
C  -1.12700 -2.60500 44.72100
C  3.22400 -4.46400 45.78000
N  3.11900 -0.05000 43.05700
C  4.51600 0.12500 43.07300
C  4.89700 1.26800 42.13300
C  3.52500 1.96100 41.93800
C  2.50900 0.99600 42.44000
C  3.48100 3.36200 42.53200
C  5.55100 0.77100 40.88300
C  6.60000 1.85300 40.36300
H  6.55000 2.30300 38.94900
N  0.21100 -0.79600 43.75700
C  0.09000 0.25800 42.86300
C  -1.34900 0.45200 42.66600
C  -2.01700 -0.63800 43.32000
C  -0.93600 -1.43300 44.00400
C  -1.87800 1.42300 41.67900
C  -3.51200 -0.81600 43.34400
O  -4.13600 -0.01000 42.72700
C  -4.17700 -1.97300 44.07700
N  1.14500 -3.33500 45.10500
C  -0.17500 -3.52500 45.12200
C  -0.46700 -4.91300 45.73200
C  0.89200 -5.55300 45.93700
C  1.81400 -4.42200 45.60900
C  -1.32700 -4.84600 47.10100
C  1.19500 -6.80500 44.97100
C  0.62900 -8.25500 45.42400
N  3.88400 -2.33900 44.83800
C  4.23300 -3.55300 45.38800
C  5.64100 -3.71900 45.61000
C  6.17000 -2.58200 45.02300
C  5.05400 -1.77400 44.51200
C  6.29200 -4.88500 46.18400
C  7.37900 -1.83300 44.68400
O  8.50600 -2.09400 45.02000
C  6.96000 -0.57900 43.92200
C  7.54900 0.64200 44.51800
O  7.44100 0.93800 45.69500
O  8.22800 1.40400 43.55900
C  8.76800 2.69400 44.02400
H  0.99300 2.06400 41.79100
H  -2.11300 -3.07400 44.70100
H  3.45100 -5.45900 46.16800
H  5.65200 1.82300 42.69100
H  3.32400 2.12300 40.87900
H  3.68800 4.14500 41.80300
H  4.15100 3.36500 43.39200
H  2.52000 3.68200 42.93500
H  4.77300 0.75900 40.11900
H  5.95900 -0.23800 40.94000
H  7.53600 1.30600 40.47700
H  6.63100 2.75500 40.97500
H  -2.32400 0.85400 40.86200
H  -1.12700 2.04400 41.19100
H  -2.63300 2.03100 42.17800
H  -5.25400 -1.84800 43.96600
H  -3.93400 -1.81400 45.12800
H  -3.87900 -2.92000 43.62800
H  -1.10800 -5.34300 44.96300
H  1.07300 -5.87600 46.96200
H  -1.66000 -5.82800 47.43700
H  -2.17500 -4.26600 46.73800
H  -0.75700 -4.36900 47.89800
H  2.25300 -6.92900 44.74200
H  0.68200 -6.53800 44.04700
H  1.42000 -8.93700 45.73600
H  0.08300 -8.68200 44.58300
H  -0.15700 -8.08000 46.16000
H  5.82700 -5.28000 47.08600
H  7.30900 -4.68100 46.52200
H  6.22400 -5.74100 45.51300
H  7.31900 -0.62600 42.89400
H  9.34100 3.09900 43.18900
H  9.37000 2.51400 44.91500
H  7.97600 3.39700 44.28200
Mg -1.99200 34.99300 26.73400
C  -3.99200 33.57400 29.03600
C  -1.07800 37.39200 28.96700
C  -0.23000 36.49400 24.30500
C  -3.16100 32.67800 24.41700
N  -2.47700 35.39400 28.75800
C  -3.23400 34.63600 29.54600
C  -3.30700 35.07900 31.04600
C  -2.52300 36.43800 30.91400
C  -2.01900 36.47400 29.43700
C  -3.36000 37.71800 31.45600
C  -2.60100 33.98300 31.92800
C  -3.35200 33.16000 32.92500
H  -2.82300 32.93400 34.34200
N  -0.77700 36.79000 26.62300
C  -0.53100 37.59400 27.71400
C  0.35600 38.57200 27.23200
C  0.63500 38.35900 25.84600
C  -0.13000 37.17600 25.58400
C  0.90600 39.77800 28.07400
C  1.38800 39.07200 24.74000
O  1.39700 38.74200 23.54600
C  2.18500 40.19800 25.12500
N  -1.85400 34.75000 24.56300
C  -0.91800 35.31800 23.91000
C  -0.66500 34.64900 22.57400
C  -1.59100 33.41300 22.60800
C  -2.23200 33.57100 23.98100
C  -0.94600 35.55400 21.33600
C  -0.79300 32.08600 22.50400
C  0.59300 31.94000 23.22500
N  -3.38500 33.49800 26.60000
C  -3.72500 32.59300 25.68200
C  -4.62700 31.61900 26.17100
C  -4.78700 31.95000 27.53200
C  -4.04300 33.12800 27.72700
C  -5.24300 30.54200 25.36600
C  -5.40700 31.53500 28.78400
O  -6.17200 30.62700 29.12900
C  -4.92200 32.60700 29.80600
C  -6.10200 33.35900 30.36900
O  -6.74000 34.31900 29.85400
O  -6.36200 32.89500 31.60500
C  -7.23600 33.67000 32.45200
H  -0.80900 38.17900 29.67500
H  0.27000 36.80900 23.38700
H  -3.35400 31.87900 23.69800
H  -4.33600 35.20800 31.38000
H  -1.60000 36.52200 31.48800
H  -4.39500 37.46600 31.68300
H  -3.39400 38.49600 30.69400
H  -2.81700 38.08600 32.32700
H  -1.80800 34.53000 32.43900
H  -2.06800 33.29900 31.26800
H  -3.52200 32.16400 32.51700
H  -4.32300 33.63100 33.08100
H  1.99300 39.75300 28.15700
H  0.41700 39.97400 29.02900
H  0.76500 40.70000 27.51000
H  2.98900 40.23300 24.39000
H  2.74200 40.03000 26.04700
H  1.58500 41.10700 25.16500
H  0.38200 34.35800 22.49100
H  -2.32300 33.55600 21.81300
H  -1.42000 35.00200 20.52400
H  -0.00200 35.76600 20.83400
H  -1.37300 36.51100 21.63600
H  -0.67400 31.91400 21.43400
H  -1.47000 31.28800 22.80700
H  0.55800 32.57400 24.11100
H  1.44600 32.12500 22.57200
H  0.57200 30.89700 23.54300
H  -4.44300 29.84800 25.10900
H  -5.75300 30.92800 24.48300
H  -6.00500 30.22000 26.07600
H  -4.44800 31.99200 30.57100
H  -8.27900 33.85500 32.19300
H  -6.81200 34.66800 32.55700
H  -7.09600 33.21000 33.43000

