158

Mg 2.60600 -3.04100 44.66900
C  5.93000 -2.18500 44.44200
C  1.75500 -0.82300 42.36100
C  -0.52900 -4.23300 44.94600
C  3.71500 -5.68200 46.83100
N  3.75300 -1.75100 43.43400
C  5.08200 -1.51600 43.50900
C  5.57500 -0.39100 42.50400
C  4.21800 0.06700 41.88000
C  3.16100 -0.80700 42.67900
C  3.77500 1.55900 41.96400
C  6.62900 -0.93800 41.43600
C  7.85300 -0.11300 41.15000
H  7.94100 0.37000 39.60500
N  0.81100 -2.72200 43.62000
C  0.67000 -1.58500 42.86700
C  -0.71600 -1.51800 42.39800
C  -1.44300 -2.51800 43.19700
C  -0.40000 -3.14300 44.03100
C  -1.29900 -0.48600 41.33000
C  -2.97300 -2.72600 43.25900
O  -3.74900 -2.21000 42.45900
C  -3.61600 -3.52200 44.31500
N  1.66200 -4.80800 45.70300
C  0.38100 -5.00900 45.63400
C  -0.03600 -6.28700 46.33400
C  1.35100 -6.89100 46.73400
C  2.36100 -5.76400 46.42100
C  -0.97800 -5.92300 47.49900
C  1.71100 -8.27900 45.96400
C  1.50900 -9.61800 46.67600
N  4.40700 -3.77100 45.59000
C  4.65300 -4.80400 46.39000
C  5.99600 -4.74400 46.82600
C  6.58300 -3.67400 46.11400
C  5.56600 -3.25400 45.26200
C  6.57600 -5.68000 47.76100
C  7.81600 -2.98600 45.79400
O  8.94100 -3.08300 46.28600
C  7.43600 -1.92800 44.74900
C  7.53500 -0.52200 45.27300
O  7.03400 -0.05700 46.28200
O  8.39500 0.18700 44.46700
C  8.65100 1.62000 44.85100
H  1.50900 -0.18600 41.51000
H  -1.48500 -4.71800 45.15100
H  3.99300 -6.47200 47.53200
H  6.06100 0.34400 43.14500
H  4.23300 -0.24600 40.83600
H  3.55800 1.97500 40.98100
H  4.65600 2.05500 42.37200
H  2.89600 1.76500 42.57400
H  6.10900 -1.35300 40.57300
H  7.01500 -1.90200 41.76700
H  8.73800 -0.65400 41.48500
H  7.90000 0.81400 41.72000
H  -1.73700 0.30200 41.94300
H  -2.20600 -0.89100 40.88100
H  -0.56300 -0.05000 40.65500
H  -3.43300 -4.54500 43.98700
H  -4.68700 -3.32300 44.27800
H  -3.22500 -3.28000 45.30300
H  -0.56900 -6.90000 45.60800
H  1.47400 -6.98800 47.81300
H  -0.86400 -6.65300 48.30000
H  -2.01300 -6.17200 47.26400
H  -0.95400 -4.87600 47.80100
H  2.71200 -8.16100 45.55000
H  1.09500 -8.22200 45.06600
H  1.33500 -9.48400 47.74400
H  2.41600 -10.16300 46.41700
H  0.67300 -10.13700 46.20600
H  6.84200 -6.50400 47.09800
H  5.90700 -5.96400 48.57300
H  7.42300 -5.33700 48.35500
H  8.13900 -2.16900 43.95200
H  8.31600 1.96700 45.82800
H  8.12600 2.27400 44.15600
H  9.68400 1.96200 44.78200
Mg 7.43300 52.16300 40.92300
C  6.99200 48.64900 40.81800
C  10.81300 51.58000 40.54100
C  7.83000 55.43700 40.39000
C  4.01900 52.45200 41.16300
N  8.74400 50.28600 40.51400
C  8.29300 49.00000 40.50400
C  9.49900 48.10200 40.26400
C  10.71600 49.07800 40.55600
C  10.05100 50.40300 40.47200
C  11.53300 48.85000 41.85000
C  9.56800 47.45400 38.92100
C  9.39100 48.37100 37.64600
H  8.24700 48.28000 36.62600
N  9.07800 53.35900 40.36900
C  10.38500 52.93900 40.38400
C  11.25100 54.13300 40.26600
C  10.44200 55.25900 40.16600
C  9.04000 54.73400 40.30400
C  12.67500 53.90000 40.14400
C  10.84400 56.71900 39.97000
O  12.02600 57.01000 39.92300
C  9.93600 57.86700 39.79500
N  6.08900 53.71400 40.61700
C  6.54200 55.00900 40.45500
C  5.32300 55.96000 40.72000
C  4.10400 55.00800 40.92200
C  4.72600 53.62900 40.81800
C  5.55300 56.94400 41.90300
C  3.00400 55.20800 39.86400
C  2.06400 56.40800 39.99700
N  5.73900 50.86100 41.07500
C  4.43800 51.17800 41.30300
C  3.72300 49.91300 41.56600
C  4.64800 48.92900 41.35200
C  5.91200 49.54000 41.04700
C  2.30000 49.63600 42.14900
C  4.86300 47.57600 41.38000
O  4.09400 46.65400 41.63500
C  6.35500 47.25800 40.99700
C  6.38200 46.40700 39.75400
O  6.22200 46.76700 38.60700
O  6.59700 45.07900 40.11400
C  6.48900 44.21500 38.97500
H  11.89500 51.58200 40.68900
H  7.88600 56.52400 40.30800
H  2.95200 52.56100 41.36800
H  9.45900 47.25700 40.95200
H  11.34000 49.04900 39.66200
H  11.27800 49.44600 42.72600
H  12.60700 48.84100 41.66300
H  11.32400 47.78500 41.94800
H  8.87700 46.61200 38.96800
H  10.56600 47.01600 38.90300
H  10.21700 48.04900 37.01300
H  9.57000 49.41500 37.90300
H  12.87800 53.28300 39.26900
H  13.25600 53.42000 40.93100
H  13.23600 54.81900 39.97500
H  9.65500 58.13100 40.81500
H  9.09400 57.73200 39.11700
H  10.53300 58.65400 39.33500
H  5.36600 56.47200 39.75900
H  3.70100 55.03400 41.93400
H  4.97300 56.53900 42.73100
H  5.20600 57.95200 41.67200
H  6.57800 57.05200 42.25800
H  2.29500 54.38100 39.90100
H  3.48900 55.13100 38.89100
H  0.99000 56.29800 40.14400
H  2.14600 57.00800 39.09100
H  2.57700 56.93500 40.80200
H  1.55800 49.62700 41.35000
H  1.99000 50.44600 42.80900
H  2.40600 48.70200 42.70200
H  6.98300 46.69100 41.68400
H  7.34600 44.28200 38.30600
H  5.54300 44.35800 38.45200
H  6.52900 43.26500 39.50800

