158

Mg 46.75400 25.76400 27.72300
C  47.95600 27.94800 30.34600
C  45.82400 23.40500 30.12400
C  46.04700 23.71100 25.20500
C  48.41200 27.91700 25.43300
N  46.93400 25.69500 29.90200
C  47.30600 26.69700 30.80800
C  46.89100 26.35800 32.24500
C  46.31600 24.92600 32.15200
C  46.28400 24.60900 30.63900
C  46.78300 23.82300 33.09100
C  46.05700 27.45200 33.05700
C  46.75900 27.96300 34.35800
H  45.76400 28.29200 35.54400
N  45.84600 23.86300 27.65000
C  45.74500 23.01700 28.74900
C  45.46900 21.66600 28.23300
C  45.34700 21.77900 26.81000
C  45.75300 23.17300 26.48300
C  45.18000 20.52000 29.20400
C  44.93100 20.78400 25.78800
O  44.98600 20.86600 24.55200
C  44.63300 19.36100 26.24300
N  47.08900 25.79800 25.63200
C  46.54800 24.91100 24.79500
C  46.82800 25.21300 23.29700
C  47.62100 26.54700 23.31500
C  47.62700 26.83600 24.87100
C  47.75300 24.13200 22.68200
C  46.95800 27.78600 22.60800
C  47.90100 28.60900 21.65500
N  47.82000 27.57300 27.84100
C  48.40900 28.34300 26.81900
C  49.13200 29.49700 27.37700
C  48.95100 29.37200 28.72400
C  48.13200 28.25400 28.98500
C  49.97000 30.43300 26.70000
C  49.42700 29.95500 30.03800
O  50.13500 30.86400 30.39000
C  48.67500 29.09800 31.12000
C  49.76400 28.53500 31.99500
O  50.62000 27.78300 31.66000
O  49.75500 29.22700 33.22900
C  50.86900 29.10100 34.15800
H  45.47300 22.63200 30.81200
H  45.73100 23.14200 24.32900
H  48.97100 28.62600 24.81800
H  47.88500 26.16400 32.64900
H  45.27300 25.14300 32.38400
H  45.95000 23.56400 33.74400
H  47.58900 24.09700 33.77300
H  47.00500 22.88100 32.59100
H  45.14400 26.99500 33.44100
H  45.95800 28.34000 32.43300
H  47.29600 28.87000 34.07900
H  47.52800 27.25800 34.67100
H  45.57700 19.52200 29.01500
H  44.09800 20.45200 29.31700
H  45.48300 20.76200 30.22200
H  45.53300 18.90400 26.65200
H  44.35900 18.70700 25.41500
H  43.95000 19.26400 27.08700
H  45.88000 25.18600 22.76100
H  48.68200 26.50200 23.06700
H  48.56000 23.71800 23.28600
H  48.19400 24.45600 21.73900
H  47.25600 23.17400 22.53000
H  46.53600 28.43800 23.37200
H  46.13400 27.29700 22.08900
H  47.78400 28.24500 20.63400
H  48.97800 28.51700 21.80000
H  47.63200 29.66600 21.65700
H  49.66400 30.46300 25.65400
H  51.01100 30.20600 26.92800
H  49.76800 31.41700 27.12200
H  47.89800 29.74600 31.52400
H  51.03600 30.09400 34.57500
H  51.80500 28.67200 33.80200
H  50.64700 28.55900 35.07800
Mg 42.18800 42.17000 27.23900
C  41.11500 44.37200 29.83100
C  43.21100 39.99000 29.61800
C  43.15300 40.16500 24.77700
C  41.18900 44.54700 24.95500
N  42.39900 42.29700 29.47300
C  41.80800 43.22200 30.30200
C  42.20400 42.87600 31.78100
C  43.02700 41.55200 31.64300
C  42.85100 41.21000 30.14700
C  44.52000 41.57800 32.07000
C  40.97900 42.74400 32.75300
C  41.09300 43.32200 34.19200
H  40.31100 42.59300 35.32900
N  43.06400 40.29800 27.19800
C  43.33800 39.54700 28.27800
C  43.70300 38.21000 27.91600
C  43.62700 38.22700 26.48500
C  43.24800 39.60200 26.05700
C  44.22800 37.11700 28.87600
C  43.89100 37.07300 25.47000
O  43.81500 37.30200 24.27500
C  44.08700 35.64700 25.95100
N  42.33800 42.40100 25.17600
C  42.73500 41.39600 24.33500
C  42.59000 41.80400 22.89700
C  41.79900 43.12100 22.97500
C  41.77400 43.42700 24.45400
C  43.88700 41.97800 22.17600
C  40.40700 43.21200 22.23200
C  39.13500 42.93200 23.00200
N  41.41200 44.14600 27.33300
C  41.07100 44.98000 26.29500
C  40.36400 46.16900 26.85900
C  40.32000 45.91800 28.25200
C  40.98300 44.72900 28.47800
C  39.87600 47.35800 26.05300
C  39.89700 46.44300 29.55900
O  39.20000 47.45700 29.78600
C  40.34700 45.47400 30.65400
C  41.20600 46.19300 31.60700
O  42.38000 46.41900 31.57300
O  40.53600 46.51700 32.77600
C  41.31800 47.08500 33.88000
H  43.40300 39.17500 30.32000
H  43.47400 39.54000 23.94100
H  40.67100 45.26200 24.31300
H  42.92100 43.52000 32.29000
H  42.66400 40.76100 32.29900
H  45.12100 41.07800 31.31000
H  44.42500 41.09500 33.04300
H  44.82100 42.62500 32.08100
H  40.90700 41.67600 32.96100
H  40.04600 43.11100 32.32700
H  40.62600 44.30700 34.20100
H  42.15700 43.43800 34.39600
H  44.62400 37.57700 29.78200
H  45.09800 36.58100 28.49500
H  43.45100 36.36700 29.02000
H  45.16100 35.55300 26.10800
H  43.74700 34.94800 25.18700
H  43.52900 35.40800 26.85700
H  41.92700 41.04300 22.48600
H  42.40600 43.87800 22.47800
H  43.95700 42.97200 21.73300
H  44.13200 41.24000 21.41200
H  44.67400 41.87700 22.92300
H  40.60400 42.55700 21.38300
H  40.27400 44.18000 21.74900
H  39.27200 42.48900 23.98900
H  38.52600 42.21400 22.45200
H  38.49500 43.80500 23.12800
H  40.29500 47.40100 25.04800
H  40.33900 48.14200 26.65200
H  38.79300 47.47800 26.01400
H  39.43200 45.04500 31.06200
H  41.64400 46.26300 34.51600
H  40.71000 47.66600 34.57300
H  42.15900 47.71800 33.59600

