158

Mg 2.61100 -1.32000 43.59100
C  5.97400 -0.46100 43.19300
C  1.86400 1.59600 41.81300
C  -0.41400 -2.54100 43.05700
C  3.71600 -4.49700 44.73300
N  3.78700 0.34300 42.71100
C  5.10900 0.47400 42.67900
C  5.55000 1.67500 41.78200
C  4.26800 2.45200 41.52500
C  3.22300 1.39300 42.02600
C  4.17600 3.83000 42.16500
C  6.15700 1.14000 40.45500
C  6.88100 2.23500 39.63300
H  6.24700 2.73200 38.42000
N  0.94600 -0.47200 42.82600
C  0.82700 0.79100 42.25500
C  -0.51100 1.12600 42.10500
C  -1.24300 -0.01100 42.50100
C  -0.29300 -1.10800 42.79700
C  -1.01700 2.44400 41.62300
C  -2.77500 -0.21100 42.61900
O  -3.58600 0.64300 42.23300
C  -3.42700 -1.37400 43.21900
N  1.87200 -3.39000 43.56000
C  0.48100 -3.50200 43.45000
C  0.18000 -5.03700 43.72000
C  1.56300 -5.65600 44.29500
C  2.41100 -4.44100 44.21800
C  -1.06200 -5.36800 44.69200
C  2.19700 -6.80300 43.43800
C  2.81300 -7.93000 44.30800
N  4.40600 -2.21100 44.16400
C  4.66300 -3.47000 44.57000
C  6.09500 -3.53200 44.87000
C  6.67200 -2.38500 44.39700
C  5.61300 -1.62800 43.87000
C  6.82500 -4.64900 45.52400
C  7.93300 -1.57600 44.21800
O  9.09500 -1.70200 44.62900
C  7.44500 -0.28900 43.40200
C  7.80300 0.83600 44.25000
O  7.17700 1.15900 45.22500
O  8.92900 1.48600 43.81400
C  9.37000 2.73200 44.56400
H  1.63800 2.55300 41.33600
H  -1.42100 -2.96100 43.04200
H  4.16600 -5.44100 45.04500
H  6.29300 2.24100 42.34500
H  4.01000 2.65800 40.48600
H  5.04500 4.06800 42.77900
H  3.27900 3.91500 42.77800
H  4.04400 4.56200 41.36800
H  5.37000 0.75900 39.80400
H  6.83900 0.30300 40.59800
H  7.82600 1.76200 39.36800
H  7.14900 3.06900 40.28100
H  -0.62200 2.56500 40.61400
H  -0.62800 3.10300 42.39900
H  -2.10400 2.42800 41.69700
H  -4.49900 -1.20000 43.30600
H  -3.17100 -1.66400 44.23800
H  -3.19100 -2.18800 42.53500
H  -0.02800 -5.27800 42.67700
H  1.47700 -5.98200 45.33200
H  -1.33000 -4.61700 45.43600
H  -0.95700 -6.30100 45.24500
H  -1.84200 -5.53000 43.94800
H  3.00200 -6.50200 42.76800
H  1.37400 -7.20000 42.84500
H  3.84300 -8.20500 44.07900
H  2.14600 -8.78800 44.23200
H  2.70700 -7.69600 45.36800
H  6.99900 -5.49800 44.86400
H  6.34500 -5.03500 46.42400
H  7.85200 -4.30900 45.65900
H  7.96000 -0.23800 42.44200
H  10.41700 2.64200 44.85500
H  9.00300 2.78800 45.58800
H  9.29100 3.70000 44.07100
Mg 52.66600 23.33600 44.91500
C  50.24700 25.79500 44.15700
C  50.75500 20.98800 43.57200
C  55.52000 21.65800 44.48400
C  54.84900 26.19200 45.97200
N  50.82100 23.48700 43.81500
C  49.94300 24.48900 43.63700
C  48.63000 23.99200 43.09300
C  48.61500 22.46600 43.41500
C  50.14500 22.29300 43.59400
C  47.69600 22.14000 44.60200
C  48.38200 24.48800 41.62500
C  49.63100 24.31900 40.62100
H  49.19400 24.40200 39.15200
N  53.04100 21.47000 44.34900
C  52.06900 20.58700 43.87800
C  52.79200 19.36100 43.62500
C  54.17900 19.55700 43.94000
C  54.29600 20.99800 44.20100
C  52.07800 18.04600 43.20300
C  55.23700 18.44700 43.85000
O  54.86900 17.28000 43.64300
C  56.67400 18.68900 44.04100
N  54.86900 23.83000 45.14600
C  55.81800 22.93600 44.93000
C  57.24100 23.30700 45.44700
C  56.91700 24.77400 45.93800
C  55.46600 24.94800 45.66100
C  57.64900 22.40100 46.60800
C  57.84100 25.88700 45.29400
C  58.28000 27.10800 46.07500
N  52.57100 25.59900 45.08300
C  53.44300 26.48900 45.72600
C  52.74200 27.72800 45.90500
C  51.47800 27.56200 45.28900
C  51.46700 26.23700 44.81700
C  53.25400 28.99700 46.34800
C  50.30000 28.18400 44.96100
O  49.94200 29.32500 45.08900
C  49.41400 27.11300 44.15000
C  49.09900 27.61100 42.72900
O  49.83000 27.79100 41.81100
O  47.75000 27.95700 42.75900
C  47.13000 28.48600 41.57600
H  49.97700 20.23200 43.44700
H  56.35400 20.95900 44.39400
H  55.45800 27.00100 46.38000
H  47.97300 24.60500 43.71100
H  48.36800 21.88000 42.52900
H  48.16300 21.36500 45.20900
H  46.84400 21.63100 44.15100
H  47.49700 23.03500 45.19200
H  48.13500 25.54900 41.58600
H  47.52800 23.95500 41.20700
H  49.93300 23.30400 40.88200
H  50.41000 25.02600 40.90400
H  52.55600 17.76200 42.26600
H  51.09500 18.38000 42.87000
H  52.05800 17.32800 44.02300
H  56.79400 19.12000 45.03500
H  56.94900 19.38300 43.24600
H  57.15300 17.71300 43.96500
H  57.92600 23.33600 44.59900
H  57.09200 24.86900 47.01000
H  56.76500 22.15000 47.19500
H  58.34900 23.02700 47.16100
H  58.09500 21.49100 46.20800
H  57.28700 26.15700 44.39500
H  58.76800 25.38400 45.01800
H  57.91600 27.89800 45.41900
H  59.35900 27.21500 46.18900
H  57.94600 26.96400 47.10300
H  54.26700 29.19500 45.99800
H  53.20500 29.01600 47.43700
H  52.65200 29.82500 45.97500
H  48.50400 27.03600 44.74500
H  47.79600 29.22500 41.13200
H  46.24400 29.00200 41.94800
H  46.87200 27.74900 40.81600

