158

Mg 24.51900 -5.28300 45.70600
C  26.59700 -3.29200 43.63700
C  21.86200 -4.64600 43.61300
C  22.99500 -8.26500 46.68600
C  27.42700 -6.37100 47.46100
N  24.34200 -4.34100 43.68400
C  25.28400 -3.42900 43.14000
C  24.64800 -2.63000 42.02000
C  23.11500 -2.80600 42.34500
C  23.07300 -4.03200 43.23000
C  22.42500 -1.57200 42.94200
C  25.33800 -3.18400 40.66100
C  25.79800 -2.04900 39.78300
H  25.63400 -2.37300 38.31600
N  22.63100 -6.23100 45.34700
C  21.69600 -5.73300 44.48800
C  20.48300 -6.46700 44.68800
C  20.79500 -7.61700 45.56300
C  22.17800 -7.41600 45.90600
C  19.19700 -6.02700 44.02700
C  19.79800 -8.66100 45.94200
O  18.70000 -8.62700 45.32600
C  20.03000 -9.78700 46.91700
N  25.16100 -7.03700 46.97400
C  24.28100 -8.15800 47.14800
C  25.04700 -9.28300 47.97800
C  26.22200 -8.45400 48.54100
C  26.35900 -7.28400 47.60400
C  24.22000 -10.14300 49.10400
C  27.54800 -9.23100 48.75900
C  28.55500 -8.82300 49.85000
N  26.55100 -4.86600 45.70500
C  27.59800 -5.31400 46.52700
C  28.82000 -4.67500 46.03700
C  28.46500 -3.90900 44.94500
C  27.09000 -4.09100 44.68600
C  30.18600 -4.94400 46.54100
C  28.95800 -3.04200 43.92100
O  30.10900 -2.75600 43.73900
C  27.80700 -2.63100 42.97500
C  27.89800 -1.15400 43.08900
O  27.67400 -0.51600 44.06100
O  28.39900 -0.59700 41.94700
C  28.75200 0.82000 41.90600
H  20.95800 -4.26100 43.13500
H  22.49300 -9.16700 47.04200
H  28.30200 -6.72200 48.01100
H  24.82800 -1.56300 42.15000
H  22.67800 -3.05000 41.37600
H  21.76000 -1.17400 42.17600
H  23.09000 -0.76000 43.23700
H  21.80200 -1.92400 43.76400
H  24.60100 -3.73600 40.07800
H  26.13600 -3.91300 40.79900
H  26.86800 -1.92200 39.94500
H  25.31200 -1.14300 40.14200
H  18.32100 -6.05600 44.67500
H  19.03500 -6.58900 43.10700
H  19.22200 -4.98100 43.71900
H  20.53100 -9.35800 47.78500
H  20.41300 -10.69700 46.45700
H  19.05800 -10.10500 47.29500
H  25.50300 -9.90500 47.20800
H  25.92200 -8.02000 49.49500
H  24.65200 -10.29200 50.09300
H  24.24800 -11.14500 48.67500
H  23.16400 -9.87200 49.12600
H  28.11200 -9.08200 47.83900
H  27.40800 -10.29500 48.94500
H  28.78800 -9.58200 50.59600
H  28.21700 -7.93800 50.39000
H  29.42500 -8.39900 49.34900
H  30.01000 -5.65400 47.34900
H  30.59500 -4.01200 46.93300
H  30.84100 -5.43700 45.82300
H  27.90300 -3.01200 41.95800
H  28.02100 1.49800 42.34700
H  28.62000 1.20200 40.89400
H  29.71500 1.07700 42.34600
Mg 41.34200 8.35600 29.83500
C  43.21200 9.67400 32.48500
C  38.87800 7.37800 32.04900
C  39.69800 6.93900 27.24400
C  43.95200 9.19000 27.65200
N  41.13900 8.54400 32.06000
C  41.98300 9.20200 32.95200
C  41.31400 9.21000 34.29000
C  40.06300 8.19200 34.15900
C  40.00600 7.97000 32.63700
C  40.12200 6.89500 35.08300
C  40.89000 10.61800 34.82600
C  40.70000 10.88200 36.30500
H  41.23800 12.25000 36.87000
N  39.55800 7.27500 29.71100
C  38.63000 7.01300 30.71900
C  37.46100 6.31200 30.18500
C  37.73700 6.16800 28.82200
C  39.06400 6.79900 28.51100
C  36.32300 5.86800 31.04700
C  36.73000 5.68500 27.69700
O  37.00100 5.74500 26.51400
C  35.43600 5.18700 28.18200
N  41.71000 8.22300 27.70300
C  40.90400 7.51000 26.84500
C  41.42800 7.63400 25.32900
C  42.67300 8.57800 25.57000
C  42.84100 8.62000 27.06100
C  41.71400 6.25900 24.60100
C  42.56500 9.99500 24.95300
C  43.77300 10.68000 24.31500
N  43.21600 9.32300 29.98700
C  44.17600 9.53700 29.01000
C  45.26900 10.22100 29.63100
C  45.05200 10.18300 30.97900
C  43.80000 9.63400 31.15800
C  46.41400 10.79300 28.94500
C  45.55600 10.49100 32.29700
O  46.63500 10.95700 32.62200
C  44.41200 10.15800 33.31900
C  44.94800 9.18600 34.18500
O  45.20200 7.98200 33.87200
O  45.31200 9.74000 35.35900
C  46.18200 8.92100 36.27900
H  38.05400 7.27900 32.75900
H  39.13900 6.47900 26.42700
H  44.67600 9.52500 26.90600
H  41.93800 8.82200 35.09600
H  39.14300 8.70200 34.44400
H  40.13200 5.94300 34.55200
H  39.41800 6.90700 35.91600
H  41.01400 6.87300 35.70800
H  39.92000 10.80500 34.36500
H  41.75600 11.22100 34.55200
H  41.24200 10.08000 36.80500
H  39.63400 10.74600 36.48800
H  36.48100 5.97300 32.12000
H  36.05000 4.81300 31.00500
H  35.45700 6.43100 30.69800
H  35.52500 4.21600 28.66700
H  34.77000 4.94800 27.35300
H  34.84100 5.87100 28.78900
H  40.65200 8.18700 24.80000
H  43.56000 8.14100 25.11100
H  42.72800 6.27000 24.20200
H  41.01000 5.91900 23.84100
H  41.73100 5.48600 25.36900
H  42.15200 10.68000 25.69400
H  41.74000 9.92300 24.24400
H  44.17300 11.52700 24.87200
H  43.41500 10.98300 23.33100
H  44.49800 9.87600 24.18700
H  46.54200 11.87200 29.03200
H  46.38800 10.65900 27.86300
H  47.32800 10.43800 29.42100
H  44.25800 11.03500 33.94800
H  46.60800 9.55700 37.05500
H  46.93700 8.30700 35.78800
H  45.46400 8.27500 36.78400

