158

Mg 47.66500 24.92400 28.97800
C  47.98600 27.30400 31.43000
C  46.66100 22.70100 31.39800
C  47.55700 22.45300 26.58400
C  48.87600 27.16100 26.58300
N  47.42300 25.01800 31.22500
C  47.52400 26.08000 31.98900
C  47.20700 25.81500 33.43600
C  46.83300 24.31900 33.37000
C  47.01300 23.95800 31.87400
C  47.71500 23.44300 34.35000
C  45.98700 26.65100 33.96900
C  46.04300 27.45400 35.30200
H  46.57400 26.68100 36.50200
N  47.21700 22.89900 28.96700
C  46.73600 22.16900 30.05900
C  46.21000 20.94400 29.58100
C  46.36900 20.96400 28.12500
C  47.14000 22.13500 27.86500
C  45.60000 19.81200 30.38300
C  45.85400 19.93500 27.02800
O  45.89900 20.06000 25.81700
C  44.99000 18.77200 27.50800
N  48.20000 24.78600 26.87700
C  48.12300 23.67500 26.07000
C  48.54700 24.03900 24.61600
C  48.91700 25.52200 24.65600
C  48.60700 25.85000 26.10900
C  49.58900 23.03700 24.16400
C  48.31800 26.42200 23.57100
C  46.80700 26.54900 23.65400
N  48.30700 26.80400 29.01800
C  48.80900 27.61000 27.99200
C  49.16700 28.93300 28.46200
C  48.87900 28.92200 29.82500
C  48.30000 27.57500 30.10600
C  49.72700 30.03500 27.61900
C  48.84500 29.63400 31.04800
O  49.12400 30.81300 31.21100
C  48.44000 28.63000 32.11800
C  49.52100 28.33100 33.05200
O  50.59200 27.85000 32.65500
O  49.33000 28.93000 34.24300
C  50.45700 28.84400 35.18300
H  46.28000 22.05200 32.18900
H  47.27400 21.72400 25.82200
H  49.39200 27.91100 25.98000
H  48.13100 26.02700 33.97500
H  45.80500 24.16100 33.69500
H  47.06700 23.15800 35.17900
H  48.51900 24.00000 34.83100
H  48.14600 22.58200 33.84000
H  45.09400 26.04400 34.12200
H  45.80700 27.40600 33.20400
H  45.00500 27.70700 35.52000
H  46.64200 28.33600 35.07800
H  44.53500 19.75700 30.15600
H  45.61800 19.86800 31.47100
H  46.05900 18.92900 29.93800
H  44.16500 19.19700 28.08000
H  45.50200 18.05800 28.15400
H  44.62000 18.27600 26.61100
H  47.74200 23.95100 23.88600
H  49.98400 25.58500 24.44600
H  49.93300 22.44800 25.01400
H  50.46400 23.60600 23.85000
H  49.26000 22.31300 23.41900
H  48.59500 26.01000 22.60100
H  48.75600 27.41500 23.46800
H  46.46200 27.57400 23.78800
H  46.40600 26.13300 24.57900
H  46.25400 26.18300 22.78900
H  48.97500 30.14700 26.83700
H  50.70400 29.69200 27.28000
H  49.77400 30.93700 28.22900
H  47.59000 28.97800 32.70500
H  50.03300 29.15200 36.13900
H  51.31700 29.51000 35.12000
H  50.78400 27.80500 35.23900
Mg -3.21800 35.16900 26.38900
C  -4.90400 33.41800 28.77600
C  -1.64700 37.05400 28.66600
C  -1.99900 37.16900 23.81800
C  -5.17300 33.55800 24.02400
N  -3.54400 35.41800 28.45100
C  -4.12200 34.45900 29.27400
C  -3.73400 34.57000 30.75500
C  -2.81700 35.86100 30.63300
C  -2.66400 36.20600 29.13700
C  -3.38800 37.07800 31.37300
C  -2.84000 33.32500 31.20000
C  -3.25200 32.79500 32.59200
H  -2.32200 32.89800 33.84200
N  -2.02800 36.95800 26.27200
C  -1.34100 37.45500 27.35300
C  -0.33500 38.29800 26.93400
C  -0.39500 38.30300 25.48200
C  -1.51800 37.42100 25.10800
C  0.70600 38.94200 27.86900
C  0.43700 39.02300 24.44500
O  0.25100 39.01800 23.18400
C  1.71000 39.68300 24.88900
N  -3.76600 35.57400 24.26800
C  -3.10000 36.37900 23.42900
C  -3.52100 36.34000 21.97800
C  -4.18400 34.95800 22.02400
C  -4.49400 34.67000 23.50400
C  -4.44100 37.58000 21.57200
C  -3.31200 33.79900 21.41000
C  -2.49700 32.90700 22.33500
N  -4.66200 33.73600 26.30300
C  -5.34500 33.14600 25.31300
C  -6.03000 32.01800 25.80000
C  -5.90200 32.04200 27.22400
C  -5.05400 33.11500 27.46000
C  -6.82200 31.05500 25.05100
C  -6.28100 31.46200 28.48700
O  -7.03900 30.51500 28.65500
C  -5.65000 32.40400 29.58000
C  -6.71000 32.97400 30.36000
O  -7.51400 33.81800 29.97800
O  -6.82400 32.35100 31.50400
C  -7.88100 32.70600 32.48100
H  -1.03000 37.53000 29.43100
H  -1.62100 37.69400 22.93800
H  -5.69600 32.89900 23.32800
H  -4.61300 34.74800 31.37300
H  -1.74800 35.71700 30.78800
H  -3.55000 37.91400 30.69300
H  -2.61300 37.36600 32.08300
H  -4.37000 36.87700 31.80200
H  -1.80100 33.63200 31.32100
H  -2.81300 32.51200 30.47400
H  -3.38400 31.74100 32.35000
H  -4.23600 33.08100 32.96400
H  1.69200 38.87800 27.40800
H  0.68600 38.44500 28.83900
H  0.53900 40.01600 27.94100
H  1.35700 40.42800 25.60200
H  2.06400 40.39500 24.14300
H  2.44100 38.95000 25.23000
H  -2.67100 36.52300 21.32100
H  -5.09600 34.97500 21.42700
H  -4.01200 37.94900 20.64100
H  -4.39700 38.35800 22.33400
H  -5.42000 37.16900 21.32400
H  -2.51400 34.18800 20.77800
H  -4.10400 33.19100 20.97100
H  -2.35900 33.45200 23.26800
H  -1.45500 32.86800 22.01800
H  -2.99100 31.93500 22.31200
H  -6.74600 31.02000 23.96500
H  -7.86200 31.33200 25.22200
H  -6.74500 30.00500 25.33300
H  -5.05700 31.72100 30.19000
H  -8.61500 33.36600 32.01900
H  -7.37400 33.16600 33.32900
H  -8.22500 31.70600 32.74500

