158

Mg 26.34200 51.69100 26.31700
C  23.94100 52.68400 28.79700
C  28.32000 50.43100 28.92000
C  28.60500 50.66200 24.04100
C  24.18200 52.82900 23.88600
N  26.15600 51.69500 28.62200
C  25.09400 52.13100 29.39200
C  25.29900 51.80200 30.87300
C  26.78600 51.21000 30.88900
C  27.13500 51.08000 29.39900
C  27.87100 52.03000 31.72500
C  24.29800 50.83200 31.55600
C  24.03800 51.04000 33.04400
H  24.22100 49.84300 33.93900
N  28.32000 50.77500 26.41700
C  28.91500 50.34700 27.61800
C  30.17700 49.73800 27.30500
C  30.28900 49.72900 25.83900
C  29.01700 50.44600 25.37200
C  31.08900 49.18100 28.31300
C  31.51000 49.27400 25.03400
O  31.63700 49.55900 23.85800
C  32.58200 48.43900 25.68400
N  26.47800 51.97000 24.14300
C  27.57900 51.41900 23.44500
C  27.26900 51.41900 21.99600
C  25.71900 51.83200 21.94500
C  25.38800 52.30800 23.32000
C  28.23500 52.26100 21.13000
C  24.75700 50.69600 21.35400
C  23.95300 50.92100 20.06400
N  24.51900 52.75600 26.30200
C  23.80300 53.15400 25.21500
C  22.66100 53.81400 25.65100
C  22.61900 53.66300 27.02300
C  23.78900 52.93100 27.38100
C  21.56900 54.20900 24.76900
C  21.86500 53.83000 28.29900
O  20.79500 54.38500 28.44900
C  22.68600 53.13000 29.47200
C  22.98700 54.15600 30.46200
O  23.46900 55.29800 30.30900
O  22.61200 53.67400 31.67600
C  22.54300 54.52700 32.85200
H  29.05700 50.11500 29.66200
H  29.27900 50.13200 23.36400
H  23.41300 52.98600 23.12600
H  25.25200 52.74900 31.41100
H  26.76400 50.16900 31.21000
H  28.75300 52.25000 31.12400
H  28.03300 51.45300 32.63500
H  27.37900 52.94700 32.04900
H  24.66100 49.80500 31.58200
H  23.32700 50.74800 31.06800
H  23.05400 51.50700 33.09500
H  24.65000 51.89900 33.32000
H  30.65700 49.30200 29.30700
H  32.00300 49.77300 28.34100
H  31.21300 48.12500 28.07400
H  33.33000 48.14600 24.94700
H  32.20800 47.55000 26.19200
H  32.91200 49.20600 26.38500
H  27.30400 50.38400 21.65600
H  25.66600 52.69800 21.28500
H  29.23500 51.91700 21.39600
H  28.15700 53.24900 21.58500
H  27.95700 52.33000 20.07800
H  24.20500 50.20500 22.15600
H  25.36900 49.84800 21.04800
H  24.06000 50.28400 19.18600
H  24.24900 51.87200 19.62100
H  22.94700 51.15200 20.41600
H  21.86400 55.18000 24.37200
H  20.60500 54.29700 25.27100
H  21.53000 53.41600 24.02200
H  22.05500 52.36900 29.93200
H  21.50600 54.79100 33.06200
H  23.05900 55.47800 32.72200
H  23.06500 54.10700 33.71200
Mg 16.14800 53.37900 25.30000
C  17.54000 52.09300 28.17700
C  13.40200 54.44000 27.16000
C  14.66300 54.21800 22.31400
C  18.68200 51.71800 23.41900
N  15.63000 53.25100 27.37500
C  16.35200 52.82000 28.39200
C  15.73100 53.13800 29.73400
C  14.28900 53.45700 29.38800
C  14.42900 53.64200 27.87900
C  13.18100 52.50600 29.84200
C  16.52100 54.22300 30.55000
C  17.13900 53.73100 31.84800
H  16.19000 53.00000 32.86200
N  14.38500 54.39600 24.84500
C  13.39500 54.73100 25.77500
C  12.30300 55.37100 25.03200
C  12.61300 55.18600 23.62800
C  13.96200 54.61800 23.54300
C  11.17200 56.07600 25.80200
C  11.72900 55.42500 22.39000
O  12.00300 55.18700 21.20400
C  10.43900 56.16000 22.66400
N  16.55300 52.85900 23.07500
C  15.88800 53.45700 22.11900
C  16.41600 53.06700 20.67500
C  17.76200 52.45700 21.07800
C  17.68800 52.24700 22.63900
C  15.46200 52.12100 19.84900
C  19.00300 53.32500 20.64200
C  20.08000 52.52300 19.88700
N  17.92000 52.25600 25.63900
C  18.84800 51.71500 24.83900
C  19.90800 51.15200 25.66700
C  19.42700 51.28600 26.99000
C  18.20000 51.91600 26.93600
C  21.18700 50.51200 25.18100
C  19.74700 50.96000 28.44500
O  20.71400 50.42200 28.97100
C  18.49100 51.50900 29.21300
C  18.04300 50.49400 30.18600
O  17.20300 49.61600 30.01300
O  18.85700 50.60100 31.27300
C  18.64600 49.65200 32.35100
H  12.51200 54.77200 27.69800
H  14.31400 54.71000 21.40300
H  19.42600 51.19400 22.81600
H  15.69200 52.25500 30.37100
H  14.05900 54.39100 29.90000
H  13.49800 51.49600 30.10200
H  12.31700 52.31100 29.20800
H  12.74200 53.10700 30.63800
H  15.87700 55.07100 30.78100
H  17.33100 54.46500 29.86100
H  17.44400 54.52200 32.53300
H  18.05800 53.25600 31.50400
H  11.00700 56.99200 25.23400
H  11.46200 56.40000 26.80200
H  10.22900 55.53000 25.82600
H  9.86400 56.17300 21.73900
H  10.70200 57.19700 22.87600
H  9.88400 55.84800 23.54900
H  16.63000 53.98700 20.13000
H  17.80100 51.48200 20.59300
H  15.15400 52.69400 18.97500
H  14.72100 51.76600 20.56600
H  16.07700 51.26600 19.56700
H  19.47800 53.71400 21.54200
H  18.75700 54.19100 20.02700
H  20.71500 53.09000 19.20700
H  19.68200 51.66300 19.35000
H  20.77900 51.98400 20.52700
H  21.57200 50.94200 24.25600
H  20.84200 49.49000 25.02300
H  21.91200 50.46600 25.99400
H  18.88800 52.37600 29.74100
H  18.55000 48.64600 31.94300
H  17.67600 49.92500 32.76700
H  19.47900 49.71100 33.05100

