158

Mg 41.32100 40.88500 26.89800
C  40.86400 43.42400 29.25900
C  42.21300 38.77700 29.53100
C  41.86200 38.39400 24.68500
C  41.20100 43.22100 24.34800
N  41.47200 41.08700 29.14600
C  41.12200 42.17200 29.88200
C  41.11700 41.91500 31.36600
C  41.61300 40.38600 31.39000
C  41.78400 40.03100 29.92900
C  42.84400 40.14000 32.29500
C  39.71800 42.12900 31.96000
C  39.50400 41.83400 33.50500
H  39.22700 42.98500 34.44000
N  41.89600 38.84900 27.06300
C  42.20900 38.21600 28.23800
C  42.48600 36.82300 27.90800
C  42.29800 36.66200 26.47400
C  41.97600 37.96700 25.99900
C  43.07900 35.86900 28.91800
C  42.65400 35.36800 25.62700
O  42.53900 35.37500 24.40900
C  42.98200 34.11600 26.23700
N  41.56300 40.87200 24.82800
C  41.75700 39.67500 24.14700
C  41.71200 39.92700 22.60700
C  41.34600 41.44000 22.55300
C  41.39500 41.85300 23.97800
C  43.06400 39.59700 21.83800
C  39.99800 41.66700 21.89800
C  38.79100 41.07300 22.61200
N  41.07600 42.90700 26.72200
C  41.09000 43.79100 25.60900
C  40.92300 45.18000 26.04300
C  40.75500 45.06900 27.43700
C  40.93400 43.68000 27.82100
C  40.68000 46.29100 25.10100
C  40.29200 45.73100 28.64300
O  39.91000 46.91300 28.78900
C  40.39600 44.69800 29.84100
C  41.38800 45.33100 30.84500
O  42.60600 45.49800 30.75300
O  40.62100 45.89000 31.91000
C  41.47000 46.48200 32.97900
H  42.47200 38.14500 30.38300
H  41.92800 37.67400 23.86700
H  41.07200 44.02200 23.61700
H  41.84800 42.48200 31.94200
H  40.96500 39.59800 31.77300
H  43.02700 41.10100 32.77400
H  43.70700 39.86800 31.68800
H  42.88000 39.34600 33.04000
H  39.17000 41.54100 31.22400
H  39.38400 43.16300 31.87400
H  40.48100 41.44900 33.79700
H  38.86100 40.96300 33.63200
H  42.99500 36.15600 29.96600
H  44.11200 35.60400 28.69400
H  42.50800 34.95200 28.76900
H  43.89700 34.26700 26.80900
H  43.27800 33.55500 25.35000
H  42.17600 33.75700 26.87800
H  40.93500 39.24000 22.27000
H  42.12800 42.02100 22.06300
H  42.92400 38.98800 20.94500
H  43.68600 38.94100 22.44700
H  43.60800 40.49300 21.54000
H  40.13300 41.17800 20.93300
H  39.78400 42.70600 21.64800
H  39.11700 40.43100 23.43100
H  38.27200 40.58300 21.78900
H  38.19900 41.93100 22.93200
H  41.06300 46.10400 24.09800
H  40.98100 47.25500 25.50900
H  39.59700 46.24800 24.98700
H  39.41000 44.58100 30.29100
H  41.71600 45.63800 33.62400
H  40.70100 47.05500 33.49700
H  42.23500 47.19100 32.66100
Mg 29.77700 59.50100 39.64100
C  26.78200 57.88100 38.79100
C  31.36900 56.70300 38.47500
C  32.47400 61.23000 39.41400
C  27.88000 62.51100 40.12700
N  29.12200 57.47100 38.85100
C  27.90800 57.05300 38.53400
C  27.86000 55.74200 37.80800
C  29.29900 55.23900 38.17200
C  29.99500 56.55000 38.47600
C  29.25300 54.24600 39.36300
C  27.73600 55.85700 36.22200
C  26.43700 55.26300 35.68700
H  25.65600 56.09500 34.64400
N  31.65800 58.98500 39.31400
C  32.15300 57.83500 38.82300
C  33.56800 57.93000 38.69500
C  33.99200 59.21300 39.08400
C  32.71900 59.88300 39.29600
C  34.52300 56.73300 38.21100
C  35.43200 59.87100 39.12600
O  36.36200 59.24800 38.65700
C  35.67200 61.21100 39.79100
N  30.08500 61.54000 39.75800
C  31.34500 62.00100 39.69200
C  31.36100 63.50600 39.88200
C  29.92900 63.87000 40.25600
C  29.21200 62.57300 40.02900
C  32.47500 64.10000 40.80200
C  29.29300 65.04000 39.39200
C  28.62700 66.26400 40.20700
N  27.67100 60.11900 39.67100
C  27.07000 61.32900 39.91900
C  25.61700 61.09500 39.72900
C  25.48200 59.72700 39.33700
C  26.74100 59.22200 39.30000
C  24.48600 62.12600 39.90400
C  24.51300 58.75100 38.84600
O  23.30500 58.74600 38.75400
C  25.31400 57.47000 38.41400
C  24.89500 56.30000 39.15000
O  25.21500 55.92500 40.28600
O  24.12800 55.52000 38.36700
C  23.33500 54.55600 39.15600
H  31.72900 55.76800 38.04100
H  33.31500 61.89700 39.21500
H  27.21200 63.37000 40.21200
H  26.99800 55.19500 38.19100
H  29.81400 54.68600 37.38700
H  29.85800 54.70600 40.14400
H  29.73600 53.27500 39.25300
H  28.23900 53.96600 39.64700
H  28.61100 55.48100 35.69300
H  27.74600 56.88700 35.86400
H  25.82800 54.87800 36.50600
H  26.65100 54.40900 35.04400
H  34.07000 55.81000 38.57000
H  35.50200 56.85200 38.67700
H  34.64200 56.59600 37.13600
H  36.63300 61.22000 40.30700
H  34.92400 61.48000 40.53700
H  35.80400 61.84400 38.91400
H  31.55200 63.82500 38.85700
H  29.92500 64.10300 41.32100
H  33.02600 64.82500 40.20200
H  33.08600 63.29400 41.20900
H  32.02200 64.53000 41.69500
H  28.52000 64.58700 38.77200
H  30.03600 65.42900 38.69600
H  27.65900 66.56200 39.80400
H  29.34600 67.08300 40.23600
H  28.55400 65.76000 41.17000
H  24.91400 63.08800 40.18400
H  23.96100 61.98300 40.84900
H  23.81900 62.04600 39.04600
H  25.24900 57.25300 37.34800
H  22.94500 54.85200 40.13000
H  23.91500 53.65700 39.36500
H  22.46800 54.27000 38.56100

