158

Mg -11.88200 37.42300 41.49700
C  -9.29300 35.23800 41.09600
C  -9.73100 39.97000 40.29900
C  -14.47300 39.48300 41.35700
C  -13.86000 34.75400 42.53000
N  -9.72500 37.59200 40.76500
C  -8.92500 36.51700 40.63200
C  -7.64300 36.80900 39.76100
C  -7.72300 38.46300 39.77600
C  -9.11900 38.72400 40.30000
C  -6.67600 39.18000 40.69800
C  -7.68600 36.18500 38.37100
C  -6.41700 35.44500 37.93400
H  -5.45500 36.14000 37.05100
N  -12.08800 39.46400 40.91900
C  -11.08000 40.32400 40.55000
C  -11.68100 41.63600 40.34300
C  -13.08400 41.52900 40.70300
C  -13.27700 40.17600 41.09500
C  -10.94800 42.87200 39.83100
C  -14.09400 42.69000 40.60100
O  -13.77300 43.83200 40.26500
C  -15.59500 42.50700 40.89700
N  -13.90400 37.15100 41.69900
C  -14.82500 38.19900 41.67000
C  -16.26800 37.65700 42.02500
C  -15.97100 36.21500 42.48900
C  -14.49200 35.97100 42.16700
C  -17.11400 38.52300 43.04400
C  -16.93200 35.07000 41.93300
C  -17.58800 34.16500 43.02800
N  -11.59800 35.43700 41.88700
C  -12.47700 34.46900 42.35500
C  -11.72000 33.24100 42.61200
C  -10.46000 33.45800 42.07500
C  -10.46800 34.83700 41.55900
C  -12.09900 32.06500 43.30800
C  -9.20900 32.90700 41.89100
O  -8.76400 31.90300 42.35600
C  -8.38900 33.91600 41.08400
C  -7.05100 34.00900 41.76900
O  -6.07100 33.31700 41.49100
O  -7.13600 34.93300 42.77600
C  -5.94400 35.11500 43.57100
H  -9.06500 40.78600 40.00800
H  -15.37100 40.09500 41.46100
H  -14.53800 33.94600 42.81200
H  -6.71400 36.48200 40.22700
H  -7.70600 38.72000 38.71700
H  -5.89900 39.52500 40.01500
H  -6.18000 38.63200 41.49900
H  -7.11700 39.99700 41.26900
H  -7.94000 36.97400 37.66400
H  -8.55500 35.53900 38.25000
H  -6.88200 34.61100 37.40800
H  -5.89700 35.01100 38.78800
H  -11.28300 43.79800 40.30000
H  -11.35300 43.06700 38.83800
H  -9.86800 42.78200 39.71800
H  -15.76900 41.94200 41.81200
H  -15.95900 41.96700 40.02300
H  -16.11000 43.46700 40.93800
H  -16.86500 37.59500 41.11500
H  -16.13300 36.27900 43.56500
H  -17.57800 39.29000 42.42400
H  -16.45800 39.05100 43.73600
H  -17.94700 37.95200 43.45400
H  -16.43100 34.35400 41.28100
H  -17.70200 35.45500 41.26400
H  -17.38500 33.12300 42.78000
H  -18.65700 34.37000 42.96800
H  -17.24500 34.40700 44.03400
H  -12.87500 31.52500 42.76400
H  -12.57600 32.42900 44.21800
H  -11.27900 31.36200 43.45600
H  -8.25200 33.75200 40.01500
H  -5.08900 34.47500 43.35500
H  -6.28400 34.97800 44.59800
H  -5.57400 36.12600 43.39900
Mg -1.49000 34.78000 26.76600
C  -3.19100 33.31900 29.49100
C  0.16700 36.85700 29.16100
C  -0.19900 36.52200 24.30100
C  -3.07700 32.64500 24.58500
N  -1.61900 35.13800 29.08600
C  -2.36600 34.33200 29.94400
C  -2.13400 34.80100 31.39900
C  -1.00000 35.91000 31.27500
C  -0.80800 35.97200 29.72600
C  -1.34100 37.31100 31.87600
C  -1.93100 33.60000 32.36500
C  -0.96900 33.70500 33.50700
H  -1.06900 32.75600 34.62500
N  -0.21600 36.40200 26.74400
C  0.48000 37.02800 27.77500
C  1.30400 38.03100 27.24900
C  1.10100 37.96600 25.83600
C  0.15500 36.97100 25.59000
C  2.05600 38.98800 28.22700
C  1.77100 38.85000 24.72300
O  1.54300 38.71200 23.52100
C  2.90400 39.75100 25.12500
N  -1.79000 34.72000 24.77800
C  -1.03200 35.42900 23.95800
C  -1.15700 34.87900 22.54400
C  -1.96700 33.60800 22.59900
C  -2.24900 33.61400 24.06100
C  -1.78600 35.93600 21.55500
C  -1.27900 32.28300 21.97100
C  -0.33600 31.43100 22.82200
N  -2.96300 33.30600 26.94800
C  -3.51300 32.49700 25.94400
C  -4.43600 31.52700 26.55700
C  -4.35500 31.82600 27.93400
C  -3.41700 32.94300 28.10800
C  -5.36900 30.52900 25.83200
C  -4.80700 31.47500 29.24900
O  -5.58500 30.62800 29.54800
C  -4.10200 32.33200 30.32700
C  -5.21100 32.97500 31.04700
O  -5.50200 34.19000 31.08100
O  -5.66800 32.17400 32.07700
C  -6.49000 32.76000 33.07400
H  0.69200 37.39600 29.95200
H  0.40600 36.80100 23.43700
H  -3.34400 31.86900 23.86500
H  -3.05000 35.29700 31.72000
H  -0.06900 35.59000 31.74300
H  -0.61000 37.65200 32.61000
H  -2.30600 37.28000 32.38300
H  -1.31100 38.11100 31.13700
H  -1.50400 32.84300 31.70700
H  -2.87200 33.23500 32.77700
H  -1.00900 34.69400 33.96400
H  0.06100 33.62000 33.16200
H  1.39600 39.85200 28.30300
H  3.00300 39.29200 27.78200
H  2.33700 38.54300 29.18200
H  3.81900 39.20300 25.35100
H  2.62600 40.40700 25.95000
H  3.12500 40.35500 24.24400
H  -0.18400 34.66300 22.10400
H  -2.97600 33.72400 22.20300
H  -2.08500 36.75500 22.20800
H  -2.57500 35.51100 20.93500
H  -1.01400 36.37800 20.92500
H  -0.84700 32.43000 20.98100
H  -2.14100 31.73100 21.59600
H  0.57500 31.17600 22.28100
H  -0.91900 30.51700 22.93400
H  -0.10300 31.81600 23.81500
H  -4.79000 29.88100 25.17400
H  -6.13300 31.12600 25.33400
H  -5.94900 30.07400 26.63600
H  -3.56700 31.63900 30.97600
H  -7.40500 33.19600 32.67300
H  -5.92800 33.54600 33.57800
H  -6.59600 31.96400 33.81200

