158

Mg 17.27800 -2.25200 28.28700
C  16.20300 -0.20800 30.83800
C  19.20000 -3.99100 30.40500
C  18.80000 -3.62800 25.64600
C  15.41800 -0.17100 26.00200
N  17.62400 -2.02700 30.37800
C  17.08500 -1.18200 31.25300
C  17.58100 -1.39400 32.71600
C  18.58300 -2.61000 32.47500
C  18.48700 -2.92700 30.98800
C  20.05300 -2.37100 32.90900
C  16.48800 -1.72600 33.76900
C  16.49200 -0.96800 35.07000
H  17.77300 -0.29000 35.60400
N  18.85300 -3.65800 28.09700
C  19.38000 -4.32500 29.09900
C  20.29300 -5.25200 28.58900
C  20.19500 -5.24400 27.18300
C  19.25000 -4.13100 26.86000
C  21.14800 -6.25600 29.40500
C  20.79100 -6.10100 26.07100
O  20.73000 -5.76300 24.88500
C  21.61800 -7.33300 26.44900
N  17.07000 -2.07300 26.13300
C  17.92900 -2.65100 25.26900
C  17.92600 -2.02400 23.84900
C  16.68000 -1.08900 23.98700
C  16.32500 -1.04200 25.49600
C  19.18500 -1.19000 23.33500
C  15.45600 -1.30900 23.00200
C  15.64400 -0.35700 21.75400
N  16.00100 -0.62200 28.37300
C  15.21400 0.02100 27.36000
C  14.48800 1.13100 28.03000
C  14.79500 1.09200 29.41200
C  15.75800 0.03300 29.52500
C  13.55500 1.99700 27.34600
C  14.52900 1.63500 30.76400
O  13.73700 2.51800 31.13100
C  15.52000 0.85800 31.65400
C  16.52400 1.85200 32.14700
O  17.52500 2.17700 31.53800
O  15.99200 2.51800 33.23700
C  16.83100 3.63200 33.63200
H  19.82700 -4.46400 31.16400
H  19.31900 -3.94800 24.74000
H  14.87000 0.42700 25.27000
H  18.11200 -0.50400 33.05200
H  18.19600 -3.50400 32.96400
H  20.65100 -2.30000 32.00100
H  20.25700 -3.20800 33.57800
H  20.18800 -1.51600 33.57100
H  16.48800 -2.79800 33.96600
H  15.49700 -1.59900 33.33400
H  16.18800 -1.53700 35.94900
H  15.78100 -0.15700 34.91000
H  20.69200 -7.19600 29.09400
H  21.03700 -6.14900 30.48400
H  22.18900 -6.23000 29.08300
H  21.05500 -7.93100 27.16500
H  22.44400 -6.89800 27.01100
H  22.07300 -7.82700 25.59000
H  17.65300 -2.88800 23.24300
H  16.95900 -0.07500 23.69900
H  18.96800 -0.18900 22.96300
H  19.55300 -1.69400 22.44100
H  19.92500 -1.22700 24.13400
H  14.51100 -0.99700 23.44600
H  15.32700 -2.33500 22.65700
H  16.54800 0.24800 21.81500
H  14.83100 0.36500 21.67600
H  15.60800 -1.03000 20.89800
H  12.53300 1.71700 27.60300
H  13.53600 1.86100 26.26500
H  13.79400 3.04700 27.51200
H  14.95300 0.41300 32.47200
H  16.62700 4.52500 33.04100
H  17.90000 3.47300 33.77600
H  16.28700 3.77300 34.56500
Mg -6.49900 25.91100 24.63700
C  -4.68900 27.18900 27.42100
C  -8.26100 24.03600 26.83200
C  -7.76900 24.34400 21.99900
C  -4.36800 27.77000 22.65600
N  -6.40300 25.60500 26.84000
C  -5.60600 26.24800 27.79100
C  -6.03700 25.78300 29.20200
C  -7.01200 24.58700 28.91000
C  -7.30200 24.81200 27.45900
C  -6.42600 23.15200 29.24000
C  -6.70300 26.86300 30.10000
C  -6.13900 26.74000 31.54800
H  -6.07300 25.39300 32.27900
N  -7.76100 24.35000 24.46000
C  -8.52800 23.82100 25.45200
C  -9.64100 23.03100 24.86400
C  -9.43900 23.06200 23.47500
C  -8.26700 23.96000 23.30100
C  -10.63200 22.17600 25.78200
C  -10.20400 22.42700 22.40600
O  -9.96300 22.50700 21.17300
C  -11.40200 21.72300 22.87600
N  -6.27800 26.16700 22.57100
C  -6.79200 25.26900 21.61000
C  -6.24400 25.53200 20.20600
C  -5.24400 26.77300 20.44600
C  -5.30800 26.96100 22.04100
C  -5.61800 24.30600 19.50600
C  -5.64600 28.08500 19.70700
C  -4.53700 28.73500 18.99200
N  -4.87500 27.23800 24.86800
C  -4.15300 27.96600 24.00300
C  -3.19000 28.67900 24.67100
C  -3.34500 28.45000 26.04900
C  -4.40700 27.54200 26.14100
C  -2.24300 29.65400 24.06500
C  -2.85900 28.76300 27.39900
O  -1.90500 29.48600 27.75200
C  -3.76700 27.93400 28.37800
C  -2.85600 27.13400 29.25500
O  -2.38100 26.01500 28.99500
O  -2.71400 27.76200 30.40900
C  -1.87800 27.10700 31.44900
H  -8.95300 23.57000 27.53700
H  -8.26300 23.88200 21.14200
H  -3.73400 28.35400 21.98500
H  -5.14300 25.41900 29.71000
H  -7.89600 24.65600 29.54500
H  -6.25500 22.60700 28.31100
H  -6.86500 22.71100 30.13500
H  -5.39300 23.36000 29.51700
H  -7.77200 26.73700 30.27300
H  -6.35700 27.82200 29.71600
H  -6.97300 27.19000 32.08800
H  -5.19900 27.26700 31.71000
H  -11.62400 22.61400 25.67200
H  -10.44600 22.26000 26.85300
H  -10.58800 21.11400 25.54100
H  -11.15400 20.82600 23.44300
H  -11.96200 21.38900 22.00300
H  -11.90300 22.56900 23.34700
H  -7.07700 25.95200 19.64100
H  -4.21400 26.47700 20.24500
H  -4.57400 24.53700 19.29500
H  -6.24700 24.03600 18.65700
H  -5.55500 23.47900 20.21200
H  -6.20700 28.71100 20.40200
H  -6.44900 27.92100 18.98800
H  -4.47600 29.75700 19.36700
H  -4.74000 28.72200 17.92100
H  -3.59100 28.21800 19.14900
H  -2.37900 29.62400 22.98400
H  -1.23000 29.42600 24.39700
H  -2.62300 30.60100 24.44900
H  -4.31200 28.53300 29.10800
H  -0.85800 27.46300 31.29900
H  -1.99900 26.02400 31.47800
H  -2.15100 27.35600 32.47500

