158

Mg 17.11600 -1.97700 28.14200
C  16.03100 0.09000 30.96800
C  19.18300 -3.56400 30.34400
C  18.25500 -3.58400 25.55900
C  15.02500 0.01000 26.13500
N  17.66300 -1.58400 30.44500
C  16.99800 -0.85100 31.36100
C  17.41800 -1.31200 32.79000
C  18.75100 -2.16600 32.50700
C  18.58600 -2.42200 30.98100
C  20.12300 -1.63800 32.74600
C  16.26200 -2.01100 33.54600
C  15.91100 -1.38600 34.94600
H  17.10800 -0.79600 35.71700
N  18.42500 -3.46900 27.98900
C  19.14900 -4.02200 28.99900
C  19.94800 -5.12300 28.44600
C  19.63700 -5.19600 27.08500
C  18.75300 -4.02600 26.85600
C  20.81100 -6.10300 29.30700
C  20.03100 -6.27000 25.98200
O  19.47500 -6.19700 24.86400
C  21.23700 -7.13800 26.17100
N  16.70400 -1.82200 26.12400
C  17.37500 -2.62400 25.20300
C  16.85500 -2.35100 23.73700
C  15.62900 -1.39700 23.98400
C  15.74200 -0.97300 25.48600
C  17.99100 -1.69400 22.86400
C  14.24700 -2.11800 23.62500
C  13.61300 -1.62300 22.29100
N  15.85100 -0.32900 28.50200
C  15.04500 0.30500 27.53300
C  14.36200 1.42200 28.19400
C  14.70500 1.36100 29.50900
C  15.56600 0.24300 29.68000
C  13.59300 2.47500 27.60900
C  14.49300 1.99000 30.79700
O  13.82900 2.93500 31.14500
C  15.27100 1.16500 31.76700
C  16.17100 2.02700 32.54400
O  17.26100 2.44300 32.08400
O  15.61900 2.32800 33.76500
C  16.44500 3.17600 34.59400
H  19.68000 -4.19000 31.08900
H  18.58900 -4.10300 24.65900
H  14.38500 0.65900 25.53300
H  17.65400 -0.43200 33.38800
H  18.67700 -3.14300 32.98600
H  20.67800 -1.51700 31.81500
H  20.79600 -2.27200 33.32300
H  20.09700 -0.63000 33.16000
H  16.55700 -3.04700 33.71300
H  15.37700 -2.11000 32.91800
H  15.45900 -2.19400 35.52100
H  15.18000 -0.57900 34.89000
H  21.82400 -5.87400 28.97700
H  20.54900 -7.16100 29.31200
H  20.70700 -5.78900 30.34600
H  20.93100 -8.18300 26.22000
H  21.94000 -6.82200 26.94200
H  21.76800 -6.94200 25.23900
H  16.53800 -3.30500 23.31300
H  15.83100 -0.50700 23.38700
H  17.65500 -0.89100 22.20800
H  18.50600 -2.43400 22.25200
H  18.70900 -1.27500 23.57000
H  13.58500 -1.89400 24.46100
H  14.41600 -3.19400 23.64500
H  12.52700 -1.53400 22.32100
H  13.96800 -2.35100 21.56100
H  14.00000 -0.64700 21.99600
H  12.57400 2.08800 27.61500
H  13.96600 2.56100 26.58900
H  13.57100 3.39900 28.18700
H  14.53600 0.72200 32.43900
H  17.46300 2.86200 34.36000
H  16.14600 3.09100 35.63900
H  16.33800 4.19100 34.21200
Mg 36.93900 49.14600 24.69600
C  36.70200 47.45400 27.74400
C  35.21000 51.84900 25.97500
C  36.61500 50.36300 21.50600
C  38.03600 46.13000 23.24700
N  35.91000 49.54200 26.61800
C  36.14500 48.78200 27.75200
C  35.56400 49.53000 28.97600
C  35.27000 50.98800 28.42300
C  35.41400 50.80000 26.91100
C  33.94500 51.61600 28.82600
C  36.58100 49.60700 30.18500
C  36.08900 49.08500 31.54500
H  36.02800 50.20100 32.61400
N  36.11400 50.91400 23.86800
C  35.58500 51.91500 24.60300
C  35.23900 53.02500 23.65100
C  35.69000 52.66500 22.34300
C  36.17300 51.29200 22.51100
C  34.60100 54.30800 24.15200
C  35.68400 53.45200 21.07400
O  36.29100 53.03800 20.15500
C  34.88400 54.79400 20.89500
N  37.30600 48.36000 22.68200
C  37.05600 49.05300 21.52500
C  37.19400 48.13400 20.37300
C  38.13500 47.00500 20.99200
C  37.74700 47.14900 22.40700
C  35.91400 47.60400 19.66100
C  39.67300 47.25900 20.56500
C  40.40400 46.06500 20.16600
N  37.35700 47.21900 25.31000
C  37.81600 46.13000 24.59300
C  37.95700 44.97300 25.47600
C  37.56600 45.44000 26.74400
C  37.17100 46.79000 26.58300
C  38.39800 43.58900 25.10700
C  37.34100 45.11800 28.14800
O  37.57100 44.08300 28.78000
C  36.84600 46.43200 28.79700
C  35.51200 46.12400 29.40600
O  34.42500 45.91500 28.89800
O  35.72300 46.01600 30.72500
C  34.68900 45.39200 31.48000
H  34.87600 52.76700 26.46400
H  36.49200 50.66600 20.46400
H  38.53100 45.21800 22.90800
H  34.63800 49.07700 29.33100
H  36.10800 51.66600 28.58200
H  34.14700 52.68400 28.90200
H  33.51600 51.31200 29.78100
H  33.24100 51.36400 28.03300
H  37.03300 50.59200 30.29800
H  37.45500 49.00300 29.94000
H  36.69200 48.25700 31.91800
H  35.02700 48.86200 31.43900
H  33.86000 54.67900 23.44500
H  35.33200 55.07400 24.41100
H  34.06600 53.96400 25.03700
H  35.46700 55.49200 21.49500
H  33.85000 54.61200 21.18800
H  35.04200 55.19700 19.89500
H  37.68400 48.70700 19.58600
H  37.91900 45.95900 20.77600
H  35.81100 46.52300 19.75600
H  36.00400 47.88000 18.61000
H  35.04600 48.04700 20.14900
H  40.23900 47.66600 21.40300
H  39.57500 47.92600 19.70800
H  39.90700 45.19700 20.59900
H  41.46400 46.06700 20.42200
H  40.50300 45.94600 19.08700
H  39.29100 43.56500 24.48200
H  37.66000 43.02000 24.54200
H  38.59600 43.06400 26.04200
H  37.58200 46.72500 29.54500
H  34.55700 44.42600 30.99300
H  33.88000 46.12300 31.48300
H  35.03900 45.15400 32.48500

