158

Mg 1.64200 8.54500 27.00800
C  2.18500 10.25800 29.96100
C  1.65100 5.58300 28.71500
C  1.41400 6.91500 24.04500
C  2.30600 11.54100 25.26400
N  1.85700 8.01900 29.03000
C  1.97000 8.90700 30.13000
C  1.85000 8.19400 31.48100
C  2.11500 6.73400 30.99700
C  1.81100 6.74400 29.46700
C  3.40500 6.14000 31.32800
C  0.43800 8.55100 32.15100
C  0.44600 8.81300 33.68600
H  1.70600 8.36800 34.41900
N  1.32000 6.55500 26.49800
C  1.36100 5.49000 27.32400
C  0.96000 4.26300 26.59600
C  0.94800 4.60600 25.21600
C  1.27800 6.06700 25.21500
C  0.61600 3.00200 27.26100
C  0.70900 3.71200 23.99400
O  0.48700 4.07000 22.81300
C  0.76300 2.23000 24.18300
N  1.72500 9.07800 24.99500
C  1.61900 8.26000 23.88600
C  1.55800 8.95800 22.58100
C  1.55000 10.44100 23.07400
C  1.98700 10.35200 24.53500
C  2.80400 8.64300 21.72000
C  0.21800 11.28100 22.82600
C  0.29100 12.20000 21.58100
N  2.26100 10.50200 27.45200
C  2.47800 11.61300 26.66700
C  2.77200 12.79300 27.48400
C  2.69300 12.30900 28.78700
C  2.41100 10.95300 28.73100
C  3.01400 14.19100 26.96000
C  2.79400 12.65600 30.19100
O  3.17300 13.67700 30.64800
C  2.47000 11.34400 31.01800
C  3.64200 11.18600 31.83700
O  4.55700 10.47300 31.56500
O  3.37600 11.80600 33.05200
C  4.18900 11.40300 34.15600
H  1.70500 4.55900 29.09000
H  1.21900 6.38200 23.11100
H  2.48600 12.47900 24.73600
H  2.65900 8.50000 32.14500
H  1.42500 6.11400 31.56900
H  4.21200 6.37100 30.63200
H  3.32000 5.05800 31.42100
H  3.79100 6.47400 32.29100
H  -0.10100 7.61200 32.02500
H  -0.11100 9.38200 31.70900
H  -0.42300 8.35700 34.15900
H  0.29700 9.88400 33.82400
H  0.18900 3.31700 28.21300
H  1.47300 2.39500 27.55100
H  -0.25000 2.52700 26.79900
H  1.70200 1.88200 24.61300
H  0.74100 1.75900 23.20000
H  -0.05800 1.87700 24.80600
H  0.62800 8.58700 22.14900
H  2.38300 11.03800 22.70400
H  2.88600 9.37900 20.92000
H  2.73900 7.61900 21.35300
H  3.72100 8.94900 22.22400
H  -0.09100 11.92100 23.65200
H  -0.58300 10.55200 22.70500
H  1.19500 11.92100 21.04000
H  0.46200 13.26300 21.75000
H  -0.66000 12.15300 21.04900
H  3.51500 13.97900 26.01600
H  3.75000 14.69800 27.58400
H  2.09000 14.76800 26.91800
H  1.61800 11.64700 31.62600
H  4.94300 12.19000 34.18900
H  4.54200 10.38500 33.99300
H  3.69600 11.46600 35.12700
Mg 10.17000 48.90600 25.97100
C  7.54000 49.33000 28.44900
C  12.28100 50.42200 28.09700
C  12.25500 49.05000 23.46100
C  7.63000 47.82600 23.84500
N  9.90300 49.79100 28.03000
C  8.83000 49.72500 28.94000
C  9.26900 50.19800 30.33400
C  10.66500 50.93200 29.96900
C  10.93400 50.38500 28.59500
C  10.70800 52.48600 30.08100
C  9.60500 48.99100 31.30300
C  9.80100 49.29200 32.80300
H  9.08100 48.49100 33.88900
N  12.00000 49.50200 25.83900
C  12.79200 50.00800 26.84300
C  14.16900 50.08700 26.35100
C  14.15900 49.68300 25.03400
C  12.75500 49.34800 24.69800
C  15.32900 50.54300 27.23400
C  15.31200 49.46900 24.09700
O  15.18200 49.00800 22.91100
C  16.60600 49.88300 24.54700
N  9.97500 48.41300 23.88200
C  10.96200 48.65500 23.02700
C  10.51600 48.34400 21.50700
C  9.10400 47.72600 21.77400
C  8.86000 47.98500 23.27000
C  10.60100 49.62200 20.54100
C  9.01200 46.25400 21.31800
C  9.53100 45.19500 22.30700
N  8.13600 48.52600 26.09500
C  7.24200 48.00500 25.19500
C  5.92000 47.79200 25.70400
C  5.99900 48.31300 26.97400
C  7.35000 48.75400 27.18700
C  4.58700 47.49300 24.92900
C  5.28200 48.53700 28.18400
O  4.12300 48.23900 28.55000
C  6.29300 49.24100 29.19800
C  6.36900 48.22000 30.27000
O  7.04300 47.20100 30.21300
O  5.33700 48.40000 31.18200
C  5.22500 47.55500 32.30400
H  13.01800 50.70900 28.85000
H  12.88100 49.34700 22.61700
H  6.87000 47.38200 23.19900
H  8.56300 50.82600 30.87700
H  11.55600 50.65000 30.52900
H  11.57200 52.78700 30.67400
H  9.76400 52.69600 30.58400
H  10.76100 52.91800 29.08200
H  10.51800 48.54400 30.91100
H  8.84300 48.21300 31.26200
H  9.69300 50.37500 32.86200
H  10.87200 49.11200 32.89500
H  15.88700 51.41000 26.88200
H  16.05600 49.80400 27.57000
H  14.86400 50.98000 28.11800
H  16.71700 50.89200 24.94400
H  17.32000 49.81400 23.72700
H  17.02400 49.17700 25.26400
H  11.20100 47.57100 21.16000
H  8.48700 48.38800 21.16600
H  9.64100 49.63000 20.02600
H  11.53200 49.59600 19.97500
H  10.62900 50.53900 21.13100
H  9.67200 46.01900 20.48300
H  7.98500 46.05300 21.01400
H  10.35600 45.59800 22.89200
H  9.94700 44.34900 21.76000
H  8.75700 44.73900 22.92500
H  3.71600 47.46200 25.58500
H  4.66200 46.54600 24.39600
H  4.44500 48.38300 24.31700
H  5.95500 50.13100 29.72800
H  4.49500 46.79000 32.03900
H  4.87200 48.14600 33.14900
H  6.13300 47.03600 32.60800

