158

Mg 25.03600 -7.14600 47.82800
C  27.55200 -5.01300 46.72400
C  23.01200 -6.19200 45.29400
C  23.25500 -9.93700 48.37300
C  27.73600 -8.85000 49.63100
N  25.39400 -5.84000 46.10400
C  26.45700 -5.05700 45.90900
C  26.20300 -4.10600 44.68400
C  24.64800 -4.41600 44.37900
C  24.30100 -5.60200 45.27700
C  23.61600 -3.31000 44.56600
C  27.26800 -4.40200 43.63700
C  27.96300 -3.20600 43.06500
H  27.60500 -2.86300 41.64200
N  23.21300 -7.83200 47.08500
C  22.56800 -7.31000 45.97200
C  21.32200 -7.97600 45.87000
C  21.29700 -9.10800 46.77300
C  22.64600 -9.04800 47.44300
C  20.37100 -7.58900 44.81500
C  20.18900 -10.15800 46.85700
O  19.27600 -10.09900 46.04500
C  20.13600 -11.17400 47.97400
N  25.43800 -9.13600 48.83600
C  24.45200 -10.09100 49.02500
C  24.87700 -11.31600 49.83100
C  26.44900 -10.96200 50.03100
C  26.53000 -9.57500 49.48500
C  24.17700 -11.55300 51.18200
C  27.44300 -11.89600 49.28900
C  27.82500 -11.76300 47.75900
N  27.11700 -6.90500 48.31700
C  28.02800 -7.61300 49.06300
C  29.35100 -6.84800 49.12500
C  29.14900 -5.77900 48.32200
C  27.86500 -5.96800 47.72100
C  30.58300 -7.21700 49.94800
C  29.75100 -4.62300 47.85200
O  30.76600 -4.02900 48.06700
C  28.71700 -4.01100 46.75200
C  28.36500 -2.62900 47.09500
O  28.20600 -2.19300 48.20400
O  28.34300 -1.84300 45.98700
C  27.93400 -0.44000 46.36400
H  22.23000 -5.88800 44.59600
H  22.72700 -10.86000 48.62100
H  28.54400 -9.38600 50.13200
H  26.22700 -3.13300 45.17500
H  24.56300 -4.94600 43.43100
H  24.18300 -2.38600 44.67600
H  23.04100 -3.47500 45.47700
H  22.97100 -3.22300 43.69100
H  26.73200 -4.99200 42.89300
H  28.05900 -5.02200 44.05800
H  29.03700 -3.31300 43.21800
H  27.70200 -2.29400 43.60200
H  19.82900 -6.64700 44.90500
H  19.59100 -8.30800 44.56800
H  20.93700 -7.54900 43.88300
H  20.52800 -10.82700 48.93000
H  20.61800 -12.11100 47.69500
H  19.10100 -11.44600 48.18100
H  24.76600 -12.26100 49.29900
H  26.64600 -10.84400 51.09700
H  24.79900 -11.45400 52.07100
H  23.76200 -12.56100 51.17000
H  23.35500 -10.83900 51.23800
H  27.16400 -12.94800 49.34500
H  28.31800 -11.89200 49.93900
H  27.73900 -12.75700 47.32000
H  28.78400 -11.24600 47.71900
H  27.13800 -11.07100 47.27200
H  30.73200 -8.28500 50.11000
H  30.58000 -6.78100 50.94700
H  31.55400 -7.01800 49.49400
H  29.24300 -4.00700 45.79800
H  26.96300 -0.39000 46.85800
H  27.77500 0.01800 45.38800
H  28.76900 -0.00200 46.91100
Mg -2.81200 34.77700 25.73000
C  -3.95000 33.09100 28.78800
C  -1.48500 37.16500 27.90600
C  -2.17500 36.47300 23.03800
C  -4.66700 32.45900 24.00800
N  -2.56600 35.01500 28.14700
C  -3.18900 34.22400 29.14500
C  -2.73300 34.66300 30.50300
C  -2.16100 36.10700 30.19900
C  -1.97900 36.05500 28.67300
C  -3.11500 37.31300 30.67700
C  -1.70600 33.70500 31.24500
C  -2.29000 33.02700 32.62300
H  -1.30000 32.92600 33.79900
N  -1.98800 36.58600 25.52100
C  -1.43700 37.35700 26.51400
C  -0.70400 38.45500 25.85600
C  -0.92700 38.28700 24.41900
C  -1.65500 37.07900 24.26500
C  0.08300 39.52000 26.61400
C  -0.35200 39.08700 23.30900
O  -0.73500 38.96500 22.15900
C  0.68800 40.12100 23.58900
N  -3.53100 34.63200 23.82300
C  -3.12400 35.47100 22.77900
C  -3.50600 34.96200 21.46300
C  -4.31600 33.68100 21.76100
C  -4.10600 33.50900 23.28500
C  -4.35600 35.96300 20.51200
C  -3.84200 32.38100 20.98700
C  -2.69000 31.54500 21.67300
N  -4.00500 33.07600 26.22200
C  -4.57600 32.16000 25.36600
C  -5.15000 31.04200 26.06200
C  -4.85900 31.41300 27.42800
C  -4.29300 32.66300 27.46600
C  -5.79200 29.80900 25.48500
C  -5.07500 30.97700 28.79700
O  -5.59200 29.93700 29.17500
C  -4.49700 32.04500 29.80300
C  -5.65800 32.48600 30.57400
O  -6.67500 33.09000 30.20600
O  -5.38700 32.15600 31.83200
C  -6.35200 32.34600 32.85800
H  -1.06800 37.94900 28.54200
H  -1.79600 36.88600 22.10100
H  -4.87500 31.55500 23.43100
H  -3.63700 34.62100 31.11100
H  -1.21000 36.20600 30.72200
H  -4.04700 36.80600 30.92600
H  -3.14400 38.03000 29.85600
H  -2.66200 37.76900 31.55700
H  -0.74600 34.13400 31.53100
H  -1.46900 32.97200 30.47400
H  -2.84300 32.12000 32.37600
H  -3.01000 33.79900 32.89400
H  -0.43700 40.47500 26.53400
H  1.07400 39.46100 26.16400
H  0.13300 39.27800 27.67600
H  1.17300 40.29100 22.62800
H  1.42800 39.76900 24.30800
H  0.25500 41.09100 23.83400
H  -2.63200 34.68800 20.87300
H  -5.36600 33.83800 21.51600
H  -4.61300 36.84100 21.10400
H  -5.25900 35.48800 20.12800
H  -3.85700 36.32200 19.61200
H  -3.47000 32.76200 20.03600
H  -4.66900 31.71400 20.74400
H  -2.54000 31.71100 22.74000
H  -1.76900 31.80700 21.15300
H  -2.90300 30.49900 21.45300
H  -6.87800 29.89200 25.51800
H  -5.66400 28.85600 25.99800
H  -5.63700 29.68000 24.41400
H  -3.60200 31.73700 30.34300
H  -7.25200 32.89500 32.58300
H  -6.06300 32.69900 33.84800
H  -6.65600 31.32300 33.07900

