158

Mg 1.72000 -2.48900 43.99000
C  5.07900 -1.49900 43.52900
C  0.76300 0.36100 42.31500
C  -1.37700 -3.71100 44.05700
C  2.91000 -5.45500 45.36900
N  2.85200 -0.88700 42.88700
C  4.17900 -0.65200 42.85100
C  4.48600 0.64500 42.04900
C  3.08500 1.36400 42.16100
C  2.16100 0.22100 42.42500
C  2.95600 2.56700 43.07300
C  5.05600 0.49100 40.62000
C  6.33800 1.21200 40.31300
H  6.24100 2.22500 39.21400
N  -0.12600 -1.79100 43.21000
C  -0.31900 -0.58800 42.56300
C  -1.75000 -0.34700 42.36500
C  -2.44300 -1.45400 43.01600
C  -1.36000 -2.39500 43.49800
C  -2.28700 0.74300 41.54200
C  -3.90300 -1.64400 43.15600
O  -4.68900 -0.88300 42.69300
C  -4.57000 -2.80000 43.73700
N  0.84700 -4.40500 44.55100
C  -0.50800 -4.67400 44.53900
C  -0.86000 -5.96500 45.23000
C  0.57200 -6.57700 45.34000
C  1.52600 -5.47200 45.13000
C  -1.70700 -5.77100 46.44800
C  0.92200 -7.67800 44.33100
C  0.12700 -8.99000 44.46200
N  3.57600 -3.25500 44.54800
C  3.90000 -4.45900 45.11100
C  5.30300 -4.50500 45.37600
C  5.83000 -3.32200 44.82300
C  4.74500 -2.62600 44.31700
C  6.08700 -5.60300 46.00700
C  7.04300 -2.59000 44.47500
O  8.18900 -2.89300 44.78600
C  6.52500 -1.32300 43.71600
C  6.90800 -0.10300 44.48600
O  6.99800 0.01000 45.68400
O  7.46700 0.88500 43.69500
C  7.85300 2.17800 44.35700
H  0.50300 1.38700 42.04600
H  -2.43100 -3.94300 44.22400
H  3.29700 -6.32900 45.89600
H  5.20300 1.26600 42.58700
H  2.69800 1.78000 41.23100
H  2.43500 3.28900 42.44400
H  3.94500 2.94200 43.33600
H  2.44200 2.31200 44.00100
H  4.27300 0.92800 40.00000
H  5.07000 -0.59600 40.54500
H  6.99900 0.38700 40.04800
H  6.82200 1.66500 41.17800
H  -1.90100 0.90000 40.53500
H  -2.31000 1.71500 42.03500
H  -3.35900 0.59800 41.41500
H  -5.64200 -2.74300 43.92200
H  -4.11300 -2.89800 44.72200
H  -4.32300 -3.69000 43.15900
H  -1.52600 -6.45500 44.52000
H  0.73600 -6.99100 46.33500
H  -2.71000 -6.19100 46.36900
H  -1.74600 -4.69900 46.64600
H  -1.18500 -6.16300 47.32100
H  2.00200 -7.78000 44.44100
H  0.77100 -7.29500 43.32200
H  -0.52500 -9.10400 43.59600
H  -0.62100 -8.94300 45.25400
H  0.70100 -9.90500 44.31400
H  6.21300 -6.51900 45.43000
H  5.63800 -5.80200 46.98000
H  7.06200 -5.11600 45.98800
H  7.01900 -1.27700 42.74600
H  7.37600 2.54700 45.26500
H  7.65200 2.87400 43.54200
H  8.93800 2.23500 44.44300
Mg 26.86900 50.82900 25.99400
C  24.97700 52.03600 28.77000
C  29.51300 50.33000 28.08400
C  28.21800 49.57100 23.40500
C  24.26800 52.17000 23.88900
N  27.06700 50.94200 28.16600
C  26.17300 51.33900 29.10300
C  26.71700 51.17700 30.55400
C  28.25300 51.10000 30.27900
C  28.32300 50.74500 28.73500
C  29.09600 52.38900 30.65900
C  26.01100 49.91100 31.33400
C  25.43300 50.35000 32.69400
H  26.44200 50.92000 33.72800
N  28.62800 50.12400 25.75300
C  29.67500 49.99100 26.71500
C  30.69000 49.15600 26.06100
C  30.23400 48.70700 24.84300
C  28.96900 49.47700 24.58600
C  32.07100 48.85100 26.75400
C  30.84600 47.78200 23.74500
O  30.27600 47.47200 22.68100
C  32.15000 47.07300 24.08100
N  26.29500 50.96600 23.85200
C  27.02000 50.23800 23.03900
C  26.40100 50.20800 21.68000
C  25.16000 51.07900 21.78100
C  25.19900 51.37100 23.25200
C  27.33600 50.60900 20.56500
C  23.86400 50.35300 21.38900
C  22.81400 51.19200 20.54000
N  25.05000 51.93700 26.24900
C  24.17100 52.46800 25.26200
C  23.10600 53.17100 25.92400
C  23.30700 52.83700 27.33300
C  24.54200 52.19300 27.43200
C  21.91400 53.74800 25.33500
C  22.79000 53.17200 28.64400
O  21.77500 53.79900 28.91000
C  23.84800 52.59800 29.69200
C  24.10100 53.68200 30.65600
O  24.93000 54.59200 30.48100
O  23.38600 53.48200 31.83700
C  23.82200 54.32500 32.96000
H  30.31900 50.13800 28.79500
H  28.76400 49.25800 22.51300
H  23.57200 52.72600 23.25900
H  26.52600 52.09500 31.11000
H  28.72600 50.27400 30.81100
H  29.53900 52.08800 31.60900
H  28.50200 53.28300 30.84600
H  29.89700 52.65100 29.96700
H  26.69300 49.06200 31.28800
H  25.16000 49.71000 30.68400
H  24.82200 49.50500 33.01200
H  24.68000 51.12600 32.56100
H  32.87000 49.32100 26.18100
H  32.21100 47.77100 26.80300
H  32.06800 49.28300 27.75500
H  32.92100 47.84200 24.12900
H  32.49000 46.43500 23.26500
H  32.15900 46.50700 25.01200
H  26.13000 49.15900 21.56200
H  25.22500 52.01100 21.22000
H  28.21800 51.15200 20.90700
H  26.93000 51.31800 19.84400
H  27.68900 49.78800 19.94100
H  23.26200 49.92100 22.18900
H  24.11400 49.55700 20.68800
H  22.35900 50.56300 19.77500
H  23.27400 52.11100 20.17500
H  22.02600 51.39900 21.26300
H  22.23200 54.34700 24.48200
H  21.34700 54.33300 26.06000
H  21.21800 52.99800 24.95900
H  23.22300 51.81500 30.12300
H  23.82800 55.35800 32.61100
H  24.82100 53.97700 33.22500
H  23.07900 54.22600 33.75100

