158

Mg 24.65600 -4.33600 45.48200
C  26.76600 -1.97800 43.95200
C  22.19500 -3.48600 43.17600
C  22.92600 -7.22600 46.35400
C  27.41300 -5.54800 47.17700
N  24.58000 -2.84200 43.83700
C  25.50400 -1.95900 43.38900
C  25.05100 -1.04000 42.27100
C  23.47000 -1.44100 42.19500
C  23.36300 -2.68200 43.13900
C  22.59200 -0.24000 42.73800
C  25.81300 -1.42300 40.93200
C  26.53100 -0.28300 40.17000
H  26.20500 -0.32400 38.70800
N  22.71400 -5.14300 44.94700
C  21.87900 -4.61900 43.97700
C  20.70300 -5.47000 43.92300
C  20.81800 -6.49600 44.89700
C  22.16400 -6.37500 45.48600
C  19.46100 -5.15100 43.12800
C  19.81300 -7.57000 45.16900
O  18.72800 -7.62400 44.51300
C  19.96400 -8.58500 46.24300
N  25.02400 -6.06500 46.65200
C  24.16400 -7.08500 46.91000
C  24.85100 -8.25500 47.64600
C  26.29600 -7.77800 47.79900
C  26.25000 -6.37400 47.20200
C  24.07800 -8.82700 48.89000
C  27.47200 -8.67800 47.24700
C  28.54000 -9.07800 48.35600
N  26.66600 -3.86200 45.69600
C  27.67100 -4.31500 46.47300
C  28.90700 -3.59900 46.30300
C  28.58600 -2.72700 45.28300
C  27.19600 -2.86500 45.02700
C  30.21100 -3.86500 47.03300
C  29.14700 -1.72300 44.34900
O  30.29900 -1.21500 44.22200
C  27.93800 -1.20100 43.57300
C  27.86700 0.22900 43.97600
O  27.52400 0.70300 45.02300
O  28.35400 1.02500 42.90200
C  28.86200 2.42300 43.12200
H  21.44500 -3.26100 42.41400
H  22.49000 -8.21800 46.49200
H  28.31500 -6.09900 47.45100
H  25.23600 0.00200 42.53100
H  23.10900 -1.74100 41.21100
H  23.25000 0.62200 42.84700
H  22.16800 -0.43200 43.72400
H  21.76300 0.06500 42.10000
H  25.03700 -1.86000 40.30400
H  26.54800 -2.20200 41.14000
H  27.60400 -0.17700 40.32900
H  26.08400 0.65200 40.50600
H  19.47600 -4.20000 42.59500
H  18.61900 -5.15100 43.81900
H  19.21400 -5.96700 42.44800
H  18.97100 -8.79100 46.64300
H  20.56500 -8.26000 47.09200
H  20.34100 -9.53200 45.85600
H  24.75100 -9.07700 46.93700
H  26.52400 -7.55800 48.84200
H  24.01800 -9.91500 48.91600
H  23.08100 -8.38800 48.94000
H  24.67200 -8.69800 49.79500
H  28.02100 -8.23500 46.41500
H  27.08000 -9.59900 46.81500
H  29.49300 -8.57800 48.18300
H  28.47400 -10.16600 48.36600
H  28.12900 -8.92200 49.35400
H  30.03000 -4.23400 48.04200
H  30.84100 -2.98000 47.12600
H  30.76200 -4.57000 46.41100
H  28.17100 -1.21000 42.50900
H  28.37400 3.02000 42.35200
H  29.93200 2.54300 42.95300
H  28.63700 2.76000 44.13400
Mg 16.52400 -1.67100 28.04800
C  15.51100 0.22100 30.72700
C  18.60300 -3.36900 30.03400
C  17.59900 -3.34500 25.26500
C  14.44500 0.19800 25.93300
N  16.97800 -1.52500 30.14500
C  16.44300 -0.73800 31.02500
C  16.95700 -0.99700 32.44400
C  18.17300 -2.00100 32.15800
C  17.93800 -2.34300 30.68300
C  19.64200 -1.46000 32.41600
C  15.85900 -1.66600 33.35700
C  15.78500 -1.26100 34.90900
H  17.04700 -0.63000 35.46700
N  17.73600 -3.33100 27.69600
C  18.51600 -3.82700 28.70600
C  19.39100 -4.77200 28.04600
C  19.03800 -4.83200 26.57600
C  18.04800 -3.84800 26.46400
C  20.35700 -5.59800 28.74100
C  19.65100 -5.70300 25.50500
O  19.24800 -5.73700 24.35100
C  20.90500 -6.39800 25.71500
N  16.25400 -1.46700 25.93100
C  16.85700 -2.26300 25.02800
C  16.46000 -1.91000 23.53700
C  15.27200 -0.92200 23.73300
C  15.29700 -0.73900 25.29400
C  17.63600 -1.43000 22.59400
C  13.85900 -1.28000 23.23700
C  13.18900 -0.29100 22.34300
N  15.22300 -0.09300 28.23000
C  14.44500 0.52600 27.28300
C  13.61100 1.49200 28.06900
C  13.95300 1.36100 29.36200
C  15.00800 0.44300 29.42500
C  12.64500 2.44800 27.59000
C  13.79200 1.92500 30.66200
O  12.95800 2.74900 31.01900
C  14.72700 1.17300 31.64900
C  15.63200 2.16600 32.25400
O  16.45900 2.86900 31.65000
O  15.31800 2.19900 33.58900
C  16.12300 3.16000 34.30700
H  19.29800 -3.87600 30.70700
H  18.15800 -3.81400 24.45300
H  13.73100 0.78700 25.35400
H  17.33700 -0.02700 32.76500
H  18.11400 -2.94100 32.70600
H  20.16600 -1.30600 31.47300
H  20.22800 -2.11600 33.06000
H  19.47300 -0.46100 32.81800
H  16.05300 -2.73600 33.28500
H  14.89600 -1.52100 32.86700
H  15.57200 -2.14700 35.50700
H  14.98900 -0.62400 35.29300
H  21.35800 -5.17200 28.68100
H  20.47700 -6.67900 28.66800
H  19.98700 -5.55100 29.76600
H  21.32000 -6.57700 24.72300
H  20.75800 -7.36800 26.18900
H  21.55400 -5.75800 26.31300
H  16.10300 -2.86000 23.13800
H  15.51800 0.03200 23.26600
H  17.35500 -0.48900 22.12200
H  17.74400 -2.25100 21.88500
H  18.49900 -1.48600 23.25800
H  13.21600 -1.49100 24.09200
H  14.04500 -2.19800 22.68000
H  12.45800 -0.82200 21.73200
H  13.96400 -0.07200 21.60900
H  12.69600 0.56900 22.79700
H  12.08000 1.83100 26.89100
H  13.01200 3.23900 26.93600
H  12.03300 2.88400 28.38000
H  14.13500 0.47500 32.24200
H  15.55700 4.08600 34.19800
H  17.07000 3.38200 33.81600
H  16.23400 2.95000 35.37100

