158

Mg 9.45100 4.21500 28.08500
C  10.66200 2.64000 30.92600
C  7.58700 6.33000 30.18800
C  8.17900 5.75200 25.38500
C  10.73400 1.69700 26.11600
N  9.15500 4.39500 30.29000
C  9.77300 3.66000 31.26100
C  9.38700 4.05500 32.71200
C  8.54100 5.37700 32.38500
C  8.42700 5.39500 30.83100
C  7.17700 5.52400 33.17000
C  10.55300 4.34000 33.71300
C  10.29200 5.26200 34.87100
H  10.76200 4.79500 36.22500
N  7.96800 5.82100 27.84100
C  7.33900 6.52800 28.81700
C  6.39600 7.40000 28.18900
C  6.66600 7.32300 26.82400
C  7.59800 6.25700 26.62100
C  5.48600 8.31200 29.00400
C  6.12800 8.21000 25.80000
O  6.38500 8.04400 24.59800
C  5.00500 9.17000 26.07900
N  9.48200 3.77300 26.01800
C  8.96000 4.61700 25.09700
C  9.37700 4.16500 23.70000
C  10.09100 2.78800 23.92400
C  10.17800 2.77500 25.44400
C  8.19100 4.14400 22.68500
C  11.50700 2.61500 23.18600
C  11.50800 1.55300 22.16500
N  10.50500 2.49200 28.42800
C  11.00200 1.58200 27.51000
C  11.88000 0.63600 28.18000
C  11.67500 0.98900 29.53500
C  10.88000 2.17900 29.62400
C  12.54300 -0.60200 27.56200
C  12.03600 0.58300 30.85400
O  12.65200 -0.34100 31.19900
C  11.38700 1.62500 31.87600
C  10.47500 0.91400 32.82200
O  9.37400 0.38000 32.56500
O  11.02900 0.97800 34.07300
C  10.28900 0.33600 35.12100
H  7.20000 7.03200 30.92900
H  7.88200 6.26800 24.46900
H  11.09300 0.88900 25.47500
H  8.82800 3.19700 33.08700
H  9.16500 6.23000 32.65200
H  6.93400 4.69800 33.83900
H  6.37300 5.55200 32.43500
H  7.23300 6.49900 33.65200
H  11.41300 4.63300 33.11100
H  10.89500 3.41500 34.17900
H  9.25700 5.60000 34.91400
H  10.91600 6.12100 34.62100
H  5.49400 7.98200 30.04300
H  4.48600 8.25600 28.57300
H  5.90800 9.31400 28.92600
H  4.09000 8.76500 26.51000
H  4.86900 9.61400 25.09200
H  5.30100 10.03200 26.67800
H  10.13900 4.92900 23.54900
H  9.36400 2.03200 23.62600
H  7.26500 4.00200 23.24300
H  8.21800 3.38000 21.90800
H  8.12400 5.07900 22.13000
H  12.35600 2.44600 23.84800
H  11.61200 3.56700 22.66600
H  11.25300 1.93100 21.17500
H  10.76200 0.77400 22.32400
H  12.45800 1.02000 22.12300
H  12.77700 -0.46900 26.50600
H  11.93500 -1.50600 27.60300
H  13.52100 -0.82300 27.99000
H  12.09700 2.22200 32.44800
H  10.23800 1.07900 35.91600
H  10.96200 -0.46400 35.43000
H  9.30700 -0.09700 34.93000
Mg 36.05600 1.77800 29.56700
C  33.84800 2.92500 32.05000
C  38.48400 1.62600 32.00600
C  38.19500 1.20600 27.17800
C  33.49300 2.46200 27.23400
N  36.12300 2.42900 31.71500
C  35.14100 2.69900 32.55100
C  35.52200 2.75000 34.02000
C  37.10200 2.73700 33.92900
C  37.24400 2.15300 32.49300
C  37.76600 4.16700 34.05600
C  34.75400 1.58000 34.73600
C  34.21200 1.83000 36.03800
H  34.79500 2.98100 36.82200
N  37.98300 1.27400 29.59700
C  38.74100 1.19800 30.68900
C  39.94900 0.57000 30.38000
C  39.94000 0.42000 28.91500
C  38.68800 1.03700 28.49400
C  40.92700 -0.01900 31.41600
C  40.82900 -0.30400 27.96500
O  40.64700 -0.57500 26.77200
C  42.10700 -0.80800 28.41500
N  35.87200 2.02700 27.52800
C  36.90400 1.57500 26.66100
C  36.50800 1.69400 25.16000
C  34.92400 1.73900 25.27400
C  34.74400 2.11800 26.74700
C  37.12400 2.97500 24.53500
C  34.32900 0.34200 24.99800
C  33.37700 0.18100 23.86200
N  34.02900 2.46400 29.57600
C  33.12900 2.68600 28.53500
C  31.88700 3.19900 29.11000
C  32.15700 3.28900 30.49600
C  33.48300 2.83300 30.69100
C  30.53400 3.38200 28.43300
C  31.51700 3.65200 31.67100
O  30.37000 4.02300 31.88400
C  32.61900 3.49500 32.82600
C  32.84900 4.73900 33.52100
O  33.67600 5.54700 33.20200
O  31.96500 4.80100 34.61300
C  32.14300 5.87800 35.62200
H  39.30700 1.53900 32.71800
H  38.97200 0.90300 26.47300
H  32.63400 2.59900 26.57400
H  35.37100 3.74600 34.43700
H  37.57200 2.14000 34.71100
H  38.71800 3.96100 33.56700
H  37.81100 4.55300 35.07500
H  37.21900 4.98200 33.58200
H  35.25300 0.63600 34.95300
H  33.94500 1.17700 34.12700
H  34.34300 0.97800 36.70400
H  33.13700 2.00500 36.00100
H  40.87500 -1.10600 31.48500
H  40.80800 0.40400 32.41300
H  41.93000 0.32600 31.16600
H  42.62000 -1.39100 27.65000
H  41.93800 -1.46900 29.26500
H  42.75300 0.00700 28.74200
H  36.78200 0.77100 24.64900
H  34.41500 2.50300 24.68600
H  36.26900 3.54400 24.16800
H  37.73700 2.57900 23.72500
H  37.81400 3.51000 25.18700
H  33.72300 0.07600 25.86300
H  35.15700 -0.33500 24.78800
H  32.40500 -0.23400 24.12800
H  33.86800 -0.50000 23.16700
H  33.19600 1.18000 23.46500
H  30.36800 4.46000 28.43600
H  29.79200 2.85200 29.03000
H  30.52000 2.99500 27.41400
H  32.08100 2.86400 33.53300
H  31.36600 6.63800 35.53500
H  33.05800 6.46700 35.68600
H  32.03400 5.47800 36.63000

