158

Mg 1.09100 7.39700 25.21000
C  1.96000 9.67600 27.94300
C  1.25400 4.94900 27.34100
C  0.49100 5.51800 22.61100
C  1.32100 10.36000 23.04900
N  1.68600 7.32700 27.36800
C  1.90000 8.29300 28.28900
C  1.91000 7.70300 29.72700
C  1.93500 6.19700 29.41000
C  1.57100 6.12600 27.95100
C  3.11900 5.40000 29.91700
C  0.60400 8.08100 30.49100
C  0.63600 8.38900 31.96000
H  1.71400 7.68100 32.86200
N  0.84900 5.49600 25.01300
C  0.96700 4.60900 25.97400
C  0.57500 3.32300 25.41700
C  0.35700 3.40100 24.02100
C  0.48600 4.88000 23.83800
C  0.57500 2.06700 26.25100
C  0.14200 2.29500 23.01000
O  -0.12300 2.53500 21.85100
C  0.04200 0.80900 23.58900
N  0.96100 7.82500 23.09700
C  0.65200 6.87200 22.25300
C  0.59700 7.38400 20.77600
C  0.61200 8.93100 21.01900
C  1.03500 9.08200 22.48800
C  1.71900 6.90800 19.73800
C  -0.80500 9.64100 20.92200
C  -0.95800 11.00500 20.09500
N  1.50900 9.60500 25.38600
C  1.51400 10.66500 24.43800
C  1.75600 11.97900 25.07300
C  1.91200 11.62800 26.45300
C  1.75600 10.18300 26.57600
C  1.81800 13.31700 24.36700
C  2.18800 12.17300 27.78400
O  2.35800 13.31500 28.17900
C  2.00400 10.87100 28.82800
C  3.09100 10.79700 29.88000
O  4.28000 10.40000 29.67900
O  2.57400 11.33000 31.00600
C  3.50200 11.21700 32.12100
H  1.18400 4.09700 28.02000
H  0.27100 4.83000 21.79200
H  1.35900 11.24100 22.40500
H  2.72400 8.15100 30.29700
H  1.11200 5.67300 29.89600
H  3.54900 4.94500 29.02500
H  2.90100 4.68900 30.71400
H  3.88500 6.04200 30.35400
H  -0.10700 7.26200 30.38300
H  0.06700 8.83300 29.91300
H  -0.33700 8.09400 32.35300
H  0.77400 9.46500 32.07000
H  0.50900 2.22700 27.32700
H  1.56200 1.62700 26.10700
H  -0.18700 1.33200 25.99000
H  -0.16400 0.20500 22.70500
H  -0.91300 0.84700 24.11300
H  0.95600 0.45300 24.06300
H  -0.31300 7.03400 20.29000
H  1.21900 9.30500 20.19400
H  1.39400 6.10300 19.07900
H  2.59100 6.63000 20.32900
H  1.93000 7.65100 18.96800
H  -1.12100 9.86700 21.94000
H  -1.44800 8.89200 20.45900
H  -1.86900 10.98600 19.49700
H  0.01800 11.18000 19.64300
H  -1.06400 11.80000 20.83400
H  2.64000 13.22900 23.65700
H  2.01400 14.15300 25.03800
H  0.81100 13.39800 23.95700
H  1.06700 11.04600 29.35600
H  4.42900 10.64400 32.10500
H  2.91300 10.73600 32.90200
H  3.64200 12.24300 32.46200
Mg 16.03100 52.29900 24.84400
C  17.40000 51.45200 27.97600
C  13.09300 53.35300 26.52900
C  14.49400 52.87300 21.85800
C  18.70700 50.70700 23.23700
N  15.39800 52.49700 27.01100
C  16.12500 52.08300 28.09800
C  15.47300 52.35000 29.42200
C  14.06700 52.77400 28.92100
C  14.13800 52.92300 27.40200
C  12.89800 51.91100 29.34900
C  16.19500 53.33400 30.37700
C  16.43100 52.98100 31.85200
H  15.29700 52.10000 32.48200
N  14.10400 53.10700 24.29000
C  13.09800 53.47000 25.12500
C  12.00900 53.91700 24.34100
C  12.39700 53.82800 22.96300
C  13.69400 53.26100 22.98600
C  10.72300 54.35600 24.97500
C  11.74400 54.33600 21.67600
O  12.34900 54.29400 20.56900
C  10.39400 54.97400 21.76500
N  16.49700 51.71000 22.81300
C  15.73100 52.13300 21.72700
C  16.42100 51.74800 20.48400
C  17.94100 51.64200 20.92600
C  17.72600 51.32100 22.41800
C  15.84900 50.38500 19.93300
C  18.89900 52.94300 20.81000
C  19.31700 53.42500 19.43300
N  17.79700 51.41100 25.38800
C  18.75200 50.81600 24.65400
C  19.72100 50.23700 25.49500
C  19.24800 50.50700 26.81400
C  18.00700 51.11000 26.71500
C  21.03100 49.57800 25.06700
C  19.61900 50.31100 28.17700
O  20.57500 49.76700 28.71200
C  18.37000 50.91500 29.04500
C  17.74600 49.86300 29.90000
O  16.93000 49.05100 29.45600
O  18.29900 49.82700 31.20300
C  17.76700 48.78500 32.09900
H  12.31000 53.89700 27.06100
H  14.14500 53.00400 20.83100
H  19.65200 50.48700 22.73600
H  15.54800 51.39200 29.93600
H  13.86000 53.73900 29.38400
H  13.17200 51.10000 30.02300
H  12.36700 51.47800 28.50100
H  12.19100 52.59200 29.82300
H  15.80100 54.34800 30.44500
H  17.18000 53.41700 29.91900
H  16.63200 53.86100 32.46300
H  17.28300 52.30700 31.94300
H  10.06400 53.78800 24.31900
H  10.56400 55.42000 24.79700
H  10.52500 54.09500 26.01500
H  9.96400 55.00200 20.76400
H  10.37600 55.93300 22.28300
H  9.82400 54.21100 22.29500
H  16.35400 52.61600 19.82800
H  18.50200 50.91700 20.33500
H  14.91000 50.19800 20.45400
H  16.57400 49.57400 19.87300
H  15.64500 50.71500 18.91400
H  19.79800 52.81200 21.41300
H  18.46100 53.79000 21.33800
H  19.05000 54.45100 19.18100
H  18.91600 52.66900 18.75800
H  20.40700 53.44300 19.41900
H  20.81000 48.77600 24.36200
H  21.51300 49.14100 25.94200
H  21.71400 50.26800 24.57000
H  18.88400 51.63200 29.68600
H  17.06900 49.18100 32.83600
H  18.67500 48.40200 32.56500
H  17.43300 47.93300 31.50600

