158

Mg -1.98300 17.14900 27.32100
C  -2.58700 14.98900 29.94100
C  -2.54200 19.80600 29.37900
C  -1.98700 19.19900 24.56400
C  -1.94600 14.37300 25.07500
N  -2.53300 17.25800 29.42300
C  -2.67700 16.27800 30.32900
C  -2.99100 16.84400 31.73700
C  -3.11800 18.40200 31.41900
C  -2.69700 18.56000 29.94400
C  -4.45200 19.07600 31.79900
C  -2.11100 16.41400 32.96900
C  -2.71800 15.77900 34.27000
H  -1.90100 15.78100 35.51400
N  -2.00600 19.16900 27.00000
C  -2.23500 20.09300 27.99300
C  -2.16900 21.44800 27.45000
C  -1.89800 21.34300 26.04400
C  -1.97700 19.84700 25.81000
C  -2.36900 22.70700 28.26800
C  -1.66100 22.39800 25.02100
O  -1.55800 22.25600 23.82700
C  -1.36800 23.83200 25.57000
N  -2.17800 16.85500 25.11500
C  -2.05000 17.83100 24.20500
C  -1.73800 17.41500 22.80100
C  -1.53700 15.89100 23.01100
C  -1.97300 15.67000 24.48600
C  -2.82500 17.83200 21.73800
C  -0.05800 15.48300 22.68300
C  0.93100 15.11600 23.75100
N  -2.26900 15.16900 27.40100
C  -2.15700 14.15900 26.43900
C  -2.26900 12.87000 27.09100
C  -2.45700 13.16900 28.43700
C  -2.52400 14.60000 28.57600
C  -2.13400 11.53900 26.48200
C  -2.62100 12.51900 29.68800
O  -2.61200 11.32700 29.99300
C  -2.68000 13.66400 30.69600
C  -1.64700 13.35700 31.65900
O  -0.40600 13.53100 31.45400
O  -2.14900 12.73200 32.75100
C  -1.11900 12.16600 33.63500
H  -2.65100 20.66900 30.04000
H  -1.96600 19.89900 23.72700
H  -1.68000 13.55700 24.39900
H  -3.96500 16.38700 31.91200
H  -2.36300 18.94000 31.99200
H  -4.32500 19.79300 32.61000
H  -5.18800 18.29100 31.97100
H  -4.85300 19.55400 30.90500
H  -1.71000 17.31100 33.44100
H  -1.15800 15.98100 32.66700
H  -2.92600 14.75300 33.96800
H  -3.71000 16.17600 34.48600
H  -2.69700 22.48700 29.28400
H  -3.15500 23.22800 27.72100
H  -1.49100 23.34600 28.35600
H  -0.93400 24.43200 24.77000
H  -0.59900 23.63600 26.31700
H  -2.28000 24.27300 25.97200
H  -0.86500 17.98800 22.48700
H  -2.16000 15.26100 22.37600
H  -3.20100 16.95700 21.20900
H  -2.25900 18.46600 21.05600
H  -3.51300 18.52400 22.22600
H  0.41700 16.26000 22.08300
H  -0.18000 14.64700 21.99400
H  0.46700 14.71300 24.65100
H  1.70600 15.84700 23.98300
H  1.39600 14.27700 23.23200
H  -1.11100 11.16700 26.44400
H  -2.58500 11.53800 25.49000
H  -2.76100 10.91300 27.11600
H  -3.63300 13.47500 31.19100
H  -0.79500 12.97700 34.28800
H  -0.29000 11.76300 33.05400
H  -1.63800 11.45300 34.27500
Mg 28.16900 58.39200 42.14300
C  25.87000 56.20500 40.71800
C  30.69100 56.90600 40.43500
C  30.06200 60.79800 43.27600
C  25.33100 60.14300 43.43400
N  28.23900 56.83300 40.74300
C  27.18400 56.07900 40.25100
C  27.64500 55.19800 39.14500
C  29.19400 55.06500 39.49200
C  29.37600 56.39400 40.20900
C  29.65800 53.73700 40.17100
C  27.29000 55.79900 37.74800
C  27.05000 54.74000 36.63700
H  26.52400 55.29600 35.31700
N  30.21100 58.72600 41.98600
C  31.09300 57.98000 41.26700
C  32.37100 58.59900 41.41400
C  32.24400 59.73300 42.28200
C  30.81900 59.75500 42.56700
C  33.46200 58.19500 40.55400
C  33.29300 60.79300 42.71400
O  34.41400 60.62800 42.24100
C  33.10300 61.95400 43.59000
N  27.71800 60.23100 43.07500
C  28.68200 61.02500 43.49500
C  28.11800 62.26900 44.25800
C  26.59200 62.13000 44.10400
C  26.54600 60.73800 43.49600
C  28.62700 62.26000 45.72300
C  25.97800 63.27500 43.20400
C  26.02600 64.73100 43.84000
N  26.02600 58.24600 42.24900
C  25.04800 58.96200 42.87500
C  23.72600 58.38500 42.60000
C  23.97000 57.33100 41.69300
C  25.36000 57.25100 41.58500
C  22.38600 58.96200 42.96600
C  23.37200 56.23600 40.88500
O  22.18300 55.94400 40.67400
C  24.59100 55.39100 40.34400
C  24.63300 53.93600 40.82300
O  25.29900 53.49100 41.74000
O  23.80000 53.17800 40.03100
C  23.90400 51.70500 40.08800
H  31.37000 56.31400 39.81800
H  30.69200 61.62000 43.62300
H  24.50300 60.76700 43.77800
H  27.06300 54.27900 39.20700
H  29.70000 55.11500 38.52800
H  30.36800 53.30300 39.46700
H  28.83100 53.07000 40.41300
H  30.18200 53.89000 41.11400
H  28.04500 56.49900 37.38900
H  26.34700 56.33400 37.86200
H  26.31000 54.08400 37.09500
H  27.91300 54.08100 36.54000
H  33.29000 57.21100 40.11800
H  34.45900 58.13100 40.98900
H  33.53300 58.93600 39.75800
H  32.54300 62.76500 43.12300
H  34.08100 62.26900 43.95400
H  32.66300 61.57000 44.51000
H  28.45400 63.12500 43.67300
H  26.07600 62.25500 45.05700
H  29.70500 62.13600 45.62700
H  28.23700 61.38900 46.25000
H  28.46900 63.19600 46.25800
H  24.95200 62.95800 43.01300
H  26.54300 63.24700 42.27200
H  25.03700 65.17800 43.94300
H  26.58300 65.30400 43.09800
H  26.51600 64.80300 44.81100
H  22.29300 60.02700 42.75000
H  22.31000 58.91400 44.05200
H  21.48700 58.40300 42.70500
H  24.53600 55.28300 39.26100
H  22.89400 51.54100 39.71100
H  24.03200 51.24000 41.06600
H  24.56000 51.26400 39.33700

