158

Mg 46.79800 25.30200 28.45800
C  47.86100 27.69600 31.05500
C  46.27500 23.16200 31.15500
C  45.93200 23.16500 26.24000
C  48.23300 27.56000 26.18100
N  46.91200 25.49200 30.78800
C  47.23600 26.57300 31.58500
C  47.03000 26.34400 33.02500
C  46.63700 24.83200 33.09800
C  46.63300 24.43100 31.55900
C  47.61700 23.93600 33.94800
C  46.02000 27.31000 33.72500
C  46.49600 27.79000 35.04600
H  45.48600 27.91300 36.10000
N  46.08400 23.54900 28.65100
C  45.93900 22.75600 29.81200
C  45.14500 21.62600 29.45700
C  44.86800 21.72900 28.01200
C  45.62400 22.85900 27.58400
C  44.75200 20.56600 30.40600
C  44.03200 20.85300 27.14100
O  43.82900 21.10800 25.94800
C  43.19600 19.74200 27.76000
N  47.02600 25.41100 26.42900
C  46.56600 24.41200 25.72900
C  46.89300 24.61400 24.23000
C  47.40000 26.09600 24.20100
C  47.65200 26.37500 25.68100
C  47.93800 23.50400 23.71900
C  46.37800 27.15500 23.58200
C  46.95600 28.07000 22.48500
N  47.77400 27.19800 28.48600
C  48.35500 27.97100 27.44400
C  48.83500 29.23000 27.99400
C  48.64700 29.11600 29.41100
C  48.05500 27.90200 29.66300
C  49.46700 30.35100 27.19100
C  48.89400 29.81900 30.68300
O  49.28800 30.99200 30.85800
C  48.43600 28.81700 31.77100
C  49.42200 28.49800 32.77600
O  50.18500 27.55100 32.67100
O  49.33900 29.31900 33.90400
C  50.08000 28.94000 35.11600
H  46.07000 22.50300 32.00200
H  45.55700 22.44800 25.50700
H  48.70000 28.17800 25.41200
H  48.01300 26.39000 33.49400
H  45.61600 24.57400 33.37900
H  48.03800 23.21000 33.25300
H  47.11800 23.35100 34.72200
H  48.39300 24.49000 34.47600
H  45.10800 26.73500 33.88500
H  45.76700 28.13000 33.05400
H  47.02200 28.74300 34.99200
H  47.27700 27.09800 35.36100
H  43.66900 20.60500 30.52500
H  44.99400 20.69500 31.46100
H  45.11600 19.62600 29.99100
H  43.90000 18.97100 28.07500
H  42.65200 19.22400 26.97000
H  42.58800 20.02200 28.62000
H  45.92100 24.53600 23.74300
H  48.30700 26.18900 23.60400
H  47.91100 22.73100 24.48800
H  48.93800 23.90400 23.55300
H  47.51600 22.98400 22.85900
H  45.99000 27.82800 24.34700
H  45.55000 26.62000 23.11700
H  47.89100 27.63800 22.12900
H  47.10100 29.05300 22.93300
H  46.25000 28.09600 21.65500
H  49.31400 31.23300 27.81300
H  49.04900 30.47400 26.19100
H  50.55000 30.24600 27.13800
H  47.71400 29.44700 32.29000
H  51.12000 29.26200 35.06200
H  49.96300 27.87700 35.32600
H  49.63000 29.45300 35.96600
Mg 5.98800 53.44900 40.74100
C  5.67800 49.87700 40.75300
C  8.87000 52.99600 39.09800
C  5.65500 56.52900 39.52800
C  2.56200 53.49200 41.73100
N  7.07200 51.65900 39.99000
C  6.83300 50.35700 40.16000
C  7.92600 49.47400 39.51700
C  9.08100 50.47300 39.60000
C  8.33200 51.81900 39.56300
C  10.06000 50.37800 40.75800
C  7.64600 48.99400 38.00400
C  6.68200 49.82200 37.15700
H  7.14800 51.04800 36.47700
N  7.20600 54.72800 39.66200
C  8.38500 54.32000 39.01100
C  8.96800 55.36700 38.21400
C  8.00000 56.40200 38.33900
C  6.84300 55.93100 39.17400
C  10.46500 55.33600 37.62900
C  8.14200 57.74700 37.59400
O  9.00700 57.95000 36.75100
C  7.12200 58.81800 37.76300
N  4.26100 54.80500 40.56900
C  4.42200 56.07900 40.13700
C  3.23900 57.02200 40.41900
C  2.23600 55.97100 41.02600
C  3.04600 54.66700 41.14100
C  3.65000 58.25100 41.24300
C  0.96100 55.73200 40.21400
C  -0.29500 55.48800 41.10600
N  4.48500 52.02800 41.46700
C  3.21200 52.25600 41.85400
C  2.70300 51.03900 42.43700
C  3.57800 50.02200 41.90600
C  4.67300 50.70900 41.35100
C  1.38800 50.87700 43.19900
C  3.83300 48.60600 41.77900
O  3.26400 47.66000 42.31700
C  5.19600 48.48700 40.98400
C  4.75600 47.77300 39.80000
O  4.05200 48.20600 38.88200
O  5.28100 46.47900 39.87700
C  4.98500 45.59300 38.76200
H  9.84400 52.83800 38.63100
H  5.50600 57.57100 39.23700
H  1.53100 53.48800 42.09100
H  8.07800 48.61800 40.17400
H  9.63100 50.38100 38.66400
H  11.01700 49.95700 40.45200
H  9.72600 49.71000 41.55100
H  10.30500 51.36300 41.15600
H  7.31300 47.95600 38.01900
H  8.61300 49.06600 37.50500
H  5.82200 50.11700 37.75900
H  6.33600 49.11500 36.40300
H  10.97000 54.37500 37.72700
H  11.02200 56.15000 38.09300
H  10.49500 55.50800 36.55300
H  6.97000 59.04900 38.81700
H  6.20300 58.42600 37.32700
H  7.58800 59.64300 37.22400
H  2.82200 57.25900 39.44000
H  2.14200 56.21300 42.08400
H  2.93900 58.31300 42.06700
H  3.52300 59.08200 40.54900
H  4.70300 58.34900 41.50800
H  1.06200 54.90500 39.51200
H  0.75500 56.55600 39.53000
H  -0.09000 55.30900 42.16100
H  -0.82600 54.62500 40.70700
H  -0.84500 56.41800 40.96000
H  0.95200 51.83100 43.49400
H  1.36100 50.11500 43.97800
H  0.69800 50.53700 42.42600
H  5.87300 47.86500 41.56900
H  5.33800 45.94200 37.79100
H  3.92900 45.32500 38.76800
H  5.51300 44.64600 38.88000

