158

Mg 8.51200 3.39900 28.31200
C  10.13500 1.75700 31.00800
C  6.57000 4.99400 30.34500
C  6.96700 4.37400 25.45200
C  9.99400 0.68800 26.16700
N  8.35700 3.34500 30.48800
C  9.20200 2.71100 31.39800
C  8.91200 3.32300 32.73400
C  7.55500 4.16600 32.58500
C  7.51200 4.21200 31.05400
C  6.27800 3.39300 33.15300
C  10.23700 4.14700 33.31300
C  10.89500 3.62300 34.58500
H  10.96900 4.61800 35.81100
N  7.13600 4.67300 27.93600
C  6.31300 5.16400 28.95600
C  5.31900 6.07400 28.34300
C  5.47300 5.97800 26.91900
C  6.57000 4.97600 26.74600
C  4.41500 6.98500 29.16700
C  4.75200 6.68000 25.83500
O  4.80000 6.48200 24.61900
C  3.75600 7.69800 26.18400
N  8.56800 2.66500 26.04900
C  7.86900 3.32700 25.10800
C  8.11900 2.73100 23.73500
C  8.97100 1.43700 23.97300
C  9.20800 1.60800 25.50500
C  6.80700 2.43600 22.90900
C  10.27600 1.33200 23.14800
C  10.31200 0.06700 22.24800
N  9.73300 1.68300 28.49200
C  10.26900 0.73600 27.55900
C  11.28400 -0.07900 28.22400
C  11.26200 0.34400 29.57100
C  10.34300 1.36000 29.66000
C  12.12600 -1.11400 27.62600
C  11.82300 0.09400 30.84500
O  12.61700 -0.72700 31.22500
C  11.25000 1.21400 31.81100
C  10.97100 0.39300 32.99900
O  10.05300 -0.39800 33.12200
O  11.91400 0.54500 33.96500
C  11.65000 -0.15000 35.29000
H  6.01400 5.49100 31.14200
H  6.26000 4.70400 24.68800
H  10.44100 -0.19400 25.70200
H  8.72000 2.53700 33.46400
H  7.68600 5.09700 33.13700
H  5.67700 4.03700 33.79500
H  6.49200 2.48700 33.71900
H  5.61100 3.09200 32.34500
H  9.88200 5.14600 33.56400
H  11.01900 4.30900 32.57200
H  11.86900 3.37700 34.16300
H  10.45400 2.68200 34.91400
H  4.58600 8.00200 28.81100
H  4.79500 7.06800 30.18500
H  3.39300 6.62900 29.03600
H  2.88900 7.28000 26.69600
H  3.34600 8.25000 25.33900
H  4.24600 8.50600 26.72800
H  8.54600 3.50100 23.09200
H  8.35300 0.54200 23.89700
H  5.95600 2.86100 23.44000
H  6.59500 1.37200 22.79900
H  6.85900 2.88400 21.91700
H  11.14900 1.33600 23.80100
H  10.48800 2.19500 22.51800
H  10.60600 0.54900 21.31600
H  9.41400 -0.53100 22.08900
H  11.14100 -0.54200 22.60700
H  11.45500 -1.92300 27.33600
H  13.02700 -1.34400 28.19400
H  12.61900 -0.75300 26.72400
H  12.05000 1.94900 31.90100
H  11.41900 0.54500 36.09700
H  12.60600 -0.61400 35.53100
H  10.89400 -0.92600 35.16600
Mg 47.93600 24.77100 28.53700
C  49.00200 27.00100 30.93300
C  46.95600 22.63000 31.01100
C  47.26500 22.64400 26.04400
C  49.33200 26.95800 26.20000
N  47.93600 24.83200 30.67900
C  48.34000 25.91100 31.48700
C  47.91900 25.70200 32.99200
C  47.51400 24.19300 32.97500
C  47.43000 23.86400 31.45700
C  48.35500 23.30500 33.89200
C  46.82200 26.70900 33.53400
C  46.11500 26.26300 34.83200
H  46.24900 27.21900 36.15200
N  47.00800 22.93600 28.53400
C  46.77700 22.13800 29.70400
C  46.19500 20.88000 29.23900
C  46.09500 20.93300 27.76200
C  46.69600 22.24600 27.36900
C  45.67100 19.87200 30.19100
C  45.62800 19.88000 26.78000
O  45.84500 19.96900 25.59600
C  44.99600 18.68300 27.29200
N  48.16700 24.85200 26.34500
C  47.91300 23.75700 25.58400
C  48.30500 23.92600 24.13300
C  48.72600 25.47700 24.21800
C  48.75800 25.82000 25.69500
C  49.46300 22.96600 23.61300
C  47.79300 26.41800 23.48600
C  47.78700 26.27600 21.97500
N  48.99300 26.55600 28.54300
C  49.42400 27.34400 27.54000
C  49.93600 28.66300 28.01000
C  49.88400 28.53200 29.38600
C  49.25900 27.28200 29.59200
C  50.48800 29.71200 27.08300
C  50.05900 29.17300 30.66600
O  50.65500 30.20200 30.96700
C  49.45000 28.20500 31.71000
C  50.45300 27.84600 32.72000
O  51.39700 27.16000 32.47700
O  50.30400 28.49500 33.86300
C  51.29200 28.18500 34.88400
H  46.82500 21.94500 31.85100
H  47.26400 21.82100 25.32500
H  49.69000 27.66500 25.44900
H  48.69300 25.99300 33.70300
H  46.54000 24.08100 33.45200
H  49.38900 23.63700 33.80600
H  48.41300 22.26000 33.58700
H  47.93000 23.31000 34.89600
H  46.00000 26.70000 32.81700
H  47.15200 27.73800 33.67800
H  46.40500 25.24100 35.07600
H  45.03800 26.21200 34.67300
H  46.09100 18.89300 29.96100
H  44.58700 19.79300 30.10000
H  45.76800 20.15200 31.24000
H  44.39300 18.83700 28.18700
H  45.77400 17.92300 27.36700
H  44.36100 18.30500 26.49100
H  47.47900 23.85100 23.42600
H  49.71700 25.62100 23.78900
H  49.18400 22.24200 22.84800
H  49.96800 22.43000 24.41700
H  50.11500 23.63900 23.05600
H  48.12400 27.39900 23.82700
H  46.75100 26.34900 23.80000
H  47.04500 26.96300 21.56700
H  47.73300 25.30300 21.48800
H  48.74400 26.75000 21.75600
H  50.56700 30.65600 27.62200
H  49.80700 29.91500 26.25600
H  51.48300 29.50500 26.69000
H  48.58500 28.76400 32.06600
H  50.98700 27.23900 35.33200
H  51.06600 28.83200 35.73100
H  52.34600 28.20600 34.60700

