158

Mg 24.60300 -6.97500 48.27500
C  27.18000 -4.60700 47.27700
C  22.71600 -5.64100 45.64100
C  22.62800 -9.62000 48.49300
C  26.88900 -8.29900 50.51900
N  24.91800 -5.34100 46.57800
C  25.98500 -4.44500 46.54000
C  25.77400 -3.37900 45.46300
C  24.19900 -3.58400 45.12800
C  23.91100 -4.94100 45.83000
C  23.24900 -2.47300 45.60000
C  26.64700 -3.52700 44.26300
C  27.25400 -2.33900 43.49400
H  26.94400 -1.89700 42.12300
N  22.77100 -7.54600 47.22300
C  22.21300 -6.89000 46.17900
C  21.05000 -7.62100 45.71800
C  21.03500 -8.86000 46.50300
C  22.18700 -8.74300 47.45000
C  20.05400 -7.26900 44.70700
C  19.90900 -9.91000 46.45900
O  18.94900 -9.74400 45.71300
C  19.84200 -11.15400 47.29500
N  24.65600 -8.72100 49.39200
C  23.68600 -9.63200 49.40800
C  23.96900 -10.79700 50.40300
C  25.32900 -10.39200 51.02200
C  25.66000 -9.01000 50.31000
C  22.82000 -10.97500 51.46100
C  26.45200 -11.52500 50.68100
C  27.33400 -12.22300 51.80600
N  26.58600 -6.59000 48.84800
C  27.38100 -7.21400 49.83100
C  28.61000 -6.52400 50.02300
C  28.63800 -5.55800 48.98300
C  27.35900 -5.60100 48.27700
C  29.64400 -6.90800 50.98300
C  29.40000 -4.51700 48.32500
O  30.50400 -4.08200 48.57500
C  28.42900 -3.81600 47.28300
C  28.21000 -2.37900 47.70300
O  27.89300 -2.01800 48.85900
O  28.39000 -1.59700 46.61500
C  28.30400 -0.07700 46.82500
H  21.96600 -5.28900 44.93000
H  22.02100 -10.52700 48.54500
H  27.54800 -8.68300 51.30100
H  25.91500 -2.39300 45.90600
H  24.02800 -3.70000 44.05800
H  22.29100 -2.76300 45.16900
H  23.54000 -1.50500 45.19200
H  23.17800 -2.39800 46.68500
H  26.03500 -3.97600 43.48200
H  27.37400 -4.27200 44.58800
H  28.34100 -2.40400 43.54600
H  26.92200 -1.51900 44.13000
H  20.53400 -6.66800 43.93500
H  19.22500 -6.66900 45.08500
H  19.62100 -8.10700 44.16200
H  19.29000 -11.05100 48.22900
H  20.85800 -11.54100 47.38500
H  19.38800 -12.02000 46.81300
H  24.10200 -11.75600 49.90300
H  25.20200 -10.19000 52.08500
H  22.03000 -10.30700 51.11900
H  23.11000 -10.59400 52.44000
H  22.40400 -11.98200 51.50800
H  27.22100 -10.99300 50.12200
H  25.99400 -12.31300 50.08200
H  27.14600 -11.79400 52.79000
H  28.39500 -12.06500 51.61600
H  27.01600 -13.26400 51.87600
H  29.80300 -7.98100 50.88500
H  29.51400 -6.72100 52.04900
H  30.64500 -6.73900 50.58500
H  28.82500 -3.82800 46.26700
H  29.24500 0.16900 47.31700
H  27.45600 0.25200 47.42600
H  28.15600 0.43400 45.87400
Mg -0.88200 34.91300 25.71600
C  -2.54500 33.02000 28.20800
C  0.30600 36.92400 28.17200
C  0.27800 36.87200 23.35400
C  -2.51600 32.98800 23.36100
N  -1.16800 34.96200 27.92900
C  -1.80400 34.12300 28.72700
C  -1.62400 34.39500 30.25400
C  -0.85500 35.75700 30.12900
C  -0.46100 35.89000 28.63300
C  -1.56000 37.01000 30.74200
C  -0.80400 33.27200 31.04200
C  -1.39800 32.75700 32.29200
H  -0.44500 32.38200 33.43400
N  0.15500 36.69400 25.77800
C  0.62100 37.33700 26.83900
C  1.45300 38.38000 26.42300
C  1.55700 38.32900 25.03400
C  0.67200 37.24900 24.61500
C  2.12400 39.23600 27.41900
C  2.26900 39.19300 24.07400
O  2.27200 39.06500 22.84900
C  3.09900 40.33000 24.67300
N  -1.32700 35.10800 23.67500
C  -0.59600 35.89500 22.94500
C  -0.84600 35.72700 21.41500
C  -1.49500 34.34400 21.41500
C  -1.82300 34.12500 22.94800
C  -1.69300 36.84400 20.74200
C  -0.53000 33.13200 20.89200
C  0.62600 32.51600 21.71800
N  -2.38800 33.33100 25.74600
C  -3.00100 32.70700 24.69400
C  -3.91900 31.66900 25.18100
C  -3.63900 31.69600 26.62000
C  -2.82900 32.77300 26.87400
C  -4.56900 30.60800 24.47000
C  -3.93000 31.05400 27.95300
O  -4.60500 30.11500 28.30000
C  -3.32500 31.94500 28.97400
C  -4.46300 32.48400 29.73800
O  -5.07300 33.50200 29.48700
O  -4.61900 31.67600 30.81500
C  -5.40900 32.07900 31.94100
H  0.81800 37.41800 29.00100
H  0.88100 37.31800 22.56000
H  -2.91300 32.31700 22.59600
H  -2.67000 34.47800 30.55000
H  0.05000 35.73000 30.73700
H  -1.08800 37.20100 31.70600
H  -2.58500 36.67700 30.90800
H  -1.63100 37.91000 30.13100
H  0.15600 33.63000 31.41400
H  -0.72700 32.45400 30.32600
H  -1.84900 31.80400 32.01500
H  -2.09800 33.54800 32.56200
H  1.84400 40.25500 27.15200
H  3.19100 39.02100 27.35100
H  1.88400 39.03400 28.46300
H  3.67900 40.84300 23.90600
H  3.84200 40.08000 25.43000
H  2.46800 41.10000 25.11800
H  0.10600 35.72600 20.88500
H  -2.45600 34.31600 20.90200
H  -2.52000 36.55700 20.09200
H  -1.06800 37.42900 20.06800
H  -2.05700 37.52800 21.50800
H  -0.11500 33.58000 19.98900
H  -1.30900 32.43500 20.58300
H  0.40000 32.61300 22.77900
H  1.60900 32.92000 21.47600
H  0.67800 31.43100 21.61700
H  -4.08400 29.66000 24.70600
H  -4.52400 30.76500 23.39300
H  -5.63200 30.53800 24.69800
H  -2.71900 31.35300 29.66000
H  -6.28200 32.55600 31.49700
H  -4.83400 32.79500 32.52900
H  -5.65200 31.18800 32.52000

