158

Mg 16.55500 -1.33800 27.93200
C  15.27700 0.54300 30.73600
C  18.61900 -3.02800 29.95400
C  17.60100 -2.81000 25.17500
C  14.53000 0.83800 25.95000
N  16.98100 -1.10100 30.10700
C  16.31200 -0.41100 31.04500
C  16.85100 -0.68900 32.45300
C  17.94100 -1.76800 32.21700
C  17.88500 -1.99900 30.67000
C  19.37900 -1.33800 32.63800
C  15.62000 -1.28500 33.36500
C  15.30900 -0.70400 34.75000
H  16.32500 0.15600 35.46400
N  17.75400 -2.77000 27.64300
C  18.57600 -3.36700 28.56400
C  19.38800 -4.42500 27.97800
C  19.13500 -4.35700 26.60200
C  18.14500 -3.27600 26.42100
C  20.24100 -5.37800 28.83200
C  19.94700 -5.01200 25.46500
O  19.68400 -4.80200 24.29400
C  20.93100 -6.06000 25.85700
N  16.16300 -0.88000 25.84400
C  16.71000 -1.75500 24.95700
C  16.37000 -1.24800 23.53100
C  15.06500 -0.34100 23.79400
C  15.26300 -0.07800 25.26500
C  17.50900 -0.48700 22.79300
C  13.71700 -1.09200 23.51100
C  12.67400 -0.11500 22.91200
N  15.33100 0.45800 28.21400
C  14.55800 1.14500 27.31900
C  13.64000 2.02800 27.98600
C  13.87700 1.86900 29.33500
C  14.92800 0.90300 29.44700
C  12.69400 3.06900 27.40500
C  13.55500 2.30400 30.67400
O  12.82800 3.17500 31.03400
C  14.45400 1.41800 31.63800
C  15.32800 2.42000 32.23700
O  16.43900 2.80900 31.82800
O  14.80300 2.90200 33.39700
C  15.66600 3.88800 34.02900
H  19.22100 -3.65500 30.61500
H  17.86800 -3.42300 24.31100
H  13.84100 1.49500 25.41600
H  17.23100 0.21900 32.92100
H  17.74700 -2.74900 32.65000
H  19.98600 -1.45400 31.74100
H  19.66600 -1.92700 33.50900
H  19.52300 -0.28300 32.87200
H  15.62500 -2.36900 33.48300
H  14.76000 -1.32200 32.69600
H  15.08100 -1.60300 35.32200
H  14.38900 -0.12100 34.80400
H  19.85100 -6.39600 28.84400
H  20.34100 -5.23500 29.90800
H  21.28600 -5.37700 28.52100
H  21.78200 -5.60800 26.36800
H  21.30900 -6.38900 24.88900
H  20.44900 -6.86600 26.41000
H  16.17300 -2.15000 22.95200
H  15.21200 0.54800 23.18100
H  17.06900 0.45100 22.45300
H  17.77100 -1.14200 21.96200
H  18.38700 -0.32100 23.41700
H  13.32200 -1.77600 24.26100
H  13.87300 -1.81400 22.70900
H  11.91400 -0.84900 22.64600
H  12.97400 0.54700 22.09900
H  12.26800 0.47400 23.73500
H  11.86600 2.93300 28.10100
H  12.30400 2.73300 26.44500
H  13.19900 4.03500 27.37000
H  13.82600 0.95500 32.39800
H  16.13400 4.57400 33.32200
H  16.45800 3.39800 34.59400
H  15.05300 4.35300 34.80100
Mg 48.09600 25.66100 27.70200
C  48.89600 27.73400 30.26900
C  47.20000 23.23900 29.88600
C  47.70200 23.53400 25.03900
C  49.63000 27.99000 25.48600
N  48.23000 25.46100 29.87600
C  48.26200 26.55900 30.70800
C  47.83700 26.16900 32.12800
C  47.48000 24.65600 32.02700
C  47.56900 24.45800 30.49100
C  48.28700 23.57900 32.81500
C  46.64800 27.14500 32.66100
C  45.96100 26.58100 33.85500
H  46.05500 27.50100 35.03300
N  47.48400 23.63200 27.47300
C  47.14500 22.80400 28.51400
C  46.70100 21.48600 27.95900
C  46.84700 21.57200 26.52500
C  47.38400 22.94500 26.29200
C  46.22300 20.48200 28.88300
C  46.64200 20.46600 25.53400
O  46.78400 20.76300 24.29900
C  46.21600 19.08000 25.92900
N  48.59100 25.77600 25.51100
C  48.19400 24.79300 24.61400
C  48.49800 25.17200 23.18200
C  49.24400 26.56500 23.33100
C  49.11600 26.83800 24.84800
C  49.37400 24.11000 22.38500
C  48.76400 27.73000 22.35300
C  49.84000 28.37800 21.39100
N  49.02500 27.47000 27.81400
C  49.57200 28.35000 26.88000
C  50.25000 29.49800 27.53200
C  49.94300 29.28600 28.84200
C  49.24000 28.06500 28.95600
C  50.84300 30.70700 26.81700
C  49.97200 29.89400 30.16000
O  50.45800 30.96200 30.54000
C  49.23400 28.94500 31.07000
C  50.11800 28.64100 32.22800
O  51.11300 27.99700 32.22600
O  49.61600 29.14400 33.43000
C  50.22200 28.79300 34.66600
H  46.89500 22.58200 30.70300
H  47.49700 22.90500 24.17000
H  50.17600 28.64400 24.80200
H  48.67900 26.15900 32.82000
H  46.43800 24.45100 32.27600
H  48.77800 22.89900 32.11800
H  47.52100 23.09300 33.41900
H  49.11600 23.91300 33.43800
H  45.99200 27.28800 31.80300
H  47.09800 28.09200 32.95900
H  46.37200 25.58400 34.01400
H  44.91300 26.49700 33.56800
H  46.93300 19.79200 29.34000
H  45.49100 19.85300 28.37600
H  45.63300 20.83600 29.72800
H  46.69100 18.86600 26.88600
H  46.59100 18.35400 25.20800
H  45.12800 19.14100 25.89700
H  47.55800 25.42400 22.69100
H  50.32300 26.55300 23.17300
H  48.61100 23.44000 21.98900
H  50.04700 23.43100 22.90800
H  49.95800 24.70800 21.68500
H  48.32400 28.53000 22.94700
H  47.95900 27.31200 21.74700
H  49.52600 28.38700 20.34700
H  50.64700 27.64600 21.36300
H  50.13500 29.33000 21.83200
H  50.20500 31.50900 27.18900
H  50.71900 30.60800 25.73800
H  51.84700 30.93600 27.17600
H  48.35900 29.47500 31.44700
H  51.29200 28.71500 34.47100
H  49.81900 27.84100 35.01100
H  49.99500 29.59600 35.36600

