158

Mg 24.80000 -7.50000 48.10100
C  27.34400 -5.47700 46.64100
C  22.61200 -6.05900 45.89300
C  22.80700 -9.84300 48.97500
C  27.46100 -9.08300 49.99200
N  24.93500 -5.82300 46.46700
C  26.10700 -5.21100 46.02800
C  25.87400 -4.21000 44.95200
C  24.24300 -4.36400 44.79200
C  23.85000 -5.47000 45.78400
C  23.43100 -3.09600 45.07700
C  26.72500 -4.44100 43.72600
C  27.26400 -3.14900 43.11400
H  26.73400 -2.69900 41.75100
N  22.90800 -7.90800 47.52400
C  22.18000 -7.20000 46.57700
C  20.90500 -7.77300 46.46700
C  20.85500 -8.89900 47.37600
C  22.24100 -8.92200 48.00700
C  19.81800 -7.20100 45.63900
C  19.70800 -9.87800 47.46800
O  18.77900 -9.76100 46.70100
C  19.78200 -11.13600 48.40700
N  25.11100 -9.29100 49.24800
C  24.03000 -9.96800 49.62100
C  24.33100 -10.87500 50.84400
C  25.81200 -10.66000 51.22400
C  26.18300 -9.68100 50.10100
C  23.30700 -10.80800 52.08000
C  26.61500 -12.04700 51.18000
C  27.18400 -12.55100 49.80100
N  26.99800 -7.31100 48.32100
C  27.85700 -8.03300 49.15500
C  29.23700 -7.44900 49.01600
C  29.01400 -6.46300 48.00200
C  27.64900 -6.41900 47.65800
C  30.57700 -7.86700 49.63200
C  29.70800 -5.46900 47.31500
O  30.86800 -5.15500 47.40100
C  28.70900 -4.67700 46.45000
C  28.41200 -3.30500 46.99700
O  28.00800 -2.98400 48.10700
O  28.62100 -2.39700 45.95000
C  28.18500 -0.95200 46.25200
H  21.90500 -5.54400 45.23900
H  22.04400 -10.60400 49.15300
H  28.27100 -9.35900 50.67000
H  26.05500 -3.32500 45.56100
H  24.22200 -4.80100 43.79400
H  22.72200 -2.84900 44.28700
H  24.07000 -2.23100 45.25200
H  22.67100 -3.26800 45.83900
H  26.22600 -4.95100 42.90200
H  27.50900 -5.17600 43.90800
H  28.35300 -3.09900 43.10200
H  27.10000 -2.36100 43.85000
H  20.01100 -6.19400 45.26800
H  18.87500 -7.38700 46.15200
H  19.90700 -7.86600 44.78000
H  20.63700 -11.72400 48.07400
H  18.88400 -11.75500 48.40100
H  19.96300 -10.80600 49.43000
H  24.31000 -11.92200 50.54300
H  25.97700 -10.15300 52.17500
H  23.34900 -9.82000 52.53900
H  23.38200 -11.67300 52.73900
H  22.39000 -10.81400 51.49100
H  26.01600 -12.83700 51.63300
H  27.50900 -11.98400 51.79900
H  28.26300 -12.70000 49.83000
H  26.95300 -11.85800 48.99200
H  26.83400 -13.54000 49.50400
H  30.63800 -8.95100 49.73100
H  30.80300 -7.32300 50.54900
H  31.26600 -7.52000 48.86100
H  28.99300 -4.63500 45.39900
H  27.23900 -0.77400 45.74200
H  28.98700 -0.29600 45.91200
H  28.00900 -0.71100 47.30000
Mg 25.69300 50.57000 27.14600
C  23.63600 51.47100 29.70600
C  28.14700 49.76800 29.46400
C  27.74500 49.98000 24.48900
C  23.17300 51.52300 24.73700
N  25.93700 50.70400 29.40400
C  24.82600 50.95100 30.18000
C  25.20000 50.63800 31.69400
C  26.68400 50.27900 31.58700
C  26.97200 50.21200 30.05000
C  27.72800 51.12800 32.40500
C  24.27400 49.48900 32.34000
C  23.24600 49.93300 33.33600
H  23.33200 49.29000 34.72300
N  27.64300 49.95500 26.95700
C  28.44900 49.71400 28.06600
C  29.75200 49.25900 27.54800
C  29.71800 49.27900 26.08400
C  28.33500 49.76800 25.77500
C  30.89700 48.93800 28.42400
C  30.73900 48.70300 25.10200
O  30.52800 48.83000 23.88400
C  31.90200 47.72700 25.53100
N  25.51100 50.90400 24.96200
C  26.50800 50.48700 24.14700
C  26.07600 50.48600 22.63200
C  24.55200 50.92700 22.72300
C  24.40400 51.14400 24.22300
C  27.05300 51.23800 21.70400
C  23.53800 49.91700 22.15500
C  22.62800 50.35200 20.95000
N  23.89900 51.52000 27.18500
C  22.97600 51.80600 26.15700
C  21.82900 52.44900 26.79100
C  22.02000 52.29800 28.16400
C  23.28400 51.70200 28.34600
C  20.67600 53.18400 26.09600
C  21.44700 52.46300 29.48300
O  20.41900 53.01500 29.88300
C  22.44000 51.94600 30.50300
C  22.71400 53.17200 31.42400
O  23.30200 54.17300 31.06800
O  22.09600 52.94300 32.63600
C  22.22200 54.04900 33.63100
H  28.85800 49.41800 30.21600
H  28.33600 49.68500 23.61900
H  22.35400 51.87100 24.10500
H  25.08200 51.58900 32.21200
H  26.85000 49.27300 31.97300
H  28.14600 51.93400 31.80100
H  28.53200 50.48900 32.76800
H  27.27400 51.69500 33.21700
H  24.94100 48.81200 32.87400
H  23.87600 48.97500 31.46500
H  22.24000 49.85100 32.92500
H  23.50900 50.96700 33.56000
H  31.14000 47.87800 28.48800
H  30.88000 49.33500 29.43900
H  31.58800 49.46300 27.76300
H  32.56100 48.16400 26.28100
H  32.33100 47.29800 24.62600
H  31.43500 46.88200 26.03700
H  26.05200 49.45300 22.28800
H  24.35200 51.90900 22.29500
H  27.42800 50.50200 20.99200
H  27.87100 51.66600 22.28300
H  26.56600 52.04200 21.15200
H  22.91500 49.66800 23.01400
H  23.94000 48.91700 21.99200
H  22.57600 49.50200 20.27000
H  23.02400 51.24400 20.46500
H  21.65300 50.51200 21.41100
H  20.28300 53.88900 26.82800
H  20.03000 52.45500 25.60700
H  21.09800 53.69600 25.23000
H  21.91400 51.12100 30.98500
H  22.71700 54.93900 33.24200
H  22.76900 53.72700 34.51700
H  21.21100 54.35700 33.89600

