158

Mg 35.20400 1.68500 29.38500
C  32.90000 2.94900 31.81100
C  37.62900 1.79300 31.66300
C  37.49100 1.09900 27.01900
C  32.71000 2.17200 26.98800
N  35.27800 2.38000 31.46700
C  34.18100 2.64300 32.29100
C  34.71700 2.69900 33.70700
C  36.27500 2.61900 33.58100
C  36.43600 2.26200 32.13800
C  37.04600 3.87800 33.84600
C  34.02000 1.61200 34.56500
C  33.71100 2.10300 35.97200
H  34.70600 2.96900 36.70100
N  37.16600 1.21400 29.46600
C  38.02600 1.31600 30.45800
C  39.29300 0.73300 30.12200
C  39.18700 0.40000 28.76300
C  37.90500 0.99000 28.35500
C  40.51500 0.52700 31.04000
C  40.23200 -0.27800 27.84200
O  40.09200 -0.33600 26.63400
C  41.46700 -0.90100 28.39300
N  35.10000 1.67600 27.36200
C  36.20100 1.45900 26.55800
C  35.76900 1.47700 25.08800
C  34.22100 1.60800 25.06700
C  33.98700 1.77000 26.59400
C  36.40100 2.55300 24.25000
C  33.45300 0.42700 24.41300
C  32.40000 0.71300 23.29900
N  33.12300 2.40000 29.32500
C  32.26100 2.58000 28.31500
C  30.95800 3.09300 28.77600
C  31.17300 3.19200 30.16200
C  32.51700 2.80200 30.44100
C  29.68400 3.35000 28.02100
C  30.63900 3.71900 31.44600
O  29.51000 4.20400 31.67700
C  31.62000 3.36000 32.53400
C  31.71700 4.48400 33.50900
O  32.40400 5.45700 33.30300
O  30.77800 4.32700 34.53300
C  30.98300 5.23200 35.67500
H  38.39200 1.63800 32.42800
H  38.17500 0.73200 26.25100
H  31.98600 2.27500 26.17700
H  34.41000 3.71300 33.96600
H  36.66000 1.78000 34.16100
H  37.93100 3.89600 33.21000
H  37.50800 4.03500 34.82100
H  36.42500 4.72600 33.55600
H  34.69000 0.75400 34.62000
H  33.12300 1.35100 34.00300
H  33.56700 1.20800 36.57800
H  32.80300 2.70500 35.96900
H  40.44200 1.03500 32.00200
H  41.37200 0.96200 30.52500
H  40.62100 -0.55400 31.13300
H  41.37500 -1.68100 29.14900
H  42.14500 -0.08100 28.63100
H  41.97700 -1.33700 27.53400
H  36.01300 0.48800 24.69900
H  33.80500 2.46900 24.54400
H  36.90800 3.17000 24.99100
H  35.68700 3.22900 23.78100
H  37.06300 2.26300 23.43400
H  32.99200 -0.25400 25.12900
H  34.04300 -0.28700 23.83900
H  31.69000 1.48500 23.59500
H  31.96400 -0.27200 23.13000
H  32.82800 0.86000 22.30800
H  28.94600 2.57200 28.21500
H  29.81400 3.31200 26.93900
H  29.40500 4.32200 28.42600
H  31.22500 2.57400 33.17800
H  30.30800 6.08700 35.64900
H  31.96700 5.70000 35.64000
H  30.80000 4.69300 36.60400
Mg 53.27900 23.57400 44.51900
C  50.55600 25.65600 43.72500
C  51.86600 21.04300 42.86500
C  56.30100 22.17900 44.46200
C  54.80300 26.70900 45.55600
N  51.54800 23.47500 43.23300
C  50.52800 24.36900 43.12500
C  49.44300 23.86600 42.17000
C  49.68200 22.23400 42.29900
C  51.14600 22.24200 42.77100
C  48.69900 21.41100 43.17500
C  49.63700 24.42300 40.72500
C  48.37400 24.79600 39.95300
H  47.88300 23.72600 38.88600
N  53.95900 21.77600 43.88900
C  53.18900 20.88400 43.26000
C  54.02200 19.70300 43.07500
C  55.31400 19.97000 43.44000
C  55.28400 21.38200 43.90700
C  53.46600 18.39300 42.53000
C  56.56800 19.03900 43.42700
O  56.56200 17.89500 43.00500
C  57.85600 19.42100 43.96800
N  55.25000 24.34400 44.84700
C  56.29500 23.45400 44.95700
C  57.59600 24.11100 45.70300
C  57.11100 25.57700 45.85500
C  55.63600 25.56400 45.41500
C  57.96200 23.46600 47.08000
C  57.88000 26.70500 45.06100
C  58.54700 27.80200 45.82400
N  52.81300 25.74300 44.71900
C  53.49100 26.83000 45.28100
C  52.56800 27.89800 45.50400
C  51.42800 27.50600 44.87900
C  51.63400 26.20900 44.38500
C  53.01000 29.12600 46.31400
C  50.07100 27.84200 44.64800
O  49.47900 28.85400 44.99500
C  49.44600 26.71800 43.80400
C  49.04100 27.31000 42.47700
O  49.70200 27.59800 41.53000
O  47.66000 27.46200 42.53500
C  47.12200 27.89800 41.31700
H  51.37000 20.12800 42.53600
H  57.26400 21.74400 44.73700
H  55.24200 27.61100 45.98900
H  48.46100 24.08100 42.59300
H  49.70600 21.71500 41.34100
H  48.69900 21.55400 44.25500
H  48.77200 20.34500 42.96000
H  47.66300 21.54800 42.86400
H  50.26100 23.77200 40.11200
H  50.29800 25.27700 40.87200
H  48.60900 25.73400 39.44900
H  47.59500 25.00700 40.68600
H  53.92000 17.55200 43.05600
H  53.60300 18.42700 41.45000
H  52.39100 18.32000 42.69500
H  58.34700 20.10000 43.27100
H  58.55800 18.58900 44.00800
H  57.76500 19.81000 44.98200
H  58.41300 24.09200 44.98000
H  57.13400 25.75400 46.93000
H  58.09800 24.12000 47.94200
H  58.97700 23.08400 46.97300
H  57.37900 22.57100 47.29300
H  57.19400 27.20100 44.37400
H  58.67800 26.24000 44.48200
H  58.18000 28.68700 45.30300
H  59.62500 27.63900 45.84300
H  58.18200 27.80100 46.85100
H  52.14100 29.76400 46.47100
H  53.65300 29.71100 45.65700
H  53.61200 28.93800 47.20300
H  48.53600 26.32400 44.25500
H  47.49500 28.88500 41.04200
H  46.06000 27.78300 41.52900
H  47.37400 27.24300 40.48200

