158

Mg 25.32900 0.81500 29.90300
C  27.26600 0.62000 32.67200
C  22.56500 1.61000 32.12800
C  23.09600 0.70600 27.21200
C  27.80300 -0.32700 27.90400
N  25.00800 1.01700 32.16500
C  25.97200 0.90200 33.10500
C  25.51500 1.28800 34.47600
C  23.95700 1.56800 34.31500
C  23.81200 1.46000 32.74600
C  23.16700 0.53200 35.00900
C  26.19700 2.57200 34.97000
C  27.30300 2.54500 36.08700
H  27.11100 3.55300 37.24700
N  23.17000 1.21800 29.73500
C  22.27200 1.44200 30.74900
C  20.95500 1.47900 30.16800
C  21.07700 1.30600 28.76900
C  22.48300 1.06500 28.50900
C  19.71000 1.53700 31.06400
C  19.99200 1.21700 27.70600
O  20.22000 0.99300 26.54000
C  18.53000 1.46100 28.08800
N  25.34400 0.04000 27.93200
C  24.37300 0.21800 26.96600
C  24.89500 -0.11800 25.52400
C  26.40900 -0.46000 25.79900
C  26.58200 -0.28000 27.31800
C  24.17600 -1.26800 24.76300
C  27.41500 0.30000 24.89700
C  27.44400 1.90600 25.07800
N  27.12900 0.18100 30.18600
C  28.08300 -0.17000 29.29600
C  29.32600 -0.30100 29.91200
C  29.06700 0.03400 31.23500
C  27.69300 0.25400 31.34800
C  30.62700 -0.69100 29.23000
C  29.65400 0.21500 32.56100
O  30.80200 0.26700 32.92400
C  28.49300 0.50300 33.54300
C  28.44100 -0.62700 34.47700
O  27.86900 -1.67800 34.23900
O  29.18000 -0.29000 35.66300
C  29.11800 -1.13800 36.86700
H  21.74500 1.86500 32.80200
H  22.44000 0.67100 26.33900
H  28.70600 -0.45000 27.30200
H  25.65800 0.45900 35.16900
H  23.50200 2.52700 34.56300
H  23.52200 0.37500 36.02700
H  22.99800 -0.47800 34.63400
H  22.18800 0.99200 35.14400
H  25.50500 3.36200 35.26100
H  26.74100 3.03000 34.14400
H  28.23800 2.68900 35.54400
H  27.23800 1.60500 36.63500
H  19.10300 2.36700 30.70300
H  19.73300 1.59900 32.15200
H  19.08600 0.68200 30.80500
H  18.09900 0.77900 28.82100
H  17.90300 1.38300 27.20000
H  18.44100 2.45600 28.52400
H  24.77200 0.77200 24.90700
H  26.70100 -1.50300 25.67800
H  23.29100 -1.60300 25.30500
H  24.80400 -2.07400 24.38400
H  23.74500 -0.67100 23.95900
H  27.08200 0.25100 23.86000
H  28.41800 -0.12500 24.93100
H  27.13200 2.34600 24.13100
H  28.40800 2.37200 25.28200
H  26.67200 2.27800 25.75200
H  30.65900 -0.15200 28.28300
H  30.58300 -1.73200 28.90900
H  31.46500 -0.48400 29.89700
H  28.68800 1.48900 33.96300
H  28.38100 -0.70700 37.54500
H  30.02200 -1.12300 37.47600
H  28.94100 -2.14000 36.47500
Mg 53.77000 24.18300 44.65400
C  51.22000 26.38400 43.75900
C  51.97500 21.61900 43.36600
C  56.57200 22.26600 44.73800
C  55.59100 26.90400 45.77800
N  51.75100 23.98700 43.91900
C  50.97500 25.01500 43.46600
C  49.76600 24.37400 42.62300
C  49.77000 22.87700 43.06800
C  51.23300 22.78200 43.44800
C  48.83600 22.52800 44.18600
C  50.05700 24.63000 41.12000
C  51.43000 24.73800 40.56400
H  52.31600 23.45900 40.42300
N  54.19200 22.12400 44.20300
C  53.29200 21.28400 43.69400
C  53.92500 20.01100 43.38800
C  55.26500 20.10000 43.78100
C  55.38700 21.51900 44.33600
C  53.24400 18.83000 42.84500
C  56.32400 19.06100 43.76400
O  56.08400 18.00700 43.24500
C  57.66400 19.28300 44.45600
N  55.94800 24.59100 44.92800
C  56.78200 23.54700 45.13100
C  58.08300 24.04700 45.76600
C  57.74300 25.53300 46.00100
C  56.31800 25.74400 45.52600
C  58.62200 23.34400 47.06100
C  58.71600 26.54000 45.31300
C  58.55700 26.83700 43.77700
N  53.46900 26.17100 44.94200
C  54.25700 27.13500 45.47000
C  53.57300 28.46700 45.45700
C  52.38200 28.25200 44.76800
C  52.37400 26.80800 44.43800
C  54.19700 29.76700 45.83200
C  51.21400 28.89200 44.20900
O  50.76500 30.01000 44.29800
C  50.45400 27.70500 43.54100
C  50.30600 28.10600 42.09800
O  51.31600 28.40500 41.39300
O  49.01200 27.99600 41.68500
C  48.83200 28.50500 40.36800
H  51.54500 20.77300 42.82700
H  57.51900 21.72300 44.73900
H  56.26300 27.63500 46.23200
H  48.84900 24.95200 42.74100
H  49.64000 22.20800 42.21700
H  48.24200 23.39300 44.48000
H  49.42400 22.23100 45.05400
H  48.20000 21.69600 43.88200
H  49.31100 25.36000 40.80500
H  49.71700 23.77100 40.54200
H  51.94900 25.48700 41.16100
H  51.23700 25.28600 39.64200
H  53.82100 18.37600 42.04000
H  52.21300 19.01400 42.54200
H  53.20800 18.15100 43.69700
H  58.33100 19.87200 43.82600
H  58.12800 18.35300 44.78600
H  57.52500 19.73500 45.43800
H  58.81400 23.99900 44.95900
H  57.72700 25.75300 47.06800
H  59.61700 23.02500 46.75100
H  58.08000 22.41300 47.22600
H  58.79000 23.93700 47.96000
H  59.75900 26.26400 45.47200
H  58.61500 27.51800 45.78300
H  57.88300 26.07000 43.39700
H  59.52200 26.65800 43.30400
H  58.15200 27.84400 43.67500
H  53.87100 30.56800 45.16900
H  55.26200 29.60700 45.66400
H  54.05100 30.07400 46.86800
H  49.42700 27.68700 43.90500
H  49.64500 28.27900 39.67800
H  48.94700 29.58300 40.48000
H  47.81700 28.38900 39.98800

