158

Mg 40.54800 8.16800 29.49900
C  42.82400 9.63100 31.99000
C  38.67600 7.00600 32.03700
C  38.92400 6.33600 27.22900
C  43.13500 8.89200 27.11700
N  40.84900 8.24200 31.70300
C  41.65600 8.98900 32.50200
C  41.12900 9.08000 33.91300
C  39.89800 8.11100 33.89300
C  39.79800 7.69800 32.44000
C  39.80000 6.99300 34.88400
C  40.81800 10.55000 34.31400
C  39.79700 10.65800 35.49800
H  40.09000 11.82900 36.41300
N  38.85400 7.06100 29.60300
C  38.23600 6.64400 30.75800
C  37.08500 5.90300 30.41400
C  37.06200 5.75100 28.98800
C  38.29000 6.37900 28.53700
C  36.08400 5.49600 31.46200
C  36.17100 5.07400 28.08800
O  36.38200 4.96100 26.89200
C  34.92200 4.55500 28.58800
N  41.05300 7.60200 27.48800
C  40.18700 6.87600 26.70300
C  40.57600 6.87400 25.20800
C  41.65900 8.03100 25.20900
C  41.99300 8.24200 26.67000
C  41.07500 5.45300 24.70800
C  41.26600 9.40700 24.58800
C  40.09500 10.12700 25.15900
N  42.57600 8.99100 29.54900
C  43.39800 9.19900 28.41500
C  44.58200 9.90700 28.94900
C  44.41000 10.05000 30.35500
C  43.14600 9.57200 30.61600
C  45.81500 10.25100 28.15000
C  44.95200 10.66000 31.62900
O  45.91800 11.38200 31.80300
C  43.91600 10.40200 32.69500
C  44.41400 9.67300 33.83200
O  44.90800 8.58500 33.76600
O  44.08400 10.39600 34.92900
C  44.08200 9.66800 36.19400
H  38.09800 6.56600 32.85300
H  38.30700 5.78800 26.51400
H  43.89000 9.23300 26.40600
H  41.87200 8.80600 34.66200
H  38.97000 8.64100 34.11000
H  40.73500 6.97200 35.44400
H  39.66100 6.09300 34.28600
H  38.93900 6.99800 35.55200
H  40.29100 10.88100 33.42000
H  41.75400 11.09200 34.44600
H  39.58300 9.75900 36.07600
H  38.89000 10.89700 34.94200
H  35.03800 5.63300 31.19000
H  36.22500 5.85900 32.48000
H  36.29700 4.44000 31.62900
H  35.14100 3.79300 29.33600
H  34.35000 3.92400 27.90800
H  34.39500 5.38800 29.05100
H  39.75700 7.16100 24.54800
H  42.59600 7.73100 24.73900
H  42.16200 5.48700 24.62500
H  40.66800 4.99400 23.80700
H  40.90600 4.75700 25.53000
H  41.08600 9.26300 23.52300
H  42.11300 10.09000 24.52100
H  40.43700 11.14100 25.36600
H  39.84300 9.66100 26.11200
H  39.21200 10.10700 24.52100
H  46.68300 9.59700 28.22900
H  46.15800 11.04600 28.81300
H  45.74700 10.53600 27.10000
H  43.67100 11.41900 33.00100
H  44.91100 9.98600 36.82600
H  44.03400 8.58500 36.08200
H  43.09200 9.75200 36.64100
Mg -8.53700 18.27100 42.87800
C  -5.07100 17.71700 42.74700
C  -8.07700 21.57000 41.48600
C  -11.79900 18.50700 42.23800
C  -8.96500 14.77900 43.04400
N  -6.80400 19.43900 42.20800
C  -5.42800 19.06000 42.26700
C  -4.54100 20.19600 41.92900
C  -5.54200 21.38200 41.57700
C  -6.91800 20.75000 41.72800
C  -5.31100 22.71100 42.34500
C  -3.39900 19.85700 40.88000
C  -3.73100 18.90200 39.65500
H  -3.42700 19.52100 38.31100
N  -9.86300 19.92200 42.21500
C  -9.44200 21.17000 41.69600
C  -10.66400 21.88400 41.36100
C  -11.80900 20.99600 41.66400
C  -11.16500 19.74700 42.04600
C  -10.60300 23.27700 40.76700
C  -13.28400 21.34400 41.39300
O  -13.51700 22.40600 40.87100
C  -14.36600 20.52200 41.74700
N  -10.15400 16.81000 42.64300
C  -11.47600 17.24000 42.58700
C  -12.46200 16.14000 42.89300
C  -11.53500 14.91000 42.99400
C  -10.13400 15.51500 42.98000
C  -13.50900 16.33200 44.03700
C  -11.66300 13.81800 41.86800
C  -11.79700 12.31900 42.28100
N  -7.21900 16.57000 43.06500
C  -7.59500 15.18700 43.14700
C  -6.39400 14.46800 43.42200
C  -5.37300 15.40700 43.26900
C  -5.91000 16.63000 43.03400
C  -6.18000 13.06200 43.76600
C  -3.93800 15.58400 43.32900
O  -3.04200 14.76400 43.48700
C  -3.66100 17.09200 43.02900
C  -2.78100 17.66700 44.11100
O  -1.57000 17.77500 43.97600
O  -3.53800 18.18300 45.14300
C  -2.88400 18.83300 46.29000
H  -7.98100 22.62500 41.22200
H  -12.87600 18.50200 42.05400
H  -9.06300 13.69100 43.03300
H  -3.97900 20.41900 42.83600
H  -5.39500 21.62500 40.52500
H  -6.21700 22.91800 42.91300
H  -5.11700 23.49300 41.61100
H  -4.49800 22.52400 43.04600
H  -2.50900 19.54600 41.42700
H  -3.09400 20.78300 40.39200
H  -4.76300 18.56700 39.75900
H  -3.15500 17.97700 39.70400
H  -9.94800 23.32000 39.89700
H  -10.23100 23.89000 41.58800
H  -11.54600 23.73100 40.46100
H  -14.01600 20.11300 42.69400
H  -14.49100 19.63900 41.12000
H  -15.27400 21.10800 41.88900
H  -12.94100 15.91300 41.94100
H  -11.93100 14.41600 43.88100
H  -14.42900 16.49500 43.47600
H  -13.26600 17.23200 44.60200
H  -13.74000 15.51100 44.71700
H  -10.80500 13.87400 41.19800
H  -12.53100 13.94400 41.22100
H  -12.71400 11.90300 41.86200
H  -11.84100 12.34200 43.37000
H  -10.96900 11.69300 41.95100
H  -5.61000 12.66200 42.92700
H  -7.13000 12.54200 43.88800
H  -5.56300 13.11200 44.66300
H  -3.04500 17.05500 42.13100
H  -3.31600 19.83400 46.30700
H  -1.80800 18.79100 46.12500
H  -3.14800 18.27100 47.18600

