158

Mg 35.22700 49.01100 25.25800
C  35.58400 47.33200 28.36500
C  33.95300 51.69200 26.94900
C  34.89300 50.45700 22.27900
C  36.65700 46.19900 23.70200
N  34.71400 49.38000 27.43500
C  34.95000 48.58500 28.55600
C  34.52400 49.36400 29.79400
C  33.83000 50.66100 29.25500
C  34.17400 50.59700 27.79400
C  32.35900 50.99400 29.62400
C  35.74400 49.50400 30.85100
C  35.50000 49.82400 32.32900
H  34.05400 49.56500 32.89400
N  34.56400 50.79800 24.69300
C  34.13500 51.82500 25.52000
C  33.98700 53.04300 24.77500
C  34.09200 52.70200 23.42500
C  34.51700 51.24100 23.42300
C  33.83500 54.36600 25.39300
C  33.97700 53.58000 22.20000
O  34.38200 53.15700 21.12600
C  33.38200 54.98900 22.28100
N  35.79500 48.45000 23.21400
C  35.41300 49.17100 22.12500
C  35.98600 48.56500 20.79400
C  36.65200 47.27200 21.35800
C  36.36800 47.29600 22.83400
C  34.91500 48.30200 19.71200
C  38.17300 47.05900 20.93600
C  39.30100 47.63300 21.86700
N  35.91700 47.14100 25.83100
C  36.48700 46.09900 25.06400
C  36.68200 44.99400 25.94100
C  36.36400 45.45600 27.21900
C  35.95600 46.79100 27.13800
C  37.33000 43.66600 25.46800
C  36.31300 44.99300 28.59900
O  36.59200 43.91300 29.11900
C  35.86200 46.25500 29.43000
C  34.61000 45.88000 30.16200
O  33.49000 45.79700 29.64500
O  35.01000 45.45900 31.46200
C  33.81700 44.92500 32.14400
H  33.44700 52.43300 27.57100
H  34.84500 50.96900 21.31500
H  37.17500 45.35000 23.25100
H  33.73300 48.80000 30.28900
H  34.34500 51.52100 29.68400
H  31.86800 50.12700 30.06700
H  31.79000 51.10500 28.70100
H  32.30000 51.92300 30.19100
H  36.24300 50.41100 30.51000
H  36.39300 48.65200 30.64900
H  35.83200 50.82400 32.60500
H  36.10600 49.22800 33.01200
H  32.90900 54.89800 25.17400
H  34.68900 54.94800 25.04800
H  33.89800 54.21700 26.47100
H  33.93800 55.66500 22.93000
H  32.33000 54.87700 22.54300
H  33.41600 55.38200 21.26500
H  36.79300 49.23600 20.49800
H  36.19300 46.36100 20.97500
H  34.46400 47.32000 19.85700
H  35.43600 48.27200 18.75500
H  34.17500 49.10200 19.68900
H  38.38100 47.49300 19.95900
H  38.33300 45.98200 20.89200
H  39.80500 46.80700 22.37000
H  38.80600 48.30300 22.56900
H  39.96300 48.22200 21.23200
H  36.51800 43.22700 24.88800
H  37.43300 43.24100 26.46600
H  38.25300 43.84800 24.91700
H  36.66700 46.33600 30.16000
H  32.92900 45.55600 32.18500
H  34.09600 44.80800 33.19100
H  33.59000 43.91500 31.80200
Mg 26.40700 50.19900 26.40100
C  24.23200 51.39200 29.00600
C  28.62200 49.13900 28.64000
C  28.36700 49.37100 23.83300
C  24.08700 51.58400 24.02800
N  26.35100 50.21700 28.52800
C  25.39400 50.68800 29.42100
C  25.75800 50.23500 30.86700
C  27.30700 49.89900 30.77700
C  27.41700 49.64200 29.19100
C  28.22500 51.19000 30.96100
C  24.81000 49.14900 31.36500
C  24.53600 49.01400 32.90600
H  25.57900 49.49200 33.93200
N  28.38500 49.36800 26.25900
C  29.06800 48.93300 27.31000
C  30.36500 48.54500 26.83800
C  30.31300 48.65900 25.44600
C  28.98900 49.12200 25.12100
C  31.38500 47.92700 27.75200
C  31.42500 48.48000 24.37600
O  31.36900 48.86300 23.21400
C  32.74500 47.98000 24.81200
N  26.30600 50.68300 24.18300
C  27.17600 50.01200 23.45200
C  26.63700 49.86900 21.97500
C  25.32500 50.61900 22.07400
C  25.18600 50.88500 23.52700
C  27.68700 50.38200 20.88000
C  24.21600 49.81100 21.35800
C  23.16400 50.72500 20.67100
N  24.61700 51.28800 26.45400
C  23.79600 51.81200 25.44600
C  22.60800 52.41300 26.11200
C  22.71600 52.25700 27.50900
C  23.91100 51.48200 27.60100
C  21.49900 53.10300 25.41900
C  22.18300 52.62800 28.73800
O  21.24900 53.28700 29.06100
C  23.06100 51.92300 29.82500
C  23.46100 52.90800 30.82300
O  24.30100 53.77400 30.62100
O  22.78300 52.70900 31.98400
C  23.23500 53.61200 33.11300
H  29.29800 48.64600 29.34200
H  28.94600 48.97800 22.99500
H  23.26100 51.88200 23.37900
H  25.72300 51.16800 31.43000
H  27.47600 48.96700 31.31800
H  28.97900 51.10400 31.74300
H  27.65800 52.03600 31.35100
H  28.54100 51.59000 29.99800
H  25.23300 48.19800 31.04000
H  23.85200 49.27500 30.86000
H  24.40500 47.94400 33.07000
H  23.69300 49.67700 33.09700
H  31.49400 46.90900 27.37800
H  31.08400 47.73300 28.78100
H  32.37100 48.39200 27.74600
H  32.67000 46.94200 25.13800
H  33.16100 48.64500 25.56900
H  33.38800 47.86600 23.93900
H  26.34700 48.83000 21.82100
H  25.43500 51.65400 21.75100
H  28.25100 51.08200 21.49600
H  27.16600 50.83700 20.03700
H  28.39800 49.64700 20.50300
H  23.73400 49.28200 22.18000
H  24.45700 49.01600 20.65300
H  22.20900 50.64500 21.19000
H  22.95700 50.37300 19.66000
H  23.38100 51.79300 20.64800
H  20.52900 52.91300 25.87800
H  21.46500 52.75800 24.38600
H  21.69400 54.16300 25.58200
H  22.57200 51.08300 30.31800
H  23.40100 54.66100 32.86600
H  24.22100 53.24900 33.40400
H  22.48800 53.64900 33.90600

