158

Mg -1.37300 18.21300 27.13100
C  -1.75600 15.92100 29.80600
C  -2.17500 20.71900 29.19500
C  -1.50400 20.10700 24.49300
C  -1.56300 15.35700 25.03700
N  -1.64700 18.33600 29.28600
C  -1.77100 17.30300 30.18000
C  -1.83200 17.77300 31.64400
C  -2.00500 19.35500 31.38400
C  -1.99200 19.48300 29.86300
C  -3.34000 19.84500 31.95100
C  -0.52800 17.46700 32.49100
C  -0.23900 18.35800 33.78500
H  0.16700 17.59200 35.04700
N  -1.65900 20.21100 26.87800
C  -2.03800 21.13600 27.82200
C  -2.12900 22.46900 27.20600
C  -1.74900 22.25600 25.84500
C  -1.67700 20.80700 25.69900
C  -2.40500 23.72600 28.03100
C  -1.52000 23.23600 24.72300
O  -1.19200 22.88000 23.60900
C  -1.71400 24.72700 24.99500
N  -1.42000 17.76100 25.09000
C  -1.37700 18.78900 24.14600
C  -1.37400 18.24600 22.70300
C  -1.23700 16.72100 22.96400
C  -1.44700 16.61400 24.43100
C  -2.46000 18.74200 21.70800
C  0.16100 16.21700 22.61900
C  0.31500 14.77200 22.05800
N  -1.58700 16.06800 27.34100
C  -1.58400 15.03500 26.42500
C  -1.61100 13.77200 27.02000
C  -1.65500 14.07700 28.34500
C  -1.72900 15.44400 28.53000
C  -1.73500 12.44600 26.35500
C  -1.75000 13.48000 29.58600
O  -1.79300 12.32100 29.92200
C  -1.74200 14.61900 30.64400
C  -0.55400 14.47200 31.44600
O  0.57400 14.88800 31.02800
O  -0.80900 13.88800 32.64800
C  0.28100 13.76400 33.64300
H  -2.45000 21.46700 29.94200
H  -1.32000 20.58700 23.53000
H  -1.30000 14.53600 24.36700
H  -2.73100 17.32900 32.07200
H  -1.19800 19.92000 31.84900
H  -4.02100 20.14300 31.15400
H  -3.08600 20.75400 32.49700
H  -3.84200 19.06400 32.52300
H  0.29400 17.49900 31.77500
H  -0.69500 16.46800 32.89500
H  -1.20700 18.76700 34.07700
H  0.44900 19.16100 33.51900
H  -2.76500 23.69900 29.06000
H  -3.16300 24.26800 27.46500
H  -1.51200 24.34200 27.92700
H  -0.88500 25.02100 25.63900
H  -2.73700 24.91500 25.32000
H  -1.55500 25.32000 24.09400
H  -0.43000 18.68100 22.37600
H  -2.00400 16.09700 22.50800
H  -3.08700 17.86200 21.57100
H  -2.00700 18.99100 20.74800
H  -3.05100 19.56700 22.10600
H  0.70400 16.17500 23.56400
H  0.70600 16.88700 21.95500
H  1.22100 14.57100 21.48500
H  -0.58400 14.47200 21.51800
H  0.45500 14.06100 22.87200
H  -1.89900 11.61600 27.04200
H  -0.80600 12.27400 25.81100
H  -2.50500 12.43300 25.58400
H  -2.66600 14.64100 31.22200
H  0.24400 12.84100 34.22200
H  0.17900 14.64500 34.27700
H  1.26500 13.78800 33.17500
Mg 4.94100 53.76500 40.75700
C  4.67500 50.30200 40.68400
C  7.87800 53.39700 39.06200
C  4.85200 57.09600 40.34800
C  1.75100 53.87600 42.19800
N  6.00700 52.02300 39.76400
C  5.76000 50.75100 39.95900
C  6.80800 49.87500 39.23200
C  8.00800 50.89000 39.19600
C  7.24400 52.19800 39.30000
C  8.93200 50.67100 40.41200
C  6.43200 49.22300 37.79400
C  5.20200 49.77300 37.05500
H  5.39800 50.36800 35.62800
N  6.20800 55.04000 39.80500
C  7.41000 54.74800 39.28200
C  8.13300 55.94000 38.87100
C  7.29000 57.03700 39.22800
C  6.05700 56.41100 39.82600
C  9.51500 55.84400 38.23900
C  7.67300 58.41900 39.05000
O  8.81000 58.67600 38.62000
C  6.78200 59.60600 39.31400
N  3.37100 55.31700 40.96000
C  3.68400 56.60700 40.89200
C  2.55000 57.50100 41.47200
C  1.52200 56.46500 42.01800
C  2.25100 55.15200 41.72400
C  3.02300 58.43700 42.59100
C  0.07600 56.58600 41.48100
C  -0.99000 56.90900 42.53600
N  3.56200 52.42700 41.48200
C  2.25500 52.59300 42.00100
C  1.66200 51.33500 42.31200
C  2.65700 50.40200 41.85300
C  3.69700 51.12500 41.26100
C  0.36400 51.05500 43.03000
C  2.86100 48.93900 41.73100
O  2.24600 47.92700 42.05300
C  4.19000 48.84600 40.97300
C  3.96400 48.00700 39.81000
O  3.16900 48.29500 38.94400
O  4.62900 46.73800 39.85700
C  4.24600 45.59900 38.99400
H  8.94300 53.35400 38.82400
H  4.82900 58.18800 40.35200
H  0.75100 53.93300 42.63300
H  7.13600 49.00400 39.79800
H  8.56200 50.65800 38.28700
H  8.65200 51.34000 41.22500
H  9.87200 50.82100 39.88000
H  8.94500 49.63300 40.74400
H  6.36400 48.14200 37.91800
H  7.32700 49.38000 37.19200
H  4.77300 50.58000 37.64900
H  4.50000 48.95400 36.90300
H  9.84900 56.73700 37.71000
H  9.42900 55.15500 37.39900
H  10.24000 55.65000 39.03000
H  7.12000 60.58700 38.97900
H  6.64100 59.63800 40.39500
H  5.84400 59.26500 38.87500
H  2.18800 58.14000 40.66700
H  1.41500 56.56200 43.09800
H  2.20600 58.59200 43.29600
H  3.34600 59.40700 42.21400
H  3.79700 57.95800 43.19200
H  -0.29100 55.75400 40.87900
H  0.04400 57.39900 40.75600
H  -0.76600 56.89100 43.60200
H  -1.79300 56.20900 42.30400
H  -1.39400 57.90600 42.35800
H  -0.18400 51.97800 43.22000
H  0.58800 50.45500 43.91200
H  -0.18300 50.38000 42.37200
H  4.92900 48.35000 41.60200
H  4.54500 44.70100 39.53600
H  4.93500 45.68900 38.15500
H  3.16500 45.49100 38.90600

