158

Mg 17.02700 -2.20500 27.90100
C  15.60500 -0.16200 30.49100
C  18.81200 -3.81800 30.29600
C  18.74100 -3.73300 25.38700
C  15.35600 -0.21700 25.64600
N  17.41800 -1.84800 30.15700
C  16.57600 -1.08000 30.99000
C  17.13900 -1.25100 32.44600
C  18.20700 -2.32600 32.32800
C  18.21300 -2.66600 30.83500
C  19.60400 -2.16700 32.90900
C  15.94400 -1.46500 33.48800
C  16.16400 -0.87900 34.92300
H  16.98300 -1.75600 35.91800
N  18.50700 -3.62700 27.88600
C  19.09800 -4.13500 28.93300
C  19.99800 -5.26800 28.57700
C  19.79300 -5.38800 27.19200
C  19.09100 -4.16900 26.71800
C  20.86100 -6.12700 29.60200
C  20.20900 -6.53700 26.33100
O  20.13600 -6.48600 25.16200
C  20.76800 -7.78800 26.83700
N  17.02900 -2.07600 25.83800
C  17.87000 -2.76000 25.02300
C  17.66400 -2.31600 23.60700
C  16.60300 -1.13100 23.64200
C  16.28600 -1.14700 25.14900
C  19.00600 -1.91800 22.99400
C  15.27600 -1.24500 22.72600
C  15.39700 -0.72600 21.31900
N  15.64900 -0.57400 27.99800
C  15.02600 0.05900 27.00100
C  14.23500 1.22000 27.56500
C  14.53800 1.18700 28.94500
C  15.34800 0.08900 29.14100
C  13.57800 2.35000 26.85200
C  14.28500 1.85400 30.17400
O  13.54300 2.84500 30.37200
C  15.01100 1.05600 31.32200
C  16.04500 1.92000 31.92800
O  17.06300 2.22300 31.37600
O  15.79400 2.20900 33.22900
C  16.64800 3.23300 33.89500
H  19.45900 -4.20400 31.08700
H  19.20700 -4.35700 24.62200
H  14.91700 0.50100 24.95000
H  17.60400 -0.32000 32.77100
H  17.71000 -3.21200 32.72100
H  19.67800 -3.07900 33.50200
H  19.67200 -1.22200 33.44700
H  20.20800 -2.12800 32.00300
H  15.86700 -2.55100 33.55100
H  14.98700 -1.09800 33.11600
H  15.16800 -0.66700 35.31100
H  16.67800 0.07800 34.84000
H  21.13400 -5.46200 30.42100
H  21.80900 -6.50400 29.21700
H  20.33100 -6.99700 29.99100
H  21.79400 -7.65600 27.18100
H  20.75700 -8.48000 25.99500
H  20.18200 -8.29300 27.60500
H  17.25500 -3.21400 23.14300
H  16.99900 -0.14800 23.38700
H  19.55200 -2.79700 22.65400
H  19.78000 -1.71500 23.73400
H  18.90200 -1.09700 22.28400
H  14.39600 -0.77300 23.16400
H  15.13800 -2.32000 22.60800
H  16.31800 -0.77000 20.73800
H  15.00200 0.28700 21.25400
H  14.83200 -1.43200 20.71100
H  12.68500 1.92600 26.39500
H  14.23900 2.73300 26.07400
H  13.33500 3.20100 27.48900
H  14.27900 0.68200 32.03800
H  16.14900 3.91200 34.58600
H  17.17400 3.85100 33.16700
H  17.52600 2.72500 34.29300
Mg -5.46000 25.40600 25.54200
C  -3.55800 26.91100 28.19500
C  -6.64800 23.09400 27.82700
C  -6.93400 23.73600 23.08700
C  -3.80100 27.52000 23.30400
N  -5.00200 24.97000 27.67100
C  -4.34100 25.81100 28.55200
C  -4.68800 25.48300 30.02100
C  -5.38200 24.10600 29.96800
C  -5.71700 23.99300 28.40500
C  -4.44500 22.87400 30.29200
C  -5.66400 26.49900 30.68600
C  -5.23600 26.96100 32.07400
H  -4.50700 25.94400 32.91600
N  -6.62000 23.71700 25.44600
C  -7.07300 22.93000 26.52100
C  -8.09200 21.95000 26.05300
C  -8.14400 22.10400 24.70500
C  -7.19700 23.19700 24.33400
C  -8.90200 21.03200 27.09600
C  -9.20900 21.56400 23.74400
O  -9.29400 21.98700 22.60700
C  -10.12500 20.45600 24.21400
N  -5.30600 25.53500 23.45100
C  -6.10700 24.77400 22.61500
C  -5.96200 25.15900 21.18200
C  -5.10100 26.44800 21.28500
C  -4.65300 26.55900 22.78000
C  -5.26400 23.93600 20.47900
C  -5.72100 27.81600 20.76800
C  -5.16300 28.48200 19.53100
N  -3.93100 26.92000 25.70000
C  -3.42200 27.66800 24.66000
C  -2.56300 28.66000 25.28500
C  -2.61200 28.43400 26.67700
C  -3.40800 27.31800 26.85600
C  -1.74100 29.68700 24.50100
C  -2.16300 28.84600 28.02100
O  -1.34200 29.65300 28.30300
C  -2.84000 27.89900 29.06700
C  -1.78100 27.25800 29.81400
O  -0.99400 26.37500 29.39300
O  -1.85400 27.62700 31.14500
C  -0.78600 27.08400 32.00600
H  -7.05000 22.36300 28.53100
H  -7.34100 23.26000 22.19300
H  -3.46500 28.26600 22.58100
H  -3.79800 25.30400 30.62300
H  -6.28200 23.97600 30.57000
H  -4.68700 22.53300 31.29800
H  -3.39900 23.18100 30.32000
H  -4.43900 22.13700 29.48900
H  -6.61300 25.98900 30.85100
H  -5.64100 27.43500 30.12900
H  -6.01700 27.38200 32.70700
H  -4.55700 27.81300 32.04600
H  -9.11300 19.98600 26.87200
H  -9.80300 21.53100 27.45200
H  -8.40700 20.89900 28.05800
H  -10.81700 20.07300 23.46400
H  -10.78000 20.93500 24.94300
H  -9.58500 19.63400 24.68300
H  -6.92300 25.44400 20.75400
H  -4.14500 26.30500 20.78200
H  -6.00500 23.66100 19.72800
H  -5.10300 23.05300 21.09900
H  -4.35700 24.24400 19.95900
H  -5.58500 28.54400 21.56800
H  -6.79600 27.82600 20.59000
H  -4.23500 28.87700 19.94600
H  -5.88400 29.22700 19.19500
H  -4.93100 27.74800 18.76000
H  -0.93300 29.20600 23.95000
H  -1.22800 30.31000 25.23300
H  -2.33800 30.29900 23.82600
H  -3.41000 28.55600 29.72400
H  0.19800 27.26400 31.57200
H  -0.93500 26.03200 32.24900
H  -0.80200 27.62600 32.95200

