158

Mg 24.33200 -4.79200 45.89500
C  26.64700 -2.72500 44.20800
C  22.01200 -4.00900 43.69900
C  22.74200 -7.61800 46.77500
C  27.19300 -6.13000 47.72100
N  24.37200 -3.36400 44.28700
C  25.34100 -2.67600 43.65700
C  24.89300 -2.02800 42.36600
C  23.35400 -2.29700 42.44700
C  23.21500 -3.25100 43.57800
C  22.45900 -1.05600 42.54100
C  25.67800 -2.62400 41.16000
C  26.16300 -1.72300 40.05800
H  25.34300 -1.76900 38.72400
N  22.50300 -5.55400 45.40300
C  21.70100 -5.08100 44.49800
C  20.50200 -5.90400 44.33300
C  20.70800 -7.01300 45.16100
C  22.04700 -6.78700 45.83300
C  19.44100 -5.68500 43.41800
C  19.78900 -8.19200 45.33000
O  18.69700 -8.21000 44.74700
C  19.98500 -9.38700 46.25200
N  24.95200 -6.67200 46.99400
C  24.04700 -7.62100 47.27600
C  24.58500 -8.81700 48.13400
C  25.96500 -8.26200 48.41600
C  26.06400 -6.95700 47.63100
C  23.71300 -9.20500 49.41000
C  27.05800 -9.30700 47.95300
C  28.04100 -9.84300 49.10200
N  26.38300 -4.39500 46.11900
C  27.37300 -4.92400 46.98000
C  28.61400 -4.19000 46.77400
C  28.37800 -3.43800 45.66000
C  27.06400 -3.57800 45.27400
C  29.90100 -4.46100 47.46400
C  29.03900 -2.62700 44.67600
O  30.23800 -2.29700 44.51500
C  27.91200 -2.15900 43.64300
C  27.88900 -0.68800 43.68400
O  27.28700 -0.01100 44.49800
O  28.45600 -0.15000 42.58100
C  28.65600 1.30200 42.65200
H  21.27100 -3.65900 42.97800
H  22.28300 -8.53900 47.14100
H  27.94700 -6.56100 48.38300
H  24.98400 -0.94400 42.42600
H  22.99700 -2.81000 41.55400
H  22.91600 -0.11500 42.23500
H  22.05100 -1.05000 43.55200
H  21.65200 -1.22100 41.82700
H  24.94000 -3.27800 40.69600
H  26.50700 -3.24300 41.50200
H  27.16400 -2.06900 39.80100
H  26.18100 -0.70400 40.44400
H  18.99500 -6.56900 42.96200
H  19.89800 -5.18500 42.56400
H  18.70800 -5.00400 43.85000
H  20.14700 -8.99300 47.25500
H  20.94800 -9.83000 45.99600
H  19.28400 -10.22100 46.22800
H  24.52200 -9.67000 47.45900
H  26.19300 -8.05500 49.46100
H  22.77100 -8.66700 49.30300
H  24.16300 -8.91200 50.35900
H  23.63600 -10.28300 49.55100
H  27.75300 -8.78500 47.29600
H  26.74200 -10.21000 47.43200
H  28.09800 -10.92700 49.01100
H  27.66800 -9.61800 50.10100
H  29.00700 -9.34300 49.02500
H  30.67000 -4.75100 46.74700
H  29.83800 -5.21000 48.25300
H  30.29100 -3.57600 47.96700
H  28.11500 -2.60700 42.67100
H  29.34300 1.60500 43.44200
H  27.64500 1.70900 42.65800
H  29.10600 1.66100 41.72700
Mg 26.15900 49.97500 26.34800
C  24.11600 51.17900 28.87500
C  28.48700 49.26900 28.71800
C  28.10700 48.73000 23.78700
C  23.78100 50.98200 23.94700
N  26.30500 50.32200 28.53400
C  25.29300 50.62700 29.38900
C  25.67500 50.41700 30.87700
C  27.16300 50.03500 30.72900
C  27.34400 49.89200 29.21600
C  28.08400 51.05600 31.44500
C  24.81800 49.19200 31.58200
C  24.17500 49.61800 32.93500
H  25.05900 50.52900 33.82300
N  28.06400 49.19200 26.24900
C  28.84500 49.00600 27.37700
C  30.10500 48.46700 26.89300
C  29.98800 48.24500 25.52000
C  28.71200 48.78600 25.08800
C  31.35800 48.33400 27.75000
C  31.06600 47.59800 24.55300
O  30.91000 47.60200 23.34200
C  32.36100 46.92400 25.09600
N  26.02800 50.01400 24.14600
C  26.94900 49.36500 23.36400
C  26.42200 49.23200 21.91500
C  25.01700 49.85100 21.97700
C  24.88900 50.28100 23.47400
C  27.42700 49.89500 20.93500
C  23.86300 48.78800 21.61000
C  23.84300 47.48700 22.44600
N  24.32400 50.96200 26.36200
C  23.47700 51.26400 25.31600
C  22.33200 51.91600 25.89200
C  22.46400 51.79700 27.31600
C  23.74600 51.29400 27.49300
C  21.10900 52.47900 25.21900
C  21.87400 52.13300 28.59900
O  20.81500 52.71500 28.91800
C  22.89000 51.68000 29.70700
C  23.31900 52.84700 30.53000
O  24.25500 53.62400 30.28800
O  22.42700 53.11600 31.55700
C  22.91600 54.11900 32.49200
H  29.33700 49.05400 29.36800
H  28.67300 48.27800 22.97000
H  23.00900 51.24400 23.22100
H  25.44500 51.40900 31.26500
H  27.38000 49.05700 31.15800
H  28.87900 51.46100 30.81800
H  28.50000 50.52600 32.30200
H  27.46100 51.91000 31.71100
H  25.50400 48.36300 31.75400
H  24.05400 48.86300 30.87800
H  23.96400 48.65000 33.38900
H  23.29700 50.18600 32.62400
H  31.41200 47.26200 27.94000
H  31.18200 48.90100 28.66400
H  32.27000 48.71300 27.28900
H  32.79300 46.25100 24.35400
H  32.20900 46.45100 26.06600
H  33.17200 47.61600 25.32300
H  26.40000 48.19600 21.57500
H  24.95700 50.76500 21.38600
H  28.28500 50.16600 21.55000
H  26.95400 50.84000 20.67000
H  27.71300 49.19600 20.14800
H  23.77700 48.48200 20.56700
H  22.96900 49.35500 21.87000
H  22.95700 47.37100 23.07000
H  24.75400 47.23800 22.98900
H  23.77200 46.68500 21.71000
H  20.18100 52.14500 25.68200
H  21.12500 52.10300 24.19600
H  21.23100 53.56200 25.20800
H  22.45800 50.89200 30.32400
H  23.36500 54.98000 31.99800
H  23.59800 53.66600 33.21200
H  22.10800 54.54500 33.08700

