158

Mg 50.67300 45.30200 42.09900
C  47.75100 46.73000 40.64000
C  49.72300 42.32200 40.81900
C  53.78500 44.33400 42.43800
C  51.66000 48.74200 42.82000
N  48.97800 44.63100 40.76200
C  47.82400 45.29900 40.46000
C  46.81000 44.35400 39.75600
C  47.38800 42.89900 40.15300
C  48.76500 43.29800 40.72200
C  46.50500 42.05200 41.08700
C  46.73200 44.64900 38.20600
C  45.28000 44.88300 37.64200
H  44.86500 43.88600 36.53400
N  51.63000 43.47600 41.66500
C  51.08500 42.31900 41.14200
C  52.11400 41.32000 41.11400
C  53.30300 41.85500 41.55600
C  52.97900 43.28900 41.92100
C  51.78600 39.96800 40.61000
C  54.62300 41.04500 41.71000
O  54.71000 39.88800 41.34000
C  55.81600 41.66300 42.21500
N  52.43400 46.45500 42.47100
C  53.54400 45.69800 42.71200
C  54.82800 46.61900 43.10600
C  54.04200 48.00200 43.31000
C  52.62600 47.70600 42.87900
C  55.69100 46.07900 44.29300
C  54.76700 49.06500 42.41500
C  54.84700 50.64500 42.87100
N  49.83500 47.34200 41.93200
C  50.42400 48.55400 42.18400
C  49.56100 49.57900 41.76200
C  48.46100 48.88900 41.13300
C  48.66200 47.55900 41.25800
C  49.80500 51.08600 41.87000
C  47.21600 49.10100 40.41600
O  46.66500 50.14500 40.07900
C  46.62700 47.77000 40.15000
C  45.32000 47.60000 40.80100
O  45.07700 46.86100 41.74600
O  44.40400 48.36800 40.17900
C  43.10500 48.25900 40.87800
H  49.36400 41.33800 40.51100
H  54.84900 44.09900 42.36400
H  51.81800 49.76600 43.16500
H  45.79000 44.47800 40.12000
H  47.55300 42.20900 39.32600
H  45.48200 42.39900 40.94200
H  46.81400 42.15300 42.12700
H  46.42400 40.98200 40.89700
H  47.02100 43.73700 37.68300
H  47.27900 45.57300 38.01900
H  45.04400 45.90100 37.33400
H  44.50200 44.92400 38.40400
H  52.47100 39.65900 39.82100
H  50.81200 39.90400 40.12400
H  51.96500 39.23800 41.39900
H  55.68900 42.03900 43.23000
H  56.00900 42.49200 41.53500
H  56.72500 41.07200 42.09700
H  55.58800 46.60900 42.32400
H  54.13200 48.15200 44.38600
H  56.65200 45.68700 43.96000
H  55.13200 45.21500 44.65400
H  55.67600 46.78900 45.12000
H  54.25100 49.05400 41.45500
H  55.78800 48.76900 42.17400
H  54.60100 50.64000 43.93300
H  54.16400 51.25600 42.28000
H  55.82700 51.05400 42.62900
H  50.85300 51.38200 41.93300
H  49.37100 51.34300 42.83600
H  49.26200 51.50800 41.02400
H  46.49800 47.66700 39.07200
H  42.31000 48.70000 40.27600
H  43.11900 48.70900 41.87100
H  42.81400 47.22200 41.04800
Mg -4.85300 25.54600 26.57800
C  -3.75300 26.96200 29.57400
C  -6.64700 23.20600 28.45300
C  -5.26600 23.74100 23.84700
C  -2.72600 27.72900 24.78800
N  -4.99500 24.98600 28.73200
C  -4.55900 25.82800 29.84200
C  -5.13200 25.32000 31.13800
C  -5.72800 23.92900 30.76600
C  -5.83200 24.03000 29.22600
C  -4.89400 22.80800 31.30100
C  -6.16400 26.34200 31.80800
C  -6.50000 26.15500 33.31300
H  -5.96900 25.04400 34.29100
N  -5.97000 23.87800 26.17000
C  -6.66200 23.11300 27.07100
C  -7.53100 22.23200 26.32600
C  -7.11800 22.24700 24.96200
C  -6.06800 23.28500 24.94100
C  -8.69400 21.51500 26.89500
C  -7.70400 21.56900 23.75200
O  -7.11800 21.58200 22.67900
C  -9.01700 20.85600 23.80800
N  -4.24000 25.76900 24.55900
C  -4.49000 24.83500 23.60800
C  -3.84400 25.17800 22.25000
C  -3.22600 26.56100 22.59200
C  -3.47900 26.74700 24.07100
C  -2.86500 24.04800 21.86300
C  -3.68400 27.71700 21.69100
C  -3.04000 28.07400 20.35400
N  -3.49000 27.07400 27.01200
C  -2.62500 27.81400 26.17800
C  -1.91700 28.69300 27.04000
C  -2.32800 28.42600 28.36400
C  -3.30400 27.38500 28.28800
C  -0.81200 29.65100 26.57300
C  -2.19900 28.77800 29.78300
O  -1.55900 29.66300 30.30700
C  -3.11900 27.91900 30.60900
C  -2.37000 27.17400 31.64400
O  -1.63100 26.22700 31.44100
O  -2.74700 27.52500 32.86700
C  -2.27100 26.77600 33.98000
H  -7.18000 22.48000 29.07000
H  -5.46400 23.25400 22.89000
H  -2.03700 28.33800 24.20000
H  -4.33800 25.19000 31.87300
H  -6.71800 23.89900 31.22000
H  -4.05200 23.20800 31.86500
H  -4.46000 22.18800 30.51700
H  -5.48200 22.20300 31.99200
H  -7.08900 26.48600 31.25100
H  -5.65700 27.30100 31.70300
H  -7.58600 26.09800 33.38800
H  -6.23100 27.10800 33.76700
H  -9.46000 21.71600 26.14600
H  -8.98600 21.98600 27.83300
H  -8.58000 20.44100 27.04300
H  -9.78700 21.59200 24.04000
H  -8.91300 20.00200 24.47600
H  -9.35900 20.43900 22.86100
H  -4.54500 25.34300 21.43100
H  -2.14400 26.43900 22.54200
H  -3.00700 23.95100 20.78700
H  -3.12100 23.09700 22.32900
H  -1.80800 24.29500 21.96500
H  -3.52300 28.65000 22.23200
H  -4.75700 27.66200 21.50900
H  -2.26100 27.35200 20.10900
H  -2.85500 29.14300 20.24900
H  -3.72200 27.89100 19.52400
H  -0.65500 29.51400 25.50300
H  0.01800 29.39800 27.23300
H  -1.23800 30.62100 26.82800
H  -3.88600 28.57700 31.01600
H  -1.89100 27.41300 34.77900
H  -1.48200 26.10800 33.63300
H  -3.10500 26.21800 34.40500

