158

Mg 2.17000 7.58400 26.34500
C  2.38000 9.80400 29.03800
C  2.31800 4.96000 28.50300
C  2.20400 5.54800 23.59600
C  2.48800 10.37300 24.19300
N  2.46100 7.40200 28.54100
C  2.37500 8.44600 29.43700
C  2.04800 7.89700 30.83600
C  2.44000 6.37100 30.64600
C  2.33600 6.19700 29.16300
C  3.79600 5.87200 31.11300
C  0.60600 8.14200 31.42500
C  0.50100 8.41100 32.95700
H  1.69200 7.89600 33.81900
N  2.23600 5.52700 26.11500
C  2.23500 4.57300 27.12600
C  2.15000 3.27700 26.57300
C  2.09100 3.43300 25.15800
C  2.24800 4.86400 24.88600
C  1.93800 2.01700 27.48900
C  2.04900 2.37100 24.11700
O  2.08900 2.59400 22.92400
C  1.99200 0.86900 24.62500
N  2.29100 7.91800 24.25800
C  2.30900 6.92500 23.31200
C  2.37400 7.41600 21.87000
C  2.46500 8.97700 22.04300
C  2.32700 9.11000 23.61500
C  3.42800 6.71800 21.07100
C  1.28200 9.73500 21.36300
C  1.61600 10.64200 20.23800
N  2.36000 9.66400 26.51700
C  2.52000 10.60200 25.57000
C  2.55600 11.94400 26.15800
C  2.51900 11.69100 27.56900
C  2.46300 10.27900 27.70500
C  2.36400 13.29600 25.52500
C  2.35200 12.25800 28.94400
O  2.30100 13.42800 29.29500
C  2.27000 11.06600 29.88600
C  3.39000 11.02500 30.90900
O  4.58300 11.00600 30.70800
O  2.81200 11.11600 32.14100
C  3.76800 11.22100 33.23500
H  2.39700 4.18400 29.26700
H  2.15900 4.93800 22.69200
H  2.44500 11.24300 23.53300
H  2.80100 8.27100 31.53100
H  1.68000 5.71900 31.07600
H  4.41400 5.59500 30.25900
H  3.53800 5.04300 31.77200
H  4.32900 6.56800 31.75900
H  -0.08900 7.32000 31.25400
H  0.23900 9.10900 31.08100
H  -0.38200 7.88200 33.31600
H  0.47400 9.48700 33.13200
H  2.89200 1.49000 27.44900
H  0.99700 1.58500 27.14800
H  1.78400 2.34600 28.51600
H  2.96900 0.66400 25.06300
H  1.79800 0.22900 23.76500
H  1.08000 0.74800 25.20900
H  1.39800 7.14600 21.46500
H  3.43000 9.37300 21.72600
H  4.10400 6.32900 21.83300
H  3.93200 7.40800 20.39500
H  3.03500 5.97900 20.37300
H  0.74500 10.37200 22.06600
H  0.58600 9.04400 20.88700
H  1.04100 10.44800 19.33200
H  2.68100 10.52300 20.04000
H  1.27100 11.65200 20.45800
H  1.60600 13.95000 25.95700
H  2.18500 13.11200 24.46500
H  3.25200 13.92700 25.56700
H  1.36900 11.09000 30.49900
H  3.98400 12.28900 33.24300
H  4.69100 10.67800 33.03000
H  3.40900 11.04300 34.24900
Mg 17.45300 -2.91200 28.11000
C  16.47700 -0.83000 30.73800
C  19.56500 -4.56300 30.12800
C  18.87600 -4.23400 25.33500
C  15.60500 -0.74600 25.88600
N  17.98400 -2.62000 30.19000
C  17.38200 -1.79100 31.13400
C  17.95700 -2.00700 32.49900
C  19.06500 -3.06600 32.17400
C  18.90300 -3.44300 30.72800
C  20.55700 -2.60400 32.47800
C  16.86700 -2.46600 33.59000
C  17.03500 -2.08300 35.03400
H  18.46000 -1.67800 35.51800
N  18.93100 -4.35300 27.82800
C  19.65900 -4.96600 28.73800
C  20.40800 -6.06600 28.17300
C  20.23900 -5.96400 26.71200
C  19.31700 -4.78900 26.55300
C  21.24500 -7.11400 28.96100
C  20.83200 -6.69200 25.54500
O  20.65600 -6.40200 24.34900
C  21.57100 -7.91500 25.88000
N  17.18600 -2.60200 26.01000
C  17.90100 -3.27200 25.12500
C  17.51800 -2.87600 23.64400
C  16.31900 -1.92200 23.86600
C  16.29500 -1.80900 25.34800
C  18.63300 -2.31600 22.74400
C  14.86900 -2.24100 23.30900
C  13.97800 -1.04100 22.72100
N  16.18200 -1.23700 28.26900
C  15.57300 -0.46700 27.29800
C  14.89900 0.72200 27.91700
C  15.24900 0.64700 29.26800
C  15.98900 -0.56900 29.45200
C  14.34600 1.93400 27.18300
C  15.14600 1.27000 30.60400
O  14.40700 2.18200 30.92000
C  15.80600 0.31100 31.59900
C  16.63500 1.17000 32.47200
O  17.68500 1.67300 32.23100
O  15.98100 1.31600 33.70100
C  16.52800 2.36500 34.58300
H  20.25800 -5.15500 30.73000
H  19.27500 -4.60000 24.38700
H  15.00100 -0.15000 25.19900
H  18.41700 -1.07500 32.82600
H  18.98100 -3.92400 32.84200
H  20.96600 -3.18700 33.30300
H  20.59400 -1.58100 32.85200
H  21.16000 -2.72100 31.57700
H  16.84200 -3.54900 33.47200
H  15.86000 -2.18100 33.28600
H  16.80700 -2.95300 35.65000
H  16.35500 -1.26900 35.28500
H  21.39200 -6.71800 29.96600
H  22.15000 -7.40600 28.42700
H  20.59600 -7.98800 29.01100
H  22.63400 -7.78100 26.08000
H  21.46800 -8.56500 25.01100
H  21.05300 -8.46900 26.66200
H  16.98200 -3.72600 23.22200
H  16.61800 -0.90400 23.61800
H  18.30900 -1.44200 22.17900
H  18.87000 -3.02000 21.94600
H  19.56700 -2.08000 23.25400
H  14.31200 -2.66800 24.14300
H  15.05600 -3.00300 22.55200
H  13.09400 -0.76200 23.29300
H  13.84000 -1.30200 21.67100
H  14.51300 -0.09200 22.73800
H  13.94200 1.61200 26.22300
H  15.16700 2.64900 27.14500
H  13.47600 2.28100 27.74100
H  15.00600 -0.15400 32.17500
H  16.23500 2.15700 35.61300
H  16.15700 3.35200 34.30800
H  17.61400 2.31000 34.65300

