158

Mg 54.69400 25.00900 44.78300
C  52.35300 27.40700 43.64000
C  52.59400 22.64200 43.72800
C  57.34100 23.02900 44.86200
C  56.62200 27.75100 45.94900
N  52.87200 25.15400 43.45300
C  52.08800 26.17500 43.00100
C  50.75700 25.71100 42.31100
C  50.74600 24.28200 42.98400
C  52.23000 23.96600 43.40700
C  49.69400 24.05900 44.13400
C  50.73400 25.77000 40.76400
C  51.79300 26.45100 39.93600
H  52.89400 25.62000 39.25200
N  54.94400 23.03800 44.33300
C  53.91100 22.18600 44.06200
C  54.43100 20.79700 44.21400
C  55.80500 20.83800 44.52600
C  56.13600 22.35000 44.54500
C  53.57500 19.66000 43.91300
C  56.77100 19.68900 44.74000
O  56.33400 18.57700 44.77300
C  58.11000 19.86700 45.07800
N  56.69000 25.38700 45.20400
C  57.61700 24.37100 45.17000
C  59.07700 24.89400 45.55200
C  58.70700 26.27800 46.19600
C  57.26600 26.51600 45.79500
C  59.97500 23.96700 46.43100
C  59.73600 27.44700 45.89500
C  60.48800 27.98700 47.01100
N  54.50200 27.09300 44.93000
C  55.31300 28.02800 45.58300
C  54.63800 29.34400 45.61300
C  53.51100 29.08600 44.84100
C  53.43000 27.74100 44.47600
C  55.09100 30.57200 46.24700
C  52.32000 29.71800 44.40800
O  51.90300 30.85000 44.49400
C  51.47600 28.66900 43.70600
C  51.17600 29.16800 42.32400
O  51.91100 29.65300 41.51100
O  49.81500 28.89000 42.08700
C  49.06900 29.53900 41.01900
H  51.85300 21.89000 43.44900
H  58.21300 22.37200 44.83800
H  57.27400 28.54900 46.31000
H  49.98400 26.35500 42.73200
H  50.62800 23.56400 42.17300
H  50.19300 23.57100 44.97100
H  48.90800 23.40500 43.75800
H  49.35400 25.05400 44.42200
H  49.72500 26.13900 40.58100
H  50.59400 24.75100 40.40100
H  52.29200 27.14100 40.61600
H  51.26300 27.02100 39.17300
H  54.11100 18.79500 44.30500
H  53.15300 19.40200 42.94200
H  52.69700 19.71100 44.55700
H  58.43200 18.92100 45.51400
H  58.25500 20.59200 45.87800
H  58.59200 20.13300 44.13700
H  59.65000 25.14300 44.65900
H  58.59000 26.15300 47.27200
H  61.02300 24.20500 46.24600
H  59.67900 22.93100 46.26800
H  59.65500 24.06300 47.46800
H  59.32500 28.25700 45.29300
H  60.51400 27.06100 45.23600
H  61.51400 27.62700 47.08200
H  60.06100 27.74600 47.98400
H  60.40300 29.07300 47.00300
H  55.26400 30.37700 47.30500
H  54.32900 31.33700 46.09300
H  55.98000 30.82800 45.67000
H  50.52800 28.57000 44.23500
H  49.40100 29.30600 40.00700
H  49.03700 30.57300 41.36300
H  48.04300 29.18100 41.10600
Mg 30.77300 58.57000 40.65500
C  28.17700 56.63300 39.64500
C  33.00600 56.03200 39.54300
C  33.38800 60.73000 40.84900
C  28.52100 61.29100 41.12300
N  30.61900 56.61400 39.69400
C  29.42500 55.98800 39.48400
C  29.53100 54.55000 38.92300
C  31.04900 54.38300 39.10600
C  31.62300 55.77300 39.54400
C  31.52900 53.16900 40.10000
C  29.10700 54.47200 37.33000
C  28.03700 53.46600 36.84300
H  27.15500 53.94200 35.69700
N  32.93200 58.39200 40.24500
C  33.61600 57.29300 39.82300
C  35.01900 57.59500 39.72600
C  35.18000 58.96900 40.18300
C  33.80300 59.47400 40.42200
C  36.02500 56.53200 39.17300
C  36.54300 59.69600 40.36300
O  37.58100 59.26600 39.94700
C  36.60700 60.99400 40.97100
N  30.92600 60.70600 40.76900
C  32.09300 61.32900 41.07000
C  31.90400 62.84300 41.27700
C  30.39400 62.95700 41.60000
C  29.87700 61.60100 41.03100
C  32.91600 63.54700 42.18600
C  29.66100 64.16800 40.90000
C  28.51100 64.70900 41.64400
N  28.71800 58.88100 40.66100
C  27.92300 60.02400 40.85100
C  26.51700 59.63100 40.69500
C  26.60000 58.26900 40.21900
C  27.96200 57.93700 40.18600
C  25.25800 60.50900 40.83100
C  25.75900 57.18300 39.75800
O  24.54100 57.07400 39.59900
C  26.73900 56.01100 39.44500
C  26.34700 54.88800 40.35300
O  26.88700 54.57200 41.42300
O  25.19600 54.33700 39.86300
C  24.61800 53.33900 40.77500
H  33.64700 55.18600 39.28600
H  34.16800 61.48000 40.99600
H  27.74900 62.03400 41.33500
H  28.90400 53.90100 39.53600
H  31.53300 54.15100 38.15700
H  30.67800 52.97400 40.75200
H  32.43900 53.46800 40.62100
H  31.73000 52.29800 39.47700
H  30.06200 54.28100 36.84100
H  28.73400 55.37600 36.84800
H  27.45300 53.23800 37.73500
H  28.44400 52.50300 36.53500
H  36.66800 56.88200 38.36500
H  35.57000 55.60300 38.82700
H  36.73600 56.18200 39.92200
H  36.03700 60.86800 41.89200
H  36.16600 61.74000 40.31000
H  37.58300 61.34500 41.30600
H  31.99800 63.25000 40.27100
H  30.25100 62.89600 42.67900
H  33.48000 64.34500 41.70300
H  33.53700 62.86600 42.76700
H  32.36200 64.07100 42.96400
H  29.31500 63.76500 39.94900
H  30.27900 65.01500 40.60200
H  28.94200 65.60000 42.10000
H  28.29700 64.06900 42.50000
H  27.62200 64.96500 41.06800
H  24.98800 60.91900 39.85800
H  25.50300 61.36100 41.46500
H  24.39300 60.02000 41.28000
H  26.38900 55.77400 38.44100
H  25.32900 52.67300 41.26400
H  23.90900 52.71400 40.23300
H  24.15600 53.85500 41.61700

