158

Mg -2.38000 16.99700 27.56400
C  -2.76200 14.96400 30.34300
C  -2.85300 19.76200 29.60600
C  -2.53800 19.03900 24.69900
C  -2.71500 14.24800 25.41700
N  -2.96600 17.30500 29.76900
C  -2.84200 16.33500 30.74100
C  -2.88000 16.98700 32.14900
C  -3.15600 18.44600 31.88600
C  -2.97900 18.56800 30.36400
C  -4.49300 19.02400 32.33000
C  -1.61400 16.65200 32.99600
C  -1.21100 17.61200 34.16700
H  -0.83400 16.78400 35.47200
N  -2.47900 19.13200 27.23400
C  -2.67400 20.05300 28.19100
C  -2.69700 21.37700 27.54300
C  -2.33400 21.16000 26.16100
C  -2.44900 19.69900 25.96000
C  -3.01500 22.58000 28.37900
C  -2.11400 22.14000 25.02100
O  -2.01300 21.85500 23.86700
C  -1.99100 23.60000 25.45200
N  -2.59200 16.65700 25.37500
C  -2.65100 17.61700 24.39800
C  -2.77900 17.00000 23.01000
C  -2.62100 15.47100 23.23100
C  -2.62600 15.45500 24.72400
C  -4.03500 17.44200 22.26100
C  -1.41900 14.99900 22.40300
C  -0.09400 14.68900 23.17900
N  -2.67400 15.01000 27.79300
C  -2.70400 13.97500 26.90500
C  -2.80700 12.69600 27.50400
C  -2.63000 13.03400 28.81900
C  -2.66300 14.44500 28.99400
C  -3.03000 11.38600 26.95400
C  -2.59300 12.47800 30.16400
O  -2.54800 11.30400 30.56000
C  -2.66200 13.67900 31.24500
C  -1.68000 13.51000 32.23600
O  -0.51600 13.82300 32.14500
O  -2.23700 13.05900 33.46500
C  -1.39400 12.88700 34.67700
H  -2.98200 20.58700 30.30900
H  -2.48100 19.64100 23.79000
H  -2.72500 13.35900 24.78200
H  -3.68600 16.64200 32.79700
H  -2.48200 19.14800 32.37700
H  -5.23400 18.32300 32.71400
H  -4.98700 19.58400 31.53500
H  -4.39300 19.73100 33.15300
H  -0.71100 16.47900 32.41000
H  -1.78100 15.70700 33.51300
H  -2.12800 18.08100 34.52300
H  -0.42600 18.34600 33.98400
H  -2.14700 23.22300 28.53000
H  -3.45600 22.32100 29.34200
H  -3.77200 23.08900 27.78300
H  -2.05100 24.13200 24.50300
H  -1.19500 23.85800 26.15100
H  -2.94300 23.79800 25.94500
H  -1.91000 17.35300 22.45500
H  -3.53900 14.95400 22.95100
H  -4.74800 17.90100 22.94600
H  -4.39000 16.59900 21.66800
H  -3.88500 18.19200 21.48400
H  -1.12600 15.59500 21.53900
H  -1.74900 14.03300 22.02200
H  -0.11500 14.95600 24.23500
H  0.64100 15.27500 22.62700
H  0.24100 13.65600 23.08100
H  -2.36400 10.66600 27.43000
H  -2.88900 11.27800 25.87800
H  -4.02400 11.10300 27.30100
H  -3.57500 13.71700 31.83900
H  -1.79700 13.47500 35.50200
H  -0.33600 13.13900 34.59500
H  -1.41900 11.82700 34.92900
Mg 42.77900 42.30900 27.01600
C  41.75000 44.45200 29.67600
C  43.68900 40.13200 29.52400
C  44.40800 40.51500 24.55100
C  42.50000 44.97400 24.75400
N  42.73000 42.29200 29.40100
C  42.12000 43.23200 30.20400
C  42.00800 42.73200 31.64300
C  42.82100 41.31700 31.57800
C  43.11000 41.21200 30.11200
C  44.10300 41.26500 32.60400
C  40.52900 42.61400 32.11000
C  40.07900 43.45000 33.28200
H  39.46300 42.75100 34.51100
N  43.83500 40.57400 27.07200
C  44.04100 39.76100 28.21000
C  44.68100 38.56400 27.70900
C  44.99300 38.77600 26.28800
C  44.42400 40.02500 25.91500
C  44.98700 37.35900 28.57200
C  45.81400 37.85600 25.37100
O  46.26100 38.20800 24.28000
C  46.28300 36.50500 25.84000
N  43.18500 42.58800 24.91900
C  43.84400 41.68600 24.06700
C  43.97900 42.22200 22.66200
C  43.19900 43.63200 22.72400
C  42.88800 43.75000 24.20000
C  45.41100 42.40500 22.13000
C  41.90500 43.71900 21.85400
C  40.98800 42.48300 21.77600
N  42.18600 44.28200 27.15300
C  42.13800 45.25500 26.11000
C  41.56700 46.43600 26.72300
C  41.33600 46.16600 28.04300
C  41.77700 44.84100 28.28600
C  41.21500 47.64700 25.96700
C  40.87800 46.71900 29.25100
O  40.34000 47.77100 29.41700
C  41.06800 45.59400 30.43600
C  41.90700 46.22700 31.42500
O  43.04100 46.46000 31.34800
O  41.06700 46.82500 32.39300
C  41.60000 47.88300 33.20200
H  43.93100 39.32200 30.21500
H  44.82800 40.02900 23.66900
H  42.26500 45.80100 24.08000
H  42.46000 43.57200 32.17100
H  42.18800 40.47800 31.86600
H  44.08800 42.05000 33.35900
H  44.96900 41.32400 31.94500
H  44.13000 40.27300 33.05500
H  40.31900 41.59400 32.43200
H  39.98500 42.78500 31.18100
H  39.19000 43.91500 32.85800
H  40.78200 44.22500 33.58900
H  44.35100 37.34300 29.45700
H  46.03600 37.27100 28.85700
H  44.90400 36.41400 28.03500
H  46.97200 36.01800 25.15100
H  45.45500 35.82200 26.03000
H  46.90900 36.61200 26.72600
H  43.42700 41.53500 22.02000
H  43.86500 44.40400 22.33900
H  45.62300 43.45400 21.92200
H  45.56800 41.82000 21.22300
H  46.10300 42.12500 22.92400
H  42.30900 43.84800 20.84900
H  41.30900 44.61800 22.00800
H  41.08700 41.63700 22.45700
H  40.98800 41.92800 20.83700
H  39.94900 42.80900 21.82100
H  41.16300 48.47200 26.67600
H  40.24400 47.58800 25.47500
H  42.01700 47.91800 25.28000
H  40.06000 45.36400 30.78300
H  42.11600 47.31500 33.97600
H  40.85900 48.57900 33.59500
H  42.32200 48.51500 32.68400

