158

Mg 35.47800 48.13200 24.78300
C  36.28000 46.55800 27.87200
C  34.48300 50.91400 26.57700
C  34.41600 49.46500 21.88200
C  36.65400 45.29100 23.20700
N  35.36100 48.63300 27.05600
C  35.74500 47.84700 28.08500
C  35.46700 48.61900 29.37400
C  34.76400 49.95300 29.00300
C  34.88600 49.86600 27.46000
C  33.23400 50.04400 29.40900
C  36.72900 48.88600 30.22700
C  36.73900 48.70500 31.85800
H  35.34800 48.66200 32.50400
N  34.61700 49.95200 24.30100
C  34.33700 51.00200 25.15500
C  33.69200 52.04000 24.47400
C  33.46500 51.61000 23.12700
C  34.20300 50.35300 22.99100
C  33.39300 53.34100 25.10400
C  32.63100 52.23200 22.05400
O  32.45600 51.78400 20.94700
C  31.88500 53.55100 22.37200
N  35.32000 47.42700 22.87200
C  34.98200 48.18400 21.76400
C  35.52200 47.59200 20.48200
C  36.40800 46.40800 20.86200
C  36.21200 46.37100 22.40800
C  34.35100 47.20600 19.48500
C  37.90400 46.30800 20.44800
C  39.09900 46.80700 21.30400
N  36.32300 46.24700 25.35500
C  36.69700 45.17600 24.67900
C  37.11500 44.15300 25.47800
C  36.91200 44.59800 26.83500
C  36.42900 45.91400 26.65600
C  37.73600 42.94500 24.94700
C  37.06300 44.27100 28.23200
O  37.41600 43.25400 28.83300
C  36.44300 45.52300 28.96400
C  35.17200 45.10000 29.59800
O  34.04300 45.34800 29.08300
O  35.42400 44.67900 30.80900
C  34.24800 44.44600 31.62900
H  34.37400 51.85700 27.11700
H  34.10800 49.89600 20.92700
H  37.14500 44.40500 22.79900
H  34.74500 47.96500 29.86400
H  35.22100 50.88700 29.33000
H  33.21400 50.89300 30.09200
H  32.95900 49.15300 29.97400
H  32.65500 50.21000 28.50100
H  37.16300 49.88600 30.19000
H  37.52900 48.22800 29.88900
H  37.22800 49.56700 32.31100
H  37.40400 47.84900 31.97300
H  33.76300 54.13800 24.45900
H  33.85900 53.55800 26.06500
H  32.33500 53.47100 25.32800
H  32.52400 54.42200 22.51600
H  31.27900 53.46800 23.27400
H  31.26600 53.79900 21.50900
H  36.13100 48.37500 20.02900
H  36.01600 45.44100 20.54800
H  34.19400 47.99300 18.74800
H  33.44600 47.14000 20.08800
H  34.67000 46.31900 18.93600
H  37.84100 46.88900 19.52800
H  38.14800 45.29800 20.11700
H  39.59500 47.65300 20.82800
H  39.87700 46.07200 21.51400
H  38.75400 47.25300 22.23700
H  37.86400 42.23900 25.76800
H  38.76300 43.19500 24.68200
H  37.13900 42.62800 24.09200
H  37.08400 45.86900 29.77500
H  33.66600 43.70800 31.07600
H  33.71300 45.39300 31.70200
H  34.47400 44.02700 32.60900
Mg -10.08800 38.68100 40.88200
C  -8.53200 35.58900 40.07300
C  -7.41700 40.24300 39.09500
C  -11.94200 41.42600 40.58500
C  -12.94100 36.84300 41.80200
N  -8.14400 38.01900 39.82900
C  -7.76000 36.69200 39.64400
C  -6.39400 36.58400 38.82600
C  -6.00200 38.10100 38.64100
C  -7.29100 38.85400 39.16100
C  -4.69600 38.62400 39.42600
C  -6.45000 35.87500 37.49800
C  -7.73900 35.97600 36.55000
H  -7.48300 36.37500 35.15100
N  -9.62400 40.65100 40.25000
C  -8.52700 41.06600 39.52900
C  -8.69100 42.41900 39.22000
C  -10.07200 42.77600 39.55900
C  -10.61300 41.58000 40.12900
C  -7.58900 43.16700 38.54700
C  -10.70600 44.13500 39.26100
O  -10.05200 44.94000 38.73200
C  -12.22000 44.38300 39.53900
N  -12.28200 39.04000 41.04300
C  -12.66100 40.31100 41.04100
C  -14.18000 40.52900 41.31600
C  -14.58900 39.02600 41.81200
C  -13.17500 38.25900 41.58000
C  -14.48800 41.57200 42.44700
C  -15.73200 38.47400 40.86300
C  -16.87200 37.74800 41.54400
N  -10.59300 36.73200 41.11300
C  -11.81200 36.13100 41.48900
C  -11.62100 34.68200 41.54300
C  -10.39800 34.45400 40.90700
C  -9.77700 35.71400 40.75300
C  -12.63100 33.53300 42.00100
C  -9.51700 33.36800 40.36500
O  -9.74900 32.14800 40.32400
C  -8.30200 34.11300 39.76700
C  -7.02600 33.68800 40.45800
O  -6.82400 33.85300 41.64300
O  -6.28500 32.98000 39.63300
C  -5.05000 32.27200 40.08900
H  -6.59900 40.83400 38.68000
H  -12.48800 42.36600 40.68400
H  -13.82500 36.22000 41.95400
H  -5.68100 36.14400 39.52300
H  -5.93100 38.33300 37.57800
H  -4.42300 37.87800 40.17200
H  -4.96800 39.52000 39.98400
H  -3.85600 38.84700 38.76700
H  -6.43200 34.80000 37.67500
H  -5.47900 36.10500 37.05700
H  -8.34000 36.77500 36.98300
H  -8.27000 35.02400 36.52500
H  -7.58700 44.23800 38.74900
H  -7.46300 42.92500 37.49200
H  -6.61900 42.93900 38.98900
H  -12.48500 44.60400 40.57300
H  -12.80100 43.55500 39.13300
H  -12.53600 45.24500 38.95000
H  -14.71400 40.73200 40.38800
H  -14.88300 38.92400 42.85700
H  -14.63200 42.51100 41.91300
H  -13.53800 41.79300 42.93300
H  -15.21000 41.39000 43.24300
H  -15.35300 37.71500 40.17800
H  -16.25600 39.24500 40.29800
H  -17.55700 37.50200 40.73200
H  -17.30500 38.34200 42.35000
H  -16.52100 36.80100 41.95400
H  -12.79000 33.57400 43.07800
H  -12.34900 32.50600 41.76600
H  -13.65800 33.66600 41.66200
H  -8.20000 33.93100 38.69800
H  -5.10200 31.67700 41.00000
H  -4.26300 32.99000 40.32100
H  -4.71000 31.64100 39.26800

