158

Mg 45.34200 4.15700 47.36000
C  43.44600 6.96100 46.85400
C  42.59900 2.21100 46.58100
C  47.34900 1.29000 47.26000
C  48.22600 6.13000 47.20200
N  43.28700 4.57300 46.73000
C  42.71600 5.81500 46.65900
C  41.25200 5.74000 46.37900
C  40.95000 4.24200 46.58700
C  42.34400 3.63000 46.59800
C  40.13100 3.93100 47.81000
C  40.97600 6.21700 44.89900
C  40.19000 7.48200 44.76200
H  40.42300 8.28800 43.53800
N  44.94600 2.05800 47.07800
C  43.76000 1.47700 46.77200
C  43.90000 0.03400 46.70500
C  45.25700 -0.22100 46.91100
C  45.97300 1.08100 47.04100
C  42.77200 -0.93900 46.52000
C  45.86000 -1.63700 46.92400
O  45.11600 -2.60300 46.82200
C  47.36700 -1.86100 46.90900
N  47.48500 3.78200 47.21600
C  48.03400 2.55700 47.36000
C  49.52900 2.61600 47.36200
C  49.82400 4.16000 47.35600
C  48.43300 4.74800 47.22900
C  50.14000 1.81800 48.58000
C  50.83800 4.69700 46.17200
C  52.35700 4.88600 46.61900
N  45.77900 6.23800 47.05200
C  47.01100 6.86800 47.12800
C  46.77000 8.27000 47.21400
C  45.35700 8.35800 47.14100
C  44.84200 7.08500 47.07100
C  47.72600 9.37000 47.19400
C  44.21900 9.26500 47.08900
O  44.26200 10.50700 47.13400
C  42.97300 8.44800 46.82200
C  41.98200 8.69400 47.88600
O  41.75800 7.93600 48.80500
O  41.24400 9.78200 47.55700
C  39.98400 9.99600 48.28900
H  41.74300 1.58400 46.32300
H  47.95500 0.39600 47.41700
H  49.15700 6.69800 47.25200
H  40.72700 6.38000 47.08700
H  40.48000 3.73500 45.74500
H  39.33100 4.65700 47.95300
H  40.72000 3.80700 48.71900
H  39.47400 3.07800 47.63800
H  40.55700 5.44100 44.25900
H  41.94500 6.43400 44.44900
H  40.31000 8.14300 45.62000
H  39.16900 7.11300 44.66400
H  43.01200 -1.75300 45.83600
H  41.94400 -0.55700 45.92100
H  42.33800 -1.23200 47.47500
H  47.64900 -2.89000 46.68600
H  47.71100 -1.90400 47.94300
H  48.06900 -1.23900 46.35300
H  49.81000 2.23500 46.38100
H  50.26300 4.44400 48.31300
H  49.37000 1.72400 49.34500
H  50.95600 2.39100 49.02100
H  50.54600 0.87700 48.20800
H  50.33900 5.53900 45.69100
H  50.75600 3.94300 45.38800
H  52.76800 5.81700 46.22900
H  52.89500 4.09000 46.10500
H  52.53300 4.77200 47.68900
H  48.29200 9.35200 46.26300
H  48.47700 9.15200 47.95400
H  47.17700 10.27400 47.45600
H  42.53400 8.64800 45.84500
H  40.14200 10.74300 49.06600
H  39.45600 9.16100 48.75100
H  39.39500 10.51000 47.53000
Mg 16.71200 51.86700 26.38400
C  18.45700 50.39100 29.14500
C  14.18100 52.74800 28.57400
C  15.08700 53.07000 23.78200
C  19.16600 50.48500 24.30300
N  16.33700 51.44400 28.61300
C  17.28100 51.01500 29.49200
C  16.91400 51.37400 30.90500
C  15.41100 51.78100 30.73700
C  15.24200 52.03800 29.21900
C  14.42300 50.67700 31.22300
C  17.87300 52.43400 31.50800
C  18.18300 52.25800 33.05800
H  17.08000 51.69600 33.88800
N  14.83200 52.73400 26.15700
C  13.96600 53.06700 27.15500
C  12.87600 53.84100 26.61000
C  13.10100 53.95400 25.26600
C  14.35200 53.22300 24.92700
C  11.76800 54.33600 27.47600
C  12.25700 54.61400 24.15800
O  12.71000 54.79900 23.04100
C  10.85500 55.21200 24.57100
N  16.99000 51.67400 24.27500
C  16.22800 52.35200 23.40600
C  16.85700 52.35700 21.93500
C  18.19600 51.58900 22.16700
C  18.09900 51.18600 23.61700
C  16.13400 51.50800 20.84800
C  19.47900 52.28300 21.81600
C  20.61800 51.46200 21.19700
N  18.43000 50.70000 26.56500
C  19.38600 50.21600 25.65600
C  20.41000 49.42400 26.25100
C  20.09000 49.56000 27.66300
C  18.88100 50.26800 27.75900
C  21.54300 48.73500 25.51600
C  20.53300 49.20600 28.98100
O  21.50800 48.54900 29.32200
C  19.60000 49.86100 30.01900
C  19.21000 48.81500 30.98700
O  18.51400 47.84400 30.80400
O  19.69300 49.20200 32.22000
C  19.32600 48.43700 33.38900
H  13.39900 53.20500 29.18400
H  14.62300 53.46100 22.87400
H  20.05800 50.15300 23.76700
H  17.08600 50.48900 31.51800
H  15.29500 52.75300 31.21600
H  13.47200 51.07700 31.57300
H  14.89500 50.08600 32.00800
H  14.24200 50.02800 30.36600
H  17.35300 53.39100 31.47400
H  18.73400 52.51900 30.84500
H  18.33700 53.25700 33.46700
H  19.16800 51.79400 33.10200
H  10.91200 53.70400 27.23900
H  11.53900 55.34000 27.11800
H  12.00300 54.31500 28.54000
H  10.20300 55.34400 23.70800
H  10.94300 56.11900 25.17000
H  10.26100 54.48200 25.12000
H  16.97700 53.39900 21.63600
H  18.27600 50.62800 21.65900
H  15.63200 50.59800 21.17700
H  16.80700 51.28400 20.02100
H  15.36400 52.08100 20.33200
H  19.81300 52.70100 22.76500
H  19.35100 53.14400 21.15900
H  20.32500 50.50200 20.77100
H  21.30200 51.29100 22.02800
H  21.13400 52.10600 20.48600
H  21.41300 47.66400 25.35900
H  22.41000 49.04100 26.10100
H  21.65700 49.09700 24.49400
H  20.07600 50.68000 30.55700
H  18.23700 48.42700 33.33800
H  19.63400 48.87900 34.33600
H  19.57200 47.38000 33.28400

