158

Mg -2.46600 17.26800 26.01700
C  -2.68500 14.91200 28.60500
C  -2.98500 19.64600 28.45000
C  -2.65600 19.39600 23.61300
C  -2.52600 14.58100 23.71200
N  -2.80200 17.23800 28.33100
C  -2.66500 16.21100 29.09200
C  -2.80000 16.56600 30.63300
C  -2.89800 18.13900 30.54200
C  -3.04500 18.35900 29.03500
C  -4.02500 18.71700 31.45500
C  -1.66500 15.93100 31.50100
C  -1.10700 16.72800 32.60100
H  -0.58100 15.94000 33.81500
N  -2.69000 19.21200 25.95700
C  -2.78500 20.04200 27.07400
C  -2.74500 21.44300 26.62400
C  -2.54300 21.41200 25.20500
C  -2.64700 20.00500 24.81600
C  -2.80600 22.62700 27.53800
C  -2.31600 22.62200 24.19300
O  -2.35300 22.41400 23.01000
C  -1.96800 23.97700 24.70900
N  -2.50000 16.95500 23.89800
C  -2.70300 18.08900 23.12900
C  -2.67600 17.73400 21.64100
C  -2.70700 16.16100 21.61300
C  -2.64300 15.86500 23.15700
C  -3.66400 18.34700 20.63200
C  -1.57000 15.50800 20.81100
C  -1.96200 14.74000 19.57600
N  -2.47900 15.18700 26.07900
C  -2.51300 14.17600 25.09800
C  -2.78200 12.93700 25.66300
C  -2.82800 13.11100 27.02300
C  -2.61800 14.51000 27.25200
C  -2.78100 11.65800 24.99200
C  -3.08000 12.46600 28.37400
O  -3.37400 11.31100 28.74800
C  -2.98400 13.61500 29.40700
C  -1.91100 13.08800 30.29800
O  -0.68500 13.30800 30.13400
O  -2.52300 12.38500 31.31900
C  -1.58300 12.06600 32.40900
H  -2.94900 20.43600 29.20300
H  -2.67700 20.06000 22.74600
H  -2.62300 13.78400 22.97200
H  -3.79100 16.37900 31.04600
H  -1.92100 18.54200 30.80900
H  -3.71500 18.70200 32.50000
H  -4.96800 18.19000 31.31200
H  -4.29900 19.75800 31.28400
H  -0.94100 15.62300 30.74600
H  -2.04500 15.02200 31.96800
H  -1.93200 17.36900 32.91100
H  -0.26800 17.35300 32.29500
H  -3.64500 23.27500 27.28500
H  -1.95100 23.28300 27.37200
H  -2.94000 22.32300 28.57600
H  -1.82100 24.73600 23.94000
H  -1.03700 23.82200 25.25500
H  -2.71100 24.22800 25.46600
H  -1.74900 18.11300 21.21100
H  -3.58800 15.74300 21.12600
H  -4.34800 17.54600 20.35300
H  -3.17300 18.77100 19.75600
H  -4.23900 19.13000 21.12800
H  -1.16700 14.77700 21.51200
H  -0.69400 16.07200 20.49000
H  -2.20000 13.72100 19.88200
H  -1.26100 14.70800 18.74200
H  -2.87500 15.13800 19.13400
H  -1.82300 11.43600 24.52300
H  -3.61000 11.48100 24.30600
H  -2.76300 10.86000 25.73400
H  -3.88900 13.75200 30.00000
H  -1.55800 11.03500 32.76200
H  -1.81300 12.76900 33.21000
H  -0.51500 12.19000 32.22500
Mg -6.07600 25.34700 25.61000
C  -4.22800 26.42500 28.25200
C  -7.31200 22.79400 27.79700
C  -7.70400 23.98200 23.01600
C  -4.06800 27.08800 23.40300
N  -5.85000 24.69500 27.74600
C  -5.12200 25.40900 28.59900
C  -5.35200 25.01900 30.00500
C  -6.06100 23.60600 29.79500
C  -6.37200 23.67200 28.33500
C  -5.36700 22.32600 30.19800
C  -6.15800 26.08700 30.81000
C  -6.69900 25.61900 32.18900
H  -5.77200 24.70100 33.06700
N  -7.46900 23.72900 25.47500
C  -7.76800 22.80000 26.44800
C  -8.77800 21.93700 25.87200
C  -9.08100 22.43000 24.52300
C  -8.08000 23.44800 24.28400
C  -9.39200 20.74700 26.62000
C  -10.19200 22.03200 23.58000
O  -10.36500 22.55700 22.51100
C  -11.23500 20.99300 24.01800
N  -5.90400 25.62300 23.44800
C  -6.70700 24.90300 22.63400
C  -6.41000 25.25500 21.11200
C  -5.37900 26.45200 21.31700
C  -5.10300 26.37800 22.78300
C  -5.98100 23.95900 20.25000
C  -5.99100 27.88600 20.92100
C  -6.08000 28.23100 19.40200
N  -4.55900 26.61200 25.73500
C  -3.77400 27.17900 24.79700
C  -2.65300 27.92800 25.46500
C  -2.82200 27.68900 26.82800
C  -3.97200 26.88500 26.95300
C  -1.55400 28.75600 24.70700
C  -2.26800 27.91600 28.15300
O  -1.30200 28.54800 28.60900
C  -3.23100 27.19100 29.10700
C  -2.37200 26.31800 30.03700
O  -1.68900 25.33700 29.67700
O  -2.39000 26.75800 31.34900
C  -1.66500 26.01600 32.36400
H  -7.71600 22.10000 28.53800
H  -8.12400 23.36200 22.22100
H  -3.43500 27.66400 22.72600
H  -4.33900 24.81200 30.35000
H  -7.04200 23.58900 30.27000
H  -5.37000 21.53600 29.44700
H  -5.87200 21.96200 31.09300
H  -4.38200 22.67100 30.51100
H  -7.00400 26.32200 30.16500
H  -5.75400 27.09900 30.79200
H  -7.55900 24.98600 31.97000
H  -7.22800 26.38500 32.75500
H  -9.48100 19.85300 26.00400
H  -10.38900 21.02700 26.96100
H  -8.92200 20.45900 27.56100
H  -10.70600 20.05100 23.87600
H  -12.09200 21.18700 23.37200
H  -11.43100 21.32400 25.03800
H  -7.33500 25.62800 20.67200
H  -4.45300 26.33200 20.75600
H  -4.89200 24.00500 20.23900
H  -6.53600 23.96200 19.31200
H  -6.35200 23.02600 20.67400
H  -5.36500 28.59800 21.45800
H  -7.03000 28.16000 21.10800
H  -6.19200 27.26900 18.90100
H  -5.21000 28.83200 19.14000
H  -7.00000 28.75000 19.13600
H  -1.17500 28.22900 23.83200
H  -0.83700 29.08300 25.46000
H  -2.05400 29.61600 24.26300
H  -3.71200 27.90700 29.77300
H  -2.40700 25.29100 32.69900
H  -1.41400 26.67500 33.19400
H  -0.83500 25.42400 31.97800

