158

Mg 36.93200 49.16800 24.82600
C  37.00900 47.03600 27.58600
C  35.75500 51.60900 26.75100
C  36.16500 50.79000 21.91100
C  38.10200 46.40800 22.89000
N  36.26100 49.19900 26.89300
C  36.55700 48.32900 27.91100
C  36.10900 48.93800 29.26000
C  35.56200 50.31700 28.92800
C  35.90200 50.40400 27.43700
C  34.07800 50.66400 29.27600
C  37.44200 48.92600 30.17400
C  37.30600 48.71600 31.68500
H  35.91200 48.79000 32.29500
N  36.22700 51.02100 24.37100
C  35.84900 51.89500 25.33500
C  35.58100 53.16900 24.73200
C  35.49800 52.87900 23.29300
C  35.86400 51.49100 23.15500
C  35.27000 54.47400 25.46300
C  35.05100 53.81100 22.16500
O  34.97100 53.35400 21.02600
C  34.64500 55.25900 22.31400
N  36.87300 48.56400 22.68200
C  36.60000 49.44100 21.68100
C  37.04000 48.88900 20.33600
C  37.66000 47.44000 20.66900
C  37.48100 47.44300 22.20400
C  35.96700 48.79000 19.26700
C  39.19100 47.33900 20.17800
C  40.21500 48.26800 20.91000
N  37.49800 47.08500 25.03100
C  38.01900 46.13400 24.20500
C  38.15300 44.82700 24.95100
C  37.79500 45.20100 26.29200
C  37.35000 46.52000 26.24100
C  38.56300 43.47800 24.31600
C  37.63700 44.73200 27.77300
O  37.91500 43.64900 28.27900
C  37.26200 46.00900 28.63300
C  36.08300 45.53200 29.51900
O  34.91300 45.42100 29.18400
O  36.53200 45.19900 30.77100
C  35.56300 44.84700 31.77000
H  35.31900 52.39400 27.37200
H  36.07300 51.36500 20.98700
H  38.57500 45.58700 22.34600
H  35.31200 48.34600 29.71200
H  36.14100 51.05700 29.48100
H  33.40600 51.02200 28.49500
H  34.09100 51.30700 30.15600
H  33.61900 49.72300 29.57900
H  37.87600 49.92500 30.11800
H  38.21700 48.20200 29.92400
H  37.83100 49.44100 32.30700
H  37.55300 47.67800 31.90700
H  34.26700 54.89100 25.37500
H  35.88800 55.12500 24.84400
H  35.75700 54.37100 26.43300
H  34.04800 55.59500 21.46700
H  35.55200 55.86000 22.38600
H  34.02200 55.44500 23.18900
H  37.79800 49.50800 19.85500
H  37.09700 46.58500 20.29600
H  34.90900 48.81400 19.53000
H  36.06000 47.80200 18.81600
H  36.10700 49.49600 18.44900
H  39.21600 47.56600 19.11200
H  39.54100 46.30700 20.19900
H  40.95800 48.68700 20.23200
H  40.55200 47.67000 21.75600
H  39.60300 49.05400 21.35400
H  39.21800 43.65800 23.46300
H  37.71500 42.91700 23.92300
H  39.05700 43.02200 25.17400
H  38.05600 46.38900 29.27700
H  36.10400 44.91900 32.71300
H  35.23100 43.82100 31.61200
H  34.68200 45.48900 31.75900
Mg 1.46200 42.59100 25.78200
C  2.98200 42.76100 29.02200
C  -1.42700 41.61200 27.35300
C  0.22500 41.86800 22.83800
C  4.49300 43.40300 24.40100
N  0.85000 42.31900 28.00500
C  1.58900 42.54000 29.15300
C  0.76200 42.33100 30.42800
C  -0.65700 41.74100 29.85400
C  -0.39800 41.87200 28.31700
C  -1.04400 40.27200 30.28000
C  0.51700 43.60300 31.22700
C  0.83300 43.47100 32.67900
H  0.58700 42.21000 33.51800
N  -0.36100 41.87600 25.21100
C  -1.43600 41.62600 25.94600
C  -2.59500 41.31200 25.10600
C  -2.10300 41.21800 23.81400
C  -0.69800 41.72200 23.87500
C  -4.02900 41.06100 25.68400
C  -2.70200 40.69600 22.58000
O  -2.27900 40.63200 21.44500
C  -4.14900 40.26800 22.77300
N  2.30800 42.49700 23.90800
C  1.53600 42.23300 22.77300
C  2.35100 42.62100 21.45700
C  3.57300 43.37400 22.05600
C  3.48100 43.03900 23.53900
C  2.67800 41.39300 20.60300
C  3.37600 44.86300 21.66400
C  2.17200 45.57300 22.29500
N  3.36000 42.87800 26.51900
C  4.52600 43.27800 25.87000
C  5.61900 43.56600 26.79100
C  4.98000 43.31900 28.01100
C  3.68900 42.94900 27.81400
C  7.04700 43.65900 26.53600
C  5.23900 43.31600 29.41100
O  6.28000 43.58400 30.00500
C  3.94600 42.89800 30.17400
C  4.24500 41.64700 30.97600
O  4.10600 40.45100 30.62200
O  4.93800 41.96600 32.11400
C  5.68200 40.91100 32.73900
H  -2.41900 41.42500 27.77000
H  -0.24300 41.82900 21.85200
H  5.37000 43.75300 23.85100
H  1.32900 41.56100 30.95100
H  -1.52400 42.36500 30.07600
H  -1.38100 39.63200 29.46400
H  -1.82000 40.24700 31.04500
H  -0.10800 39.79400 30.56900
H  -0.52800 43.85800 31.05200
H  1.17700 44.39000 30.86100
H  0.46700 44.32600 33.24900
H  1.92100 43.49200 32.62200
H  -4.87700 41.52900 25.18400
H  -4.16300 41.56400 26.64100
H  -4.29700 40.04000 25.95800
H  -4.33700 39.67600 23.66800
H  -4.37300 39.69000 21.87600
H  -4.74500 41.18000 22.81600
H  1.83600 43.27900 20.75700
H  4.47800 42.96100 21.61000
H  2.28200 40.56100 21.18600
H  3.75800 41.36900 20.45700
H  2.08900 41.48500 19.69000
H  3.23600 44.87900 20.58300
H  4.27300 45.46800 21.79400
H  2.59300 46.31700 22.97100
H  1.58700 44.92000 22.94300
H  1.51200 46.10300 21.60800
H  7.42700 44.63500 26.23300
H  7.13500 42.93100 25.73000
H  7.47200 43.25200 27.45400
H  3.74100 43.76900 30.79700
H  6.55000 40.66500 32.12700
H  5.05900 40.01700 32.75900
H  5.84800 41.19400 33.77800

