158

Mg 25.97300 0.85700 29.05000
C  28.03000 0.37600 31.93300
C  23.39700 1.34100 31.19500
C  24.00100 0.81600 26.37400
C  28.73500 -0.00000 27.10200
N  25.81500 0.60100 31.38000
C  26.75300 0.61900 32.32600
C  26.06200 0.91300 33.74900
C  24.58200 1.14200 33.36300
C  24.62700 1.09800 31.83100
C  23.52400 0.18400 33.87600
C  26.67700 2.19900 34.42500
C  26.06500 2.70300 35.73400
H  26.98400 2.88600 36.96900
N  23.95400 0.99700 28.85200
C  23.04600 1.22800 29.81700
C  21.67200 1.27000 29.27700
C  21.90600 1.14500 27.81300
C  23.34600 1.08400 27.60900
C  20.44800 1.41300 30.10800
C  20.88200 1.32400 26.71500
O  21.17300 1.22100 25.53500
C  19.45100 1.65600 27.02500
N  26.38500 0.63100 26.98700
C  25.34800 0.54700 26.07400
C  25.95400 0.29400 24.65800
C  27.48200 0.19000 24.92900
C  27.60000 0.36200 26.42500
C  25.28700 -0.85100 23.83800
C  28.32800 1.20100 24.23700
C  28.05300 2.72100 24.60300
N  28.02300 0.35400 29.34600
C  29.02900 0.01400 28.51400
C  30.19400 -0.34500 29.25000
C  29.86400 -0.11500 30.62100
C  28.56100 0.29700 30.56300
C  31.58100 -0.72700 28.72300
C  30.38100 -0.29800 32.03200
O  31.44900 -0.63200 32.51900
C  29.15300 0.26900 32.86300
C  28.98100 -0.81000 33.85400
O  28.35400 -1.82200 33.62100
O  29.63700 -0.48700 34.99500
C  29.24900 -1.37600 36.10300
H  22.51700 1.40500 31.83800
H  23.40000 0.80600 25.46200
H  29.59000 -0.38800 26.54300
H  26.23100 0.06200 34.40800
H  24.35100 2.18000 33.60300
H  23.05800 -0.44000 33.11300
H  22.67900 0.73800 34.28600
H  23.92300 -0.35300 34.73600
H  26.77900 2.95100 33.64400
H  27.69900 1.87600 34.62400
H  25.33100 1.97500 36.08200
H  25.64800 3.67300 35.46600
H  20.00400 2.35200 29.77800
H  20.69600 1.38100 31.16900
H  19.86900 0.53800 29.81300
H  19.28700 1.03100 27.90300
H  18.93600 1.36000 26.11100
H  19.36100 2.70600 27.30600
H  25.79600 1.19200 24.06100
H  27.84500 -0.81800 24.72800
H  24.76900 -0.49400 22.94800
H  24.49500 -1.16700 24.51600
H  26.07400 -1.59000 23.68700
H  28.42500 0.90600 23.19200
H  29.35700 0.97400 24.51500
H  27.08800 2.96800 25.04400
H  27.99100 3.37000 23.73000
H  28.86000 3.11400 25.22200
H  31.50600 -1.00300 27.67200
H  32.05600 -1.48300 29.34900
H  32.20700 0.15400 28.86800
H  29.40000 1.19300 33.38600
H  29.07600 -2.37400 35.70000
H  28.30800 -1.00900 36.51200
H  30.09700 -1.40000 36.78700
Mg 48.27800 34.36500 27.15100
C  46.11400 33.27600 29.72000
C  48.83300 37.11500 29.00800
C  49.51700 35.63700 24.48700
C  46.80900 31.67100 25.10000
N  47.50900 35.06900 29.12700
C  46.83800 34.42300 30.06400
C  46.97900 35.05600 31.45900
C  47.38300 36.50300 31.08700
C  47.98900 36.23200 29.65200
C  46.14700 37.54300 30.98400
C  48.07800 34.33800 32.32200
C  47.90900 34.32500 33.82200
H  46.77800 35.24100 34.45100
N  49.12900 36.13300 26.80500
C  49.26600 37.19900 27.70700
C  50.01700 38.18400 27.02700
C  50.22600 37.73400 25.70700
C  49.62200 36.40500 25.65600
C  50.31500 39.51500 27.70700
C  51.01800 38.46700 24.57400
O  51.26900 37.96000 23.46000
C  51.54200 39.71800 24.83000
N  48.23300 33.59000 25.02700
C  48.94100 34.36600 24.20600
C  48.93800 33.78100 22.81300
C  48.32900 32.29600 23.04700
C  47.78800 32.46400 24.46200
C  48.14700 34.67700 21.79500
C  49.42100 31.17100 22.80100
C  49.52000 30.56000 21.41300
N  46.90300 32.68000 27.32600
C  46.41100 31.73300 26.44300
C  45.56500 30.78100 27.15400
C  45.35700 31.37200 28.42000
C  46.18200 32.51200 28.48000
C  44.88400 29.59000 26.58200
C  44.63400 31.18800 29.63400
O  43.90100 30.27800 29.92000
C  44.99300 32.53000 30.52800
C  45.37300 31.90300 31.82100
O  46.40500 31.30500 31.99900
O  44.30300 31.97000 32.67000
C  44.61600 31.63500 34.01200
H  49.09400 37.98400 29.61600
H  50.02200 36.03800 23.60500
H  46.53900 30.90700 24.36800
H  46.02600 35.12100 31.98500
H  48.14900 36.94000 31.72700
H  45.39400 37.40600 31.75900
H  45.66800 37.33900 30.02700
H  46.43700 38.59400 30.97200
H  49.02900 34.85800 32.21300
H  48.33000 33.29600 32.12300
H  48.85800 34.65600 34.24400
H  47.77200 33.29500 34.15100
H  51.40300 39.57700 27.69800
H  49.92000 39.57600 28.72100
H  49.88900 40.42500 27.28500
H  52.47200 39.62900 25.39100
H  50.78300 40.46100 25.07700
H  51.85100 40.04100 23.83600
H  49.96700 33.82100 22.45500
H  47.50300 32.07500 22.37100
H  47.08800 34.42100 21.81400
H  48.52600 34.44300 20.80000
H  48.27000 35.72400 22.07300
H  49.20200 30.31200 23.43600
H  50.38000 31.50200 23.19900
H  49.21600 29.51700 21.50600
H  50.55700 30.65900 21.09200
H  48.84100 31.06400 20.72400
H  44.29500 29.03900 27.31500
H  45.65200 28.91800 26.19800
H  44.18400 29.84700 25.78700
H  44.04600 33.01500 30.76600
H  45.52800 31.04900 34.13000
H  43.83900 31.04100 34.49200
H  44.74600 32.50700 34.65300

