158

Mg 17.23900 52.51900 25.38400
C  18.88200 51.17800 28.14600
C  14.78800 53.67500 27.44400
C  15.84600 53.78400 22.59800
C  19.70800 50.95100 23.33100
N  16.87600 52.38900 27.65000
C  17.70700 51.82100 28.54300
C  17.15700 52.26100 29.94700
C  15.69400 52.71500 29.61800
C  15.82100 53.03100 28.15600
C  14.56800 51.64900 29.96100
C  18.14900 53.28700 30.67900
C  17.91800 53.48400 32.18600
H  16.72300 52.78900 32.87500
N  15.62000 53.53200 25.04900
C  14.64100 53.88500 26.02500
C  13.46300 54.46000 25.32300
C  13.79700 54.49300 23.86700
C  15.15900 53.92900 23.79800
C  12.36300 55.09600 26.13300
C  13.01100 55.04200 22.72000
O  13.36000 55.17200 21.52900
C  11.63900 55.52600 23.10800
N  17.74300 52.47400 23.28900
C  17.01800 53.11400 22.35000
C  17.66400 52.94500 20.96400
C  18.92600 52.11800 21.25700
C  18.81600 51.81800 22.76000
C  16.73000 52.15500 20.02600
C  20.25400 52.85300 20.84800
C  21.15600 52.23100 19.75100
N  18.82900 51.17500 25.60900
C  19.75800 50.62700 24.71400
C  20.78700 49.79700 25.42600
C  20.46500 50.00400 26.75400
C  19.34500 50.86700 26.86900
C  21.94100 48.97100 24.87600
C  20.89400 49.83400 28.10500
O  21.83400 49.21300 28.57100
C  19.89300 50.57800 29.09700
C  19.44500 49.47100 30.01200
O  18.80600 48.45700 29.67000
O  19.84600 49.87700 31.26200
C  19.45600 49.12200 32.49300
H  13.89700 54.02100 27.97100
H  15.41800 54.08200 21.63900
H  20.42400 50.51400 22.63200
H  16.91300 51.37100 30.52700
H  15.50000 53.71300 30.01200
H  15.06900 50.68400 30.04600
H  13.81000 51.68400 29.17800
H  14.05700 51.91700 30.88600
H  17.91000 54.22600 30.18000
H  19.12900 53.02000 30.28500
H  17.80900 54.56300 32.29500
H  18.89500 53.20200 32.57900
H  11.53000 54.41800 26.31600
H  12.09600 56.02900 25.63500
H  12.70300 55.56800 27.05400
H  11.05600 55.60400 22.18900
H  11.74800 56.55000 23.46500
H  11.02300 54.90700 23.76000
H  18.00200 53.90800 20.58100
H  18.91600 51.19200 20.68200
H  16.52500 52.67600 19.09100
H  15.75900 52.01500 20.50100
H  17.09800 51.15200 19.81300
H  20.84300 52.83800 21.76500
H  20.10100 53.89600 20.57200
H  21.80000 51.43400 20.11900
H  21.73000 52.98200 19.20800
H  20.49000 51.83200 18.98600
H  22.90300 49.47100 24.99100
H  21.83700 48.97100 23.79100
H  21.92200 47.93000 25.19800
H  20.40200 51.37200 29.64300
H  18.85900 48.23700 32.27500
H  18.73400 49.75400 33.01000
H  20.22900 48.88500 33.22300
Mg -1.15200 35.28900 26.66700
C  -3.01700 33.60600 29.14700
C  -0.01900 37.43600 28.96600
C  0.36700 36.92900 24.06400
C  -2.59900 33.11100 24.17800
N  -1.45500 35.44800 28.82700
C  -2.23000 34.62200 29.61200
C  -2.15900 35.17200 31.07500
C  -1.33900 36.46900 30.98400
C  -0.85300 36.38500 29.47600
C  -2.21100 37.67600 31.42000
C  -1.44400 33.96500 31.87600
C  -2.18600 33.47700 33.13200
H  -1.34800 33.21600 34.41600
N  -0.01700 37.00800 26.48000
C  0.42800 37.71000 27.59800
C  1.24200 38.85000 27.13600
C  1.27600 38.74200 25.69600
C  0.51700 37.52600 25.33100
C  1.86400 39.80500 28.10900
C  1.78400 39.70700 24.64700
O  1.66600 39.51400 23.46400
C  2.55000 40.97300 25.12100
N  -1.01900 34.98400 24.43000
C  -0.32800 35.83600 23.62200
C  -0.32000 35.37800 22.16700
C  -1.29300 34.13000 22.16500
C  -1.64300 34.02400 23.67200
C  -0.66600 36.50300 21.17400
C  -0.73600 32.78100 21.65800
C  0.35400 32.18200 22.48800
N  -2.46200 33.72400 26.62400
C  -3.00600 32.97800 25.57200
C  -3.94400 31.97900 26.13000
C  -3.91600 32.17700 27.47800
C  -3.04000 33.24700 27.77600
C  -4.69600 30.85500 25.40900
C  -4.42900 31.69400 28.78200
O  -5.29100 30.81900 28.99300
C  -3.83200 32.52900 29.86300
C  -4.84200 33.24300 30.65000
O  -5.32000 34.33800 30.36600
O  -5.14500 32.51500 31.79200
C  -6.40200 32.88300 32.57500
H  0.33700 38.00200 29.83000
H  1.01900 37.33400 23.28600
H  -3.06300 32.54500 23.36800
H  -3.13500 35.37200 31.51700
H  -0.44900 36.32500 31.59700
H  -3.20200 37.47800 31.82900
H  -2.35900 38.25300 30.50800
H  -1.62700 38.29100 32.10400
H  -0.44700 34.22300 32.23400
H  -1.15500 33.16200 31.19900
H  -2.45800 32.43400 32.97000
H  -3.07000 34.08100 33.33900
H  2.94100 39.73600 27.96200
H  1.65600 39.63500 29.16500
H  1.58700 40.82900 27.86100
H  1.97600 41.70300 25.69100
H  2.85100 41.52300 24.22900
H  3.41200 40.67300 25.71500
H  0.68600 35.06800 21.88600
H  -2.23800 34.31500 21.65500
H  -1.13800 37.33500 21.69700
H  -1.26700 36.14100 20.33900
H  0.23000 36.86500 20.67100
H  -0.31100 32.94300 20.66800
H  -1.57900 32.09100 21.62500
H  -0.17600 31.38200 23.00500
H  0.85500 32.84300 23.19600
H  1.11900 31.75700 21.83800
H  -5.00800 30.02300 26.04100
H  -4.09500 30.42900 24.60500
H  -5.62700 31.30900 25.07000
H  -3.24600 31.91900 30.55100
H  -6.20400 33.20900 33.59600
H  -6.91900 31.92500 32.64700
H  -7.01200 33.56300 31.98100

