158

Mg 17.51900 -1.77000 27.22900
C  16.55200 0.15800 29.98200
C  19.32500 -3.68200 29.35500
C  18.85800 -3.18800 24.63700
C  15.53100 0.27500 25.21200
N  17.93900 -1.68800 29.42200
C  17.41500 -0.87200 30.39200
C  17.95700 -1.27300 31.78100
C  18.96500 -2.33600 31.46800
C  18.71300 -2.61400 30.00600
C  20.38500 -2.05100 31.94700
C  16.87700 -1.80900 32.74800
C  16.86900 -1.32700 34.18800
H  18.04000 -0.56900 34.72400
N  18.81300 -3.37300 27.02700
C  19.37800 -4.09900 28.05900
C  20.14400 -5.28300 27.50400
C  19.88900 -5.15800 26.09300
C  19.16300 -3.86500 25.84500
C  20.90800 -6.32900 28.29500
C  20.19300 -6.11100 24.98500
O  19.94500 -5.89200 23.80100
C  20.58500 -7.60500 25.35400
N  17.47200 -1.22300 25.29700
C  18.11700 -2.01200 24.38300
C  17.93700 -1.47100 22.94900
C  16.90700 -0.38500 23.05900
C  16.52700 -0.43800 24.58900
C  19.24400 -0.94200 22.30000
C  15.65900 -0.67700 22.10500
C  15.02200 0.58000 21.50700
N  16.30000 -0.02200 27.45800
C  15.53700 0.64800 26.55000
C  14.86000 1.77300 27.13200
C  15.15600 1.56700 28.56500
C  16.07500 0.48800 28.66800
C  14.05900 2.80600 26.49800
C  14.89500 2.02700 29.93800
O  14.26300 2.98400 30.32800
C  15.89600 1.11700 30.88200
C  16.79800 2.11100 31.51400
O  17.79700 2.55600 30.97500
O  16.50600 2.33100 32.81800
C  17.25000 3.40000 33.45800
H  20.01800 -4.20400 30.01900
H  19.15100 -3.51000 23.63600
H  14.92000 0.87700 24.53500
H  18.45600 -0.36200 32.10800
H  18.69500 -3.21200 32.05800
H  20.51600 -1.02900 32.30100
H  21.06200 -2.05200 31.09200
H  20.74200 -2.80700 32.64600
H  16.71500 -2.88600 32.72600
H  15.96100 -1.32700 32.40700
H  16.60800 -2.25200 34.70300
H  15.94600 -0.76700 34.33400
H  21.15500 -5.90700 29.26900
H  21.80600 -6.79900 27.89300
H  20.14000 -7.07700 28.48800
H  19.80300 -8.12900 25.90500
H  21.56100 -7.60100 25.84000
H  20.81000 -8.03100 24.37600
H  17.50000 -2.31800 22.42000
H  17.37200 0.59400 22.93800
H  19.02500 -0.07800 21.67200
H  19.76600 -1.69000 21.70400
H  19.84500 -0.64500 23.16000
H  14.95500 -1.30700 22.64800
H  15.99000 -1.18000 21.19700
H  15.37000 1.55800 21.84000
H  13.93800 0.48000 21.56900
H  15.30700 0.62500 20.45600
H  14.49000 3.80500 26.56300
H  13.25600 2.91200 27.22700
H  13.65800 2.45900 25.54500
H  15.37300 0.66600 31.72500
H  18.23700 3.52300 33.01100
H  17.52800 3.09600 34.46700
H  16.65800 4.30100 33.62000
Mg 48.70500 45.73600 43.21300
C  45.25800 45.16100 42.94800
C  49.20600 42.39200 42.78900
C  52.06900 46.25200 43.11700
C  48.14000 49.09900 43.33100
N  47.37200 44.00600 42.80700
C  45.91300 43.97300 42.85900
C  45.38800 42.50200 42.83400
C  46.74100 41.66900 42.64800
C  47.90000 42.72100 42.79600
C  46.84000 40.41800 43.48900
C  44.29500 42.00700 41.85700
C  44.17600 42.59900 40.43900
H  44.04400 41.78900 39.16100
N  50.40700 44.45100 43.02500
C  50.41500 43.11400 42.81800
C  51.77400 42.55900 42.81800
C  52.64300 43.69100 42.98800
C  51.74300 44.86900 43.04700
C  52.00500 41.07900 42.75900
C  54.14900 43.59700 43.06200
O  54.73400 42.52100 42.89800
C  55.05800 44.81800 43.25400
N  49.92700 47.40000 43.00400
C  51.22300 47.36600 43.08100
C  51.82700 48.76700 43.29200
C  50.58300 49.70500 43.08900
C  49.49700 48.71900 43.22100
C  52.43300 48.92400 44.70600
C  50.59000 50.47600 41.74500
C  50.73500 52.02700 41.85500
N  47.01900 46.98800 42.97400
C  46.98700 48.34300 43.14400
C  45.61000 48.74200 43.21900
C  44.91100 47.52000 43.10300
C  45.82300 46.47700 43.02500
C  44.93100 50.06500 43.37700
C  43.56100 46.93800 42.96000
O  42.49100 47.47800 42.79900
C  43.78200 45.34200 43.04300
C  43.12600 44.78100 44.26400
O  42.28900 43.94400 44.24600
O  43.63900 45.29200 45.42200
C  43.03600 44.92600 46.74600
H  49.33100 41.31000 42.70300
H  53.12600 46.52500 43.13900
H  48.05300 50.17200 43.51300
H  44.90600 42.40200 43.80700
H  46.86900 41.28800 41.63500
H  47.11300 39.62200 42.79700
H  45.85400 40.21700 43.90800
H  47.66200 40.34100 44.20100
H  43.30800 42.13900 42.30000
H  44.48300 40.95800 41.62700
H  45.01800 43.28800 40.37500
H  43.33700 43.29300 40.46300
H  51.84500 40.88700 41.69800
H  51.16700 40.53000 43.18800
H  52.89100 40.65100 43.22700
H  55.05500 45.31600 42.28400
H  56.06100 44.41900 43.40300
H  54.65300 45.52900 43.97500
H  52.62300 48.66000 42.55500
H  50.54700 50.44900 43.88500
H  52.25700 48.09200 45.38700
H  52.01500 49.84400 45.11300
H  53.50000 49.14000 44.76700
H  49.69200 50.31500 41.15000
H  51.44700 50.07500 41.20400
H  50.35300 52.37300 42.81500
H  50.16700 52.51900 41.06400
H  51.78100 52.33100 41.82900
H  44.20000 50.17100 42.57600
H  45.67900 50.85200 43.28100
H  44.48600 50.07900 44.37200
H  43.20000 44.81800 42.28500
H  43.75600 44.46600 47.42300
H  42.23500 44.18800 46.71700
H  42.58100 45.86600 47.06000

