158

Mg 40.50500 9.68300 29.26200
C  42.45300 11.14800 31.90800
C  38.46200 8.41500 31.56000
C  38.96100 8.34900 26.77200
C  43.17800 10.68100 27.07200
N  40.53400 9.71400 31.49200
C  41.26900 10.56900 32.36600
C  40.87700 10.35700 33.88300
C  39.64800 9.31400 33.69500
C  39.55100 9.03100 32.16200
C  39.67900 8.08800 34.65800
C  40.55000 11.64700 34.68100
C  41.12700 11.69600 36.08800
H  40.41200 12.48300 37.20000
N  38.90100 8.54100 29.16200
C  38.04000 8.19300 30.22300
C  36.97100 7.42700 29.74600
C  37.14600 7.37300 28.34400
C  38.36600 8.06900 28.01600
C  35.96400 6.79800 30.68300
C  36.26200 6.62400 27.36000
O  36.68300 6.30100 26.28300
C  34.78600 6.32900 27.75300
N  41.12800 9.28100 27.21800
C  40.17200 8.86600 26.38600
C  40.55800 9.04600 24.88700
C  41.90900 9.83400 25.02800
C  42.08600 9.94600 26.53500
C  40.60200 7.65100 24.16100
C  41.79800 11.23300 24.25800
C  41.42900 12.57000 24.98800
N  42.37900 10.71500 29.34800
C  43.37400 10.96300 28.42200
C  44.54500 11.62400 29.06400
C  44.13700 11.76200 30.39300
C  42.82400 11.17400 30.53300
C  45.84300 12.00900 28.45800
C  44.58000 12.21400 31.68100
O  45.63100 12.79800 32.06500
C  43.51000 11.85500 32.73700
C  44.12300 10.89200 33.68900
O  44.55100 9.78500 33.44300
O  44.31800 11.51300 34.88700
C  44.33100 10.57500 36.01000
H  37.78900 8.03600 32.33100
H  38.42900 7.93100 25.91500
H  43.87100 11.16500 26.38000
H  41.64900 9.90200 34.50300
H  38.67100 9.76900 33.86000
H  39.90100 7.28200 33.95900
H  38.75500 7.75900 35.13300
H  40.52400 8.16900 35.34200
H  39.50900 11.96700 34.67600
H  40.95200 12.49300 34.12300
H  42.07600 12.23300 36.09800
H  41.36500 10.69600 36.45100
H  34.96000 7.16300 30.46600
H  36.07700 6.94600 31.75700
H  35.92400 5.72500 30.49600
H  34.19700 6.06500 26.87400
H  34.32400 7.22200 28.17400
H  34.70400 5.53800 28.49800
H  39.76700 9.61700 24.40200
H  42.82400 9.36200 24.67200
H  41.58600 7.51400 23.71200
H  39.83500 7.77100 23.39600
H  40.32900 6.92900 24.93000
H  41.14900 11.13900 23.38800
H  42.74200 11.45800 23.76200
H  42.34000 13.14300 25.16500
H  40.92500 12.48000 25.95000
H  40.75800 13.19000 24.39400
H  45.84100 11.89500 27.37500
H  46.64400 11.36300 28.81800
H  45.93800 13.07000 28.69300
H  43.22300 12.75300 33.28300
H  43.45900 9.92200 36.06200
H  44.15900 11.17600 36.90300
H  45.23000 9.95900 36.02500
Mg 47.22000 16.66200 28.51900
C  45.17900 16.57700 31.37200
C  49.44600 18.65300 30.41300
C  48.74300 17.67500 25.62200
C  44.66200 15.31300 26.82200
N  47.25300 17.45100 30.70100
C  46.35700 17.23800 31.69300
C  46.91800 17.56500 33.02500
C  48.13300 18.51400 32.61600
C  48.33400 18.18100 31.13400
C  47.78500 19.99400 32.83800
C  47.38900 16.26800 33.78000
C  47.13900 16.16500 35.29900
H  46.70300 17.41700 36.02100
N  48.97200 17.77700 28.10400
C  49.71700 18.47100 29.01400
C  50.87000 19.12200 28.31000
C  50.66900 18.90100 26.94800
C  49.44000 18.08500 26.80800
C  51.85400 20.05100 29.07500
C  51.49100 19.52000 25.81400
O  51.17600 19.36400 24.64000
C  52.78600 20.36800 25.99200
N  46.79600 16.57600 26.49800
C  47.52200 17.00900 25.48100
C  46.79000 16.87900 24.10600
C  45.77400 15.82400 24.53200
C  45.72900 15.80200 26.06800
C  46.15200 18.16900 23.52100
C  46.02200 14.31900 23.96100
C  45.03600 13.76100 22.97100
N  45.34900 15.95400 28.98700
C  44.42800 15.41500 28.18000
C  43.29100 14.95300 28.91100
C  43.56500 15.41900 30.15400
C  44.75700 16.09500 30.17000
C  42.18900 14.17700 28.32500
C  42.99600 15.45200 31.51500
O  41.92800 15.05000 31.95000
C  44.13200 16.12900 32.39300
C  43.47000 17.27800 33.06700
O  43.31300 18.41400 32.60200
O  42.99800 16.92800 34.33400
C  42.38900 17.93800 35.17700
H  50.08400 19.25600 31.06300
H  49.30700 18.00100 24.74500
H  43.86600 14.75100 26.32800
H  46.15600 18.15400 33.53500
H  49.13800 18.37100 33.01400
H  47.83000 20.67500 31.98700
H  48.41400 20.32400 33.66500
H  46.74900 20.07200 33.16700
H  48.47100 16.16200 33.69900
H  46.95800 15.42300 33.24200
H  48.02900 15.71800 35.74400
H  46.37600 15.39500 35.41200
H  52.86700 19.80600 28.75600
H  51.92100 20.06000 30.16300
H  51.83400 21.04900 28.63700
H  53.27100 20.64200 25.05500
H  53.33400 19.61900 26.56400
H  52.68000 21.28700 26.56800
H  47.54300 16.49900 23.41500
H  44.80600 16.19700 24.19800
H  45.08800 18.29300 23.72200
H  46.30500 18.13700 22.44300
H  46.59600 19.06600 23.95200
H  46.07900 13.72300 24.87200
H  47.05200 14.36800 23.60600
H  44.76600 12.71400 23.10400
H  45.43900 13.72400 21.95900
H  44.15000 14.38700 22.87000
H  42.64700 13.39800 27.71500
H  41.60100 14.83100 27.68200
H  41.58300 13.81600 29.15700
H  44.34900 15.32000 33.09100
H  42.51700 17.65900 36.22300
H  41.34300 18.04300 34.89000
H  42.87300 18.90700 35.05900

