158

Mg 1.16600 -2.04600 42.88000
C  4.48800 -1.61700 41.89700
C  0.37800 0.87900 41.15300
C  -2.00800 -2.86500 43.09600
C  2.08900 -5.20200 44.11800
N  2.28600 -0.60400 41.55300
C  3.61600 -0.63000 41.35800
C  4.13000 0.65400 40.67100
C  2.72200 1.43200 40.46600
C  1.76100 0.52600 41.15500
C  2.71500 2.84200 41.12700
C  4.96100 0.39100 39.32800
C  4.46000 -0.79800 38.50700
H  5.18600 -1.06800 37.13600
N  -0.56800 -1.10200 42.42300
C  -0.68800 0.11000 41.67600
C  -2.08600 0.40800 41.51300
C  -2.84900 -0.60900 42.03400
C  -1.81800 -1.59300 42.56400
C  -2.64400 1.68300 40.81900
C  -4.37200 -0.63300 42.09700
O  -5.03400 0.17200 41.51100
C  -5.08600 -1.71400 42.85100
N  0.20500 -3.85700 43.44600
C  -1.12600 -3.91900 43.43900
C  -1.62500 -5.30800 43.97000
C  -0.36200 -5.92100 44.58500
C  0.77000 -4.96100 44.09500
C  -2.88900 -5.30800 44.81700
C  -0.08500 -7.36400 44.13900
C  0.39100 -8.34900 45.23800
N  2.95800 -3.15600 43.12500
C  3.14600 -4.35500 43.68200
C  4.56300 -4.60600 43.80900
C  5.18400 -3.53800 43.12700
C  4.10300 -2.75000 42.65700
C  5.20200 -5.72400 44.49700
C  6.42700 -2.94500 42.67800
O  7.58900 -3.28200 42.86900
C  6.07900 -1.64100 41.94600
C  6.76700 -0.46000 42.56400
O  7.64200 0.20400 42.10200
O  6.26400 -0.35000 43.80900
C  6.58800 0.84000 44.65100
H  0.14600 1.81700 40.64300
H  -3.03100 -3.23700 43.18800
H  2.31600 -6.22600 44.42100
H  4.72800 1.15600 41.43200
H  2.36100 1.50600 39.44000
H  3.65100 3.16100 41.58500
H  1.94700 2.86000 41.90000
H  2.21500 3.46700 40.38600
H  6.01200 0.23800 39.57300
H  4.88100 1.27500 38.69500
H  3.39500 -0.61100 38.37100
H  4.66000 -1.70200 39.08200
H  -3.13700 1.46600 39.87200
H  -1.76700 2.29400 40.60400
H  -3.33800 2.21700 41.46800
H  -6.07800 -1.41900 43.19300
H  -4.52300 -1.91300 43.76300
H  -5.22400 -2.55800 42.17500
H  -1.89300 -5.88900 43.08800
H  -0.36300 -5.83400 45.67200
H  -3.79000 -5.66900 44.32100
H  -3.13400 -4.32300 45.21400
H  -2.64700 -6.05900 45.57000
H  0.72800 -7.28100 43.41700
H  -1.00300 -7.70200 43.66000
H  1.27000 -8.89400 44.89300
H  -0.48500 -8.96900 45.43200
H  0.59500 -7.89600 46.20900
H  4.75600 -6.01800 45.44700
H  6.24000 -5.41800 44.62600
H  5.05100 -6.50600 43.75300
H  6.57000 -1.63100 40.97300
H  6.10600 0.96600 45.62100
H  6.36200 1.70800 44.03200
H  7.65000 0.73600 44.87200
Mg 16.75400 -3.27900 28.47800
C  15.42100 -1.26500 31.06000
C  18.73100 -4.74900 30.76900
C  18.41200 -4.79700 25.99100
C  15.04600 -1.27400 26.13100
N  17.08800 -2.89200 30.72500
C  16.34400 -2.19800 31.58000
C  16.75000 -2.51200 33.00000
C  17.95200 -3.44700 32.80700
C  17.92600 -3.73900 31.28600
C  19.35500 -2.97300 33.32200
C  15.55700 -3.07200 33.71700
C  15.15100 -2.44300 35.09200
H  16.13100 -1.39100 35.57100
N  18.22900 -4.66900 28.39100
C  18.96100 -5.11700 29.44700
C  19.83500 -6.19100 29.00300
C  19.67700 -6.30000 27.62300
C  18.70800 -5.22000 27.26100
C  20.77100 -6.94000 29.98500
C  20.38900 -7.21000 26.70000
O  20.30900 -7.07200 25.47400
C  21.15900 -8.31100 27.20100
N  16.86100 -2.89000 26.34700
C  17.64100 -3.68800 25.58500
C  17.56200 -3.22900 24.09700
C  16.37500 -2.26300 24.11700
C  16.04800 -2.15500 25.60000
C  18.83500 -2.69800 23.38000
C  15.10100 -2.58700 23.28200
C  14.72700 -1.73100 22.05500
N  15.48200 -1.68400 28.58100
C  14.80400 -1.02600 27.51600
C  13.89500 -0.05500 28.06700
C  14.13800 -0.06700 29.44900
C  15.06100 -1.11600 29.73500
C  12.96000 0.88200 27.30600
C  13.74200 0.49300 30.69900
O  12.95700 1.39000 30.93900
C  14.60700 -0.17800 31.78700
C  15.39200 0.85200 32.54400
O  16.59200 1.02900 32.54200
O  14.55700 1.48400 33.34100
C  15.13100 2.52100 34.18400
H  19.33600 -5.32000 31.47600
H  18.91600 -5.32700 25.18000
H  14.26000 -0.79100 25.54700
H  17.20700 -1.63400 33.45700
H  17.73700 -4.45900 33.15100
H  20.07000 -3.03700 32.50200
H  19.74000 -3.61200 34.11700
H  19.39600 -1.99200 33.79500
H  15.72400 -4.14400 33.82900
H  14.70300 -2.85500 33.07500
H  15.05500 -3.23200 35.83800
H  14.19300 -1.96200 34.89300
H  20.97400 -7.95400 29.64100
H  20.42400 -7.04300 31.01300
H  21.71900 -6.40100 30.01600
H  20.37200 -8.84100 27.73800
H  21.96500 -7.85100 27.77200
H  21.58900 -8.97900 26.45300
H  17.23500 -4.08100 23.50100
H  16.75700 -1.27700 23.85300
H  19.69600 -2.81200 24.03800
H  18.78400 -1.63000 23.16900
H  19.07600 -3.21900 22.45300
H  14.22300 -2.58500 23.92800
H  15.23100 -3.60200 22.90800
H  13.72600 -1.31100 22.15700
H  14.64300 -2.36900 21.17500
H  15.37000 -0.87400 21.85600
H  12.34300 0.20600 26.71500
H  13.46200 1.47200 26.53900
H  12.35700 1.46100 28.00500
H  13.92800 -0.59800 32.53000
H  15.32100 3.27600 33.42100
H  16.07900 2.28400 34.66600
H  14.43200 2.74800 34.98900

