158

Mg 1.74600 -2.84000 44.17700
C  5.06500 -1.83200 43.42400
C  0.67700 -0.42100 42.11300
C  -1.27600 -4.15700 44.58200
C  3.17600 -5.69500 45.76900
N  2.85300 -1.40700 42.77900
C  4.15500 -1.13800 42.63800
C  4.42200 0.00600 41.65400
C  3.02400 0.71400 41.72500
C  2.09500 -0.40800 42.23500
C  2.99900 1.98300 42.64800
C  4.76300 -0.52800 40.23000
C  6.04500 0.02300 39.56900
H  5.71500 0.83700 38.28800
N  -0.12600 -2.37700 43.51800
C  -0.37100 -1.29900 42.64000
C  -1.78800 -1.09000 42.45500
C  -2.36000 -2.20800 43.13400
C  -1.22800 -2.96200 43.84400
C  -2.42900 0.06900 41.68400
C  -3.84900 -2.54800 42.99500
O  -4.57600 -1.75400 42.39000
C  -4.41100 -3.73200 43.72700
N  1.03800 -4.62000 45.12900
C  -0.31600 -4.92800 45.18300
C  -0.55000 -6.29200 45.86400
C  0.87400 -6.77200 46.18300
C  1.79200 -5.68000 45.62800
C  -1.50200 -6.16800 47.06700
C  1.27000 -8.16000 45.55500
C  0.90600 -9.34800 46.45600
N  3.62500 -3.56400 44.71200
C  4.07100 -4.74700 45.35500
C  5.56600 -4.79200 45.36000
C  5.94300 -3.62700 44.67400
C  4.75600 -2.92000 44.31200
C  6.47200 -5.82100 45.94000
C  7.11900 -2.92400 44.22000
O  8.30200 -3.08500 44.45500
C  6.57400 -1.76700 43.28600
C  7.11400 -0.44500 43.77900
O  7.64500 0.41100 43.14500
O  6.90500 -0.44900 45.15300
C  7.46400 0.78500 45.80500
H  0.29000 0.40000 41.50600
H  -2.26200 -4.59700 44.73900
H  3.74800 -6.52900 46.18000
H  5.30300 0.54400 42.00400
H  2.74400 0.99000 40.70800
H  4.00700 2.04000 43.05900
H  2.25300 1.78600 43.41800
H  2.77800 2.82500 41.99300
H  3.97400 -0.28500 39.51700
H  4.74900 -1.60800 40.37200
H  6.59500 -0.83500 39.18300
H  6.75100 0.45700 40.27700
H  -2.21400 -0.07700 40.62500
H  -1.85200 0.94900 41.96700
H  -3.47900 0.28300 41.87900
H  -4.20100 -3.58100 44.78600
H  -3.88000 -4.65700 43.50100
H  -5.49800 -3.78000 43.66000
H  -0.98600 -7.01700 45.17600
H  0.98400 -6.87900 47.26200
H  -2.11300 -5.27500 46.93500
H  -0.92900 -6.14400 47.99500
H  -2.07900 -7.08900 46.98700
H  2.34500 -8.28400 45.43000
H  0.78700 -8.22800 44.58000
H  1.82700 -9.91100 46.60200
H  0.18400 -9.97500 45.93200
H  0.46100 -8.94000 47.36400
H  5.95100 -6.52100 46.59300
H  7.31000 -5.36400 46.46500
H  6.85000 -6.39900 45.09600
H  6.90100 -1.89600 42.25400
H  7.85800 0.44800 46.76400
H  6.74200 1.54800 46.09400
H  8.20400 1.31400 45.20500
Mg -11.88500 16.30900 40.76500
C  -8.72000 14.83400 40.34700
C  -10.52900 19.22100 39.31900
C  -15.04300 17.64600 40.45900
C  -13.25300 13.02400 40.89100
N  -9.78200 16.92000 39.93200
C  -8.66300 16.21000 40.05100
C  -7.55600 17.04900 39.44000
C  -8.11900 18.46600 39.29500
C  -9.55500 18.20800 39.54200
C  -7.44400 19.55200 40.14300
C  -7.06500 16.45800 38.11500
C  -5.48500 16.49500 37.86800
H  -5.01700 17.07600 36.56500
N  -12.65500 18.19500 40.10400
C  -11.90100 19.20500 39.60100
C  -12.76400 20.37000 39.27700
C  -14.10500 19.96500 39.67900
C  -13.99600 18.60300 40.20600
C  -12.21100 21.69100 38.83500
C  -15.34100 20.88000 39.56700
O  -15.23600 22.04300 39.21200
C  -16.70500 20.36800 39.93400
N  -13.84200 15.41700 40.53200
C  -14.96400 16.15200 40.55600
C  -16.21700 15.26100 40.50800
C  -15.65700 13.84300 40.82800
C  -14.14200 14.12500 40.80700
C  -17.37200 15.73800 41.39600
C  -16.17900 12.73700 39.81100
C  -17.01000 11.64900 40.45900
N  -11.20500 14.31500 40.76900
C  -11.87600 13.15100 40.86200
C  -10.89000 12.04000 40.87000
C  -9.67100 12.69200 40.72200
C  -9.90000 14.05000 40.62200
C  -11.13900 10.55600 41.04900
C  -8.22400 12.40600 40.58800
O  -7.62000 11.30800 40.62000
C  -7.58500 13.77300 40.26900
C  -6.60100 13.92900 41.36900
O  -6.78900 14.10600 42.57500
O  -5.39500 14.10200 40.79400
C  -4.26600 14.44100 41.63000
H  -10.05700 20.12800 38.93500
H  -16.05100 18.06600 40.48300
H  -13.72600 12.04200 40.95800
H  -6.69400 17.17600 40.09600
H  -8.01000 18.86700 38.28700
H  -6.39200 19.30200 40.27700
H  -8.00900 19.72700 41.05900
H  -7.48900 20.49000 39.58900
H  -7.47400 17.12200 37.35300
H  -7.41700 15.44800 37.90000
H  -5.15700 15.46500 38.01000
H  -5.00400 17.10000 38.63700
H  -11.45000 21.54400 38.06800
H  -11.66100 22.21800 39.61500
H  -12.86900 22.48900 38.49300
H  -17.37600 21.22300 39.85500
H  -16.69000 20.02300 40.96800
H  -17.04600 19.66100 39.17900
H  -16.54300 15.36200 39.47300
H  -15.87100 13.61400 41.87200
H  -17.06200 16.15000 42.35600
H  -17.91000 14.83200 41.67600
H  -18.09800 16.34600 40.85600
H  -15.37700 12.24000 39.26500
H  -16.84400 13.18300 39.07200
H  -16.64300 10.68900 40.09500
H  -18.06100 11.75700 40.19000
H  -16.86400 11.58600 41.53700
H  -11.35600 10.36400 42.09900
H  -10.29700 9.92900 40.75300
H  -12.08800 10.38400 40.54200
H  -7.12200 13.83800 39.28400
H  -4.59300 14.65400 42.64800
H  -3.93100 15.41900 41.28700
H  -3.51700 13.64800 41.63500

