158

Mg 47.09000 15.82500 28.70700
C  44.57700 15.75900 31.33100
C  49.30000 16.95400 30.96700
C  48.88100 16.93200 26.12400
C  44.59300 14.79900 26.53700
N  46.85700 16.47400 30.89900
C  45.87600 16.23700 31.82900
C  46.42600 16.31600 33.32600
C  47.75700 17.00000 33.05600
C  48.00400 16.78300 31.53300
C  47.88900 18.45300 33.42400
C  46.40200 14.98400 34.23100
C  45.92400 15.09600 35.74100
H  45.64000 16.44800 36.38100
N  48.92800 16.64000 28.54000
C  49.71400 16.99900 29.62900
C  50.95700 17.33400 29.16100
C  50.93900 17.33500 27.74500
C  49.54700 17.00900 27.36200
C  52.10700 17.73000 30.11500
C  52.02300 17.60500 26.82700
O  51.89000 17.60500 25.60600
C  53.42400 17.85400 27.33000
N  46.71800 15.92600 26.69300
C  47.65400 16.34600 25.76700
C  47.34900 15.92700 24.35900
C  46.16500 15.00400 24.53000
C  45.77800 15.21800 26.00600
C  47.23600 17.05500 23.25900
C  46.26500 13.48300 24.15800
C  45.40600 12.85100 23.05900
N  44.97500 15.28700 28.87700
C  44.13600 14.93400 27.92700
C  42.89200 14.60200 28.41800
C  43.04100 14.90400 29.76900
C  44.29700 15.34500 30.00800
C  41.78500 14.02100 27.69900
C  42.29300 14.87400 30.97800
O  41.15300 14.49900 31.20400
C  43.36000 15.38600 32.05900
C  42.71800 16.55700 32.75700
O  42.36900 17.62300 32.22900
O  42.55600 16.34300 34.06700
C  41.84800 17.39800 34.81100
H  50.02900 17.14000 31.75900
H  49.56000 17.28400 25.34400
H  43.81800 14.39400 25.88300
H  45.81300 16.95000 33.96700
H  48.46400 16.32600 33.54100
H  47.30200 18.87200 34.24100
H  47.66400 19.04200 32.53600
H  48.94200 18.64100 33.63300
H  47.32500 14.41700 34.11200
H  45.63800 14.46600 33.65100
H  46.62700 14.46800 36.28700
H  45.01600 14.49400 35.77200
H  52.90200 16.98500 30.08300
H  51.75100 17.70400 31.14500
H  52.39000 18.77100 29.96100
H  53.34100 18.68600 28.02900
H  53.99700 18.11100 26.43900
H  53.79500 16.97800 27.86400
H  48.17000 15.23800 24.16100
H  45.29400 15.29300 23.94100
H  46.44100 16.79300 22.56200
H  48.24500 17.19200 22.87000
H  46.84300 17.97200 23.70000
H  46.17000 12.78700 24.99000
H  47.29000 13.37800 23.80200
H  45.00300 11.87400 23.32500
H  45.92500 12.71700 22.11000
H  44.56300 13.52100 22.89000
H  41.92600 13.09000 27.15100
H  41.24100 14.69400 27.03700
H  41.09000 13.67500 28.46400
H  43.44900 14.55900 32.76300
H  41.35400 18.08600 34.12600
H  42.49200 17.95600 35.49100
H  41.09900 16.93500 35.45400
Mg 10.00500 48.33400 26.56500
C  7.89300 47.77700 29.30400
C  12.39000 49.40300 28.80200
C  12.12900 48.30700 23.97900
C  7.29800 47.77600 24.32700
N  10.04400 48.64200 28.79300
C  9.08600 48.30800 29.69100
C  9.42900 48.73000 31.11300
C  10.84000 49.40100 30.89300
C  11.13800 49.24000 29.39700
C  10.96700 50.97500 31.28300
C  9.31900 47.62800 32.16700
C  9.80200 48.06300 33.52200
H  9.17100 47.46200 34.81200
N  11.93300 48.80300 26.42200
C  12.78400 49.11400 27.46500
C  14.10300 49.25500 26.97100
C  14.07300 49.10100 25.56700
C  12.63300 48.74100 25.25600
C  15.36000 49.63800 27.84800
C  15.08500 49.44700 24.57100
O  14.87900 49.41500 23.35400
C  16.41800 49.84500 24.98500
N  9.77900 48.17000 24.40600
C  10.80600 48.09700 23.61100
C  10.34500 47.72500 22.17300
C  8.95300 47.16600 22.35500
C  8.63400 47.79000 23.70200
C  10.47000 48.90800 21.14600
C  8.77400 45.60700 22.42100
C  8.14100 44.86800 21.23100
N  7.98700 48.11600 26.71000
C  7.01200 47.79000 25.74400
C  5.73200 47.36300 26.41200
C  6.08100 47.38200 27.75600
C  7.42800 47.78900 27.89300
C  4.43900 47.05200 25.68400
C  5.46700 47.04500 29.04400
O  4.33100 46.69400 29.36700
C  6.65100 47.40300 30.05000
C  6.80500 46.15800 30.85200
O  7.60400 45.22600 30.64600
O  5.88500 46.27200 31.78800
C  5.97600 45.21300 32.80900
H  13.17800 49.81800 29.43400
H  12.82800 48.25200 23.14100
H  6.54100 47.33200 23.67800
H  8.71300 49.47900 31.45200
H  11.57200 48.81800 31.45100
H  11.66800 51.00400 32.11700
H  10.11500 51.51000 31.70300
H  11.34800 51.69800 30.56200
H  9.80000 46.73100 31.77700
H  8.25100 47.42100 32.22800
H  9.87700 49.15100 33.50200
H  10.84600 47.75100 33.49600
H  15.91500 48.71300 28.00300
H  15.05400 50.01500 28.82400
H  15.98100 50.45200 27.47200
H  16.30600 50.82900 25.43900
H  17.07300 49.83400 24.11400
H  16.72200 48.97300 25.56400
H  11.01800 46.89600 21.95200
H  8.25800 47.61000 21.64200
H  11.10600 49.75200 21.41600
H  9.45400 49.21800 20.90100
H  10.84900 48.51800 20.20200
H  8.18900 45.27400 23.27800
H  9.77300 45.17100 22.44700
H  7.95200 45.56800 20.41700
H  7.12200 44.55700 21.46000
H  8.67200 43.98800 20.86900
H  4.61100 46.40200 24.82700
H  4.06400 47.95600 25.20500
H  3.73300 46.58200 26.36900
H  6.28500 48.25300 30.62500
H  5.85000 45.85500 33.68000
H  6.91700 44.66600 32.85400
H  5.04700 44.64600 32.75300

