158

Mg -2.54000 17.50600 27.27500
C  -2.87600 15.04300 29.84200
C  -3.42800 19.88900 29.48600
C  -2.38000 19.73300 24.76800
C  -2.36600 14.92500 24.96700
N  -2.93800 17.48100 29.40200
C  -2.91800 16.40900 30.27500
C  -3.05800 16.83200 31.78300
C  -3.48100 18.35700 31.53400
C  -3.33700 18.58500 30.01800
C  -4.96400 18.85200 32.00500
C  -1.84200 16.49700 32.70500
C  -1.37700 17.48600 33.79100
H  -1.11200 16.81500 35.15200
N  -2.79200 19.59100 27.18500
C  -3.15100 20.36100 28.18800
C  -3.01600 21.74500 27.71300
C  -2.47900 21.69500 26.43800
C  -2.56400 20.30400 26.07200
C  -3.32900 22.95500 28.71500
C  -2.03400 22.81000 25.41400
O  -1.63300 22.58000 24.30100
C  -1.97200 24.19100 25.96200
N  -2.54600 17.30800 25.19200
C  -2.45700 18.40100 24.39900
C  -2.26100 18.00300 22.88800
C  -1.95100 16.48700 22.97200
C  -2.26100 16.21500 24.44600
C  -3.53200 18.42300 22.06800
C  -0.49400 16.12000 22.65600
C  0.65300 16.70200 23.45300
N  -2.63200 15.44900 27.26300
C  -2.62000 14.52400 26.23600
C  -2.78100 13.18000 26.78100
C  -2.85300 13.34600 28.16200
C  -2.79400 14.75800 28.41100
C  -2.71400 11.85000 26.10800
C  -2.91500 12.59300 29.40400
O  -2.87400 11.40400 29.69500
C  -3.01100 13.72000 30.53400
C  -2.05600 13.46900 31.55300
O  -0.86100 13.85300 31.52100
O  -2.61700 12.70600 32.49500
C  -1.70200 12.21100 33.54800
H  -3.73700 20.62400 30.23300
H  -2.25900 20.39200 23.90500
H  -2.19900 14.13700 24.23000
H  -3.99400 16.52500 32.24800
H  -2.69700 19.00500 31.92500
H  -4.61100 19.60400 32.71200
H  -5.52700 18.15800 32.63000
H  -5.56800 19.24900 31.18900
H  -0.93900 16.31200 32.12400
H  -2.03100 15.59500 33.28800
H  -2.17000 18.23000 33.85600
H  -0.43400 17.94800 33.49700
H  -3.96000 22.59000 29.52500
H  -3.88300 23.72300 28.17500
H  -2.46700 23.43300 29.18000
H  -1.01200 24.35500 26.45100
H  -2.80500 24.46200 26.61200
H  -1.91100 24.90800 25.14400
H  -1.37800 18.52500 22.51900
H  -2.64800 16.01400 22.28000
H  -3.48800 19.45100 21.70600
H  -4.42100 18.45400 22.69700
H  -3.74800 17.75200 21.23700
H  -0.39700 16.07100 21.57100
H  -0.46600 15.07600 22.96700
H  1.19400 15.87500 23.91200
H  0.24400 17.40900 24.17400
H  1.31400 17.23600 22.77000
H  -2.31800 11.83700 25.09200
H  -3.67800 11.34100 26.08100
H  -1.95500 11.27600 26.64000
H  -4.03200 13.59000 30.89400
H  -0.85700 11.62700 33.18200
H  -2.24300 11.60100 34.27100
H  -1.20800 12.97400 34.15100
Mg 17.11900 51.44100 26.21300
C  18.91500 49.92400 28.66700
C  14.73800 52.46000 28.66400
C  15.23100 52.88400 23.76200
C  19.32100 50.37100 23.81900
N  16.86100 51.08600 28.32800
C  17.80300 50.61500 29.18600
C  17.43900 50.78000 30.68700
C  15.98600 51.30700 30.59800
C  15.82000 51.61600 29.10100
C  15.04200 50.14900 31.20200
C  18.33800 51.78500 31.36000
C  18.70000 51.51200 32.86200
H  17.64200 50.76200 33.66200
N  15.26700 52.55000 26.22000
C  14.47300 52.85900 27.33300
C  13.45400 53.69500 26.86900
C  13.52900 53.81200 25.43500
C  14.67700 53.03700 25.06600
C  12.39500 54.34300 27.84500
C  12.64000 54.61200 24.48200
O  12.79700 54.71200 23.29900
C  11.55900 55.41000 25.01600
N  17.15600 51.49200 24.13200
C  16.37800 52.27400 23.33100
C  16.91400 52.28900 21.93000
C  18.30200 51.85200 22.09200
C  18.31300 51.20900 23.50400
C  16.04100 51.32200 21.04900
C  19.42000 52.99800 21.98900
C  20.62000 52.55600 21.19000
N  18.73400 50.22200 26.20200
C  19.58800 49.97400 25.17800
C  20.73200 49.13900 25.68600
C  20.51100 49.12300 27.05800
C  19.31900 49.78700 27.29700
C  21.76400 48.37900 24.87400
C  21.03500 48.64500 28.35500
O  22.07400 48.06800 28.60200
C  20.03400 49.19200 29.44400
C  19.57500 48.07300 30.27200
O  18.93200 47.09200 29.89100
O  20.03500 48.24500 31.56700
C  19.98900 47.19400 32.58900
H  14.08500 52.65100 29.51800
H  14.71700 53.35300 22.92100
H  20.18300 50.23300 23.16400
H  17.54500 49.81700 31.18700
H  15.80100 52.18300 31.21900
H  15.50200 49.20400 31.48900
H  14.30300 50.00400 30.41300
H  14.49300 50.33800 32.12500
H  17.81000 52.73400 31.45800
H  19.25500 51.85000 30.77500
H  18.87000 52.51000 33.26700
H  19.60400 50.90600 32.78900
H  12.61600 53.99200 28.85300
H  11.38900 54.10400 27.50000
H  12.74600 55.37400 27.83300
H  11.79800 56.25000 25.66700
H  10.87700 54.62900 25.35200
H  11.13000 55.98000 24.19200
H  16.87100 53.26700 21.45100
H  18.44900 51.12500 21.29500
H  16.55800 50.37200 20.91400
H  15.93600 51.78400 20.06800
H  15.11100 51.09100 21.56800
H  19.80100 53.16300 22.99600
H  19.10200 53.95800 21.58400
H  20.38800 51.63300 20.65700
H  21.43900 52.37200 21.88500
H  21.08900 53.18700 20.43600
H  21.93700 48.77900 23.87400
H  21.45300 47.34200 24.75100
H  22.60300 48.34900 25.56900
H  20.59800 49.83000 30.12400
H  18.93100 47.08300 32.83000
H  20.54600 47.55100 33.45500
H  20.34400 46.22100 32.25000

