158

Mg 48.73600 35.63300 27.21300
C  46.48600 34.28100 29.54700
C  49.15800 38.22400 29.30900
C  50.43000 37.13100 24.77100
C  48.01900 33.10200 24.98900
N  47.95700 36.06800 29.23000
C  47.13400 35.42000 30.07800
C  47.25500 35.89600 31.51500
C  47.85600 37.28500 31.27000
C  48.42200 37.18700 29.83600
C  46.82600 38.42600 31.57300
C  48.24100 34.98000 32.33000
C  47.91500 35.06400 33.80100
H  48.90700 35.77900 34.74200
N  49.74100 37.43100 27.06800
C  49.78200 38.36800 28.05800
C  50.63100 39.39100 27.64100
C  51.03500 39.08600 26.26000
C  50.41000 37.84400 25.93400
C  50.98700 40.65300 28.49700
C  51.93700 39.83000 25.31500
O  52.15500 39.49400 24.18900
C  52.46600 41.14400 25.69700
N  49.07600 35.17300 25.18800
C  49.87100 35.90700 24.40300
C  49.99900 35.34000 22.96200
C  49.35500 33.99700 23.06000
C  48.84300 34.05700 24.50500
C  49.39800 36.25100 21.87000
C  50.29000 32.84900 22.82200
C  49.88800 31.83300 21.68100
N  47.60800 33.95100 27.19600
C  47.41100 33.06000 26.25000
C  46.28200 32.22500 26.63700
C  45.84300 32.68700 27.83100
C  46.73300 33.75900 28.19500
C  45.89100 31.03500 25.72600
C  44.90800 32.47300 28.91300
O  43.96200 31.70600 29.03000
C  45.34500 33.44800 30.02700
C  45.58400 32.74600 31.34300
O  46.36500 31.87600 31.48700
O  44.67100 33.28100 32.22000
C  44.53000 32.68800 33.53200
H  49.31400 38.96800 30.09200
H  50.86500 37.51400 23.84600
H  47.62200 32.42800 24.22600
H  46.23400 35.84300 31.89300
H  48.61900 37.49900 32.01900
H  46.56300 38.92500 30.64000
H  47.39000 39.12300 32.19200
H  45.94700 38.06300 32.10600
H  49.24000 35.39400 32.19500
H  48.15500 33.95300 31.97400
H  47.88000 34.03800 34.16800
H  46.90800 35.47900 33.84400
H  52.03500 40.61100 28.79300
H  50.30500 40.82000 29.33100
H  50.79400 41.52700 27.87400
H  53.02100 40.94900 26.61500
H  51.65300 41.83400 25.92100
H  53.03800 41.58300 24.87900
H  51.04400 35.32800 22.65200
H  48.54400 33.83600 22.34900
H  48.86300 37.05300 22.38000
H  48.76100 35.76400 21.13200
H  50.19200 36.78100 21.34400
H  50.60200 32.27100 23.69200
H  51.21900 33.25100 22.41800
H  50.73100 31.96000 21.00200
H  48.96400 32.05400 21.14700
H  49.78400 30.80800 22.03800
H  45.12100 31.29600 25.00100
H  45.51700 30.18400 26.29500
H  46.74800 30.60800 25.20400
H  44.48300 34.11500 30.03500
H  45.01300 33.32000 34.27700
H  44.76700 31.63500 33.68500
H  43.49400 32.65400 33.87000
Mg 27.33600 50.27600 26.55900
C  25.45900 51.22400 29.43300
C  29.79700 49.35300 28.63700
C  28.95100 49.40600 23.82800
C  24.64800 51.43700 24.54800
N  27.53500 50.26100 28.81500
C  26.72300 50.72600 29.82300
C  27.26200 50.32100 31.16700
C  28.77000 49.88100 30.90300
C  28.66600 49.74800 29.35600
C  29.77900 50.95300 31.46100
C  26.42800 49.16600 31.87300
C  26.01100 49.49600 33.34000
H  26.96600 50.03000 34.42900
N  29.08900 49.47700 26.30300
C  29.99100 49.15600 27.18600
C  31.25000 48.70500 26.61100
C  31.01600 48.72500 25.23500
C  29.62900 49.18800 25.08200
C  32.45300 48.18400 27.32800
C  31.91300 48.43000 24.05000
O  31.62200 48.62900 22.86800
C  33.17400 47.77100 24.39500
N  26.87500 50.56200 24.48100
C  27.78700 50.11100 23.51000
C  27.15500 50.23400 22.10900
C  25.73000 50.80500 22.41800
C  25.70400 50.92800 23.91400
C  27.98400 51.14100 21.18700
C  24.50200 49.85200 21.96300
C  23.40600 50.61300 21.25700
N  25.43500 51.25600 26.84000
C  24.46100 51.58700 25.95300
C  23.32600 52.08500 26.66900
C  23.64700 51.96000 28.04200
C  24.90800 51.44600 28.08500
C  22.13500 52.70300 26.05400
C  23.13900 52.14000 29.38900
O  22.05400 52.54200 29.72300
C  24.32900 51.75600 30.38000
C  24.85400 52.93800 31.14600
O  25.34300 53.94200 30.67400
O  24.61000 52.83600 32.47800
C  25.10500 53.88500 33.39400
H  30.65600 49.04500 29.23500
H  29.43100 48.93800 22.96600
H  23.76400 51.59300 23.92700
H  27.15000 51.13000 31.88900
H  28.97300 48.95200 31.43600
H  29.31900 51.71600 32.09000
H  30.14100 51.44300 30.55700
H  30.68100 50.54300 31.91500
H  27.05200 48.32700 32.18200
H  25.59000 48.86400 31.24500
H  25.83300 48.50200 33.75100
H  25.07700 50.05700 33.33500
H  32.45300 48.15500 28.41800
H  33.34200 48.79400 27.17000
H  32.72900 47.18000 27.00700
H  33.06100 46.83200 24.93600
H  33.76400 48.49000 24.96300
H  33.70300 47.65600 23.45000
H  26.96100 49.23400 21.72000
H  25.64400 51.82800 22.05000
H  28.20500 50.58600 20.27500
H  28.92600 51.14000 21.73500
H  27.61800 52.15800 21.04500
H  24.17100 49.29100 22.83600
H  24.90600 49.20500 21.18500
H  23.74400 50.64700 20.22200
H  23.28400 51.63000 21.63100
H  22.41400 50.16100 21.22800
H  21.56300 53.13600 26.87500
H  21.52000 52.03500 25.45200
H  22.52100 53.59100 25.55400
H  24.08200 50.91100 31.02200
H  25.00300 54.82500 32.85100
H  26.15800 53.74500 33.63600
H  24.54100 54.10400 34.30100

