158

Mg -2.94200 35.78500 26.59700
C  -4.48900 33.94900 29.14700
C  -1.44000 37.82700 28.98800
C  -1.77100 37.76000 24.05600
C  -4.76400 33.98900 24.34900
N  -3.12800 35.90300 28.81200
C  -3.65600 34.95800 29.66600
C  -3.49900 35.38700 31.14800
C  -2.38800 36.47700 30.97300
C  -2.32500 36.78400 29.49300
C  -2.39100 37.80100 31.79300
C  -3.18000 34.22700 32.12700
C  -2.01900 34.32100 33.11600
H  -2.07400 33.48200 34.38700
N  -1.72200 37.46200 26.53900
C  -1.14400 38.12100 27.60300
C  -0.13500 39.06100 27.10100
C  -0.25200 39.11800 25.68800
C  -1.31900 38.12500 25.37200
C  0.66200 39.97500 28.05500
C  0.46600 39.93500 24.70800
O  0.26500 39.91000 23.49100
C  1.53900 40.80500 25.18300
N  -3.45500 36.08100 24.53500
C  -2.70400 36.77800 23.65600
C  -3.15000 36.55100 22.28000
C  -3.88600 35.21000 22.39400
C  -3.97200 35.06500 23.90300
C  -3.96500 37.73500 21.84400
C  -3.21900 34.03100 21.58000
C  -2.12200 33.22500 22.28000
N  -4.51800 34.37300 26.66600
C  -5.08900 33.68300 25.63800
C  -5.96400 32.67600 26.13700
C  -5.68400 32.72700 27.49000
C  -4.91500 33.80000 27.80700
C  -6.84200 31.58200 25.42900
C  -6.02100 32.06000 28.75300
O  -6.67200 31.02100 28.91200
C  -5.29900 32.83300 29.91800
C  -6.37200 33.35300 30.71400
O  -7.22000 34.10900 30.32000
O  -6.29600 32.81700 31.95900
C  -7.32500 33.24600 32.86100
H  -0.85100 38.38100 29.72300
H  -1.42000 38.39500 23.24000
H  -5.09800 33.25100 23.61600
H  -4.38500 35.97400 31.39000
H  -1.45200 35.97900 31.22700
H  -2.55700 38.71000 31.21400
H  -1.42000 37.80500 32.28900
H  -3.08600 37.64200 32.61700
H  -3.06800 33.33400 31.51200
H  -3.89500 34.10400 32.94100
H  -1.87000 35.37200 33.36100
H  -1.08500 34.04800 32.62500
H  1.71700 39.83600 27.82000
H  0.56300 39.73300 29.11300
H  0.49300 41.05100 28.02700
H  1.90700 41.24500 24.25600
H  2.33300 40.22500 25.65300
H  1.03700 41.58500 25.75500
H  -2.24600 36.35900 21.70200
H  -4.87600 35.42700 21.99200
H  -4.75700 37.57500 21.11300
H  -3.21200 38.28900 21.28300
H  -4.34900 38.27300 22.71100
H  -2.67800 34.36200 20.69400
H  -3.97900 33.37200 21.15900
H  -1.37700 32.91000 21.54900
H  -2.54200 32.30800 22.69500
H  -1.64300 33.78100 23.08600
H  -6.32300 30.63800 25.59300
H  -7.08900 31.88500 24.41100
H  -7.80800 31.53300 25.93200
H  -4.69200 32.04300 30.36000
H  -8.23200 33.12500 32.26900
H  -7.19400 34.26600 33.22100
H  -7.30100 32.58600 33.72800
Mg -6.25700 25.86200 26.17600
C  -4.92800 27.35300 29.00300
C  -7.69300 23.45000 28.17600
C  -7.04100 24.13900 23.49000
C  -4.55300 28.18000 24.21900
N  -6.36300 25.49200 28.35800
C  -5.79000 26.31900 29.34000
C  -6.10300 25.72600 30.74400
C  -6.74100 24.34100 30.35400
C  -6.90000 24.40800 28.83500
C  -5.88600 23.01100 30.71800
C  -6.91000 26.76600 31.56700
C  -7.81800 26.31100 32.74600
H  -7.32200 25.32200 33.80800
N  -7.45100 24.22300 25.83600
C  -7.98700 23.32700 26.80500
C  -8.91700 22.46300 26.16200
C  -8.78300 22.55000 24.72700
C  -7.70100 23.62000 24.66200
C  -9.75300 21.57200 26.99100
C  -9.28000 21.70900 23.56000
O  -9.15200 22.00100 22.40800
C  -10.12000 20.50800 23.93400
N  -5.69700 25.99900 24.16500
C  -6.22200 25.22200 23.20400
C  -5.86700 25.63700 21.76600
C  -5.28900 27.10800 22.05000
C  -5.26500 27.17100 23.56100
C  -4.86500 24.60000 21.23200
C  -6.23500 28.14600 21.48400
C  -5.72100 28.77000 20.13400
N  -5.03900 27.46400 26.48500
C  -4.45800 28.31300 25.61000
C  -3.76600 29.38200 26.34900
C  -3.81300 28.95300 27.69500
C  -4.65800 27.81500 27.68500
C  -3.04100 30.52400 25.76500
C  -3.22700 29.14300 28.98900
O  -2.32300 29.82100 29.39400
C  -4.00400 28.09000 29.92000
C  -3.09900 27.14900 30.67400
O  -2.47900 26.16000 30.27400
O  -3.32600 27.44600 31.99600
C  -2.65500 26.49700 32.91500
H  -8.16000 22.59500 28.66800
H  -7.48300 23.78900 22.55500
H  -4.11900 28.98600 23.62200
H  -5.16200 25.43900 31.21200
H  -7.75400 24.36100 30.75500
H  -5.36400 23.12100 31.66800
H  -5.21100 22.63700 29.94700
H  -6.71700 22.33300 30.91200
H  -7.74000 26.90500 30.87400
H  -6.50000 27.76500 31.71200
H  -8.66100 25.83400 32.24600
H  -7.99400 27.23200 33.30200
H  -10.77100 21.59300 26.60300
H  -9.95100 21.93500 28.00000
H  -9.34500 20.56200 26.96500
H  -10.42400 20.01400 23.01100
H  -11.03700 20.94300 24.33400
H  -9.53400 19.78700 24.50500
H  -6.73800 25.56800 21.11400
H  -4.28500 27.06900 21.62900
H  -4.10700 24.33900 21.97100
H  -4.34100 25.11200 20.42500
H  -5.38500 23.76800 20.75800
H  -6.42900 28.90000 22.24700
H  -7.23500 27.77200 21.26700
H  -5.62600 29.85500 20.08100
H  -6.33100 28.43600 19.29500
H  -4.69500 28.43600 19.97500
H  -3.27300 31.36400 26.42000
H  -3.39100 30.77800 24.76500
H  -1.95600 30.47100 25.86200
H  -4.57000 28.74700 30.58000
H  -1.61200 26.69500 33.16400
H  -2.71800 25.48800 32.50800
H  -3.33700 26.46700 33.76500

