158

Mg -2.44200 17.20100 25.89100
C  -2.66600 14.86200 28.53900
C  -3.45700 19.59400 28.17200
C  -2.70300 19.46800 23.43000
C  -1.75800 14.78600 23.74900
N  -2.77300 17.17800 28.28600
C  -2.89200 16.10500 29.11000
C  -3.35300 16.51700 30.49100
C  -3.65700 18.08300 30.26300
C  -3.28200 18.30500 28.80300
C  -5.10300 18.44800 30.68100
C  -2.48200 16.07100 31.65700
C  -2.44400 16.99300 32.81700
H  -2.09600 16.30100 34.09900
N  -2.66500 19.28000 25.87900
C  -3.10300 20.09800 26.93400
C  -3.17000 21.54400 26.48500
C  -2.85200 21.48600 25.09700
C  -2.75000 20.09400 24.76600
C  -3.54700 22.73500 27.36400
C  -2.67200 22.62200 24.05700
O  -2.42000 22.44000 22.86100
C  -2.65900 23.97600 24.56100
N  -2.33300 17.16000 23.90500
C  -2.57100 18.16500 23.03200
C  -2.52900 17.73800 21.59400
C  -1.94100 16.26700 21.76800
C  -1.99600 16.01700 23.24500
C  -3.87900 17.72800 20.77000
C  -0.54800 16.09100 21.02500
C  0.75200 16.15400 21.91700
N  -2.36500 15.20800 25.99800
C  -1.88900 14.38200 25.06400
C  -1.84900 13.02900 25.56300
C  -2.10800 13.19500 26.92900
C  -2.37400 14.55300 27.19300
C  -1.59800 11.74100 24.75500
C  -2.16000 12.45800 28.16400
O  -1.98000 11.30600 28.41800
C  -2.47500 13.55200 29.27700
C  -1.27700 13.57300 30.13300
O  -0.17600 13.99800 29.89800
O  -1.63900 13.06200 31.33800
C  -0.58300 12.88900 32.35400
H  -3.81400 20.31800 28.90700
H  -2.90100 20.15200 22.60200
H  -1.47900 14.07500 22.96800
H  -4.33400 16.04700 30.57100
H  -2.87700 18.69100 30.72200
H  -5.55200 17.85800 31.48000
H  -5.76400 18.40600 29.81500
H  -5.05100 19.49000 30.99900
H  -1.45000 15.93100 31.33700
H  -2.92100 15.10700 31.91700
H  -3.34900 17.60100 32.84500
H  -1.62000 17.68200 32.63100
H  -2.63400 23.32900 27.36900
H  -3.80900 22.43900 28.38000
H  -4.33900 23.31800 26.89400
H  -3.64900 24.26800 24.90800
H  -2.40400 24.69100 23.77900
H  -1.97500 23.98400 25.41000
H  -1.81600 18.37200 21.06700
H  -2.62200 15.58500 21.26000
H  -4.53900 18.32800 21.39600
H  -4.42400 16.80500 20.57300
H  -3.84300 18.42000 19.92800
H  -0.48400 16.99300 20.41500
H  -0.51700 15.22200 20.36800
H  1.48600 16.80100 21.43600
H  1.13500 15.18300 22.23200
H  0.63300 16.76400 22.81200
H  -1.00600 11.14900 25.45300
H  -1.09800 11.78000 23.78700
H  -2.57000 11.32900 24.48500
H  -3.34900 13.21200 29.83100
H  -0.78600 12.28500 33.23800
H  -0.33000 13.84100 32.82000
H  0.29900 12.48000 31.86200
Mg 35.83600 0.83900 29.88900
C  33.79400 2.08900 32.50700
C  38.45400 0.79900 32.14600
C  37.88300 -0.24000 27.38400
C  33.30100 1.45500 27.63700
N  35.99000 1.33500 32.09200
C  35.05200 1.74200 32.99200
C  35.64000 2.01400 34.35200
C  37.15300 1.76200 34.19500
C  37.23800 1.17800 32.73700
C  38.08700 3.04300 34.42500
C  34.87300 1.18800 35.47200
C  34.35000 1.95000 36.78500
H  35.08300 3.08300 37.39400
N  37.88700 0.19600 29.76800
C  38.81300 0.36300 30.78700
C  40.17200 0.11500 30.32100
C  39.96500 -0.36100 28.94600
C  38.54400 -0.18500 28.61400
C  41.45600 0.30400 31.12200
C  41.08200 -0.86600 27.95500
O  40.79300 -1.21200 26.79900
C  42.49200 -0.92500 28.48800
N  35.62800 0.64500 27.81400
C  36.56800 0.09700 26.99100
C  36.12600 0.01000 25.53700
C  34.62500 0.56500 25.65300
C  34.52100 0.91400 27.12900
C  37.05800 0.60200 24.46500
C  33.56300 -0.37900 25.17500
C  33.30300 -1.64800 25.94100
N  34.03300 1.72800 29.97500
C  33.06300 1.81800 28.97000
C  31.82700 2.19500 29.51400
C  32.09300 2.46100 30.90000
C  33.42100 2.02500 31.15000
C  30.53000 2.43600 28.77000
C  31.52400 2.85500 32.15100
O  30.31600 3.11300 32.34400
C  32.59200 2.70900 33.23800
C  32.92600 4.05400 33.78200
O  33.70700 4.86200 33.24600
O  32.12000 4.35000 34.81800
C  32.32500 5.63300 35.55800
H  39.27800 0.92300 32.85200
H  38.53800 -0.58900 26.58300
H  32.45300 1.53700 26.95400
H  35.44600 3.06500 34.56400
H  37.56900 1.02900 34.88600
H  37.49100 3.93800 34.24800
H  38.94300 3.00900 33.75100
H  38.62300 2.99200 35.37300
H  35.58200 0.41400 35.76500
H  33.97000 0.72300 35.07600
H  34.19300 1.17800 37.53800
H  33.37300 2.38400 36.57000
H  41.32500 0.98200 31.96600
H  42.20900 0.85500 30.55700
H  41.95100 -0.62200 31.41400
H  42.91100 0.07900 28.42100
H  43.02900 -1.62600 27.84900
H  42.64500 -1.35500 29.47800
H  36.05000 -1.03200 25.22400
H  34.60200 1.57200 25.23500
H  37.58500 -0.11400 23.83400
H  37.91300 1.20400 24.77300
H  36.47000 1.27700 23.84200
H  33.95300 -0.67300 24.20100
H  32.65600 0.19700 24.99000
H  34.00500 -1.76500 26.76700
H  33.35500 -2.50700 25.27300
H  32.33600 -1.57600 26.43700
H  29.72400 1.90200 29.27400
H  30.65000 2.01400 27.77200
H  30.21900 3.47400 28.65900
H  32.19600 2.10300 34.05200
H  33.32000 6.05700 35.42200
H  32.21200 5.49600 36.63300
H  31.54800 6.33200 35.24800

