158

Mg 47.39500 15.65700 27.94900
C  45.17500 15.77600 30.75400
C  49.72300 17.38600 29.88000
C  49.02300 16.14200 25.22300
C  44.58000 14.47900 26.06600
N  47.39300 16.61500 30.08400
C  46.48800 16.41900 31.05300
C  46.99800 16.76100 32.42800
C  48.36700 17.42200 32.06500
C  48.51200 17.12500 30.58800
C  48.31400 18.98700 32.28700
C  47.15700 15.62700 33.51900
C  46.61200 15.85300 34.98500
H  46.37500 17.32200 35.45100
N  49.17600 16.57800 27.58500
C  50.00700 17.18600 28.53400
C  51.17500 17.57300 27.81600
C  51.03300 17.25400 26.42600
C  49.77000 16.55600 26.39300
C  52.38600 18.22500 28.49500
C  51.95100 17.62400 25.26500
O  51.71700 17.24700 24.15400
C  53.12000 18.54500 25.55100
N  46.81400 15.30100 25.91400
C  47.79400 15.58700 24.99700
C  47.23800 15.23400 23.56400
C  45.94100 14.46000 23.83100
C  45.73000 14.72700 25.35000
C  47.14600 16.45100 22.59300
C  46.07900 12.99600 23.47700
C  46.69600 12.16100 24.60200
N  45.33300 15.27000 28.23100
C  44.37700 14.67100 27.41600
C  43.21600 14.34900 28.19600
C  43.52600 14.69100 29.49100
C  44.75700 15.39000 29.50300
C  41.86000 13.79700 27.66500
C  43.03300 14.65100 30.83500
O  42.00300 14.20500 31.36300
C  44.07500 15.34200 31.75300
C  43.57200 16.49000 32.46400
O  43.56500 17.63300 32.02900
O  43.06800 16.06400 33.61600
C  42.28800 17.04600 34.49600
H  50.47300 17.89100 30.49300
H  49.40200 16.28800 24.20900
H  43.76400 14.01300 25.51000
H  46.27900 17.45400 32.86500
H  49.28800 17.06800 32.52900
H  47.55200 19.29800 33.00100
H  48.22500 19.48900 31.32300
H  49.23800 19.35600 32.73200
H  48.20200 15.56700 33.82300
H  46.69600 14.70200 33.17000
H  47.33800 15.54000 35.73500
H  45.67400 15.31600 35.12800
H  53.33600 17.72800 28.29800
H  52.22900 18.26400 29.57300
H  52.43300 19.28800 28.25800
H  52.85700 19.50000 26.00700
H  53.47600 18.71000 24.53400
H  53.94200 17.95800 25.96000
H  47.97600 14.57500 23.10700
H  44.97300 14.81500 23.47600
H  46.24300 16.42300 21.98300
H  48.06800 16.34400 22.02100
H  47.16800 17.34600 23.21400
H  46.55700 12.85700 22.50700
H  45.10600 12.57800 23.22100
H  47.51800 12.54300 25.20800
H  47.21600 11.37200 24.06000
H  45.85100 11.76000 25.16300
H  41.55900 13.01200 28.35900
H  41.89100 13.34400 26.67500
H  41.13300 14.60900 27.66600
H  44.55600 14.62700 32.42100
H  41.25300 17.01500 34.15400
H  42.65800 18.07100 34.47100
H  42.19200 16.74500 35.53900
Mg -3.12900 35.36300 26.51400
C  -4.65000 33.59000 29.09200
C  -1.76000 37.48600 28.88300
C  -1.83200 37.27000 24.00700
C  -4.88700 33.42800 24.17500
N  -3.32200 35.63000 28.75200
C  -3.81400 34.61600 29.58100
C  -3.52500 34.95800 31.09700
C  -2.72400 36.33000 30.93600
C  -2.63800 36.49400 29.42800
C  -3.53500 37.51500 31.55900
C  -2.65800 33.78000 31.78000
C  -3.37500 33.12200 32.99300
H  -2.55800 32.93000 34.25600
N  -2.00000 37.23200 26.44900
C  -1.53400 37.86300 27.54500
C  -0.50000 38.84000 27.10800
C  -0.36300 38.63400 25.67900
C  -1.40400 37.67500 25.31800
C  0.23400 39.76900 28.12800
C  0.55600 39.30500 24.71500
O  0.54300 39.11600 23.52800
C  1.63500 40.17200 25.25300
N  -3.48800 35.48400 24.40600
C  -2.72800 36.28300 23.58600
C  -2.88000 35.94500 22.08200
C  -3.70800 34.61300 22.15500
C  -4.05900 34.46700 23.67000
C  -3.49900 37.09600 21.32700
C  -3.06900 33.34000 21.50800
C  -1.97700 32.60300 22.33500
N  -4.44100 33.77500 26.59200
C  -5.14800 33.11600 25.49400
C  -5.83100 31.97200 26.03600
C  -5.66500 32.10800 27.46800
C  -4.89800 33.26000 27.71400
C  -6.54800 30.90600 25.20300
C  -6.09300 31.58600 28.75500
O  -6.85900 30.63300 29.09200
C  -5.48400 32.59500 29.87500
C  -6.53900 33.09200 30.76600
O  -7.45900 33.85600 30.46400
O  -6.51300 32.35000 31.92200
C  -7.32700 32.75700 33.06400
H  -1.09400 37.95100 29.61300
H  -1.25100 37.78900 23.24300
H  -5.30900 32.78600 23.39900
H  -4.42300 35.17200 31.67700
H  -1.74800 36.27300 31.41800
H  -2.81900 38.04800 32.18300
H  -4.39200 37.22600 32.16800
H  -3.83700 38.25300 30.81500
H  -1.76000 34.17200 32.25600
H  -2.35800 33.01500 31.06400
H  -3.70500 32.15600 32.61200
H  -4.24300 33.68300 33.33900
H  -0.34500 39.92000 29.03900
H  0.33000 40.81900 27.85300
H  1.20300 39.29700 28.29100
H  2.30200 40.49500 24.45400
H  2.14900 39.69000 26.08400
H  1.35300 41.14300 25.65900
H  -1.98400 35.61600 21.55500
H  -4.60500 34.79400 21.56400
H  -3.57900 37.95000 21.99900
H  -4.53100 36.89700 21.03600
H  -2.82100 37.34500 20.51100
H  -2.56800 33.62100 20.58200
H  -3.89100 32.64000 21.35900
H  -1.86200 31.55500 22.05900
H  -2.25500 32.51500 23.38500
H  -1.03800 33.13900 22.19700
H  -6.25700 29.94300 25.62300
H  -6.50000 30.88400 24.11400
H  -7.57700 31.15300 25.46600
H  -4.74000 32.01500 30.42100
H  -6.79300 33.49500 33.66300
H  -7.52100 31.84100 33.62200
H  -8.28000 33.17200 32.73400

