158

Mg 47.05300 16.38700 28.26800
C  45.32600 15.85200 31.46300
C  49.25400 18.40500 30.00500
C  48.33400 17.39900 25.34800
C  44.35800 14.96800 26.66400
N  47.25300 16.98400 30.50800
C  46.48100 16.64000 31.62700
C  46.99600 17.31500 32.93300
C  48.14800 18.33800 32.37600
C  48.15400 17.97700 30.79100
C  47.90200 19.82000 32.62700
C  47.45100 16.18500 33.97600
C  47.58700 16.63900 35.48700
H  47.10500 18.04600 35.97000
N  48.67000 17.49000 27.81100
C  49.50800 18.16200 28.67300
C  50.68700 18.68100 27.90000
C  50.38700 18.53300 26.46400
C  49.05000 17.81900 26.47300
C  51.97900 19.23300 28.60500
C  51.27100 18.89800 25.16500
O  50.90500 18.73700 24.00400
C  52.46200 19.83300 25.40200
N  46.37400 16.28400 26.31900
C  47.13400 16.65100 25.24100
C  46.48000 16.32100 23.86500
C  45.38200 15.28800 24.31600
C  45.33600 15.51100 25.86400
C  46.00900 17.52200 23.04000
C  45.51400 13.75100 23.99100
C  46.83800 13.18100 24.42900
N  45.26300 15.52500 28.87100
C  44.27400 14.93500 28.06900
C  43.29900 14.26800 28.89200
C  43.69200 14.61800 30.19400
C  44.86700 15.38500 30.17300
C  42.04400 13.60100 28.36800
C  43.15300 14.61300 31.53600
O  42.07000 14.21600 32.01900
C  44.17600 15.45000 32.40500
C  43.42400 16.61000 33.02500
O  43.23900 17.72100 32.57100
O  43.04000 16.29900 34.33500
C  42.27300 17.33700 35.06300
H  49.95000 18.96800 30.63000
H  48.86600 17.69700 24.44200
H  43.55700 14.50300 26.08400
H  46.13300 17.84200 33.34200
H  49.09100 17.95200 32.76100
H  47.04600 19.96300 33.28800
H  47.69700 20.21600 31.63300
H  48.74300 20.45800 32.89800
H  48.34800 15.69100 33.60100
H  46.69600 15.40500 33.88600
H  48.62200 16.42600 35.75200
H  47.07100 15.86300 36.05300
H  52.83300 18.59200 28.38500
H  51.86400 19.10100 29.68000
H  52.18400 20.27900 28.37300
H  52.80000 20.47700 24.59100
H  53.32500 19.27400 25.76300
H  52.28900 20.54800 26.20600
H  47.23800 15.82800 23.25700
H  44.37900 15.56600 23.99200
H  45.21600 17.38500 22.30600
H  46.89300 17.73600 22.44000
H  45.72100 18.33500 23.70700
H  45.33200 13.72500 22.91700
H  44.63100 13.27600 24.41900
H  46.70100 12.22900 24.94200
H  47.30400 13.80600 25.19000
H  47.45300 12.85300 23.59000
H  42.38400 12.78200 27.73400
H  41.45300 14.18700 27.66400
H  41.52700 13.23100 29.25300
H  44.70600 14.90900 33.18900
H  42.92400 18.10400 35.48400
H  41.77400 16.81700 35.88000
H  41.51000 17.87700 34.50100
Mg 9.78800 48.15400 26.61200
C  7.87000 48.34800 29.57800
C  12.38600 49.57600 28.34100
C  11.31200 48.23600 23.76400
C  6.63200 47.52900 24.80100
N  9.93300 48.96400 28.71500
C  9.17400 48.77900 29.83700
C  9.87600 49.27800 31.07200
C  11.14100 49.98300 30.56100
C  11.21000 49.46200 29.11700
C  10.99500 51.60600 30.55200
C  10.27800 48.21700 32.11200
C  9.70700 48.34100 33.55400
H  9.89500 46.95100 34.31200
N  11.60400 48.70800 26.11000
C  12.59400 49.26100 26.96800
C  13.84100 49.52400 26.13000
C  13.55500 49.10800 24.79300
C  12.11400 48.70100 24.83200
C  15.17200 50.05500 26.77500
C  14.39800 49.09700 23.51000
O  13.98600 48.62000 22.43200
C  15.83200 49.48500 23.59200
N  9.05800 47.70700 24.61200
C  10.04000 47.76700 23.63600
C  9.47500 47.33600 22.23100
C  7.92200 47.27200 22.57100
C  7.81600 47.43200 24.03800
C  9.84100 48.40000 21.15600
C  7.14700 46.02800 21.99500
C  6.66100 46.17600 20.58600
N  7.63400 47.91600 27.01300
C  6.50100 47.67000 26.17900
C  5.33300 47.54900 27.05600
C  5.82400 47.67400 28.38300
C  7.20700 48.01300 28.30800
C  3.94000 47.28400 26.55700
C  5.44400 47.63400 29.72900
O  4.34000 47.33500 30.24000
C  6.76000 47.96600 30.56200
C  7.05500 46.71700 31.22300
O  7.39900 45.74100 30.58400
O  7.10500 46.67200 32.57100
C  7.31600 45.40500 33.13400
H  13.22400 50.05500 28.85200
H  11.81700 48.15800 22.79900
H  5.72600 47.47800 24.19500
H  9.16900 49.92500 31.59100
H  12.09900 49.56600 30.87200
H  11.20500 51.97300 29.54700
H  11.72300 51.99800 31.26300
H  9.96400 51.93600 30.67800
H  11.35700 48.07800 32.17300
H  9.92800 47.28100 31.67500
H  8.64500 48.54900 33.42300
H  10.25900 49.14900 34.03500
H  15.02500 50.86900 27.48400
H  15.78400 50.55600 26.02400
H  15.90300 49.31200 27.09300
H  15.88500 50.56700 23.71500
H  16.43700 49.27200 22.71000
H  16.25900 49.10900 24.52100
H  9.90600 46.36700 21.98100
H  7.50000 48.13600 22.05900
H  10.22000 49.32100 21.59900
H  8.99500 48.55000 20.48600
H  10.70700 48.03800 20.60200
H  6.23000 45.77800 22.52900
H  7.83800 45.18600 21.99200
H  7.21900 47.01500 20.17000
H  5.58700 46.32600 20.46900
H  6.84000 45.27200 20.00400
H  3.87800 46.30300 26.08600
H  3.60300 48.11600 25.93800
H  3.29100 47.38500 27.42700
H  6.63600 48.70300 31.35600
H  6.57500 44.74100 32.68900
H  7.20400 45.48400 34.21500
H  8.32700 45.04600 32.94000

