158

Mg 47.75400 45.58700 42.52000
C  44.34500 44.85700 42.28300
C  48.40900 42.32600 42.18100
C  50.95900 46.45700 42.15400
C  46.81200 49.04500 42.47800
N  46.51100 43.83300 42.06400
C  45.11100 43.70700 42.11600
C  44.66800 42.27900 42.14200
C  45.99900 41.53100 42.33000
C  47.04700 42.58200 42.13300
C  46.16500 40.59200 43.62300
C  43.75700 41.75900 40.97700
C  43.86100 42.56600 39.67400
H  43.52900 41.89400 38.33000
N  49.45700 44.58800 42.29200
C  49.53200 43.17700 42.20100
C  50.90200 42.86900 42.09100
C  51.72900 43.95600 42.16800
C  50.70800 45.03600 42.17200
C  51.30600 41.42200 42.00000
C  53.30500 44.03100 42.12600
O  53.99400 42.98500 41.97900
C  54.03500 45.22900 42.34300
N  48.76200 47.48500 42.13500
C  50.09500 47.56200 42.28000
C  50.48600 49.06700 42.33000
C  49.28200 49.87200 42.32900
C  48.23000 48.71600 42.34700
C  51.42700 49.50300 43.50000
C  49.14000 50.87200 41.11000
C  48.71600 52.35600 41.39700
N  45.98100 46.73000 42.36600
C  45.72900 48.13600 42.54000
C  44.34900 48.43900 42.57100
C  43.78600 47.13200 42.58200
C  44.77600 46.18600 42.33400
C  43.63300 49.74500 42.69600
C  42.49400 46.43800 42.54100
O  41.37900 46.90000 42.58000
C  42.82100 44.89400 42.44700
C  42.26000 44.15000 43.62500
O  41.39800 43.31000 43.62500
O  42.88100 44.60100 44.75300
C  42.41900 44.03300 45.99400
H  48.69600 41.27300 42.14500
H  52.00900 46.71100 41.99300
H  46.49000 50.08800 42.51100
H  44.12900 42.02200 43.05400
H  46.18400 40.91500 41.45000
H  47.05800 39.97400 43.52300
H  45.29200 39.94000 43.65600
H  46.29100 41.16800 44.53900
H  42.71200 41.85300 41.27300
H  44.02700 40.72700 40.75500
H  44.88100 42.92000 39.52400
H  43.22500 43.44000 39.81300
H  50.92200 40.90200 42.87800
H  52.37600 41.21900 41.96400
H  50.93300 41.05500 41.04400
H  54.00000 45.90000 41.48500
H  55.07100 44.92100 42.48500
H  53.76300 45.73100 43.27100
H  51.02600 49.20800 41.39400
H  49.07700 50.42300 43.24700
H  52.28200 50.06100 43.12000
H  51.65600 48.56500 44.00700
H  50.86800 50.14300 44.18300
H  48.35500 50.43000 40.49600
H  49.99500 50.66800 40.46500
H  49.33900 53.01800 40.79500
H  48.94400 52.62500 42.42800
H  47.66700 52.53900 41.16500
H  44.24700 50.55900 43.08200
H  42.69200 49.64800 43.23700
H  43.41100 49.97700 41.65400
H  42.25400 44.58400 41.56900
H  41.34300 43.87900 45.91900
H  42.74800 44.64100 46.83700
H  42.98800 43.10400 46.02200
Mg 9.04300 47.55900 26.85200
C  7.08800 47.14200 29.63300
C  11.70500 47.95700 28.99900
C  10.84800 48.65400 24.17000
C  6.13600 47.65000 24.84200
N  9.38100 47.62100 29.14300
C  8.41700 47.35000 30.06000
C  9.01600 47.38700 31.49200
C  10.53000 47.70700 31.25100
C  10.53100 47.77500 29.72100
C  11.21800 48.89100 31.98500
C  8.67700 46.25200 32.55400
C  9.79400 45.90200 33.53000
H  9.43700 45.15500 34.80800
N  11.04500 48.08100 26.60100
C  11.99700 48.13600 27.58900
C  13.24900 48.39400 26.97400
C  13.02100 48.54600 25.58500
C  11.59000 48.48000 25.39500
C  14.55900 48.30900 27.81700
C  14.02000 48.80400 24.50000
O  13.77300 49.01200 23.30500
C  15.46000 49.01900 24.92000
N  8.55100 48.17900 24.80500
C  9.47400 48.66100 23.92400
C  8.86200 48.94000 22.60400
C  7.38200 48.39800 22.75900
C  7.34400 48.00500 24.24100
C  8.87300 50.45600 22.24600
C  7.01200 47.12500 21.77900
C  6.20700 47.45400 20.45000
N  7.01800 47.41700 27.11300
C  5.94600 47.31200 26.18400
C  4.68500 47.10600 26.89000
C  5.06300 47.06900 28.25000
C  6.50100 47.22100 28.33100
C  3.34600 47.07600 26.19600
C  4.59300 46.82900 29.62000
O  3.46100 46.69600 30.06300
C  5.92900 46.73100 30.52600
C  6.01000 45.34700 31.12000
O  6.63700 44.42300 30.63000
O  5.44300 45.35800 32.39300
C  5.70300 44.28600 33.28600
H  12.56200 48.03500 29.67100
H  11.42700 48.85000 23.26500
H  5.27800 47.64800 24.16700
H  8.62700 48.23400 32.05600
H  11.11500 46.81600 31.47800
H  11.74300 49.52900 31.27300
H  12.02600 48.41700 32.54300
H  10.52300 49.47000 32.59400
H  8.56300 45.28200 32.07000
H  7.81300 46.58200 33.13100
H  10.15300 46.88300 33.84000
H  10.61100 45.36100 33.05300
H  14.95600 49.32200 27.74800
H  15.35500 47.65100 27.46900
H  14.37400 48.13100 28.87600
H  15.67400 49.69400 25.74900
H  15.91600 49.33600 23.98200
H  15.85400 48.00800 25.02800
H  9.44900 48.37800 21.87800
H  6.58900 49.14200 22.67900
H  9.41200 50.57400 21.30600
H  9.51300 50.87900 23.02100
H  7.86800 50.87600 22.27300
H  6.50300 46.36400 22.37000
H  8.02500 46.88500 21.45700
H  5.30600 46.84100 20.46700
H  6.72300 47.23100 19.51500
H  5.77700 48.45400 20.39600
H  3.15700 46.32500 25.42800
H  3.19200 48.06600 25.76800
H  2.46200 46.94100 26.81900
H  5.86500 47.51800 31.27700
H  6.41200 43.58200 32.85000
H  4.76700 43.82500 33.60000
H  6.26100 44.61300 34.16400

