158

Mg 16.43500 -2.11900 28.26200
C  15.45900 0.06000 30.73900
C  18.21900 -4.01100 30.59800
C  17.74000 -4.00000 25.73100
C  15.02400 0.01600 25.84900
N  16.86200 -2.00100 30.34300
C  16.29300 -1.01400 31.13100
C  16.82300 -1.13500 32.57900
C  17.84200 -2.32300 32.47200
C  17.62800 -2.82000 31.00600
C  19.32300 -1.97300 32.65000
C  15.67800 -1.42700 33.57100
C  15.88800 -0.76900 34.96300
H  17.31500 -0.20900 35.34000
N  17.72100 -3.83800 28.22900
C  18.27800 -4.54500 29.26700
C  18.97600 -5.76700 28.82200
C  18.86900 -5.64500 27.36600
C  18.10100 -4.44500 27.01400
C  19.45500 -6.82000 29.77600
C  19.40500 -6.66100 26.37200
O  19.31900 -6.52300 25.14900
C  20.27800 -7.78900 26.83500
N  16.44600 -1.93700 26.08500
C  17.03800 -2.83600 25.35500
C  16.71100 -2.58300 23.83500
C  15.82300 -1.31000 23.85300
C  15.71500 -1.05000 25.32200
C  18.11700 -2.40400 23.13200
C  14.42100 -1.58000 23.11800
C  14.60900 -2.00600 21.66900
N  15.23500 -0.38100 28.24800
C  14.74100 0.38700 27.21600
C  14.11500 1.54700 27.83200
C  14.30600 1.41200 29.15900
C  15.05500 0.25800 29.37600
C  13.55400 2.70700 27.09200
C  14.04600 1.99600 30.50600
O  13.27000 2.91400 30.88500
C  14.84100 1.15400 31.60100
C  15.82500 2.07100 32.40400
O  16.86500 2.58800 32.00200
O  15.25800 2.44100 33.55600
C  15.93900 3.50200 34.27900
H  18.83700 -4.60400 31.27500
H  18.04400 -4.51300 24.81700
H  14.50700 0.53100 25.03600
H  17.36800 -0.24700 32.89700
H  17.55400 -3.14900 33.12300
H  19.92600 -2.22200 31.77700
H  19.71000 -2.45000 33.55000
H  19.48400 -0.92900 32.91900
H  15.53600 -2.50600 33.62500
H  14.77400 -1.00200 33.13600
H  15.53600 -1.47700 35.71300
H  15.25200 0.08500 35.19700
H  19.97200 -7.68800 29.36500
H  18.60100 -7.08000 30.40100
H  20.06800 -6.35600 30.54900
H  20.75400 -8.31000 26.00400
H  19.61000 -8.50900 27.30700
H  21.12400 -7.48500 27.45200
H  16.28900 -3.48900 23.40000
H  16.35000 -0.56000 23.26400
H  18.23800 -3.19000 22.38700
H  18.89100 -2.31400 23.89500
H  18.14400 -1.41600 22.67200
H  13.87200 -0.63900 23.16300
H  13.82100 -2.31400 23.65700
H  13.88500 -1.44100 21.08100
H  14.58000 -3.08400 21.51000
H  15.64600 -1.73600 21.47000
H  13.90500 3.64000 27.53200
H  12.47400 2.83100 27.00500
H  14.04000 2.85700 26.12800
H  14.02700 0.77800 32.22100
H  16.02700 4.30300 33.54500
H  16.88700 3.21200 34.73400
H  15.24900 3.78200 35.07500
Mg 40.06400 9.56700 29.56400
C  42.17300 11.03200 32.03700
C  37.92800 8.61600 32.17600
C  38.22300 8.07800 27.29500
C  42.51000 10.36900 27.10100
N  40.14100 9.77800 31.85600
C  41.01900 10.50000 32.58100
C  40.64000 10.40600 34.07800
C  39.36800 9.47400 34.13100
C  39.12300 9.23400 32.63900
C  39.63700 8.20800 35.05000
C  40.34500 11.88700 34.64600
C  39.53400 11.95100 35.99500
H  40.13200 12.83800 37.13100
N  38.43500 8.41000 29.74000
C  37.61400 8.20500 30.80900
C  36.51200 7.39700 30.43200
C  36.49000 7.33700 29.01900
C  37.72000 8.02600 28.66300
C  35.56800 6.67600 31.43300
C  35.42700 6.67200 28.03500
O  35.51200 6.64300 26.80300
C  34.16300 6.13200 28.70900
N  40.55500 8.97300 27.55200
C  39.45100 8.53300 26.82500
C  39.69500 8.73200 25.32700
C  41.04300 9.48000 25.18200
C  41.45800 9.62300 26.65300
C  39.61100 7.42700 24.46100
C  40.98700 10.76100 24.37100
C  40.60600 12.08000 25.05700
N  41.92600 10.55200 29.45500
C  42.83100 10.74400 28.42800
C  43.99100 11.57100 28.86200
C  43.74900 11.65900 30.26000
C  42.49000 11.05000 30.58100
C  45.18300 12.03500 28.08600
C  44.33100 12.17900 31.46700
O  45.43100 12.67600 31.69000
C  43.47700 11.66900 32.69800
C  44.15200 10.63200 33.58400
O  44.08800 9.44000 33.44000
O  44.78700 11.24700 34.65900
C  45.34600 10.27100 35.62300
H  37.20100 8.51800 32.98400
H  37.62400 7.69500 26.46600
H  43.04300 10.95200 26.34600
H  41.36700 9.89700 34.71100
H  38.47600 9.96400 34.51900
H  38.68100 8.09300 35.56100
H  40.37700 8.50600 35.79200
H  39.99800 7.32200 34.52800
H  40.05400 12.64300 33.91700
H  41.32100 12.35500 34.77700
H  39.17200 11.00400 36.39500
H  38.67600 12.49200 35.59600
H  36.03300 6.61700 32.41700
H  35.35800 5.62400 31.23700
H  34.63400 7.22600 31.54600
H  33.86600 6.98600 29.31700
H  34.40400 5.25100 29.30500
H  33.42000 5.96400 27.93000
H  38.97700 9.49800 25.03300
H  41.78100 8.81200 24.73900
H  39.81700 6.56100 25.09100
H  40.32700 7.38900 23.63900
H  38.64700 7.33900 23.96100
H  40.21800 10.65500 23.60600
H  41.96700 10.88500 23.91000
H  40.47300 12.03000 26.13800
H  39.69800 12.48300 24.60900
H  41.44700 12.73700 24.83300
H  45.08900 13.07800 27.78100
H  45.23500 11.38600 27.21100
H  46.02200 11.98800 28.78000
H  43.19700 12.47200 33.38000
H  44.50900 9.70600 36.03400
H  45.94000 10.86800 36.31500
H  45.95300 9.57200 35.04700

