158

Mg 7.89200 3.22100 27.83200
C  9.73400 1.76000 30.54400
C  6.01500 4.64600 30.18000
C  6.22900 4.37900 25.33500
C  9.51000 0.97100 25.71200
N  7.87500 3.20000 30.11700
C  8.86000 2.71600 30.93600
C  8.64700 3.09500 32.44100
C  7.25600 3.87900 32.25900
C  6.98000 3.92200 30.74500
C  6.08600 3.12900 32.98900
C  9.79700 3.95100 33.09300
C  9.47200 4.79400 34.33800
H  10.43900 4.58300 35.47400
N  6.27100 4.30200 27.79100
C  5.62200 4.83100 28.86700
C  4.61300 5.68600 28.35300
C  4.75600 5.74700 26.92800
C  5.82100 4.79200 26.60100
C  3.48600 6.32200 29.27000
C  3.98400 6.56100 25.90300
O  3.97200 6.36500 24.67000
C  3.07200 7.64200 26.33700
N  7.64900 2.50000 25.76800
C  7.00800 3.30200 24.94200
C  7.19300 2.88300 23.48200
C  8.32500 1.80500 23.60000
C  8.48900 1.68200 25.13700
C  5.91700 2.44800 22.70800
C  9.69000 2.26400 23.06800
C  10.39600 1.09900 22.41300
N  9.37900 1.70700 27.99900
C  9.98100 0.97800 27.01500
C  10.97700 0.12300 27.65900
C  10.93900 0.43700 28.99700
C  9.97300 1.44700 29.15400
C  11.75800 -0.92100 26.90200
C  11.64800 0.17500 30.22200
O  12.66700 -0.41700 30.41200
C  10.91700 1.05700 31.31700
C  10.44000 0.17800 32.38900
O  9.64200 -0.70200 32.32000
O  11.13100 0.48300 33.59600
C  10.80400 -0.30600 34.77500
H  5.49100 5.28600 30.89400
H  5.68200 4.88700 24.53800
H  10.03700 0.44300 24.91400
H  8.57900 2.10500 32.89100
H  7.29900 4.90700 32.62000
H  6.59400 2.42600 33.64900
H  5.49300 2.58500 32.25300
H  5.51000 3.82900 33.59400
H  10.11900 4.62300 32.29700
H  10.60400 3.26000 33.33700
H  8.50100 4.46700 34.71100
H  9.27500 5.80900 33.99300
H  3.62900 5.93700 30.28000
H  2.49000 6.07900 28.89900
H  3.64100 7.39600 29.17000
H  2.91600 8.31800 25.49600
H  3.54600 8.25000 27.10700
H  2.13200 7.24200 26.71800
H  7.60100 3.80500 23.06600
H  7.99200 0.87000 23.15100
H  4.98000 2.49200 23.26400
H  5.85100 1.38900 22.46100
H  5.87800 2.89700 21.71500
H  10.24600 2.67100 23.91400
H  9.50300 3.09700 22.39100
H  10.69900 1.47000 21.43400
H  9.75000 0.23300 22.27000
H  11.25800 0.80800 23.01300
H  12.62500 -1.20300 27.49800
H  12.23300 -0.48400 26.02400
H  11.12800 -1.79800 26.75200
H  11.59700 1.82600 31.68300
H  10.39200 0.39300 35.50200
H  11.70500 -0.70100 35.24600
H  10.10900 -1.12000 34.57200
Mg 9.44200 48.02200 25.40300
C  7.30000 48.06500 28.09200
C  11.95200 49.17200 27.59300
C  11.58400 47.95400 22.92600
C  6.75300 47.47500 23.21800
N  9.50500 49.03000 27.65600
C  8.54400 48.58100 28.51000
C  9.04600 48.77400 30.00500
C  10.37000 49.53100 29.67200
C  10.68400 49.27900 28.19200
C  10.35500 51.07100 29.97100
C  9.29600 47.46600 30.87700
C  8.88000 47.53400 32.30000
H  9.06100 46.34000 33.16200
N  11.47700 48.37200 25.33900
C  12.33000 48.79400 26.36200
C  13.72900 48.64200 25.82900
C  13.56100 48.25200 24.47600
C  12.14700 48.17200 24.16400
C  14.95100 49.11800 26.63300
C  14.78700 47.98200 23.55500
O  14.70700 47.93900 22.36300
C  16.21100 47.77800 24.19100
N  9.16400 48.12300 23.29700
C  10.27800 47.86500 22.50400
C  9.85000 47.50400 21.06400
C  8.30600 47.33600 21.20600
C  8.03900 47.70500 22.66500
C  10.41800 48.36500 19.87400
C  7.78300 46.04500 20.63800
C  8.27200 44.73400 21.33500
N  7.41900 47.83100 25.56400
C  6.42500 47.50900 24.61600
C  5.18800 47.34100 25.23100
C  5.49400 47.47500 26.62000
C  6.86100 47.81700 26.76900
C  3.86700 46.92600 24.73200
C  4.93200 47.35000 27.90100
O  3.76600 47.06900 28.17600
C  6.04800 47.79300 28.96100
C  6.27600 46.57400 29.80000
O  6.88100 45.56100 29.53200
O  5.51200 46.70600 30.90400
C  5.40300 45.52200 31.82200
H  12.78700 49.24600 28.29300
H  12.38800 47.71100 22.22800
H  6.06700 47.22300 22.40700
H  8.24700 49.35700 30.46200
H  11.16100 49.14200 30.31400
H  9.36600 51.49700 29.80300
H  11.10000 51.53900 29.32900
H  10.58900 51.23600 31.02300
H  10.37800 47.48100 31.00300
H  8.89100 46.59400 30.36400
H  7.81000 47.73000 32.37200
H  9.38700 48.43700 32.64000
H  15.48000 48.30000 27.12100
H  14.59400 49.78900 27.41500
H  15.65900 49.67000 26.01500
H  16.17200 47.27900 25.16000
H  16.73600 48.73000 24.26500
H  16.87300 47.24400 23.50900
H  10.42100 46.59400 20.88000
H  7.70900 48.04400 20.63200
H  11.16800 49.02700 20.30600
H  9.64700 48.97900 19.41000
H  10.99400 47.76500 19.17000
H  8.15500 46.00600 19.61400
H  6.69600 45.96700 20.62100
H  7.47200 44.09600 21.71100
H  8.79100 44.93800 22.27100
H  8.82600 44.14300 20.60700
H  4.20900 46.28600 23.91800
H  3.49300 47.84300 24.27800
H  3.16300 46.53000 25.46300
H  5.79800 48.64500 29.59300
H  5.91200 45.70300 32.76900
H  5.73500 44.57300 31.39900
H  4.36200 45.44300 32.13500

