158

Mg 3.01300 -0.68300 43.66000
C  6.31000 0.39700 43.25900
C  1.90100 2.09400 41.84600
C  -0.07000 -2.10400 43.41500
C  4.18900 -3.60800 45.03800
N  3.95700 0.91700 42.43400
C  5.30500 1.22000 42.56800
C  5.50800 2.63500 42.14600
C  4.18500 3.28700 42.06000
C  3.27400 2.02600 42.17900
C  3.86200 4.37400 43.14600
C  6.33900 2.78800 40.84000
C  5.81700 2.18600 39.54800
H  5.71700 3.16700 38.38300
N  1.08900 -0.02700 42.83600
C  0.85400 1.15400 42.16600
C  -0.54100 1.23100 41.83700
C  -1.17600 -0.05300 42.24700
C  -0.07600 -0.78200 42.94500
C  -1.11800 2.47700 41.21200
C  -2.56100 -0.44000 41.95200
O  -3.28900 0.32400 41.39500
C  -3.08000 -1.85100 42.23400
N  2.22300 -2.69100 44.04300
C  0.92600 -2.99700 43.95900
C  0.65600 -4.47600 44.13800
C  2.01000 -4.94300 44.69900
C  2.89700 -3.69800 44.59600
C  -0.57900 -4.78300 44.97300
C  2.74500 -6.13800 43.85900
C  3.59700 -7.08100 44.67800
N  4.94100 -1.52300 44.13600
C  5.23000 -2.55500 44.86200
C  6.64700 -2.61600 45.10500
C  7.12000 -1.46800 44.48500
C  6.01300 -0.80200 43.94500
C  7.33700 -3.64500 45.84400
C  8.27200 -0.66500 44.24500
O  9.46800 -0.82700 44.55700
C  7.80800 0.64600 43.43600
C  8.16100 1.86800 44.22500
O  8.79700 2.83700 43.83200
O  7.98400 1.64500 45.59400
C  8.56800 2.65400 46.45300
H  1.57000 2.96000 41.26900
H  -1.04400 -2.59900 43.39400
H  4.45000 -4.56200 45.50100
H  6.02600 3.10600 42.98200
H  4.09600 3.86600 41.14100
H  3.40600 5.19600 42.59300
H  4.76100 4.71800 43.65700
H  3.10700 4.05400 43.86400
H  7.28500 2.27600 41.01200
H  6.66400 3.80200 40.60800
H  4.82300 1.77600 39.72400
H  6.44800 1.32400 39.33400
H  -0.87700 2.52200 40.15000
H  -0.75500 3.38800 41.68800
H  -2.19300 2.57800 41.36400
H  -4.04700 -1.92900 41.73700
H  -3.19700 -2.08600 43.29200
H  -2.41500 -2.53300 41.70400
H  0.57500 -4.93700 43.15300
H  1.87600 -5.28200 45.72600
H  -1.16300 -3.92400 45.30200
H  -0.23200 -5.30300 45.86500
H  -1.28500 -5.38100 44.39700
H  3.29500 -5.80200 42.98000
H  2.02800 -6.80200 43.37500
H  3.30300 -8.11900 44.52700
H  3.66800 -6.82600 45.73600
H  4.61700 -7.06100 44.29300
H  7.57300 -4.56200 45.30500
H  6.60000 -3.92400 46.59700
H  8.21300 -3.21600 46.33100
H  8.34600 0.69200 42.48900
H  9.65700 2.68500 46.45300
H  8.28200 2.55500 47.50100
H  8.11500 3.59600 46.14400
Mg 41.39300 7.60300 29.16400
C  43.08600 9.08800 31.79700
C  39.22300 6.10900 31.39500
C  39.98700 5.94200 26.52300
C  44.06100 8.52700 27.06100
N  41.23700 7.59200 31.30100
C  41.86400 8.46900 32.19100
C  41.21600 8.53200 33.55200
C  40.18200 7.30300 33.40300
C  40.25200 6.90100 31.95800
C  40.60600 6.03400 34.30600
C  40.60100 9.93800 33.86300
C  40.18900 10.16300 35.32200
H  40.92400 11.04800 36.23500
N  39.67200 6.36600 28.98900
C  38.96000 5.90300 30.00900
C  37.84900 5.13000 29.48000
C  37.94900 5.14800 28.01100
C  39.24800 5.76100 27.74600
C  36.78900 4.53300 30.38400
C  37.00900 4.64900 26.91000
O  37.24200 4.70800 25.69400
C  35.68200 4.26300 27.29800
N  41.89400 7.29600 27.06300
C  41.16700 6.58200 26.19600
C  41.74700 6.71600 24.71600
C  42.93400 7.70500 24.92100
C  42.94100 7.91800 26.46000
C  42.08300 5.27100 24.24300
C  42.71500 9.03800 24.11900
C  41.68600 10.04300 24.60500
N  43.16700 8.57500 29.26500
C  44.19400 8.81000 28.34500
C  45.27700 9.61300 28.96200
C  44.90700 9.74700 30.30300
C  43.67900 9.04900 30.44700
C  46.51200 10.10800 28.33900
C  45.22700 10.34200 31.59300
O  46.14000 11.08000 31.86400
C  44.03400 9.87300 32.61200
C  44.64900 9.11800 33.71900
O  44.67000 7.89600 33.84500
O  45.04100 10.01900 34.71200
C  45.33800 9.39200 36.03400
H  38.69600 5.59800 32.20300
H  39.59700 5.51300 25.59700
H  44.75400 8.99500 26.35900
H  41.90600 8.24800 34.34700
H  39.16800 7.68900 33.50900
H  41.06900 6.26900 35.26500
H  41.27800 5.37700 33.75300
H  39.72800 5.46600 34.61300
H  39.70500 10.02800 33.24800
H  41.32200 10.74800 33.75000
H  40.22800 9.19000 35.81100
H  39.14300 10.46800 35.34600
H  37.03300 4.53900 31.44600
H  36.60000 3.47000 30.23500
H  35.91500 5.16300 30.22100
H  35.16300 5.12400 27.71900
H  35.58600 3.43000 27.99400
H  35.20900 3.96200 26.36300
H  40.90000 7.14400 24.18000
H  43.92900 7.27100 24.82200
H  41.60300 4.53300 24.88600
H  43.15600 5.14400 24.38700
H  41.96700 5.07100 23.17700
H  42.48000 8.78200 23.08600
H  43.69300 9.51200 24.03800
H  40.80300 9.94200 23.97400
H  42.09700 11.04400 24.47900
H  41.33400 10.00500 25.63700
H  46.17100 10.23000 27.31100
H  47.31900 9.37800 28.40600
H  46.64600 11.06900 28.83400
H  43.53700 10.74800 33.03200
H  46.15700 8.68800 35.89400
H  44.56300 8.80400 36.52700
H  45.70800 10.19300 36.67500

