158

Mg 16.97600 -1.71700 28.20100
C  16.31900 0.50100 30.82100
C  18.72200 -3.72000 30.24600
C  17.95900 -3.45500 25.40700
C  15.20300 0.51000 26.02300
N  17.54900 -1.44000 30.30600
C  17.15000 -0.54100 31.21700
C  17.71400 -0.89600 32.59700
C  18.74200 -2.01400 32.37000
C  18.33100 -2.45300 30.93800
C  20.24600 -1.57900 32.37400
C  16.50100 -1.44800 33.47300
C  16.22800 -0.75300 34.88200
H  17.41800 0.05400 35.51000
N  18.06000 -3.43900 27.87200
C  18.73100 -4.10400 28.89800
C  19.35000 -5.29500 28.27000
C  19.07500 -5.24100 26.83600
C  18.25900 -4.07700 26.60400
C  20.13000 -6.33700 29.08500
C  19.62200 -6.20500 25.70900
O  19.51500 -5.97100 24.51500
C  20.47900 -7.39000 26.00300
N  16.74800 -1.40300 26.07600
C  17.26700 -2.29200 25.17000
C  17.16200 -1.82100 23.71100
C  16.09000 -0.63900 23.90500
C  15.92100 -0.53100 25.47000
C  18.60900 -1.35200 23.10900
C  14.71300 -0.89000 23.15900
C  14.34000 0.06400 22.09800
N  15.99600 0.12400 28.34700
C  15.20100 0.83500 27.43100
C  14.61800 2.01800 28.07600
C  14.95200 1.84900 29.38300
C  15.85500 0.76000 29.50000
C  13.73300 3.12700 27.48000
C  14.78400 2.44000 30.67100
O  14.15000 3.45700 31.08800
C  15.67500 1.62000 31.71600
C  16.69900 2.48300 32.30600
O  17.83200 2.63700 31.82800
O  16.17100 3.23400 33.34200
C  16.97900 4.30800 33.92500
H  19.40500 -4.32300 30.84800
H  18.22300 -4.00800 24.50300
H  14.69600 1.19700 25.34200
H  18.25100 -0.04200 33.01200
H  18.60100 -2.82200 33.08800
H  20.30600 -0.49100 32.39200
H  20.84400 -1.99200 31.56100
H  20.57400 -1.85600 33.37500
H  16.58000 -2.53500 33.51100
H  15.64300 -1.17200 32.86000
H  15.83600 -1.45200 35.62100
H  15.33300 -0.18000 34.64200
H  20.35400 -6.00500 30.09900
H  21.07000 -6.54500 28.57400
H  19.68900 -7.31700 29.26700
H  20.09600 -8.04000 26.79000
H  21.39300 -6.93500 26.38500
H  20.70000 -8.06700 25.17700
H  16.73000 -2.55600 23.03100
H  16.47200 0.34300 23.62600
H  18.78300 -1.89800 22.18100
H  19.41200 -1.58200 23.80900
H  18.77800 -0.29700 22.89200
H  13.92400 -0.94500 23.90900
H  14.62600 -1.86900 22.68700
H  15.23100 0.28200 21.51000
H  13.87000 0.99200 22.42300
H  13.64100 -0.44600 21.43500
H  14.14400 4.12800 27.61800
H  12.77300 3.07200 27.99200
H  13.49500 2.86100 26.45000
H  14.94000 1.26700 32.43900
H  17.81900 4.66700 33.33000
H  17.29100 3.83400 34.85600
H  16.31600 5.16000 34.06900
Mg -0.92900 44.06100 26.09300
C  1.48000 43.39000 28.53000
C  -3.35800 43.36200 28.53100
C  -3.19200 43.55800 23.76700
C  1.56900 44.18200 23.61900
N  -0.89100 43.33800 28.28200
C  0.21000 43.46200 29.10200
C  -0.04700 43.21900 30.57900
C  -1.60900 42.95500 30.49800
C  -2.04000 43.34400 29.00700
C  -2.11300 41.55900 30.99000
C  0.42600 44.45500 31.42500
C  0.77000 44.07400 32.91600
H  0.18000 42.71600 33.37900
N  -3.08200 43.64800 26.13900
C  -3.90200 43.59400 27.22400
C  -5.24300 43.56600 26.77600
C  -5.19400 43.34400 25.40500
C  -3.71000 43.43300 25.06200
C  -6.41900 43.61900 27.74100
C  -6.31600 43.18600 24.50800
O  -6.15900 43.10000 23.35000
C  -7.75300 43.15900 25.04400
N  -0.87000 44.16400 24.01800
C  -1.92800 43.78700 23.32300
C  -1.70400 43.93700 21.76000
C  -0.18100 44.24600 21.74600
C  0.24900 44.20200 23.22600
C  -2.03000 42.64700 20.86900
C  0.16000 45.63200 21.09700
C  0.05200 46.91200 21.94800
N  1.13000 44.05400 26.06000
C  2.06800 44.07200 24.98300
C  3.39100 43.89100 25.51400
C  3.23300 43.68400 26.92900
C  1.81600 43.76700 27.19800
C  4.63500 44.02400 24.66500
C  3.89400 43.39300 28.12800
O  5.08000 43.22400 28.43100
C  2.78300 43.14500 29.16700
C  2.99500 41.84400 29.83800
O  2.78900 40.77900 29.32700
O  3.56200 42.04400 31.09600
C  3.90600 40.86900 31.91400
H  -4.15000 43.11300 29.24000
H  -3.87900 43.19200 23.00100
H  2.24400 44.22600 22.76200
H  0.41600 42.25700 30.79900
H  -2.13300 43.66700 31.13400
H  -2.59100 40.97400 30.20300
H  -2.83900 41.72300 31.78600
H  -1.24100 41.05300 31.40300
H  -0.41400 45.14000 31.53900
H  1.31000 44.92700 30.99500
H  0.38400 44.84900 33.57700
H  1.85700 44.15400 32.93400
H  -6.95000 42.66800 27.78300
H  -6.98300 44.42000 27.26200
H  -6.07900 44.06600 28.67500
H  -8.52500 42.92900 24.30900
H  -8.09200 44.12700 25.41200
H  -7.82800 42.33000 25.74800
H  -2.39400 44.68500 21.37000
H  0.37600 43.52200 21.15200
H  -2.08600 41.78800 21.53800
H  -1.32700 42.45100 20.06000
H  -3.01800 42.83700 20.45000
H  -0.35000 45.74500 20.14000
H  1.21500 45.55500 20.83500
H  -0.33100 47.77300 21.39900
H  1.05100 47.24600 22.23000
H  -0.52200 46.81700 22.86900
H  5.47900 44.35900 25.26800
H  4.37500 44.70300 23.85300
H  4.85700 43.00000 24.36800
H  2.92200 43.84500 29.99100
H  3.43800 40.66000 32.87600
H  4.92000 40.94300 32.30700
H  3.72400 39.98700 31.30000

