158

Mg -1.95100 34.27800 26.27500
C  -4.09800 33.04600 28.91000
C  -0.61600 36.45300 28.36300
C  -0.36200 35.35400 23.57300
C  -4.06400 32.26500 24.14600
N  -2.29400 34.66900 28.41100
C  -3.13000 34.03100 29.32800
C  -2.77700 34.51100 30.69400
C  -1.71900 35.71000 30.49800
C  -1.52500 35.64400 28.98400
C  -2.12400 37.03300 31.05200
C  -2.22600 33.41900 31.71700
C  -3.07000 33.36300 32.90300
H  -3.06000 32.04900 33.77800
N  -0.73900 35.83900 25.97700
C  -0.21700 36.64500 26.94900
C  0.78600 37.44600 26.39400
C  0.85600 37.12700 24.97900
C  -0.15100 36.08300 24.76800
C  1.57200 38.50100 27.22700
C  1.77200 37.63700 23.85600
O  1.77900 37.33300 22.64700
C  2.83900 38.62300 24.28900
N  -2.28900 33.93000 24.18100
C  -1.37800 34.51300 23.30300
C  -1.38600 33.79500 21.94500
C  -2.53300 32.72700 22.09100
C  -2.94100 32.94000 23.59800
C  -1.48700 34.73400 20.70500
C  -2.02000 31.33600 21.75400
C  -2.96300 30.47000 20.99500
N  -3.62800 32.85100 26.46500
C  -4.34900 32.14600 25.48500
C  -5.43200 31.30700 26.15800
C  -5.33100 31.62200 27.50600
C  -4.27000 32.53000 27.62700
C  -6.34500 30.32900 25.51300
C  -5.83900 31.23100 28.81300
O  -6.71100 30.34100 29.08800
C  -5.09000 32.18700 29.77700
C  -6.18300 33.02600 30.37900
O  -6.90300 33.85600 29.86000
O  -6.25000 32.77800 31.77200
C  -7.31200 33.47500 32.58000
H  -0.05300 36.98200 29.13400
H  0.36200 35.62900 22.80400
H  -4.69800 31.53900 23.63400
H  -3.69300 34.95900 31.07900
H  -0.74800 35.59100 30.97900
H  -2.51000 37.70000 30.28200
H  -1.35000 37.49900 31.66200
H  -3.05200 36.97900 31.62100
H  -1.21600 33.74300 31.97000
H  -2.16800 32.47900 31.16700
H  -4.08600 33.61800 32.60200
H  -2.85500 34.13900 33.63800
H  1.44100 38.55900 28.30800
H  1.43000 39.50200 26.81900
H  2.62900 38.30900 27.04200
H  3.54700 38.08200 24.91700
H  2.40400 39.40400 24.91200
H  3.37800 39.07300 23.45600
H  -0.37300 33.39400 21.92300
H  -3.35000 32.97900 21.41400
H  -1.58500 35.77100 21.02700
H  -2.27000 34.61800 19.95600
H  -0.70800 34.68600 19.94300
H  -1.57500 30.97300 22.68100
H  -1.17600 31.52600 21.09100
H  -3.80600 31.03400 20.59700
H  -3.27300 29.60200 21.57600
H  -2.39900 30.02100 20.17700
H  -5.83200 29.39600 25.28000
H  -6.74800 30.82100 24.62800
H  -7.13800 30.03600 26.20200
H  -4.47600 31.64000 30.49200
H  -8.11000 32.73700 32.65500
H  -7.72300 34.41800 32.22000
H  -6.89000 33.67300 33.56500
Mg -6.52100 25.23200 26.68200
C  -5.26500 26.58600 29.44500
C  -8.32900 22.89100 28.54400
C  -7.62400 23.85000 23.83000
C  -4.30300 27.15500 24.72700
N  -6.71400 24.72300 28.68100
C  -6.12900 25.47500 29.67300
C  -6.79900 25.19200 31.05600
C  -7.57700 23.85900 30.75800
C  -7.53800 23.77000 29.26700
C  -7.16100 22.63200 31.64400
C  -7.82300 26.32800 31.57000
C  -7.90800 26.51300 33.11500
H  -7.27600 25.40900 34.03800
N  -7.76400 23.57700 26.20900
C  -8.46500 22.81300 27.11100
C  -9.27300 21.83400 26.37000
C  -9.16900 22.17500 25.00200
C  -8.22100 23.28000 24.97500
C  -10.05500 20.81000 27.02800
C  -9.92800 21.52400 23.84200
O  -9.63000 21.83600 22.68500
C  -10.97700 20.43500 24.04400
N  -6.03600 25.52500 24.48700
C  -6.63900 24.76400 23.54100
C  -5.99500 25.02000 22.20500
C  -5.00300 26.22200 22.43500
C  -5.13900 26.37700 23.98700
C  -5.56400 23.74900 21.46000
C  -5.41200 27.50000 21.66000
C  -4.91400 27.34400 20.23700
N  -5.29800 26.75200 26.98700
C  -4.39700 27.36400 26.16200
C  -3.50600 28.23000 26.86000
C  -3.86300 27.95500 28.17000
C  -4.89900 27.05600 28.21700
C  -2.37400 29.06000 26.31000
C  -3.44600 28.16700 29.51600
O  -2.49300 28.87700 29.82400
C  -4.39400 27.31500 30.47400
C  -3.50700 26.46800 31.25600
O  -2.87600 25.43700 30.85200
O  -3.49100 27.04200 32.50100
C  -2.71600 26.32400 33.51900
H  -8.70600 22.16200 29.26400
H  -8.10100 23.36800 22.97400
H  -3.58100 27.79800 24.22000
H  -6.00400 24.98100 31.77200
H  -8.63600 23.92500 31.00700
H  -6.20500 22.70400 32.16100
H  -7.20700 21.73400 31.02900
H  -7.98900 22.37600 32.30500
H  -8.80600 26.09800 31.15900
H  -7.44900 27.24900 31.12200
H  -8.93700 26.75300 33.38300
H  -7.20900 27.32200 33.32600
H  -9.69800 19.79300 26.86400
H  -11.11600 21.01000 26.87700
H  -10.00900 20.94200 28.10900
H  -11.56800 20.37300 23.13000
H  -11.79400 20.65100 24.73200
H  -10.60800 19.43600 24.27600
H  -6.79900 25.35600 21.55000
H  -3.94200 25.98400 22.35700
H  -4.48600 23.75400 21.29900
H  -5.88100 23.82400 20.42000
H  -5.88500 22.82200 21.93600
H  -4.97200 28.40800 22.07100
H  -6.48100 27.68000 21.55100
H  -5.44800 26.52800 19.75100
H  -3.84600 27.34500 20.01900
H  -5.25400 28.27600 19.78500
H  -2.69700 29.81100 25.58800
H  -1.68300 28.36700 25.83100
H  -1.82600 29.43300 27.17500
H  -4.94600 27.98900 31.12800
H  -2.03500 27.08700 33.89500
H  -2.13900 25.41700 33.33800
H  -3.45500 26.10300 34.28900

