158

Mg -1.37200 17.67400 27.23700
C  -2.00100 15.31100 29.79700
C  -1.31000 20.13800 29.57800
C  -1.16700 19.73300 24.72900
C  -2.35300 15.10100 25.06200
N  -1.61600 17.71600 29.43800
C  -1.86900 16.64700 30.27000
C  -1.89200 17.10500 31.75200
C  -1.95800 18.66200 31.58500
C  -1.55200 18.90000 30.10500
C  -3.32800 19.42100 31.79600
C  -0.69200 16.53600 32.53700
C  -0.20000 17.24400 33.81800
H  -0.09200 16.42700 35.12900
N  -1.18900 19.70700 27.11400
C  -1.14800 20.52400 28.18600
C  -0.94000 21.90800 27.68900
C  -0.86800 21.89600 26.28700
C  -1.16200 20.40600 25.94800
C  -0.85600 23.05900 28.71300
C  -0.85800 22.97200 25.31700
O  -0.87300 22.79200 24.10400
C  -0.81800 24.44100 25.77400
N  -1.64400 17.46600 25.22200
C  -1.47700 18.42800 24.34700
C  -1.68100 18.01600 22.87000
C  -1.84400 16.45500 22.97600
C  -1.97200 16.32200 24.49600
C  -2.81100 18.68400 22.10600
C  -0.63300 15.64400 22.45600
C  0.86000 15.91400 22.88200
N  -1.91600 15.62400 27.31400
C  -2.25000 14.72700 26.33200
C  -2.37600 13.39400 26.83100
C  -2.28400 13.59600 28.21100
C  -2.05000 14.94100 28.47600
C  -2.79300 12.25900 25.96100
C  -2.33500 12.90400 29.43700
O  -2.33200 11.69000 29.65300
C  -2.25300 13.98400 30.55600
C  -1.15400 13.51300 31.38100
O  0.04600 13.72300 31.22900
O  -1.68100 12.89200 32.44600
C  -0.67000 12.28300 33.38100
H  -1.21500 20.96400 30.28500
H  -1.03600 20.28400 23.79500
H  -2.48500 14.39300 24.24200
H  -2.87500 16.84800 32.14500
H  -1.14700 19.19600 32.08100
H  -3.99200 19.29700 30.94000
H  -3.08200 20.43700 32.10400
H  -3.86500 18.86700 32.56700
H  0.19000 16.28700 31.94500
H  -1.23500 15.65800 32.88600
H  -0.98000 17.97900 34.01400
H  0.64100 17.93000 33.72400
H  -1.33300 23.90500 28.21900
H  0.15300 23.33500 29.02000
H  -1.36100 22.85000 29.65600
H  -1.73500 24.78700 26.25000
H  -0.69200 25.25100 25.05500
H  0.07100 24.33700 26.39600
H  -0.78000 18.20900 22.28700
H  -2.77700 16.15100 22.50200
H  -2.37400 19.28700 21.31100
H  -3.40300 19.25500 22.82100
H  -3.50000 17.95600 21.67600
H  -0.69100 15.62800 21.36700
H  -0.74400 14.63900 22.86300
H  1.38500 15.00300 23.17000
H  0.96500 16.74000 23.58600
H  1.33000 16.18000 21.93500
H  -2.07500 12.27300 25.14100
H  -3.78600 12.27500 25.51100
H  -2.66500 11.30300 26.46900
H  -3.22600 13.83500 31.02300
H  0.28900 12.06200 32.91300
H  -1.00700 11.30900 33.73600
H  -0.60100 12.85700 34.30500
Mg -4.83500 25.40300 26.47700
C  -3.41300 26.79800 29.32300
C  -7.05200 23.62800 28.48800
C  -5.86700 23.95600 23.72400
C  -2.62800 27.43900 24.58000
N  -5.12000 25.21000 28.65500
C  -4.41900 25.83500 29.68800
C  -5.03700 25.48900 31.09100
C  -5.84400 24.22700 30.65900
C  -6.04800 24.37500 29.18400
C  -5.22200 22.83600 31.07900
C  -5.92700 26.59500 31.67000
C  -6.01800 26.54700 33.27900
H  -5.50500 25.26100 33.98300
N  -6.31600 23.98700 26.11700
C  -7.13000 23.45300 27.08200
C  -8.08200 22.54700 26.38500
C  -7.69600 22.62000 24.99500
C  -6.55900 23.48500 24.88500
C  -9.16400 21.87500 27.14000
C  -8.32300 21.95900 23.79600
O  -7.82100 21.97500 22.71700
C  -9.56700 21.16600 24.01200
N  -4.29200 25.65800 24.43400
C  -4.87900 24.92000 23.49500
C  -4.50900 25.42300 22.07500
C  -3.56600 26.65000 22.27600
C  -3.51700 26.59600 23.86100
C  -4.06800 24.32400 21.18900
C  -4.23000 27.99400 21.80200
C  -3.50000 28.49600 20.52000
N  -3.31500 26.78600 26.83300
C  -2.52500 27.52500 26.01100
C  -1.69400 28.42600 26.75000
C  -1.91800 28.09800 28.07600
C  -2.93400 27.19500 28.05300
C  -0.73400 29.36100 26.15100
C  -1.51800 28.38400 29.41600
O  -0.63500 29.15000 29.83300
C  -2.39800 27.48900 30.30300
C  -1.67700 26.53700 31.24200
O  -1.15400 25.50100 30.94900
O  -1.85000 27.10800 32.49400
C  -1.37100 26.49600 33.71600
H  -7.73500 23.09200 29.15100
H  -6.24000 23.67700 22.73600
H  -2.03500 28.20000 24.06900
H  -4.16000 25.18500 31.66400
H  -6.83300 24.26400 31.11600
H  -5.96100 22.16300 31.51400
H  -4.41700 23.04900 31.78300
H  -4.67700 22.31500 30.29200
H  -6.89400 26.48100 31.18000
H  -5.58200 27.53400 31.23800
H  -7.06500 26.74100 33.51200
H  -5.34700 27.33200 33.62700
H  -9.19400 20.80400 26.93900
H  -10.19500 22.12400 26.89100
H  -9.02900 21.93300 28.22000
H  -9.26400 20.25000 24.52000
H  -10.04300 21.05900 23.03800
H  -10.28900 21.77100 24.56100
H  -5.46500 25.76000 21.67300
H  -2.66100 26.35700 21.74300
H  -3.36400 24.70000 20.44600
H  -4.96100 23.98200 20.66600
H  -3.71800 23.60300 21.92900
H  -4.02800 28.84500 22.45300
H  -5.31400 27.90800 21.72000
H  -4.22000 28.67000 19.72000
H  -2.76800 27.75600 20.19300
H  -2.93000 29.42400 20.55000
H  -0.17100 28.86800 25.35900
H  0.01800 29.71900 26.85500
H  -1.22200 30.20200 25.65900
H  -2.80300 28.28000 30.93400
H  -1.00100 25.48600 33.54300
H  -2.14200 26.52800 34.48500
H  -0.43900 27.01300 33.94800

