158

Mg 8.68700 47.73000 26.91100
C  6.69200 47.48900 29.79800
C  11.48000 47.89700 28.92900
C  10.70100 48.31900 24.30200
C  5.93800 47.66500 24.97400
N  8.98100 47.76000 29.05600
C  8.06300 47.50600 30.08800
C  8.75600 47.57100 31.47000
C  10.27600 47.81600 31.11100
C  10.25600 47.83800 29.59200
C  10.95900 49.09400 31.71400
C  8.50200 46.32600 32.37000
C  9.53600 45.98700 33.46300
H  9.03100 45.44600 34.79600
N  10.80800 47.83400 26.69600
C  11.78000 47.86700 27.63000
C  13.07900 48.01000 27.05600
C  12.92100 48.19200 25.65400
C  11.43400 48.15100 25.49600
C  14.30400 47.98000 27.92100
C  13.97300 48.44600 24.54200
O  13.66500 48.52900 23.38700
C  15.38300 48.40600 24.79000
N  8.34400 48.21100 24.89800
C  9.31100 48.43500 23.99700
C  8.76300 48.45500 22.55000
C  7.25000 48.06500 22.76000
C  7.14600 47.96100 24.31700
C  8.88400 49.90200 21.84000
C  6.90600 46.65700 22.15700
C  5.90300 46.63100 20.99700
N  6.63700 47.75700 27.30000
C  5.66200 47.63900 26.38900
C  4.32400 47.50800 27.10100
C  4.67100 47.54700 28.45600
C  6.12600 47.57900 28.51400
C  3.00500 47.27900 26.51300
C  4.17700 47.40900 29.79300
O  3.04900 47.36900 30.20200
C  5.49000 47.42300 30.71600
C  5.34100 46.01500 31.31800
O  5.92900 45.01000 31.01600
O  4.65300 46.14500 32.48100
C  4.60300 44.96700 33.36800
H  12.36400 47.90400 29.57000
H  11.36100 48.41500 23.43700
H  5.03100 47.73600 24.37100
H  8.31000 48.49100 31.84600
H  10.83000 46.89900 31.30600
H  11.94400 48.76800 32.04900
H  10.36400 49.70700 32.39200
H  11.14000 49.72800 30.84600
H  8.29300 45.50900 31.68000
H  7.58000 46.50000 32.92400
H  10.19000 46.84200 33.63100
H  10.25100 45.39200 32.89400
H  14.14400 47.42200 28.84400
H  14.51900 49.01800 28.17800
H  15.10200 47.50800 27.34900
H  16.00900 48.69400 23.94600
H  15.81200 47.44200 25.06400
H  15.61600 49.01800 25.66200
H  9.37000 47.77900 21.94900
H  6.61800 48.84600 22.33800
H  9.52600 50.62900 22.33700
H  7.97100 50.47900 21.69300
H  9.34200 49.61900 20.89200
H  6.60600 45.97600 22.95400
H  7.84400 46.15900 21.91200
H  6.58400 46.68500 20.14700
H  5.20400 47.46400 21.06600
H  5.36700 45.68300 20.96100
H  2.29600 48.05000 26.81800
H  2.57000 46.36000 26.90600
H  2.93400 47.17700 25.43000
H  5.42300 48.17700 31.50100
H  4.83300 45.37100 34.35300
H  5.24800 44.13500 33.08700
H  3.62800 44.48200 33.40800
Mg -10.90800 17.32700 42.44300
C  -7.35900 16.65700 42.17000
C  -10.29000 20.51000 41.64500
C  -14.17700 17.61200 42.22500
C  -11.22000 13.79900 42.73700
N  -9.04200 18.33900 41.83300
C  -7.66900 17.98200 41.89900
C  -6.76800 19.15800 41.54000
C  -7.75100 20.35600 41.70100
C  -9.13900 19.73400 41.64000
C  -7.56200 21.13100 43.09700
C  -6.05100 19.06900 40.21600
C  -6.77800 19.30200 38.93200
H  -6.12700 18.85600 37.64300
N  -12.13700 18.94000 42.10300
C  -11.66700 20.18100 41.68000
C  -12.84300 20.96800 41.32800
C  -14.01600 20.18500 41.69800
C  -13.45500 18.82700 42.05100
C  -12.77100 22.34700 40.81200
C  -15.47000 20.66800 41.59300
O  -15.77600 21.80600 41.23300
C  -16.55400 19.71700 41.79300
N  -12.42400 15.93700 42.20500
C  -13.69100 16.35000 42.47400
C  -14.67000 15.13600 42.56100
C  -13.67200 13.99000 42.45700
C  -12.31500 14.62000 42.46200
C  -15.63100 14.98600 43.80200
C  -13.72100 12.95400 41.33800
C  -14.33700 11.61100 41.77700
N  -9.59700 15.50000 42.46100
C  -9.89400 14.17800 42.62300
C  -8.68000 13.45000 42.69500
C  -7.65900 14.39600 42.61700
C  -8.29800 15.59400 42.41800
C  -8.61800 11.92100 42.79700
C  -6.15400 14.63900 42.65000
O  -5.26100 13.81300 42.72900
C  -5.96700 16.09400 42.19300
C  -5.06400 16.78700 43.25700
O  -3.93000 17.16900 43.14200
O  -5.72600 16.79400 44.44100
C  -5.00700 17.45100 45.52600
H  -10.11700 21.58200 41.52700
H  -15.26800 17.64100 42.23200
H  -11.42800 12.74100 42.90700
H  -6.04800 19.31100 42.34500
H  -7.41400 21.08600 40.96500
H  -6.99500 20.67500 43.90700
H  -8.55700 21.17400 43.54000
H  -7.21600 22.15500 42.95600
H  -5.62000 18.07600 40.08400
H  -5.18000 19.72400 40.25800
H  -6.98800 20.36600 38.82700
H  -7.80000 18.93300 39.01600
H  -13.10500 22.18600 39.78700
H  -11.79000 22.82200 40.78700
H  -13.36000 23.08600 41.35400
H  -16.56900 19.00900 40.96400
H  -17.46900 20.30700 41.73800
H  -16.44400 19.17500 42.73200
H  -15.26500 15.05000 41.65200
H  -13.72100 13.42500 43.38800
H  -15.59800 15.92800 44.34800
H  -15.37200 14.12600 44.41900
H  -16.70500 14.86100 43.66100
H  -12.73700 12.65000 40.97900
H  -14.32900 13.37000 40.53500
H  -15.32300 11.58900 41.31300
H  -14.40300 11.62000 42.86500
H  -13.79000 10.74400 41.40600
H  -7.81700 11.58900 43.45700
H  -8.33800 11.62600 41.78600
H  -9.56100 11.45600 43.08400
H  -5.53500 16.14600 41.19400
H  -5.75000 17.28900 46.30700
H  -4.80900 18.48600 45.24600
H  -4.06600 16.91600 45.65000

