158

Mg 25.44900 -7.52700 48.30200
C  27.78100 -5.11800 47.09200
C  23.31500 -6.52100 45.83600
C  23.58500 -10.24200 48.85700
C  27.99600 -8.74400 50.44800
N  25.71700 -6.05600 46.62500
C  26.64100 -5.12000 46.30700
C  26.27100 -4.14500 45.20400
C  24.72100 -4.53200 45.12800
C  24.58600 -5.82400 45.87600
C  23.67000 -3.48400 45.60700
C  27.05000 -4.46000 43.90500
C  27.70100 -3.27900 43.17400
H  27.53800 -3.01600 41.68900
N  23.57100 -8.28100 47.44100
C  22.86500 -7.67500 46.51800
C  21.55600 -8.29800 46.39600
C  21.54600 -9.30000 47.46200
C  22.96600 -9.41500 47.91800
C  20.46300 -7.89200 45.43400
C  20.39500 -10.17400 47.83400
O  19.30000 -10.07500 47.31800
C  20.47500 -11.24900 48.94400
N  25.80300 -9.32900 49.44900
C  24.78500 -10.18500 49.63200
C  25.12000 -11.35600 50.62400
C  26.52200 -10.88100 51.09400
C  26.80700 -9.56600 50.32500
C  24.00900 -11.69900 51.62000
C  27.65200 -11.97400 50.87500
C  28.65000 -12.07000 52.04800
N  27.38700 -7.07800 48.83100
C  28.27300 -7.56900 49.69600
C  29.49500 -6.83200 49.71700
C  29.27500 -5.82900 48.74600
C  28.03100 -6.01700 48.18200
C  30.60700 -7.13200 50.60900
C  29.95100 -4.70100 48.05900
O  31.06100 -4.24200 48.24900
C  28.92300 -4.19900 47.01400
C  28.55600 -2.84000 47.42200
O  28.10700 -2.61200 48.53500
O  28.82700 -1.86500 46.44400
C  28.22100 -0.61800 46.86100
H  22.55500 -6.32100 45.07800
H  22.89400 -11.00400 49.22400
H  28.65900 -9.12400 51.22800
H  26.44800 -3.15800 45.63100
H  24.51000 -4.82500 44.09900
H  24.13600 -2.69900 46.20100
H  22.86300 -3.89700 46.21300
H  23.11700 -3.13300 44.73600
H  26.44000 -5.02100 43.19700
H  27.78400 -5.24500 44.08800
H  28.78300 -3.35100 43.28100
H  27.40900 -2.36100 43.68500
H  19.42900 -7.83200 45.77300
H  20.36400 -8.55900 44.57800
H  20.62400 -6.95400 44.90300
H  21.18900 -11.95600 48.52100
H  19.50900 -11.73400 49.08300
H  20.79500 -10.74300 49.85500
H  25.28300 -12.21700 49.97600
H  26.52400 -10.59000 52.14400
H  23.67000 -12.72800 51.50000
H  23.20600 -10.96700 51.70600
H  24.44700 -11.67400 52.61800
H  28.20000 -11.76800 49.95600
H  27.18700 -12.95300 50.75800
H  28.39800 -12.97000 52.60900
H  28.56100 -11.18600 52.67900
H  29.69400 -12.04900 51.73500
H  30.10900 -6.88400 51.54600
H  31.57900 -6.65600 50.47800
H  30.74800 -8.21200 50.64300
H  29.37600 -4.09900 46.02800
H  29.00500 0.08200 47.15000
H  27.44600 -0.64400 47.62800
H  27.73800 -0.37800 45.91400
Mg 46.25300 24.20200 28.73600
C  47.14000 26.28300 31.42200
C  45.25600 21.86800 30.97900
C  46.42200 21.84200 26.28000
C  47.84500 26.52000 26.60800
N  45.93500 24.25200 30.96200
C  46.36100 25.23300 31.86600
C  45.96000 24.83700 33.30600
C  45.55200 23.29400 33.15000
C  45.62200 23.06900 31.59500
C  46.44100 22.35200 33.95300
C  44.83500 25.76200 33.98000
C  45.13700 26.33000 35.40500
H  44.05200 26.26000 36.39700
N  45.76700 22.18700 28.60100
C  45.43100 21.43900 29.64900
C  45.06700 20.08700 29.19200
C  45.29800 20.10800 27.76900
C  45.84700 21.42300 27.48400
C  44.43300 19.02500 30.07400
C  45.01300 19.00500 26.73700
O  45.08000 19.20400 25.50700
C  44.59500 17.70900 27.30400
N  46.88000 24.30100 26.67900
C  46.85500 23.10500 25.94500
C  47.44900 23.35300 24.56000
C  47.79600 24.90100 24.59000
C  47.47200 25.32700 26.02600
C  48.53400 22.44400 24.04100
C  47.11500 25.75500 23.52000
C  47.79800 25.86600 22.11000
N  47.09100 26.04200 28.87400
C  47.66200 26.90300 27.94700
C  48.21200 28.10500 28.52700
C  48.05700 27.88300 29.89500
C  47.34300 26.62800 30.08400
C  48.83200 29.29500 27.79800
C  48.34500 28.44500 31.24200
O  48.88100 29.51900 31.59100
C  47.72600 27.39600 32.28300
C  48.74400 26.92700 33.22000
O  49.50600 26.00100 32.92600
O  48.60900 27.58300 34.42900
C  49.34000 27.07700 35.59400
H  45.01200 21.03800 31.64500
H  46.41300 21.12700 25.45500
H  48.30000 27.20800 25.89200
H  46.86700 24.99700 33.88900
H  44.50200 23.19700 33.42600
H  45.92800 22.31400 34.91400
H  47.49900 22.61400 33.96100
H  46.31400 21.36000 33.51800
H  43.87400 25.24900 34.00800
H  44.85300 26.66200 33.36500
H  45.36000 27.39700 35.40600
H  46.02100 25.81400 35.77900
H  43.41200 18.99900 29.69300
H  44.43200 19.29900 31.12900
H  45.02400 18.11000 30.06100
H  43.70300 17.83100 27.91800
H  45.46000 17.42600 27.90300
H  44.39000 17.04500 26.46400
H  46.64900 23.23000 23.83000
H  48.85600 25.01900 24.36200
H  49.47300 22.97200 23.87700
H  48.20300 21.99300 23.10500
H  48.64000 21.79000 24.90600
H  47.15900 26.77100 23.91200
H  46.09200 25.41200 23.36800
H  48.70000 25.26100 22.02200
H  48.10300 26.87800 21.84300
H  47.02500 25.44100 21.47000
H  48.41600 29.56900 26.82800
H  49.86800 28.99700 27.63800
H  48.81000 30.20400 28.39800
H  46.89100 27.89200 32.77800
H  50.27400 27.63700 35.60100
H  49.64800 26.03100 35.59300
H  48.74500 27.34000 36.46900

