158

Mg 6.77500 53.70900 40.71700
C  6.94800 50.11900 40.56100
C  10.12100 53.71100 39.78800
C  6.44000 56.89300 40.13700
C  3.34600 53.27800 41.57100
N  8.26300 52.07400 40.23700
C  8.11200 50.72600 40.23400
C  9.49000 50.06700 39.69900
C  10.51600 51.18400 39.85300
C  9.58300 52.42800 39.95400
C  11.44500 51.16700 41.10900
C  9.44800 49.45500 38.28500
C  9.10000 50.47200 37.17600
H  7.64000 50.75100 36.72900
N  8.08600 55.11400 39.96900
C  9.46700 54.92200 39.79700
C  10.02800 56.23300 39.70400
C  8.96700 57.14500 39.58300
C  7.75100 56.39900 39.85900
C  11.58900 56.46900 39.54100
C  9.15500 58.62500 39.40300
O  10.25000 59.20600 39.31800
C  7.98100 59.63600 39.10800
N  4.95400 54.81600 40.55500
C  5.24100 56.21800 40.59000
C  3.89300 56.98000 40.83200
C  2.96500 55.90800 41.41800
C  3.76600 54.53700 41.19600
C  4.10500 58.31100 41.72900
C  1.61600 55.84500 40.69400
C  0.44300 56.80800 41.18900
N  5.37900 52.11000 41.00800
C  4.05300 52.07500 41.44900
C  3.68000 50.71300 41.82600
C  4.74300 49.93200 41.39500
C  5.75800 50.79400 40.90600
C  2.43000 50.32500 42.53300
C  5.18500 48.66700 41.32900
O  4.59700 47.62500 41.58700
C  6.48500 48.69700 40.56800
C  6.06900 48.28100 39.21900
O  5.32000 48.92200 38.46600
O  6.50500 47.00000 39.03800
C  5.82800 46.30500 37.91200
H  11.16500 53.72400 39.46700
H  6.31600 57.97800 40.15500
H  2.33800 53.17000 41.97700
H  9.75300 49.28900 40.41500
H  11.04000 51.46100 38.93800
H  11.81300 50.14300 41.04200
H  10.87100 51.31300 42.02400
H  12.34000 51.78700 41.05400
H  8.56500 48.81700 38.27800
H  10.25000 48.83000 37.89100
H  9.63800 50.33800 36.23800
H  9.48800 51.43200 37.51700
H  11.80000 56.39600 38.47500
H  12.08400 55.68600 40.11600
H  11.94700 57.43700 39.89300
H  7.14700 59.23200 38.53400
H  8.38900 60.49500 38.57400
H  7.74700 59.97200 40.11800
H  3.62400 57.21400 39.80200
H  2.71000 56.00700 42.47300
H  5.13800 58.33300 42.07900
H  3.52200 58.21700 42.64500
H  3.83200 59.19900 41.16000
H  1.29100 54.80700 40.63000
H  1.82100 56.15200 39.66900
H  -0.49600 56.40400 41.56800
H  0.19400 57.36800 40.28800
H  0.65900 57.47100 42.02700
H  2.62800 49.53500 43.25800
H  1.67800 49.95500 41.83500
H  2.08100 51.14100 43.16500
H  7.22100 48.04000 41.03100
H  6.55800 45.75000 37.32100
H  5.16100 46.88500 37.27500
H  5.02600 45.70000 38.33600
Mg 8.33500 48.17100 28.00400
C  6.54500 47.69900 30.97600
C  11.16000 48.44000 29.80600
C  9.88800 48.99600 25.16800
C  5.20500 48.81700 26.31200
N  8.77400 47.99700 30.19900
C  7.92500 47.76100 31.28700
C  8.66400 47.70200 32.66400
C  10.13900 48.14400 32.22200
C  10.05800 48.27200 30.64000
C  10.68800 49.50900 32.76400
C  8.59100 46.40100 33.51300
C  8.54700 46.64300 35.09900
H  9.18000 45.52600 35.92900
N  10.22700 48.53000 27.58700
C  11.30600 48.54100 28.46800
C  12.57600 48.58000 27.76800
C  12.21700 48.76000 26.40600
C  10.73600 48.74700 26.29300
C  13.91600 48.41800 28.46600
C  13.10900 48.96500 25.16000
O  12.69400 49.20200 24.03900
C  14.53400 48.93600 25.17000
N  7.65100 48.73100 26.05600
C  8.48800 48.92900 25.04400
C  7.74000 49.24800 23.72500
C  6.27200 49.07600 24.07000
C  6.38500 48.83400 25.51000
C  8.11100 50.62000 22.95400
C  5.55000 47.94600 23.32800
C  5.67000 47.91000 21.81200
N  6.29000 48.16200 28.42700
C  5.17300 48.52700 27.66000
C  4.04000 48.35200 28.49800
C  4.52700 48.08800 29.80200
C  5.91400 47.98300 29.73300
C  2.60300 48.28300 27.95300
C  4.09400 47.85200 31.16200
O  2.97600 47.79700 31.68400
C  5.38500 47.52800 31.94200
C  5.35000 46.22400 32.54700
O  5.55700 45.16300 31.95500
O  5.07400 46.29500 33.89700
C  4.83600 45.05400 34.57000
H  12.07500 48.24900 30.37100
H  10.32300 49.31900 24.21900
H  4.26700 49.04000 25.79900
H  8.19900 48.42100 33.33800
H  10.78300 47.31500 32.51500
H  11.43000 49.28600 33.53000
H  9.96300 50.12400 33.29700
H  11.26100 50.10000 32.05000
H  9.38400 45.66600 33.37500
H  7.69400 45.85300 33.22100
H  7.50600 46.67300 35.42200
H  8.99900 47.61300 35.31000
H  14.35400 47.51000 28.05100
H  13.90500 48.35500 29.55400
H  14.52700 49.29100 28.23600
H  14.90000 49.63800 25.91800
H  15.01900 49.26500 24.25200
H  14.82000 47.90900 25.39800
H  7.95700 48.44700 23.01800
H  5.91300 50.06600 23.78900
H  8.47900 50.33900 21.96800
H  8.84800 51.23600 23.46900
H  7.24500 51.27900 22.88800
H  4.47300 48.03800 23.46700
H  5.74200 46.95000 23.72700
H  6.03800 46.94200 21.47400
H  6.41900 48.67400 21.60300
H  4.70500 48.15200 21.36600
H  2.07300 49.23500 27.95300
H  1.95700 47.60600 28.51200
H  2.58600 48.05300 26.88800
H  5.55300 48.24700 32.74400
H  4.76300 45.36200 35.61300
H  5.64600 44.32600 34.52500
H  3.90300 44.61200 34.22000

