158

Mg 17.38500 -2.29500 28.11000
C  16.31200 -0.41400 30.80600
C  19.22900 -4.26700 30.23100
C  18.67200 -3.88800 25.41000
C  15.68800 -0.06100 25.99600
N  17.82800 -2.26000 30.27900
C  17.18600 -1.47800 31.18400
C  17.41200 -1.98700 32.61800
C  18.43500 -3.11100 32.40100
C  18.52600 -3.22000 30.85200
C  19.83700 -2.91800 33.09400
C  16.07900 -2.30000 33.34300
C  16.02300 -2.10200 34.89400
H  17.16100 -1.38600 35.61500
N  18.68100 -3.98100 27.83800
C  19.40200 -4.64500 28.83900
C  20.25900 -5.66500 28.29200
C  20.00000 -5.55100 26.90800
C  19.02700 -4.47000 26.66700
C  21.16000 -6.62500 29.06400
C  20.53300 -6.48000 25.83300
O  20.27900 -6.37600 24.63100
C  21.31800 -7.68900 26.22900
N  17.10800 -2.14600 26.04700
C  17.92800 -2.77800 25.07200
C  17.60900 -2.33500 23.67300
C  16.51000 -1.32400 23.92100
C  16.50200 -1.04800 25.43100
C  18.83500 -1.90000 22.92600
C  15.13000 -1.72900 23.16300
C  14.85900 -1.31500 21.71100
N  16.25800 -0.47400 28.29200
C  15.56500 0.19800 27.35000
C  14.66600 1.13900 27.99100
C  14.93900 0.97100 29.41600
C  15.92100 -0.08100 29.52300
C  13.87000 2.16500 27.35000
C  14.72100 1.47300 30.75100
O  13.98500 2.33800 31.16600
C  15.52500 0.52600 31.70500
C  16.46900 1.35100 32.57500
O  17.69300 1.47900 32.37000
O  15.76300 2.17400 33.42300
C  16.58400 3.00800 34.28800
H  19.90800 -4.81000 30.89100
H  19.06800 -4.24200 24.45600
H  15.17600 0.67700 25.37600
H  17.83100 -1.12600 33.13900
H  18.02100 -4.07400 32.69700
H  19.67700 -2.99200 34.17000
H  20.22600 -1.91300 32.93300
H  20.48600 -3.74900 32.81600
H  15.91900 -3.37700 33.29500
H  15.15200 -2.04000 32.83200
H  15.80900 -3.06500 35.35700
H  15.12400 -1.50300 35.04200
H  20.63800 -7.58200 29.09600
H  21.25500 -6.26200 30.08800
H  22.18100 -6.68600 28.68700
H  21.58400 -8.35100 25.40500
H  20.71200 -8.34300 26.85700
H  22.26200 -7.49100 26.73700
H  17.13800 -3.11500 23.07600
H  16.82700 -0.38500 23.46800
H  19.75000 -1.97100 23.51400
H  18.65000 -0.88800 22.56600
H  18.84000 -2.58300 22.07700
H  14.42300 -1.16700 23.77200
H  14.91700 -2.79600 23.23000
H  14.24300 -0.41600 21.69100
H  14.52900 -2.12000 21.05500
H  15.78300 -0.82500 21.40300
H  12.83100 1.83400 27.36600
H  14.13400 2.13500 26.29300
H  13.87100 3.15400 27.80700
H  14.84700 -0.01700 32.36400
H  17.64100 2.74000 34.29500
H  16.42500 2.77400 35.34000
H  16.50300 4.06900 34.05000
Mg 40.83000 41.53100 26.75800
C  40.25000 43.90500 29.28100
C  41.79700 39.32800 29.14800
C  41.84900 39.41500 24.26400
C  39.93300 44.00000 24.34500
N  40.86100 41.56500 29.00800
C  40.60600 42.66700 29.76300
C  40.70900 42.25000 31.22500
C  41.26800 40.77100 31.21600
C  41.32600 40.54700 29.73000
C  42.64300 40.39100 31.90800
C  39.32800 42.43000 31.95400
C  39.18000 41.66800 33.22300
H  38.73500 42.53500 34.44000
N  41.57500 39.59700 26.67600
C  42.00500 38.84400 27.81800
C  42.55900 37.63700 27.30100
C  42.61000 37.70300 25.90900
C  42.02900 38.97300 25.58800
C  42.87400 36.45900 28.19500
C  43.13200 36.66600 24.85600
O  42.98400 36.82500 23.67500
C  43.75500 35.46600 25.40900
N  40.83800 41.73000 24.60100
C  41.13400 40.59600 23.80900
C  40.89300 40.93600 22.33600
C  40.05700 42.28300 22.43700
C  40.15100 42.70100 23.87300
C  42.25800 41.21000 21.60000
C  38.58300 42.17700 21.93800
C  37.42900 41.73600 22.88300
N  40.25100 43.60400 26.74200
C  39.97700 44.46500 25.75000
C  39.66900 45.77200 26.28100
C  39.71000 45.57900 27.68000
C  40.15200 44.29500 27.92600
C  39.34700 47.06800 25.48000
C  39.70900 46.28100 28.95900
O  39.42300 47.38500 29.31500
C  39.95200 45.14800 30.04600
C  41.11500 45.61700 30.76600
O  42.23900 45.61200 30.29400
O  40.77200 46.28600 31.89300
C  41.85200 46.94300 32.56100
H  41.95100 38.53200 29.88000
H  42.06800 38.82000 23.37500
H  39.56700 44.72300 23.61400
H  41.54100 42.86500 31.56900
H  40.47200 40.11300 31.56300
H  42.52600 39.57300 32.61900
H  43.00100 41.23700 32.49500
H  43.40900 40.10000 31.19000
H  38.59600 42.13200 31.20200
H  39.26400 43.48600 32.21400
H  40.07400 41.11200 33.50700
H  38.45100 40.88800 33.00500
H  42.14200 35.72200 27.86600
H  42.69300 36.70900 29.24100
H  43.93500 36.39900 27.95400
H  42.89400 34.91900 25.79300
H  44.56500 35.73800 26.08600
H  44.06100 34.81000 24.59400
H  40.20800 40.26600 21.81800
H  40.52900 43.03200 21.80000
H  43.10100 41.01000 22.26100
H  42.27200 42.12500 21.00700
H  42.31200 40.46100 20.81000
H  38.54200 41.41300 21.16100
H  38.37300 43.14100 21.47300
H  36.78900 42.60100 23.05700
H  37.86200 41.39800 23.82400
H  36.91100 40.86700 22.47600
H  39.06300 46.83500 24.45400
H  40.26400 47.65100 25.40000
H  38.51900 47.58700 25.96300
H  39.10600 45.17600 30.73300
H  42.21800 47.77000 31.95200
H  42.70000 46.32900 32.86500
H  41.38100 47.39300 33.43500

