158

Mg 0.39100 7.93000 25.65400
C  1.17100 9.53100 28.65600
C  0.06000 4.93100 27.45700
C  0.42700 6.16800 22.78600
C  1.41000 10.74200 23.84100
N  0.73200 7.30600 27.80000
C  0.84800 8.18200 28.88500
C  0.76000 7.47600 30.24100
C  0.63100 6.01600 29.72700
C  0.39700 6.08600 28.22500
C  1.79600 5.10900 30.14000
C  -0.46600 7.83800 31.17300
C  -0.45600 7.41000 32.67900
H  0.76900 6.69600 33.30100
N  0.08400 5.88100 25.18500
C  -0.00300 4.80300 26.06600
C  -0.24400 3.60600 25.33000
C  -0.09300 3.90700 23.94300
C  0.18200 5.38100 23.94200
C  -0.49200 2.33400 26.11900
C  -0.22100 2.97000 22.73200
O  0.03000 3.32400 21.58300
C  -0.45500 1.46200 23.00600
N  0.90000 8.43400 23.60800
C  0.67700 7.49800 22.60300
C  0.92500 8.09700 21.20500
C  1.22500 9.57800 21.52500
C  1.10900 9.65700 23.10200
C  2.10000 7.27900 20.50500
C  0.13800 10.55700 20.89200
C  -1.23600 10.87100 21.56200
N  1.17900 9.78800 26.11700
C  1.47200 10.87100 25.27000
C  1.81800 12.01100 26.17100
C  1.72400 11.54900 27.46900
C  1.32400 10.18900 27.38300
C  2.04500 13.46900 25.75900
C  1.78000 11.93900 28.82200
O  2.22000 13.01100 29.23200
C  1.44800 10.65200 29.69100
C  2.55000 10.34600 30.58800
O  3.49800 9.62000 30.29200
O  2.37900 10.88200 31.81300
C  3.55800 10.65200 32.71100
H  -0.14200 4.00400 27.99800
H  0.22800 5.69200 21.82300
H  1.54300 11.71400 23.36100
H  1.63500 7.63000 30.87200
H  -0.22300 5.53400 30.20200
H  1.43700 4.15100 30.51500
H  2.38000 5.57700 30.93200
H  2.45900 5.06000 29.27700
H  -1.38200 7.48900 30.69700
H  -0.58800 8.92100 31.18100
H  -1.37600 6.84900 32.84000
H  -0.51400 8.28200 33.33000
H  -1.01200 2.54700 27.05300
H  0.45300 1.82100 26.29900
H  -1.07100 1.60900 25.54900
H  -0.65200 0.87100 22.11100
H  -1.38400 1.42600 23.57400
H  0.45400 1.10000 23.48600
H  0.02300 7.99000 20.60300
H  2.18800 9.94400 21.16900
H  2.63200 6.77700 21.31300
H  2.81900 7.99200 20.09900
H  1.70900 6.56600 19.77800
H  -0.08200 10.04800 19.95300
H  0.63800 11.47600 20.58600
H  -1.17900 11.80500 22.12100
H  -1.55800 10.14600 22.30900
H  -2.08200 10.99900 20.88600
H  1.42300 13.55800 24.86900
H  3.08300 13.61500 25.45700
H  1.68700 14.13800 26.54200
H  0.53800 10.92200 30.22800
H  4.49700 10.73300 32.16400
H  3.50200 9.62800 33.08000
H  3.47700 11.36000 33.53600
Mg 47.15200 16.28600 28.58000
C  45.12600 15.78600 31.30500
C  49.32600 17.99100 30.57700
C  49.21700 16.63800 25.87300
C  44.70200 15.03500 26.42400
N  47.12500 16.81200 30.69600
C  46.30700 16.45500 31.71800
C  46.77200 16.89300 33.08700
C  47.98700 17.77100 32.70400
C  48.09300 17.60200 31.14200
C  47.86700 19.28100 33.13700
C  47.23600 15.63600 33.93900
C  47.07100 15.81100 35.48700
H  46.72100 17.16900 36.04500
N  48.97000 17.19800 28.22900
C  49.73500 17.85700 29.18000
C  50.99500 18.25400 28.64800
C  51.05800 17.78100 27.32800
C  49.74100 17.13700 27.08800
C  52.05600 19.05800 29.50300
C  52.12300 17.84300 26.38300
O  52.00300 17.50500 25.22800
C  53.45800 18.49200 26.70600
N  46.99200 15.94000 26.33000
C  47.98900 16.11500 25.47200
C  47.48700 15.98900 23.99200
C  46.12400 15.35800 24.17800
C  45.92200 15.42700 25.72000
C  47.44700 17.30200 23.20600
C  45.96100 13.94400 23.49500
C  46.06400 12.72800 24.38100
N  45.35000 15.49800 28.76500
C  44.40900 15.04500 27.81900
C  43.20300 14.60000 28.56800
C  43.49800 14.81400 29.90900
C  44.77600 15.40000 30.01900
C  41.91800 14.10000 28.02600
C  42.99700 14.72100 31.26700
O  41.89500 14.30100 31.70200
C  43.99600 15.45100 32.22000
C  43.32900 16.60400 32.88300
O  42.97800 17.63600 32.36900
O  43.02100 16.24500 34.18600
C  42.59800 17.39300 35.08400
H  50.01900 18.46100 31.27800
H  49.77000 16.94500 24.98300
H  43.92600 14.62700 25.77300
H  45.98600 17.46900 33.57600
H  48.89600 17.51400 33.24800
H  46.93900 19.42300 33.69100
H  47.89000 19.85900 32.21300
H  48.72300 19.51500 33.77100
H  48.25900 15.40200 33.64700
H  46.54900 14.81400 33.73600
H  47.96000 15.46600 36.01500
H  46.26600 15.11500 35.72300
H  52.99200 18.51000 29.39300
H  51.92500 19.11400 30.58400
H  52.02200 20.09600 29.17200
H  53.45300 19.51000 27.09500
H  53.94400 18.69900 25.75300
H  54.06400 17.89800 27.39000
H  48.04400 15.27200 23.38900
H  45.42800 16.00000 23.63700
H  47.69300 18.08300 23.92600
H  46.46000 17.64900 22.90000
H  48.02400 17.37100 22.28300
H  46.72900 13.87700 22.72500
H  45.00700 13.92100 22.96900
H  46.94800 12.18000 24.05600
H  45.24500 12.01800 24.26400
H  46.14600 13.04600 25.42000
H  42.02700 13.86300 26.96800
H  41.03300 14.72100 28.16000
H  41.74200 13.11800 28.46700
H  44.26500 14.77800 33.03400
H  41.54600 17.37500 35.36900
H  43.07300 18.35200 34.87700
H  43.07200 17.16800 36.03900

