158

Mg 40.80700 9.55100 29.15500
C  42.71100 10.90900 31.89100
C  38.49700 8.64500 31.63600
C  39.10200 7.99500 26.78000
C  43.38900 10.44400 27.04700
N  40.58200 9.87900 31.57800
C  41.47100 10.36200 32.41400
C  40.96900 10.37500 33.87200
C  39.59100 9.73800 33.76800
C  39.54000 9.34900 32.29100
C  39.51800 8.44400 34.71000
C  41.00700 11.82900 34.51000
C  40.38800 11.89400 35.90900
H  41.20100 12.72900 36.87000
N  39.01700 8.63000 29.12000
C  38.28700 8.23400 30.29400
C  37.29900 7.22000 29.90100
C  37.39500 7.06100 28.50800
C  38.52100 7.95500 28.06300
C  36.37400 6.63500 30.86000
C  36.57300 6.27400 27.48900
O  36.60500 6.42100 26.28200
C  35.47200 5.35900 28.04900
N  41.20100 9.13000 27.25800
C  40.28800 8.63200 26.37100
C  40.80800 8.82100 24.95400
C  42.13300 9.54600 25.05500
C  42.24700 9.77100 26.54100
C  40.62200 7.65300 23.95300
C  42.31700 10.84100 24.18600
C  41.74400 12.09200 24.66600
N  42.67400 10.33900 29.33200
C  43.63800 10.61800 28.44100
C  44.68900 11.25500 29.05000
C  44.35300 11.46800 30.37300
C  43.13000 10.82400 30.51900
C  45.89900 11.74400 28.43900
C  44.77100 12.01800 31.66000
O  45.79800 12.69900 31.88600
C  43.81100 11.62000 32.71400
C  44.60100 10.67900 33.62200
O  45.17300 9.63300 33.39900
O  44.68100 11.26200 34.83600
C  45.38200 10.60800 35.93600
H  37.75100 8.47500 32.41500
H  38.50300 7.47100 26.03200
H  44.06800 10.80900 26.27300
H  41.66300 9.80800 34.49300
H  38.85500 10.46000 34.12400
H  40.44500 8.31200 35.26800
H  39.29700 7.51400 34.18800
H  38.75500 8.44500 35.48700
H  40.64700 12.59500 33.82300
H  42.07600 12.00400 34.63600
H  40.23500 10.93700 36.40600
H  39.39900 12.33200 35.77500
H  36.39900 5.55200 30.73700
H  35.36400 7.04000 30.92400
H  36.83300 6.71400 31.84500
H  34.81400 6.01200 28.62300
H  35.95800 4.61800 28.68400
H  34.94500 4.88400 27.22200
H  40.09900 9.57100 24.60200
H  42.98200 8.90700 24.81300
H  40.28200 6.75700 24.47300
H  41.56400 7.44100 23.44600
H  39.87900 7.90900 23.19800
H  41.83900 10.70000 23.21600
H  43.36600 10.86100 23.89000
H  41.23100 11.94600 25.61700
H  41.09700 12.62800 23.97200
H  42.58300 12.73000 24.94600
H  45.67500 12.60000 27.80200
H  46.29500 10.98700 27.76300
H  46.65300 12.04600 29.16600
H  43.46300 12.53000 33.20300
H  45.97300 11.40700 36.38400
H  46.11300 9.82900 35.72400
H  44.69400 10.18400 36.66800
Mg 47.43300 25.15700 28.21100
C  48.68200 27.25800 30.68900
C  46.53400 22.90400 30.63100
C  46.60600 23.16100 25.73800
C  48.88500 27.25800 25.76900
N  47.54000 25.13000 30.42100
C  48.06200 26.12400 31.19400
C  47.72500 25.79700 32.67100
C  47.10900 24.34800 32.65600
C  47.11700 24.06600 31.12400
C  47.98700 23.31800 33.37800
C  46.86200 26.89300 33.40000
C  47.42000 27.47300 34.70600
H  46.37800 27.95400 35.75200
N  46.56600 23.32300 28.23500
C  46.23200 22.56400 29.30700
C  45.45400 21.38500 28.86600
C  45.45600 21.45800 27.39500
C  46.24200 22.69600 27.03900
C  44.90200 20.35500 29.79000
C  44.86500 20.43800 26.51600
O  44.92400 20.60300 25.30300
C  44.09200 19.25700 27.01100
N  47.49600 25.28600 26.08300
C  47.19000 24.29600 25.32200
C  47.43400 24.55300 23.84500
C  47.87800 26.01500 23.80000
C  48.06800 26.26800 25.30100
C  48.39500 23.52100 23.11900
C  46.79100 27.08600 23.30700
C  47.22300 28.05400 22.29300
N  48.61000 26.90000 28.19400
C  49.14700 27.60200 27.08800
C  49.91200 28.77000 27.59000
C  49.71500 28.69100 28.99400
C  48.93700 27.53600 29.32900
C  50.63300 29.83400 26.85800
C  49.96800 29.35600 30.30800
O  50.63600 30.40000 30.48400
C  49.28900 28.46700 31.44500
C  50.28600 27.94300 32.41400
O  50.97900 26.91500 32.33100
O  50.32800 28.70300 33.54500
C  51.22900 28.35700 34.72500
H  46.29400 22.21700 31.44500
H  46.21600 22.38400 25.07800
H  49.32100 27.92500 25.02100
H  48.60800 25.81300 33.31000
H  46.11400 24.34800 33.09900
H  47.43700 23.06000 34.28200
H  48.92900 23.78200 33.67200
H  48.13900 22.42300 32.77500
H  45.86100 26.54700 33.65600
H  46.76600 27.73800 32.71900
H  48.00000 28.37600 34.51600
H  48.13700 26.73500 35.06400
H  43.83200 20.16600 29.69900
H  44.99200 20.62200 30.84300
H  45.43500 19.43200 29.56400
H  43.29300 19.56300 27.68600
H  44.84500 18.53700 27.33200
H  43.48200 18.81400 26.22400
H  46.45700 24.45000 23.37400
H  48.83800 26.10500 23.29100
H  49.45200 23.78700 23.15200
H  48.01400 23.47100 22.09900
H  48.23500 22.50900 23.49300
H  46.32100 27.65600 24.10800
H  46.02300 26.42800 22.89900
H  46.41100 28.14400 21.57100
H  48.12100 27.56700 21.91300
H  47.52400 28.95500 22.82600
H  50.36300 30.87500 27.03400
H  50.44500 29.64100 25.80100
H  51.70800 29.66600 26.91700
H  48.51100 29.00900 31.98300
H  52.21900 28.05700 34.38100
H  50.74500 27.46400 35.12000
H  51.15400 29.19900 35.41300

