158

Mg 43.30500 42.44400 26.20300
C  41.84300 44.71700 28.72200
C  44.21400 40.48700 28.81500
C  44.39900 40.33500 23.90600
C  42.21800 44.76600 23.81200
N  43.10600 42.68000 28.48900
C  42.46800 43.60400 29.27900
C  42.54800 43.26800 30.77200
C  43.63400 42.09100 30.76400
C  43.68800 41.71700 29.26800
C  44.97000 42.46100 31.38200
C  41.19700 42.69200 31.14700
C  40.68600 43.05700 32.59900
H  41.75100 43.27300 33.78900
N  44.18400 40.63400 26.33700
C  44.37600 39.96100 27.49100
C  44.91600 38.67000 27.12400
C  44.86100 38.55200 25.77100
C  44.48500 39.85100 25.28100
C  45.48200 37.65500 28.02500
C  45.14700 37.30100 24.86700
O  45.13800 37.41000 23.63100
C  45.18800 35.90500 25.32000
N  43.51200 42.63500 24.22200
C  43.90700 41.57700 23.45900
C  43.81900 41.95600 21.97400
C  43.01300 43.27100 21.93800
C  42.85300 43.59900 23.43900
C  45.22600 41.97300 21.30800
C  41.64900 43.19300 21.19100
C  40.69400 42.12800 21.85400
N  42.37200 44.39400 26.23700
C  42.09200 45.18300 25.14700
C  41.64000 46.44400 25.60300
C  41.44600 46.34500 26.98800
C  41.91800 45.04000 27.35800
C  41.35400 47.70200 24.83400
C  41.02400 46.96100 28.21300
O  40.49300 48.04300 28.31600
C  41.16500 45.87400 29.33400
C  42.05100 46.49100 30.40900
O  43.24800 46.68200 30.19900
O  41.38000 46.68000 31.59800
C  42.23300 47.03000 32.70000
H  44.62300 39.92200 29.65500
H  44.56100 39.63200 23.08600
H  41.84800 45.26500 22.91400
H  42.80500 44.13500 31.38000
H  43.38500 41.13500 31.22600
H  45.84200 42.34300 30.73900
H  45.16100 41.86900 32.27700
H  45.01500 43.51300 31.66400
H  41.21800 41.61200 30.99800
H  40.51800 43.23200 30.48700
H  39.93200 42.32200 32.88000
H  40.08100 43.96300 32.61000
H  45.69900 38.13100 28.98100
H  46.42600 37.26300 27.64700
H  44.65500 36.97400 28.23000
H  45.52500 35.16900 24.59000
H  44.25800 35.61500 25.81100
H  46.00600 35.87800 26.04000
H  43.32200 41.13600 21.45700
H  43.69200 43.97000 21.45000
H  46.12400 42.14200 21.90200
H  45.18500 42.76200 20.55800
H  45.28700 41.06700 20.70500
H  41.81300 42.74600 20.21100
H  41.20000 44.17200 21.02400
H  41.12900 41.63900 22.72600
H  40.27000 41.29600 21.29300
H  39.72300 42.55400 22.10600
H  41.45000 47.50100 23.76700
H  42.04500 48.51000 25.07200
H  40.43700 48.23400 25.08800
H  40.14500 45.72200 29.68600
H  42.86600 46.18200 32.96100
H  41.52400 47.30500 33.48100
H  42.91300 47.84100 32.44200
Mg -11.40500 37.49400 43.25900
C  -8.98800 35.24400 42.41300
C  -9.20200 40.01000 41.92500
C  -13.85100 39.91800 43.36500
C  -13.63400 35.01400 43.78000
N  -9.37400 37.56200 42.07100
C  -8.53900 36.51500 41.98200
C  -7.10600 36.85300 41.49600
C  -7.22500 38.42700 41.66600
C  -8.70700 38.69300 41.89300
C  -6.31600 39.08500 42.73700
C  -6.88100 36.29500 40.03900
C  -5.47800 35.62400 39.76600
H  -4.96100 35.45300 38.36900
N  -11.48800 39.64100 42.67800
C  -10.53700 40.43600 42.14900
C  -10.94600 41.78100 42.04900
C  -12.31700 41.83400 42.48600
C  -12.61900 40.43500 42.86100
C  -10.06700 42.88300 41.55800
C  -13.18100 43.13700 42.66000
O  -12.80900 44.22500 42.22300
C  -14.57200 43.12500 43.18400
N  -13.46700 37.47900 43.35600
C  -14.22700 38.59600 43.64600
C  -15.60600 38.25500 44.31800
C  -15.56400 36.66600 44.16200
C  -14.11200 36.34200 43.71400
C  -15.82200 38.78200 45.76000
C  -16.52100 36.06900 43.07400
C  -17.83800 35.43600 43.69800
N  -11.36500 35.48600 43.24800
C  -12.31500 34.54400 43.45000
C  -11.77200 33.26200 43.41000
C  -10.43500 33.41700 43.00100
C  -10.23000 34.86500 42.93100
C  -12.49100 31.96000 43.64700
C  -9.20000 32.75600 42.69400
O  -8.82500 31.56200 42.69200
C  -8.19300 33.92500 42.30300
C  -6.99800 33.93000 43.19800
O  -5.88300 33.92500 42.70800
O  -7.24700 34.01500 44.54800
C  -6.10500 33.90400 45.50200
H  -8.46100 40.77500 41.68100
H  -14.59900 40.66800 43.62800
H  -14.24200 34.24900 44.26700
H  -6.40600 36.43300 42.21800
H  -6.94600 38.86400 40.70800
H  -6.82500 39.47300 43.62000
H  -5.63000 39.73600 42.19400
H  -5.66500 38.35200 43.21300
H  -6.98800 37.16900 39.39600
H  -7.51000 35.45900 39.73300
H  -5.68900 34.60400 40.08700
H  -4.66100 36.01900 40.36900
H  -10.14000 42.92300 40.47100
H  -9.03500 42.69800 41.85500
H  -10.24900 43.92700 41.81400
H  -15.09500 44.07300 43.30900
H  -14.46200 42.64900 44.15900
H  -15.10800 42.53000 42.44400
H  -16.47600 38.56700 43.74100
H  -15.62600 36.19600 45.14400
H  -14.89100 39.22200 46.11600
H  -16.03600 37.89600 46.35800
H  -16.62500 39.51100 45.65300
H  -16.08300 35.28500 42.45600
H  -16.73700 36.76000 42.26000
H  -18.69000 35.83000 43.14300
H  -17.90200 35.68200 44.75800
H  -17.81900 34.36600 43.48800
H  -13.48800 32.13100 44.05200
H  -11.95900 31.31700 44.34800
H  -12.65100 31.34000 42.76500
H  -8.05200 33.79400 41.23000
H  -6.39100 33.18500 46.27000
H  -6.00500 34.94700 45.80400
H  -5.18700 33.58300 45.00900

