158

Mg 6.90700 57.45000 41.70200
C  5.52000 54.26000 41.65100
C  9.79300 56.14100 40.53800
C  7.97100 60.56100 41.22200
C  3.64900 58.63400 42.36400
N  7.54700 55.51200 41.08400
C  6.79600 54.39200 41.08600
C  7.71800 53.19000 40.59300
C  9.12300 53.79100 40.81500
C  8.84500 55.28000 40.79800
C  9.88600 53.27300 42.11600
C  7.45500 52.90200 39.10000
C  7.64000 51.40200 38.79500
H  6.65000 50.67300 37.83200
N  8.71100 58.20900 40.95600
C  9.76000 57.53200 40.50900
C  10.87400 58.40800 40.25100
C  10.37900 59.76400 40.36200
C  8.96500 59.58000 40.94500
C  12.26000 57.90200 39.86200
C  11.18600 61.03700 40.17200
O  12.38300 60.98600 39.95700
C  10.58100 62.39000 40.49000
N  5.84700 59.31600 41.47200
C  6.63500 60.41100 41.50800
C  5.71000 61.69500 41.74800
C  4.28900 61.10500 41.94700
C  4.56300 59.59500 41.92000
C  6.21400 62.75600 42.77300
C  3.09800 61.45900 40.96900
C  1.90800 62.27600 41.55200
N  4.96700 56.64100 42.09800
C  3.75600 57.20700 42.45600
C  2.74900 56.24600 42.79000
C  3.44300 55.00300 42.55400
C  4.76000 55.37400 42.09200
C  1.32900 56.47200 43.18500
C  3.37900 53.54700 42.63400
O  2.43900 52.85600 43.07100
C  4.72800 53.02300 42.07100
C  4.48400 51.98900 41.08400
O  3.87500 52.16000 40.03700
O  4.77400 50.75700 41.66800
C  4.37200 49.58100 40.86800
H  10.73500 55.77900 40.12300
H  8.29800 61.59800 41.32200
H  2.71300 59.16800 42.54100
H  7.49800 52.30600 41.19200
H  9.73000 53.44400 39.97800
H  10.68300 52.69700 41.64600
H  9.35200 52.56500 42.74900
H  10.15400 54.10000 42.77300
H  8.18100 53.46800 38.51600
H  6.46300 53.27100 38.84100
H  7.65800 50.77500 39.68600
H  8.61800 51.22700 38.34800
H  12.26800 57.85800 38.77300
H  12.50500 56.87500 40.13000
H  13.01600 58.58200 40.25400
H  10.17100 62.69100 41.45500
H  9.76000 62.52300 39.78500
H  11.24500 63.18500 40.15100
H  5.70800 62.17500 40.76900
H  4.02000 61.28300 42.98800
H  5.53100 62.94000 43.60300
H  6.31400 63.75100 42.34100
H  7.12700 62.50200 43.31200
H  2.60300 60.69000 40.37600
H  3.50600 62.13400 40.21700
H  2.02000 62.21000 42.63500
H  0.92400 61.83800 41.39000
H  1.83600 63.32900 41.27800
H  1.07800 57.43600 42.74300
H  1.10200 56.57100 44.24600
H  0.56700 55.76900 42.84700
H  5.28600 52.60200 42.90700
H  3.87800 48.94800 41.60600
H  5.09300 48.97100 40.32300
H  3.67700 49.86500 40.07800
Mg 9.05000 47.57900 25.64200
C  6.77900 47.75300 28.32600
C  11.45300 48.84200 27.79700
C  11.02700 47.46300 23.03200
C  6.31100 47.09700 23.49500
N  9.03000 48.21800 27.80700
C  8.05600 48.10800 28.75000
C  8.61000 48.47200 30.11900
C  9.91900 49.28000 29.74700
C  10.20300 48.72900 28.35700
C  9.81000 50.86500 29.87600
C  8.65000 47.39000 31.20100
C  7.88200 47.49500 32.50800
H  8.17200 46.34100 33.49100
N  11.01900 48.11200 25.46000
C  11.87100 48.54000 26.43200
C  13.16100 48.86300 25.87700
C  13.13000 48.27900 24.56600
C  11.66100 47.90800 24.27500
C  14.34600 49.40500 26.76600
C  14.24200 48.10100 23.58700
O  14.05000 47.50700 22.55000
C  15.52500 48.22800 24.14400
N  8.74400 47.03400 23.54200
C  9.74300 47.06100 22.71700
C  9.29000 46.92300 21.25900
C  7.79700 47.15000 21.34200
C  7.58600 47.00400 22.84700
C  9.97800 47.73200 20.17800
C  6.96300 46.12600 20.54900
C  6.57500 46.58000 19.15300
N  6.96200 47.42300 25.78100
C  5.96600 47.16400 24.85500
C  4.65900 47.24700 25.45200
C  4.98300 47.34400 26.81700
C  6.40800 47.48600 26.95200
C  3.38200 47.06800 24.79700
C  4.36300 47.33400 28.16800
O  3.20500 47.12300 28.44400
C  5.55400 47.52600 29.23100
C  5.62000 46.26400 30.03400
O  6.30600 45.29800 29.70800
O  4.85300 46.39000 31.09700
C  4.79000 45.24100 32.04800
H  12.15900 49.21400 28.54200
H  11.76200 47.33100 22.23600
H  5.37900 47.06700 22.92500
H  7.88200 49.21600 30.44200
H  10.79000 48.98100 30.33200
H  8.87000 51.11400 30.36800
H  9.69000 51.23000 28.85600
H  10.58800 51.41600 30.40300
H  9.70400 47.31900 31.47000
H  8.36700 46.40700 30.82600
H  6.83700 47.50900 32.20000
H  7.98900 48.50900 32.89300
H  13.97500 49.57900 27.77600
H  14.91500 50.22400 26.32600
H  14.94500 48.51900 26.97300
H  15.72100 49.12000 24.73900
H  16.11000 48.32400 23.22900
H  15.74600 47.30600 24.68300
H  9.38500 45.85900 21.03900
H  7.59300 48.18600 21.07100
H  9.38100 48.31500 19.47700
H  10.60300 46.99800 19.66900
H  10.65300 48.41900 20.69000
H  6.10500 45.81100 21.14200
H  7.51400 45.18600 20.51500
H  5.56700 46.21900 18.94900
H  7.24100 46.12000 18.42300
H  6.59800 47.65900 19.00000
H  2.97500 48.07200 24.91700
H  2.88900 46.24900 25.32000
H  3.47700 46.80800 23.74300
H  5.31900 48.32500 29.93400
H  3.94600 44.57600 31.86700
H  4.49600 45.61500 33.02900
H  5.78800 44.84400 32.23500

