158

Mg 40.88300 9.10900 29.94600
C  42.40400 10.30100 32.78100
C  38.17900 8.19000 31.94400
C  39.34500 7.87600 27.22500
C  43.61500 9.99000 28.12800
N  40.43500 9.06500 32.13600
C  41.07900 9.83200 33.05800
C  40.27800 9.89900 34.39300
C  39.03400 8.97100 34.12500
C  39.22100 8.65800 32.69700
C  38.83500 7.73900 35.12400
C  40.04300 11.32700 34.86900
C  39.80700 11.46400 36.40200
H  40.94700 12.04000 37.29100
N  39.02100 8.07300 29.66500
C  38.05600 7.84500 30.52700
C  36.91400 7.09500 29.88700
C  37.22200 7.00700 28.48000
C  38.56600 7.68400 28.36400
C  35.71500 6.45500 30.60600
C  36.38700 6.51100 27.34900
O  36.79000 6.49800 26.19300
C  35.02900 6.13000 27.71000
N  41.48400 8.94500 28.01900
C  40.64600 8.37000 27.06900
C  41.41200 8.25500 25.70500
C  42.60700 9.27000 25.91800
C  42.52400 9.47000 27.43800
C  41.78600 6.79500 25.33700
C  42.50400 10.65700 25.17100
C  41.14000 11.49300 25.30200
N  42.66900 9.98900 30.36600
C  43.70500 10.29900 29.48600
C  44.72600 10.94200 30.20100
C  44.26300 10.94700 31.55300
C  43.02600 10.33100 31.55900
C  45.91600 11.51500 29.58000
C  44.52900 11.48400 32.93200
O  45.39900 12.17700 33.37500
C  43.33800 10.95300 33.78500
C  43.68700 10.00600 34.78400
O  43.64200 8.77500 34.68200
O  44.02800 10.65000 35.91300
C  44.51200 9.76700 37.03200
H  37.18500 8.06500 32.37700
H  38.97000 7.51500 26.26500
H  44.55900 10.21300 27.62500
H  40.74800 9.32300 35.19100
H  38.12400 9.53900 34.31500
H  39.20500 7.97400 36.12300
H  39.42800 6.88700 34.79200
H  37.76500 7.55000 35.20900
H  39.08100 11.55100 34.40700
H  40.66300 12.11600 34.44400
H  39.56400 10.46300 36.75900
H  38.87500 12.01800 36.51900
H  34.78100 6.97800 30.39700
H  35.84100 6.51100 31.68700
H  35.63500 5.39200 30.37900
H  34.45800 5.73600 26.86900
H  34.59500 7.05100 28.10100
H  35.19700 5.26800 28.35500
H  40.85000 8.59600 24.83500
H  43.53600 8.70900 25.81900
H  41.21800 6.07300 25.92300
H  42.82900 6.75800 25.65000
H  41.54800 6.45500 24.32900
H  42.52500 10.49200 24.09400
H  43.33200 11.30700 25.45400
H  40.61700 11.77300 24.38800
H  41.19100 12.47400 25.77300
H  40.36700 11.01100 25.90000
H  45.85400 12.60300 29.61200
H  46.19700 11.00600 28.65800
H  46.71500 11.16600 30.23500
H  42.92800 11.84200 34.26400
H  44.91300 8.80000 36.73000
H  43.63000 9.61500 37.65400
H  45.26700 10.31500 37.59700
Mg 48.11800 34.96600 27.86000
C  46.08400 33.25500 30.28700
C  48.43800 37.42100 30.07200
C  49.37200 36.70300 25.42900
C  47.42400 32.18800 25.67700
N  47.44000 35.23800 29.90800
C  46.73600 34.35600 30.76000
C  46.73100 34.87000 32.19400
C  47.10300 36.34500 31.96100
C  47.73800 36.33500 30.58600
C  45.87900 37.40000 32.04600
C  47.71300 34.10300 33.21300
C  47.69600 34.45100 34.66400
H  47.01500 35.64600 35.16200
N  48.88400 36.86400 27.81300
C  49.04600 37.74100 28.83600
C  49.58700 38.89400 28.31400
C  49.78200 38.78000 26.95100
C  49.30400 37.40900 26.62600
C  49.76100 40.17100 29.23000
C  50.32900 39.80200 25.94300
O  50.45800 39.55300 24.73500
C  50.99900 41.07800 26.38900
N  48.28900 34.53000 25.85800
C  48.97200 35.44500 25.07200
C  49.11400 34.93700 23.60400
C  48.52000 33.42800 23.66100
C  48.09300 33.33600 25.16900
C  48.46600 35.83700 22.50600
C  49.54600 32.24000 23.39300
C  49.06300 31.02000 22.60400
N  47.01500 33.04800 27.86200
C  46.81700 32.03900 26.91900
C  46.03500 30.95100 27.51000
C  45.69800 31.43600 28.79600
C  46.37400 32.71600 29.00000
C  45.68700 29.57500 26.92300
C  44.89400 31.08200 29.95000
O  44.31600 30.04100 30.24100
C  44.99400 32.37600 30.86000
C  45.22200 31.84000 32.16600
O  46.20300 31.20900 32.50700
O  44.18500 32.12400 32.99800
C  44.42900 31.83600 34.40100
H  48.56900 38.24300 30.77800
H  49.77200 37.21600 24.55200
H  47.29500 31.29200 25.06600
H  45.72200 34.79300 32.59900
H  47.85100 36.63700 32.69800
H  45.91300 38.12700 31.23500
H  45.92500 38.01300 32.94700
H  44.90900 36.90600 32.09900
H  48.73900 34.25300 32.87700
H  47.40100 33.07500 33.03100
H  48.73200 34.61900 34.95700
H  47.30700 33.66300 35.30800
H  50.78400 40.53300 29.33300
H  49.37800 39.99700 30.23600
H  49.09800 40.88800 28.74400
H  51.19600 41.25000 27.44800
H  50.46500 41.86400 25.85500
H  52.00900 41.00100 25.98600
H  50.16500 34.93200 23.31400
H  47.63000 33.35200 23.03600
H  48.02000 36.73000 22.94500
H  47.77500 35.32200 21.83800
H  49.25600 36.24100 21.87300
H  49.84700 31.97100 24.40600
H  50.34600 32.78600 22.89300
H  49.70900 30.91700 21.73200
H  48.03300 31.24800 22.32700
H  49.05000 30.05800 23.11600
H  45.56600 28.95100 27.80900
H  46.56700 29.27200 26.35500
H  44.83600 29.60200 26.24300
H  44.01800 32.85800 30.91900
H  44.42400 30.76600 34.60600
H  43.62800 32.24700 35.01600
H  45.33400 32.33900 34.74100

