158

Mg 25.30200 1.29300 29.89800
C  27.59900 0.91300 32.62900
C  22.90400 1.83600 32.12800
C  23.27500 1.49300 27.32400
C  28.08300 0.76900 27.75300
N  25.31200 1.29300 32.13900
C  26.34600 1.42200 32.97700
C  25.83200 1.89600 34.37600
C  24.28200 1.96500 34.20800
C  24.15400 1.71000 32.71700
C  23.58200 0.86200 35.11700
C  26.46000 3.24500 34.90900
C  26.94200 3.19600 36.39100
H  26.29800 4.18900 37.38800
N  23.30200 1.60200 29.71400
C  22.42200 1.77300 30.74700
C  21.08700 1.72900 30.29400
C  21.19200 1.73500 28.89100
C  22.65200 1.64000 28.58300
C  19.87200 1.74700 31.19300
C  20.11100 1.76800 27.83700
O  20.31700 1.69100 26.65500
C  18.68200 1.78100 28.25700
N  25.62200 1.06100 27.92600
C  24.62800 1.25400 26.99100
C  25.11900 1.23100 25.50800
C  26.60800 1.33400 25.76800
C  26.78300 1.00800 27.25200
C  24.60900 0.16200 24.54200
C  27.35700 2.59300 25.24100
C  27.32100 3.79100 26.13500
N  27.31300 0.77600 30.11400
C  28.33400 0.60500 29.11900
C  29.59200 0.39700 29.76900
C  29.31100 0.55400 31.13700
C  27.95800 0.74400 31.30900
C  30.86100 0.06800 29.07800
C  29.99700 0.64100 32.39500
O  31.14300 0.52600 32.68500
C  28.88800 0.99300 33.44000
C  29.10200 0.00900 34.50200
O  29.10500 -1.18200 34.29800
O  29.20000 0.66600 35.66200
C  29.36900 -0.04700 36.91700
H  22.14800 1.99700 32.89900
H  22.61100 1.62500 26.46700
H  28.86600 0.77700 26.99200
H  26.07700 1.14900 35.13100
H  23.94800 2.96100 34.49700
H  24.04900 -0.10800 34.94600
H  22.55600 0.76000 34.76300
H  23.57200 1.19300 36.15500
H  25.75100 4.05200 34.72500
H  27.40100 3.42900 34.38900
H  28.01300 3.39500 36.38800
H  26.73100 2.20700 36.79800
H  19.56500 2.78500 31.32100
H  20.26100 1.38200 32.14400
H  19.14600 0.98500 30.90900
H  18.51300 2.59300 28.96400
H  18.45500 0.75300 28.53800
H  18.03600 1.97900 27.40100
H  24.76200 2.13000 25.00700
H  27.11300 0.42700 25.43500
H  24.23000 -0.62700 25.19100
H  25.41200 -0.39400 24.05700
H  23.82700 0.34000 23.80400
H  26.90700 2.80000 24.27000
H  28.41000 2.35000 25.09600
H  26.85800 3.64300 27.11000
H  26.65100 4.48900 25.63200
H  28.32200 4.21700 26.20200
H  31.04100 0.13000 28.00400
H  30.99000 -0.95900 29.42000
H  31.50300 0.84700 29.48900
H  29.04100 2.01900 33.77400
H  29.43300 -1.12900 36.80300
H  28.59500 -0.01400 37.68500
H  30.30000 0.26700 37.38900
Mg 48.79500 35.80400 27.81600
C  46.63100 34.07100 30.08600
C  48.72600 38.50300 29.99300
C  50.41000 37.55200 25.55000
C  48.09600 33.29800 25.50300
N  47.62500 36.28400 29.74300
C  47.13400 35.28200 30.56700
C  47.15900 35.81100 31.98500
C  47.45200 37.32700 31.81400
C  47.87700 37.45700 30.37000
C  46.23400 38.27400 32.08900
C  48.40100 35.18500 32.74000
C  48.19000 34.71500 34.19000
H  49.00000 35.49200 35.18700
N  49.64800 37.66800 27.92000
C  49.52900 38.61000 28.87200
C  50.53000 39.63000 28.59000
C  50.98600 39.40500 27.24500
C  50.32900 38.17200 26.81800
C  50.73800 40.75200 29.63500
C  52.09900 40.07100 26.47400
O  52.59500 39.55200 25.48000
C  52.70000 41.45600 27.03100
N  49.06100 35.50400 25.77600
C  49.85600 36.33700 25.08400
C  50.12400 35.78500 23.65200
C  49.43700 34.39300 23.74100
C  48.87100 34.37200 25.10000
C  49.59400 36.65200 22.37700
C  50.27000 33.14700 23.40500
C  51.18000 32.43900 24.37800
N  47.71300 33.96600 27.79500
C  47.46500 33.13000 26.73800
C  46.51600 32.07600 27.15800
C  46.11300 32.48500 28.40500
C  46.86300 33.59300 28.77800
C  46.02400 30.90900 26.26000
C  45.21300 32.16600 29.55400
O  44.45000 31.27100 29.74700
C  45.48000 33.29400 30.65100
C  45.80700 32.62300 31.92900
O  46.77800 31.96400 32.18900
O  44.89300 33.00800 32.84900
C  45.27300 32.78000 34.30700
H  48.95900 39.25800 30.74700
H  50.97600 38.01200 24.73800
H  47.80000 32.45100 24.88000
H  46.23000 35.52400 32.47800
H  48.27100 37.70200 32.42700
H  45.68200 37.97900 32.98100
H  45.67600 38.13900 31.16200
H  46.59000 39.30400 32.08700
H  49.23400 35.86700 32.57500
H  48.65700 34.27800 32.19300
H  48.35600 33.63800 34.19400
H  47.13400 34.87100 34.40700
H  50.83500 40.45600 30.67900
H  49.89000 41.43500 29.59500
H  51.63100 41.34000 29.42500
H  53.23800 42.07800 26.31500
H  53.42300 41.35200 27.84000
H  51.85200 41.95900 27.49600
H  51.18900 35.57100 23.56700
H  48.63400 34.42200 23.00400
H  50.40300 36.78400 21.65900
H  49.29700 37.65100 22.69400
H  48.67300 36.29400 21.91600
H  50.97600 33.43900 22.62800
H  49.59600 32.38700 23.01200
H  50.84000 31.40400 24.36000
H  51.11900 32.99900 25.31200
H  52.21600 32.28600 24.07600
H  45.46000 31.18900 25.37000
H  45.40500 30.23700 26.85400
H  46.79800 30.20900 25.94700
H  44.61000 33.95000 30.65000
H  46.27200 32.38200 34.48700
H  44.46100 32.13500 34.64400
H  45.16100 33.76800 34.75300

