158

Mg -10.16600 39.59700 42.62300
C  -9.33100 36.31300 41.76900
C  -7.39400 40.69200 40.86300
C  -11.39700 42.72800 42.41800
C  -13.22300 38.48800 43.74500
N  -8.49300 38.62500 41.48300
C  -8.45200 37.24200 41.26300
C  -7.26900 36.93200 40.36200
C  -6.50800 38.36900 40.21500
C  -7.52600 39.34600 40.88500
C  -5.06300 38.43500 40.78700
C  -7.78200 36.38200 38.96400
C  -6.86400 35.27400 38.37200
H  -5.71500 35.66300 37.36500
N  -9.39900 41.50200 41.88800
C  -8.26400 41.74900 41.19700
C  -8.07900 43.16300 41.02700
C  -9.24600 43.74400 41.49400
C  -10.05300 42.66000 42.01300
C  -6.81300 43.83200 40.37000
C  -9.50400 45.21300 41.42800
O  -8.61000 45.91200 41.02000
C  -10.76400 45.88200 41.87400
N  -12.05900 40.48700 43.03200
C  -12.31200 41.80400 42.97100
C  -13.72900 42.08000 43.34100
C  -14.26500 40.77700 43.92900
C  -13.17100 39.80500 43.43200
C  -13.83100 43.40800 44.28500
C  -15.76900 40.40800 43.40600
C  -16.81000 39.91400 44.42200
N  -11.07100 37.77500 42.92400
C  -12.28900 37.47200 43.37800
C  -12.46300 35.99300 43.40700
C  -11.22800 35.55000 42.79000
C  -10.51900 36.71500 42.45800
C  -13.70700 35.21500 43.80500
C  -10.51400 34.31100 42.51600
O  -10.71800 33.13900 42.76200
C  -9.29900 34.77700 41.58600
C  -8.05700 34.21900 42.11400
O  -7.68300 34.29400 43.30900
O  -7.39900 33.51600 41.06100
C  -6.01600 33.02900 41.36200
H  -6.48600 40.95500 40.31600
H  -11.71600 43.77200 42.39500
H  -14.17500 38.10000 44.11400
H  -6.66600 36.27200 40.98400
H  -6.34000 38.54900 39.15400
H  -4.50600 39.14500 40.17700
H  -4.56600 37.46800 40.70000
H  -5.01100 38.79300 41.81500
H  -7.81000 37.25700 38.31500
H  -8.79600 36.05500 39.19700
H  -7.43800 34.40800 38.04400
H  -6.28500 34.83900 39.18700
H  -7.09800 44.31000 39.43300
H  -6.01100 43.14000 40.11400
H  -6.30300 44.61000 40.93900
H  -10.73000 45.65300 42.93900
H  -11.64300 45.46900 41.37800
H  -10.92500 46.95000 41.72600
H  -14.09300 42.23400 42.32600
H  -14.18800 40.80100 45.01600
H  -14.46600 44.09400 43.72500
H  -12.80800 43.77300 44.38300
H  -14.31900 43.18800 45.23500
H  -15.59700 39.65000 42.64100
H  -16.18700 41.30900 42.95800
H  -16.53800 40.02300 45.47100
H  -17.02900 38.87200 44.18800
H  -17.69100 40.47500 44.10900
H  -14.30800 35.72500 44.55900
H  -13.28300 34.28300 44.18000
H  -14.19500 35.14800 42.83300
H  -9.56000 34.51100 40.56200
H  -5.35200 33.88500 41.24300
H  -5.66900 32.29100 40.63900
H  -5.76000 32.68900 42.36600
Mg -0.11900 43.95200 26.37900
C  2.02000 43.22900 29.23300
C  -2.68100 42.72600 28.21700
C  -1.82700 44.12800 23.64100
C  2.86700 44.94800 24.62400
N  -0.28800 43.18800 28.47500
C  0.65300 42.95500 29.47000
C  0.01100 42.58800 30.76200
C  -1.43800 42.24100 30.32300
C  -1.49700 42.76900 28.92000
C  -1.84400 40.71900 30.37900
C  0.01200 43.68600 31.88000
C  0.62200 43.38000 33.28600
H  0.13300 42.08200 33.85500
N  -2.04700 43.53700 25.95100
C  -2.93900 42.99300 26.82400
C  -4.25500 42.85100 26.11400
C  -3.99200 43.08000 24.75700
C  -2.58900 43.65100 24.76100
C  -5.47900 42.34700 26.80100
C  -4.83700 42.97500 23.53900
O  -4.48200 43.28200 22.40900
C  -6.17800 42.36300 23.66300
N  0.38500 44.67400 24.46400
C  -0.54800 44.60500 23.51500
C  0.02500 44.96800 22.14000
C  1.48600 45.50600 22.50400
C  1.63100 45.01300 23.95300
C  -0.09900 43.82700 21.07200
C  1.72300 47.02300 22.39600
C  1.20600 47.95900 23.50500
N  2.04400 44.03000 26.80800
C  3.04700 44.48600 25.99800
C  4.25400 44.36900 26.78800
C  3.87400 43.90200 28.01600
C  2.51000 43.75300 28.00800
C  5.62400 44.74000 26.26000
C  4.40200 43.50100 29.30400
O  5.56200 43.40200 29.71600
C  3.19000 43.14600 30.15900
C  3.42000 41.85600 30.85800
O  3.20400 40.76000 30.39300
O  3.90700 42.08100 32.17200
C  4.14600 40.88500 32.98600
H  -3.54300 42.45200 28.82800
H  -2.41200 44.22200 22.72400
H  3.69800 45.20000 23.96200
H  0.57000 41.77100 31.21900
H  -2.15500 42.77200 30.94900
H  -1.08600 40.20200 30.96800
H  -1.74300 40.35100 29.35800
H  -2.83400 40.62800 30.82500
H  -0.97800 44.09500 32.08200
H  0.70300 44.42200 31.46800
H  0.50400 44.25900 33.92000
H  1.70000 43.40900 33.12800
H  -5.45800 42.42400 27.88800
H  -5.64200 41.32700 26.45200
H  -6.34800 42.87000 26.40100
H  -6.13300 41.48900 24.31300
H  -6.57400 42.04500 22.69800
H  -6.84400 43.06500 24.16500
H  -0.55600 45.83900 21.83600
H  2.27000 45.06300 21.89100
H  0.77100 43.95000 20.42600
H  -0.91700 43.92100 20.35900
H  -0.06000 42.79900 21.43400
H  1.28400 47.47800 21.50800
H  2.80300 47.10600 22.27400
H  2.01100 48.64300 23.77600
H  1.18000 47.39300 24.43600
H  0.23300 48.42400 23.34900
H  5.62800 44.47800 25.20200
H  6.29000 44.11100 26.85100
H  5.66000 45.82600 26.35100
H  3.12500 43.89600 30.94700
H  4.82500 40.18400 32.49900
H  3.22400 40.31900 33.11800
H  4.49300 41.13400 33.98900

