158

Mg 9.43100 48.77700 26.06900
C  7.32500 48.68100 28.84800
C  11.81000 50.14600 27.95200
C  11.09300 49.04600 23.32000
C  6.41600 48.10500 24.13600
N  9.35900 49.52800 28.12300
C  8.54200 49.22600 29.13800
C  9.03800 49.67300 30.50700
C  10.36100 50.31800 30.13700
C  10.60600 49.94600 28.63300
C  10.44900 51.84700 30.40200
C  9.22900 48.61800 31.66100
C  8.25500 48.86500 32.78200
H  8.80100 49.65100 33.96800
N  11.27100 49.36500 25.74900
C  12.18600 49.83700 26.62500
C  13.47900 49.76900 25.94800
C  13.27800 49.48200 24.55400
C  11.84700 49.30100 24.50400
C  14.73500 50.00200 26.75000
C  14.23000 49.38700 23.37200
O  13.87500 49.36100 22.17800
C  15.76300 49.56500 23.58400
N  8.81200 48.79100 24.04800
C  9.71300 48.90100 23.05000
C  9.20900 48.60100 21.63500
C  7.71100 48.17400 22.02900
C  7.61500 48.40700 23.50800
C  9.28300 49.73100 20.55800
C  7.29400 46.70000 21.57100
C  7.43100 45.55600 22.52400
N  7.28600 48.45400 26.39500
C  6.20300 48.17500 25.56600
C  5.03900 47.92800 26.29400
C  5.47300 48.06100 27.63800
C  6.81900 48.44000 27.60900
C  3.66200 47.53600 25.71600
C  4.94600 48.14600 28.99200
O  3.81100 47.94300 29.39900
C  6.20400 48.44800 29.86200
C  6.38200 47.15400 30.58500
O  7.07000 46.22500 30.17600
O  5.73800 47.08500 31.83500
C  6.04400 45.83300 32.59200
H  12.60200 50.57100 28.57200
H  11.62600 48.88800 22.38000
H  5.60400 47.71900 23.51600
H  8.32000 50.43900 30.80000
H  11.17400 49.94300 30.75800
H  9.65500 52.12100 31.09700
H  10.27100 52.37700 29.46600
H  11.44100 52.15700 30.72900
H  10.21500 48.55900 32.12200
H  8.99700 47.65300 31.20900
H  7.84600 47.91300 33.12200
H  7.38600 49.30700 32.29600
H  14.54500 49.80800 27.80600
H  15.01000 51.01900 26.47000
H  15.67200 49.48400 26.54300
H  15.86800 48.83700 24.38800
H  16.02200 50.58700 23.86300
H  16.33700 49.30900 22.69400
H  9.63500 47.71200 21.17000
H  6.98400 48.82800 21.55000
H  9.65300 50.68200 20.94100
H  8.27700 49.93500 20.19300
H  9.94500 49.41300 19.75200
H  7.63800 46.44000 20.56900
H  6.23100 46.79500 21.35300
H  8.18000 45.67500 23.30600
H  7.57900 44.66100 21.91900
H  6.45200 45.30800 22.93500
H  3.68900 47.19800 24.68000
H  3.04300 48.43300 25.69400
H  3.18400 46.85700 26.42200
H  6.00500 49.15600 30.66600
H  5.41500 45.06900 32.13600
H  5.69600 45.95300 33.61800
H  7.08000 45.50600 32.68400
Mg -12.41200 17.38900 41.49500
C  -9.25800 15.65400 40.82800
C  -10.91400 20.15400 40.12700
C  -15.45700 18.76200 41.58300
C  -13.78700 14.25100 42.23000
N  -10.22400 17.79000 40.65400
C  -9.17500 17.01500 40.53200
C  -8.02300 17.83400 39.84800
C  -8.52200 19.28500 39.92700
C  -9.96200 19.08800 40.20200
C  -7.90700 20.06700 41.09400
C  -7.79000 17.36000 38.36000
C  -6.38600 17.00400 37.88400
H  -6.31500 15.73800 37.08200
N  -13.08800 19.29100 41.03600
C  -12.30900 20.28700 40.42000
C  -13.16700 21.48200 40.33600
C  -14.52600 21.14900 40.67700
C  -14.42300 19.71700 41.14200
C  -12.59500 22.87500 39.89100
C  -15.73000 21.91800 40.57500
O  -15.71600 23.08600 40.22100
C  -17.20900 21.33800 40.92600
N  -14.38900 16.54900 41.63100
C  -15.52200 17.34100 41.74000
C  -16.74400 16.55300 42.14500
C  -16.13100 15.19700 42.52400
C  -14.67300 15.36500 42.15300
C  -17.55600 17.17000 43.28700
C  -16.76500 14.10100 41.62100
C  -17.12000 12.86400 42.37300
N  -11.66900 15.38000 41.48300
C  -12.34200 14.27200 41.94400
C  -11.53000 13.10000 41.81000
C  -10.28300 13.61700 41.48400
C  -10.42600 14.96800 41.25200
C  -11.97500 11.72300 42.16100
C  -8.87400 13.24900 41.28000
O  -8.18000 12.22700 41.33100
C  -8.14700 14.59600 40.85200
C  -7.15600 14.93200 41.91200
O  -7.48900 15.27100 43.00700
O  -5.90300 14.79000 41.47600
C  -4.88300 15.24000 42.45400
H  -10.48900 21.14400 39.95100
H  -16.51300 19.04100 41.57300
H  -14.35600 13.36400 42.51900
H  -7.05600 17.61800 40.30100
H  -8.29400 19.80700 38.99800
H  -6.94300 19.69800 41.44500
H  -8.68700 20.04600 41.85400
H  -7.83300 21.13700 40.90000
H  -8.14400 18.03400 37.58000
H  -8.49400 16.52800 38.38400
H  -5.62400 16.90600 38.65700
H  -6.03100 17.84800 37.29200
H  -11.92400 22.73100 39.04400
H  -11.79200 22.98800 40.61900
H  -13.34300 23.66800 39.88200
H  -17.28000 20.49400 40.24000
H  -17.99000 22.03600 40.62400
H  -17.22400 21.10800 41.99100
H  -17.16200 16.48900 41.14000
H  -16.20400 14.97800 43.59000
H  -17.65600 16.61700 44.22100
H  -18.59300 17.16700 42.95000
H  -17.35800 18.23400 43.41700
H  -15.96700 13.75600 40.96400
H  -17.68100 14.37300 41.09700
H  -17.02100 13.03600 43.44500
H  -16.41200 12.07600 42.11700
H  -18.14400 12.53900 42.18800
H  -12.62900 11.35400 41.37100
H  -12.52800 11.71900 43.10100
H  -11.23600 10.92600 42.23800
H  -7.61300 14.57500 39.90200
H  -4.06100 14.52600 42.40300
H  -5.26600 15.39100 43.46400
H  -4.59100 16.24200 42.14200

