158

Mg 47.08900 16.00300 28.26700
C  44.82200 15.44900 30.96900
C  49.25100 17.34500 30.68600
C  49.09900 16.81500 25.79300
C  44.72500 14.78300 26.20600
N  47.01200 16.44900 30.58600
C  46.04000 16.03800 31.43500
C  46.33800 16.44100 32.89700
C  47.65200 17.28500 32.75800
C  48.01800 17.09000 31.25700
C  47.47900 18.85700 32.99600
C  46.51100 15.20200 33.78500
C  46.08200 15.41900 35.26800
H  46.35600 16.94700 35.71200
N  48.98700 16.80100 28.27300
C  49.69200 17.27400 29.34700
C  50.99100 17.71200 28.85700
C  50.97300 17.50800 27.38700
C  49.69500 16.97300 27.06500
C  52.04600 18.10400 29.73300
C  52.11000 17.65800 26.26200
O  52.01400 17.21300 25.14400
C  53.41600 18.31900 26.68200
N  46.86000 15.85100 26.24300
C  47.82200 16.41400 25.39500
C  47.20100 16.52500 24.00800
C  46.05200 15.47700 24.03000
C  45.83400 15.32900 25.53900
C  46.69500 17.96500 23.84000
C  46.45000 14.01700 23.53500
C  45.31900 13.15700 22.83600
N  45.13200 15.29400 28.46400
C  44.31600 14.73600 27.54600
C  43.14700 14.19000 28.16000
C  43.27600 14.50300 29.53500
C  44.56300 15.09800 29.64600
C  41.96900 13.65300 27.36700
C  42.58300 14.49500 30.77600
O  41.45900 14.10300 31.05800
C  43.57500 15.04300 31.82800
C  42.90200 16.22600 32.48200
O  42.67900 17.21900 31.86000
O  42.65900 15.89300 33.77400
C  42.03700 16.97900 34.47900
H  49.94600 17.75300 31.42200
H  49.51500 17.45200 25.00900
H  44.02500 14.36600 25.47900
H  45.47500 17.04400 33.17900
H  48.42900 16.91800 33.42900
H  47.97200 19.31800 32.14000
H  47.99800 19.30500 33.84400
H  46.41900 19.09700 33.08100
H  47.49600 14.77300 33.60100
H  45.76200 14.52500 33.37400
H  46.81200 14.87200 35.86500
H  45.05700 15.08500 35.43000
H  52.71900 17.24700 29.68500
H  51.68900 18.40900 30.71600
H  52.60400 18.94200 29.31400
H  53.98700 18.53300 25.77800
H  53.98100 17.55800 27.22000
H  53.21800 19.22100 27.26100
H  47.95000 16.28000 23.25500
H  45.15500 15.84300 23.53000
H  45.61100 17.85900 23.84600
H  47.10200 18.34000 22.90100
H  47.03800 18.63900 24.62500
H  46.83300 13.52600 24.42900
H  47.28100 14.14800 22.84200
H  44.30300 13.55100 22.80700
H  45.19900 12.24800 23.42500
H  45.63900 12.88400 21.83000
H  41.28700 13.24400 28.11300
H  42.22500 12.84800 26.67900
H  41.65800 14.59600 26.91700
H  43.91400 14.19800 32.42800
H  41.62300 17.78800 33.87700
H  42.80600 17.36000 35.15100
H  41.23900 16.51600 35.05900
Mg 16.86300 52.38000 26.00600
C  18.58800 50.98200 28.78600
C  14.38100 53.54800 28.09400
C  15.32400 53.70700 23.32000
C  19.29900 51.02300 23.95100
N  16.52000 52.12000 28.20200
C  17.38800 51.59700 29.20600
C  16.63700 51.65200 30.54300
C  15.29700 52.55800 30.27700
C  15.36300 52.70100 28.74000
C  13.90600 51.85200 30.72600
C  17.51100 52.25700 31.70000
C  17.47700 51.51500 33.08500
H  16.84500 52.26000 34.25200
N  15.08200 53.48000 25.71300
C  14.25200 53.87500 26.69200
C  13.16300 54.70800 26.18400
C  13.34300 54.61000 24.75400
C  14.59700 53.89700 24.53200
C  12.01900 55.36500 26.94700
C  12.36000 55.06100 23.60500
O  12.62100 54.92000 22.44300
C  11.07200 55.83400 23.95100
N  17.20500 52.28400 23.92600
C  16.39100 52.87800 23.02400
C  16.99800 52.81000 21.60100
C  18.25700 51.90200 21.80200
C  18.26100 51.76700 23.30500
C  16.03900 52.43900 20.45400
C  19.50200 52.58300 21.29400
C  19.99000 52.30300 19.93400
N  18.66900 51.26800 26.27000
C  19.53300 50.76400 25.36100
C  20.63200 50.02200 26.05600
C  20.31200 50.11600 27.37400
C  19.10600 50.91200 27.49500
C  21.83100 49.40200 25.34800
C  20.70700 49.78900 28.74800
O  21.61400 49.07300 29.15500
C  19.53000 50.26700 29.66300
C  18.99100 49.02800 30.27100
O  18.73100 48.02400 29.58200
O  18.92000 49.05100 31.66000
C  18.51500 47.73200 32.26000
H  13.61400 53.97800 28.74200
H  14.86900 54.06000 22.39200
H  19.97100 50.52500 23.24900
H  16.25700 50.67300 30.83400
H  15.44700 53.53900 30.72900
H  13.39500 51.49600 29.83200
H  13.30300 52.67600 31.10900
H  14.06300 51.02000 31.41200
H  17.02400 53.20000 31.94900
H  18.50600 52.49900 31.32700
H  18.52900 51.29300 33.26800
H  16.93400 50.57200 33.02100
H  12.24600 55.28600 28.01000
H  11.07900 54.84700 26.75900
H  11.92700 56.38600 26.57600
H  10.34000 55.36000 24.60400
H  10.65100 56.03000 22.96500
H  11.30000 56.83100 24.32800
H  17.29800 53.83300 21.37500
H  18.10800 50.94000 21.31200
H  16.51000 51.80500 19.70200
H  15.75600 53.37000 19.96400
H  15.18000 51.93200 20.89400
H  20.33100 52.31800 21.95000
H  19.46400 53.67200 21.25100
H  20.64800 51.43400 19.92200
H  20.54400 53.17800 19.59600
H  19.19600 52.16200 19.20100
H  22.69500 49.72600 25.92800
H  21.89800 49.88000 24.37100
H  21.82200 48.31500 25.26600
H  19.85100 50.87200 30.51200
H  18.07600 47.86600 33.24900
H  19.35300 47.08700 32.52300
H  17.72800 47.19900 31.72700

