158

Mg 40.85300 9.48200 29.96700
C  42.65200 10.88900 32.60500
C  38.72500 8.03500 32.26200
C  39.45100 7.81200 27.45500
C  43.45200 10.50800 27.69000
N  40.77000 9.55100 32.20600
C  41.57600 10.12300 33.11500
C  41.24800 9.82700 34.56800
C  39.99400 8.81800 34.48000
C  39.80800 8.72600 32.88400
C  40.25800 7.39300 35.11000
C  40.92000 11.11700 35.31000
C  41.55500 11.38600 36.68800
H  40.73500 12.06200 37.66100
N  39.19200 8.35500 29.87000
C  38.42700 7.82900 30.88800
C  37.27300 7.30700 30.31500
C  37.37500 7.36200 28.88300
C  38.72800 7.87000 28.67600
C  36.20100 6.70700 31.20300
C  36.45500 7.02000 27.84900
O  36.63500 7.20600 26.63900
C  35.17200 6.49200 28.32200
N  41.44600 9.12900 27.87200
C  40.61600 8.38200 27.07300
C  41.21200 8.36400 25.63800
C  42.36500 9.47900 25.66900
C  42.43800 9.71700 27.12600
C  41.54400 6.93300 25.08600
C  42.09000 10.72100 24.78400
C  41.68300 12.08400 25.42400
N  42.69300 10.34200 30.06000
C  43.62200 10.75100 29.11500
C  44.69100 11.40100 29.77200
C  44.26000 11.58100 31.06200
C  43.12300 10.91500 31.28200
C  45.87700 11.98600 29.07800
C  44.62800 12.22600 32.28800
O  45.57300 12.97300 32.58700
C  43.58700 11.67300 33.38500
C  44.32300 10.97300 34.41900
O  44.75000 9.82300 34.54100
O  44.62000 11.97100 35.37100
C  45.34000 11.46300 36.60600
H  38.11600 7.49800 32.99200
H  38.92200 7.34700 26.62100
H  44.25300 10.76600 26.99400
H  42.16600 9.46700 35.03100
H  39.10600 9.26400 34.92800
H  41.13200 7.23700 35.74200
H  40.24800 6.76000 34.22300
H  39.34100 7.30100 35.69200
H  39.85500 11.27100 35.48100
H  41.33700 11.92100 34.70400
H  42.34700 12.11000 36.49900
H  41.97100 10.46600 37.09700
H  36.24600 7.23000 32.15800
H  36.40300 5.63900 31.28100
H  35.18200 6.92000 30.87900
H  34.73500 5.87800 27.53400
H  34.56700 7.37500 28.53000
H  35.21600 5.86100 29.21000
H  40.42900 8.84100 25.04800
H  43.26800 8.96100 25.34400
H  41.13800 6.23800 25.82000
H  42.60600 6.69700 25.03000
H  40.89100 6.85300 24.21700
H  41.40200 10.48600 23.97200
H  42.96100 11.07900 24.23500
H  41.44600 11.91400 26.47400
H  40.85400 12.69200 25.06200
H  42.43000 12.86500 25.28400
H  45.46700 12.91600 28.68600
H  46.28500 11.27300 28.36100
H  46.68800 12.17900 29.78000
H  43.15700 12.53600 33.89500
H  44.78900 10.76300 37.23500
H  45.57400 12.37700 37.15300
H  46.30200 11.05300 36.29800
Mg 17.17400 51.48500 26.40600
C  19.04900 50.33500 29.16100
C  14.63900 52.31600 28.51800
C  15.45500 52.39100 23.71200
C  19.79700 50.27600 24.23600
N  16.83000 51.30400 28.55700
C  17.80200 50.95800 29.55400
C  17.29500 51.14200 30.96700
C  15.81100 51.64400 30.67400
C  15.74300 51.79500 29.14900
C  14.66200 50.79200 31.24800
C  17.97900 52.16200 31.82300
C  17.97500 51.90100 33.38400
H  17.48400 53.06800 34.31400
N  15.27800 52.22800 26.14000
C  14.39100 52.50600 27.13300
C  13.20800 52.95800 26.49600
C  13.32200 52.89800 25.09500
C  14.75300 52.51400 24.95400
C  11.96600 53.30500 27.34600
C  12.31400 53.22300 24.09300
O  12.58400 53.09100 22.90400
C  10.97200 53.90100 24.43400
N  17.55300 51.28400 24.24500
C  16.72600 51.90200 23.40000
C  17.30400 51.89000 21.97000
C  18.81600 51.46400 22.22100
C  18.72900 50.94300 23.62700
C  16.65100 50.95800 20.93100
C  19.98400 52.38500 22.02600
C  20.80000 51.97900 20.78400
N  18.97000 50.41700 26.58500
C  19.91200 50.03600 25.62800
C  21.04300 49.38900 26.30000
C  20.70700 49.43800 27.69600
C  19.47400 50.05100 27.81300
C  22.25900 48.86900 25.61000
C  21.08100 49.11100 29.05900
O  22.08000 48.53300 29.41400
C  20.09500 49.69600 30.09400
C  19.69100 48.69900 31.06800
O  19.16400 47.60400 30.84600
O  20.11800 49.14300 32.31100
C  19.80600 48.45800 33.57300
H  13.85300 52.50600 29.25100
H  14.93800 52.89600 22.89300
H  20.65500 50.02400 23.61000
H  17.32600 50.17700 31.47200
H  15.61500 52.64700 31.05300
H  15.06000 50.03400 31.92400
H  14.25300 50.14600 30.47200
H  13.87300 51.30800 31.79600
H  17.58000 53.17300 31.73900
H  19.00100 52.23800 31.45100
H  18.95900 51.51500 33.65100
H  17.20000 51.14400 33.51000
H  12.03300 54.26400 27.86000
H  11.84300 52.58000 28.15100
H  10.96900 53.33700 26.90600
H  11.14400 54.76700 25.07400
H  10.28700 53.19300 24.90000
H  10.45900 54.19600 23.51800
H  17.28000 52.89000 21.53700
H  19.02100 50.65200 21.52300
H  15.86800 51.33300 20.27100
H  16.22600 50.07400 21.40800
H  17.42300 50.63500 20.23200
H  20.57400 52.37400 22.94300
H  19.63500 53.40800 21.88200
H  20.40400 51.14800 20.20000
H  21.81800 51.83200 21.14500
H  20.83900 52.83400 20.10900
H  22.66700 49.54700 24.86000
H  21.85300 47.93200 25.22800
H  23.06900 48.72100 26.32400
H  20.59200 50.51000 30.62300
H  18.90900 48.93600 33.96600
H  20.61300 48.52500 34.30300
H  19.63500 47.39200 33.42600

