158

Mg 1.90900 -2.91200 44.70000
C  5.13000 -1.76300 43.93000
C  0.75400 -0.54100 42.38200
C  -1.28600 -4.19900 44.96000
C  3.15500 -5.53100 46.44800
N  2.91400 -1.36300 43.23200
C  4.21300 -1.13100 43.15100
C  4.48600 0.01100 42.15000
C  3.05400 0.62900 42.04800
C  2.17500 -0.53100 42.52800
C  2.72300 1.83600 42.93700
C  5.19900 -0.54300 40.90700
C  6.53100 0.12400 40.56600
H  6.64200 1.07600 39.34100
N  -0.04300 -2.38700 43.83800
C  -0.25800 -1.35200 42.91400
C  -1.70800 -1.21400 42.70200
C  -2.30400 -2.26300 43.47300
C  -1.21300 -2.99700 44.21600
C  -2.32700 -0.11700 41.87200
C  -3.85700 -2.49600 43.56700
O  -4.65000 -1.78700 42.99800
C  -4.38700 -3.64900 44.21400
N  1.09100 -4.68300 45.43600
C  -0.31300 -4.95400 45.52800
C  -0.53400 -6.31000 46.23500
C  0.92300 -6.67300 46.77500
C  1.79100 -5.55200 46.14900
C  -1.76800 -6.32500 47.21600
C  1.37600 -8.13800 46.38300
C  2.04600 -9.00300 47.44000
N  3.76300 -3.54100 45.14200
C  4.12300 -4.60800 45.94300
C  5.61800 -4.63600 46.04900
C  6.04100 -3.50600 45.28500
C  4.89000 -2.79400 44.80000
C  6.47500 -5.71600 46.61400
C  7.18400 -2.71400 44.88100
O  8.38100 -2.85300 45.13400
C  6.62600 -1.55400 43.96700
C  6.92700 -0.28800 44.57200
O  6.26400 0.24200 45.46500
O  8.00700 0.26400 43.93000
C  8.33400 1.66400 44.30700
H  0.38400 0.38100 41.92700
H  -2.21700 -4.75800 45.07300
H  3.52300 -6.39400 47.00500
H  5.14800 0.70100 42.67300
H  2.85900 0.79300 40.98800
H  3.64800 2.38500 43.10700
H  2.19300 1.46000 43.81200
H  2.11600 2.51700 42.33900
H  4.48100 -0.43400 40.09500
H  5.53800 -1.56500 41.07400
H  7.23200 -0.68000 40.33900
H  6.83500 0.66800 41.46100
H  -1.68900 0.76500 41.92400
H  -3.31500 0.22700 42.18100
H  -2.43000 -0.56800 40.88500
H  -4.25500 -3.63100 45.29500
H  -3.83000 -4.51400 43.85300
H  -5.43300 -3.79800 43.94400
H  -0.72100 -7.00900 45.42000
H  0.98000 -6.40300 47.82900
H  -1.44300 -6.30000 48.25600
H  -2.42000 -7.16900 46.99300
H  -2.41800 -5.49200 46.94600
H  2.20000 -8.02700 45.67800
H  0.58800 -8.69600 45.87700
H  1.77700 -10.05900 47.44100
H  1.83400 -8.63600 48.44500
H  3.12400 -8.88900 47.33100
H  6.34400 -5.65300 47.69400
H  7.50300 -5.58800 46.27400
H  6.26100 -6.70500 46.21000
H  6.96700 -1.65000 42.93600
H  7.51000 2.37700 44.26600
H  9.15800 2.13300 43.76900
H  8.72300 1.71000 45.32400
Mg 17.25400 -1.54400 28.04800
C  15.99700 0.55300 30.55100
C  19.22100 -3.05400 30.43500
C  18.94100 -3.06600 25.48600
C  15.55900 0.37900 25.64500
N  17.46700 -1.27600 30.27500
C  16.86400 -0.42200 31.10500
C  17.12600 -0.75200 32.62700
C  18.40600 -1.69400 32.51200
C  18.39800 -2.03000 30.94800
C  19.67800 -0.98000 33.00300
C  15.91000 -1.58000 33.15900
C  15.58700 -1.24700 34.54400
H  16.44100 -0.35900 35.49500
N  18.67400 -3.05000 28.00300
C  19.37100 -3.53500 29.10500
C  20.25300 -4.52700 28.62000
C  20.26300 -4.48500 27.17100
C  19.22700 -3.52600 26.82400
C  21.20100 -5.24000 29.53600
C  21.18800 -5.20000 26.16000
O  21.20300 -5.08600 24.97800
C  22.39900 -6.02400 26.70200
N  17.49500 -1.20600 25.82900
C  18.11200 -2.02000 25.00200
C  17.99500 -1.66800 23.53200
C  16.68800 -0.75400 23.65100
C  16.57200 -0.41600 25.13200
C  19.23300 -0.91200 22.95700
C  15.45000 -1.39700 23.06700
C  14.88400 -0.79600 21.72700
N  16.00800 0.05200 28.08900
C  15.31500 0.65700 26.97600
C  14.47000 1.77600 27.52700
C  14.66700 1.68300 28.93600
C  15.69700 0.72100 29.19500
C  13.61700 2.76900 26.72900
C  14.41800 2.37400 30.24200
O  13.75400 3.36300 30.50800
C  15.30300 1.63700 31.29900
C  16.11800 2.62000 32.07100
O  17.23400 2.96200 31.88700
O  15.36200 3.05700 33.14400
C  15.93300 4.14100 33.97800
H  19.79400 -3.55400 31.21800
H  19.50400 -3.60600 24.72300
H  15.01400 0.92300 24.87100
H  17.35900 0.24100 33.00900
H  18.29000 -2.60900 33.09400
H  19.41000 -0.04700 33.49800
H  20.58100 -0.97400 32.39100
H  20.06500 -1.48600 33.88700
H  16.10700 -2.64900 33.08100
H  15.04100 -1.34800 32.54300
H  15.48700 -2.16300 35.12600
H  14.61400 -0.77100 34.43200
H  21.11900 -6.30400 29.31300
H  20.91700 -4.98300 30.55600
H  22.17800 -4.78600 29.37300
H  23.10000 -5.29100 27.10300
H  22.87800 -6.61500 25.92100
H  21.97400 -6.66600 27.47300
H  17.88200 -2.56200 22.91900
H  16.95600 0.15900 23.11900
H  20.17700 -1.12200 23.46100
H  19.08200 0.16700 22.99800
H  19.43900 -1.25300 21.94300
H  14.64500 -1.45000 23.80000
H  15.75400 -2.41200 22.81200
H  15.09200 0.26400 21.57800
H  13.81700 -0.94400 21.56700
H  15.29500 -1.29800 20.85200
H  12.70100 2.18700 26.61700
H  14.13200 3.09600 25.82600
H  13.48600 3.69700 27.28500
H  14.74900 1.18400 32.12100
H  16.25700 4.95300 33.32600
H  16.75800 3.73800 34.56500
H  15.18800 4.58000 34.64100

