158

Mg 34.68700 3.35600 29.38000
C  32.49200 4.30100 32.04700
C  37.11400 3.02000 31.90600
C  37.04400 2.75100 27.08700
C  32.29600 3.72200 27.14400
N  34.79200 3.84300 31.73900
C  33.78200 3.95800 32.52700
C  34.14800 3.74300 33.97800
C  35.65300 3.47400 33.88400
C  35.86400 3.41300 32.41900
C  36.47200 4.64000 34.52200
C  33.45500 2.62100 34.78600
C  32.78000 2.99400 36.18800
H  33.54400 4.04800 37.08700
N  36.76900 2.84500 29.46900
C  37.54100 2.74100 30.58200
C  38.87100 2.34000 30.24000
C  38.88900 2.11900 28.82900
C  37.55200 2.64400 28.35500
C  39.87000 2.16400 31.32300
C  40.00400 1.62500 27.97200
O  39.90300 1.61200 26.69600
C  41.23600 1.17300 28.58200
N  34.70300 3.48200 27.33200
C  35.74500 3.07500 26.61400
C  35.37400 2.99000 25.05200
C  33.84400 3.02800 25.11200
C  33.52300 3.38500 26.60700
C  36.00100 4.12500 24.16800
C  33.22900 1.67100 24.80000
C  31.76600 1.56100 24.49100
N  32.83400 4.00500 29.48900
C  31.91400 4.04800 28.44000
C  30.58900 4.49100 28.99700
C  30.84000 4.64300 30.36000
C  32.20600 4.33900 30.65100
C  29.28600 4.62300 28.17800
C  30.22300 5.05600 31.59000
O  29.04300 5.40700 31.84100
C  31.24400 4.68600 32.74100
C  31.38100 5.90500 33.66100
O  31.92700 6.92300 33.36200
O  30.72600 5.67400 34.87500
C  30.94300 6.76300 35.81900
H  37.79000 2.76800 32.72500
H  37.79000 2.43900 26.35300
H  31.41000 3.67800 26.50700
H  33.96100 4.71900 34.42700
H  35.95000 2.51100 34.29900
H  37.37000 4.29400 35.03200
H  35.83400 5.10400 35.27400
H  36.72100 5.35500 33.73700
H  34.05400 1.72800 34.95900
H  32.60000 2.19900 34.25800
H  32.64200 2.17100 36.88900
H  31.80400 3.39400 35.91100
H  39.60100 1.13800 31.57600
H  39.59300 2.87200 32.10300
H  40.93300 2.25600 31.09900
H  40.94200 0.51000 29.39500
H  41.81900 1.96100 29.05900
H  41.86200 0.75700 27.79300
H  35.74800 2.01100 24.75400
H  33.26700 3.70600 24.48300
H  36.62600 4.80800 24.74200
H  35.20300 4.69000 23.68500
H  36.59000 3.67000 23.37100
H  33.60900 1.02000 25.58800
H  33.71600 1.23500 23.92800
H  31.22300 2.45800 24.19400
H  31.40200 1.24600 25.46800
H  31.61400 0.86500 23.66600
H  29.23400 4.20300 27.17400
H  29.07200 5.69200 28.18500
H  28.48800 4.14600 28.74600
H  30.77000 3.91400 33.34600
H  30.50600 6.48500 36.77800
H  30.48400 7.66500 35.41500
H  32.02500 6.88600 35.88000
Mg 36.11400 48.49300 25.16400
C  36.64300 46.70600 28.14800
C  34.60300 50.96500 26.77500
C  35.48700 50.07800 22.14300
C  37.74100 45.90100 23.36100
N  35.52700 48.67800 27.20200
C  35.87800 47.87600 28.25400
C  35.60400 48.61700 29.56000
C  34.77400 49.85100 29.13800
C  34.91000 49.80300 27.57900
C  33.26400 49.86800 29.64200
C  36.93800 48.99800 30.32200
C  36.82900 49.12100 31.85000
H  35.47600 49.10200 32.54600
N  35.23000 50.31300 24.55100
C  34.67000 51.15900 25.43200
C  34.22700 52.34400 24.74400
C  34.47200 52.13200 23.36900
C  35.04700 50.80900 23.26100
C  33.68300 53.54900 25.49000
C  34.24000 53.06600 22.19000
O  34.64200 52.88100 21.02300
C  33.34200 54.27300 22.38100
N  36.55300 48.07300 23.05500
C  36.07600 48.79000 22.06700
C  36.44800 48.11300 20.71600
C  37.52100 47.09200 21.07600
C  37.38200 47.06300 22.62800
C  35.15500 47.75200 19.96000
C  39.00200 47.43400 20.58300
C  39.59100 46.43200 19.56800
N  36.90700 46.59700 25.60900
C  37.60000 45.70400 24.79000
C  37.97100 44.59900 25.55400
C  37.59900 44.88200 26.89400
C  36.95800 46.16400 26.83100
C  38.60000 43.25500 24.98600
C  37.65800 44.42600 28.34400
O  37.94000 43.30200 28.84800
C  37.06800 45.61200 29.18300
C  35.85200 45.05800 29.83400
O  34.83900 44.73000 29.19200
O  36.02700 44.99400 31.22000
C  34.76100 44.86700 31.95000
H  34.14100 51.77800 27.33900
H  35.21900 50.55100 21.19600
H  38.21300 45.00600 22.95000
H  34.95700 47.93400 30.11100
H  35.23000 50.73300 29.58700
H  33.02800 48.93900 30.16000
H  32.56800 49.85700 28.80200
H  33.09600 50.74600 30.26600
H  37.22600 49.99300 29.98400
H  37.65600 48.24200 30.00500
H  37.38600 49.94600 32.29300
H  37.26100 48.16900 32.15900
H  33.46900 54.46300 24.93700
H  34.31600 53.85400 26.32300
H  32.71600 53.35900 25.95500
H  32.39200 54.11300 22.89000
H  33.14200 54.80200 21.44900
H  33.83100 55.07700 22.93100
H  36.86000 48.91000 20.09600
H  37.27600 46.08400 20.74300
H  34.45700 47.24300 20.62400
H  35.43800 47.13600 19.10600
H  34.60000 48.62300 19.61300
H  39.56700 47.63800 21.49300
H  39.10200 48.44600 20.19000
H  39.89800 46.98800 18.68200
H  39.01600 45.53800 19.32700
H  40.40300 45.91500 20.07900
H  39.37400 43.45400 24.24500
H  37.79800 42.59100 24.66400
H  39.08800 42.81600 25.85600
H  37.73100 45.94600 29.98100
H  35.04700 44.64300 32.97800
H  34.06600 44.07200 31.68000
H  34.21300 45.79000 31.75900

