158

Mg 45.06700 5.35500 48.19900
C  43.06000 8.39000 47.32400
C  42.42100 3.63900 47.58600
C  47.25500 2.85400 47.90700
C  47.81200 7.58400 48.35500
N  43.03200 5.98800 47.22300
C  42.37900 7.21500 47.12100
C  40.96300 7.07100 46.60500
C  40.73000 5.53000 46.95900
C  42.09000 5.04700 47.32900
C  39.61300 5.28000 48.04500
C  40.89200 7.36000 45.06400
C  39.64400 8.18600 44.59100
H  38.97600 7.62000 43.34300
N  44.86100 3.52800 47.87100
C  43.62600 2.99800 47.73000
C  43.81100 1.59700 47.60100
C  45.18900 1.30400 47.63000
C  45.87400 2.59100 47.83800
C  42.67300 0.58600 47.18500
C  45.82100 -0.06600 47.52400
O  45.08200 -1.00600 47.16500
C  47.26000 -0.48100 47.79100
N  47.20600 5.23900 48.29200
C  47.86300 4.08500 48.11300
C  49.34100 4.27800 48.11100
C  49.52700 5.74800 48.17800
C  48.08800 6.23900 48.24500
C  50.14100 3.39900 49.17100
C  50.30400 6.44400 46.93400
C  51.76100 6.13000 46.73900
N  45.37700 7.56200 48.00600
C  46.59200 8.27600 48.18000
C  46.34900 9.69000 48.01200
C  44.97900 9.75100 47.76900
C  44.42700 8.46500 47.71700
C  47.39400 10.75400 48.20800
C  43.83900 10.69600 47.60000
O  43.85200 11.94200 47.58300
C  42.56500 9.81400 47.29800
C  41.54100 10.08000 48.33900
O  41.30900 9.39800 49.31700
O  40.83100 11.17400 47.95200
C  39.71900 11.65800 48.79800
H  41.49600 3.06100 47.55000
H  47.92100 2.00500 47.73900
H  48.72400 8.14700 48.56500
H  40.26100 7.71500 47.13300
H  40.40000 5.04600 46.04000
H  39.06700 6.16500 48.37100
H  40.10100 4.91700 48.95000
H  38.85200 4.54500 47.78600
H  40.98600 6.36900 44.62000
H  41.82300 7.83800 44.75900
H  39.97200 9.19400 44.33800
H  38.85900 8.28500 45.34200
H  42.88800 0.12800 46.21900
H  41.63600 0.91900 47.13300
H  42.63800 -0.20400 47.93500
H  47.23400 -1.54400 48.02900
H  47.75800 0.11000 48.56000
H  47.80700 -0.37700 46.85400
H  49.77800 3.89600 47.18800
H  50.03300 6.10600 49.07500
H  49.52900 2.60600 49.60000
H  50.69400 3.93100 49.94500
H  50.80800 2.83200 48.52300
H  50.21300 7.52600 47.03300
H  49.78900 6.14100 46.02300
H  51.71200 5.50500 45.84700
H  52.13200 5.52000 47.56300
H  52.36600 7.03600 46.73700
H  46.81900 11.67900 48.25300
H  48.10800 10.87700 47.39400
H  47.95700 10.56500 49.12100
H  42.11900 9.94600 46.31200
H  39.61100 11.08800 49.72000
H  38.83700 11.63100 48.15700
H  39.90100 12.68600 49.11300
Mg -12.85100 16.28500 40.72100
C  -9.99000 14.23900 40.28700
C  -11.07000 18.97600 39.54800
C  -15.76600 17.86200 40.64800
C  -14.63400 13.19200 41.35800
N  -10.78700 16.51300 40.06900
C  -9.78800 15.54800 39.99500
C  -8.42200 16.20100 39.49100
C  -8.71800 17.72500 39.42700
C  -10.27800 17.82000 39.73500
C  -7.81300 18.70300 40.29500
C  -8.02100 15.49600 38.07300
C  -6.55600 15.11600 38.08900
H  -5.60800 16.00800 37.23700
N  -13.32100 18.13200 40.23100
C  -12.49600 19.16100 39.82200
C  -13.24500 20.36000 39.76500
C  -14.61200 20.08700 40.04500
C  -14.61800 18.65900 40.33400
C  -12.65400 21.67700 39.36900
C  -15.81700 21.03200 39.93600
O  -15.64300 22.17700 39.58700
C  -17.17100 20.79000 40.54400
N  -14.92200 15.60100 40.67500
C  -15.89700 16.52400 40.86800
C  -17.27200 15.89600 40.93400
C  -16.78000 14.45500 41.44100
C  -15.33300 14.39900 41.18300
C  -18.40500 16.49000 41.78100
C  -17.56900 13.17000 40.87700
C  -18.26900 12.42600 42.06600
N  -12.42700 14.15700 40.90100
C  -13.26400 13.00100 41.19600
C  -12.44300 11.82500 41.21700
C  -11.10000 12.26800 40.85700
C  -11.22600 13.69100 40.69400
C  -13.00300 10.49900 41.51400
C  -9.71000 11.81600 40.74400
O  -9.17800 10.68700 40.79600
C  -8.90700 13.12400 40.40400
C  -7.96200 13.48000 41.53700
O  -8.15200 14.33500 42.38400
O  -6.69400 13.01700 41.20200
C  -5.52100 13.59400 41.84200
H  -10.54900 19.83300 39.11500
H  -16.64100 18.47800 40.43100
H  -15.07900 12.26700 41.73000
H  -7.70700 16.00700 40.29100
H  -8.51400 18.06800 38.41300
H  -7.19700 19.23400 39.56800
H  -7.02400 18.29800 40.92900
H  -8.43300 19.48400 40.73500
H  -8.18600 16.24800 37.30100
H  -8.57600 14.56700 37.93900
H  -6.60400 14.10100 37.69300
H  -6.20100 15.15100 39.11900
H  -12.68400 21.68300 38.27900
H  -11.58900 21.73900 39.59000
H  -13.15400 22.55200 39.78300
H  -17.88800 20.30200 39.88300
H  -17.75400 21.69400 40.72400
H  -17.11600 20.22500 41.47500
H  -17.52700 15.75300 39.88400
H  -16.80200 14.41900 42.53000
H  -19.37300 16.63300 41.30000
H  -18.11800 17.52200 41.97900
H  -18.57700 15.98300 42.73000
H  -17.05800 12.54300 40.14700
H  -18.33500 13.63500 40.25700
H  -18.32600 12.81500 43.08300
H  -17.66600 11.52500 42.17900
H  -19.29800 12.08000 41.97100
H  -14.07900 10.35500 41.61400
H  -12.47300 10.04200 42.35000
H  -12.71700 9.90600 40.64500
H  -8.40500 13.05000 39.43900
H  -5.16300 12.87100 42.57400
H  -5.62000 14.57900 42.29800
H  -4.72400 13.65200 41.10100

