158

Mg 2.39500 -1.09200 45.00600
C  5.65000 -0.25300 43.86800
C  1.18100 1.73700 43.58400
C  -0.73800 -2.43800 45.16600
C  3.65400 -4.26000 45.95200
N  3.35400 0.45800 43.67600
C  4.70300 0.71400 43.50800
C  4.86700 2.12500 42.76000
C  3.49300 2.81900 43.01900
C  2.57800 1.65300 43.46400
C  3.45100 4.02500 43.95900
C  5.25100 1.77000 41.23100
C  6.64000 2.35300 40.88700
H  6.72600 3.34900 39.73200
N  0.47100 -0.44100 44.50000
C  0.19500 0.69800 43.97600
C  -1.21300 0.84600 43.74000
C  -1.90100 -0.33700 44.11900
C  -0.67800 -1.18300 44.57300
C  -1.87800 2.02300 43.12700
C  -3.37100 -0.63700 44.04600
O  -4.07400 0.19500 43.56700
C  -3.90200 -1.89100 44.60400
N  1.52700 -3.15600 45.61200
C  0.19100 -3.38500 45.69100
C  -0.03500 -4.91400 45.81500
C  1.42200 -5.48800 46.20600
C  2.28500 -4.27000 45.88700
C  -1.08500 -5.24800 46.89600
C  1.76400 -6.78200 45.39300
C  2.62700 -7.77400 46.21100
N  4.23700 -2.03800 44.96800
C  4.55900 -3.27300 45.45800
C  5.98500 -3.43600 45.39700
C  6.49200 -2.23000 44.77700
C  5.35100 -1.45200 44.52500
C  6.74500 -4.62100 45.80700
C  7.73900 -1.48900 44.35300
O  8.88800 -1.81400 44.36800
C  7.16000 -0.21600 43.72200
C  7.77400 0.94700 44.39700
O  8.72500 1.53300 43.95400
O  7.02900 1.31900 45.55800
C  7.52900 2.51100 46.29900
H  0.80900 2.70100 43.23100
H  -1.69500 -2.88300 45.44500
H  4.08400 -5.10400 46.49400
H  5.65200 2.55600 43.38100
H  3.15300 3.13000 42.03100
H  4.22800 3.91300 44.71400
H  2.44000 3.97400 44.36400
H  3.48400 4.99700 43.46600
H  4.48600 2.21000 40.59000
H  5.20900 0.69900 41.03200
H  7.30600 1.52800 40.63500
H  7.07700 2.88600 41.73100
H  -2.72400 2.29700 43.75700
H  -2.18800 1.63100 42.15800
H  -1.16400 2.84400 43.05600
H  -4.98900 -1.87400 44.52600
H  -3.50400 -1.89900 45.61900
H  -3.53500 -2.82200 44.17200
H  -0.34900 -5.17300 44.80400
H  1.39900 -5.69700 47.27500
H  -1.94900 -5.66000 46.37500
H  -1.43300 -4.33300 47.37600
H  -0.83700 -5.93900 47.70100
H  2.31000 -6.60700 44.46600
H  0.82800 -7.29400 45.17200
H  1.97900 -8.53700 46.64200
H  3.09200 -7.30500 47.07800
H  3.40000 -8.30200 45.65300
H  6.50100 -4.95200 46.81600
H  7.82700 -4.48900 45.79800
H  6.51000 -5.36200 45.04300
H  7.38600 -0.19900 42.65600
H  6.54600 2.96900 46.18700
H  8.29900 3.13500 45.84400
H  7.73000 2.35100 47.35900
Mg 47.47900 16.01900 27.54600
C  45.52200 15.62600 30.57400
C  49.75000 17.64300 29.31200
C  49.11800 16.41300 24.66300
C  44.88800 14.49500 25.86800
N  47.61500 16.51800 29.77800
C  46.78400 16.25400 30.80300
C  47.23100 16.93200 32.12100
C  48.57700 17.61600 31.65500
C  48.71300 17.27700 30.18700
C  48.56200 19.19700 31.78900
C  47.41800 15.91300 33.20800
C  46.59200 16.09300 34.48700
H  46.38800 17.44300 35.05000
N  49.22300 16.97300 27.06400
C  50.09900 17.53900 27.94800
C  51.37400 17.72900 27.27800
C  51.22900 17.29300 25.91500
C  49.78600 16.84700 25.81200
C  52.58500 18.25600 28.02300
C  52.27800 17.30500 24.79100
O  52.05600 16.75700 23.69800
C  53.60100 17.95800 25.05100
N  47.19200 15.37000 25.59800
C  47.95400 15.70100 24.53900
C  47.35000 15.36600 23.16900
C  46.02900 14.64000 23.54500
C  46.01200 14.80500 25.12900
C  47.10300 16.59900 22.17000
C  45.92600 13.11700 23.18400
C  44.65900 12.70800 22.50200
N  45.66400 15.04300 28.09500
C  44.70500 14.62800 27.26700
C  43.59600 14.11200 28.02900
C  43.88200 14.53700 29.35400
C  45.16400 15.11300 29.34100
C  42.38900 13.39300 27.56700
C  43.35900 14.56700 30.72800
O  42.26200 14.18800 31.17900
C  44.42400 15.35800 31.56200
C  43.80300 16.48700 32.30400
O  43.78500 17.65700 32.10200
O  43.18800 15.90600 33.37500
C  42.29400 16.77400 34.15600
H  50.51200 18.11900 29.93300
H  49.72900 16.59500 23.77600
H  44.09700 14.00900 25.29300
H  46.51900 17.68100 32.46800
H  49.44300 17.34200 32.25900
H  47.73900 19.51100 32.43100
H  48.42900 19.73900 30.85300
H  49.48900 19.40900 32.32300
H  48.44300 15.83900 33.57100
H  47.04500 14.95800 32.83700
H  46.99800 15.47200 35.28600
H  45.55500 15.75800 34.53300
H  53.20800 17.38300 28.21600
H  52.50000 18.72100 29.00500
H  53.16800 18.96400 27.43500
H  53.47500 19.01400 25.29100
H  54.26300 17.93300 24.18500
H  54.00200 17.35400 25.86500
H  48.01800 14.68800 22.63700
H  45.12700 15.11800 23.16300
H  47.87300 16.58800 21.39800
H  47.26900 17.55400 22.66900
H  46.12100 16.60000 21.69600
H  46.10900 12.52700 24.08200
H  46.70400 12.91600 22.44800
H  44.65900 12.79000 21.41500
H  43.87400 13.32600 22.93700
H  44.53500 11.64400 22.70400
H  42.70300 12.43300 27.15600
H  41.98400 13.85900 26.66900
H  41.68900 13.20300 28.38100
H  44.90400 14.70700 32.29300
H  41.75700 17.48100 33.52300
H  42.83400 17.38100 34.88200
H  41.68400 16.03500 34.67500

