158

Mg 35.18900 3.52600 30.16200
C  32.79100 4.19300 32.45900
C  37.58400 3.72800 32.60300
C  37.51200 2.52400 27.82900
C  32.78200 3.58100 27.53100
N  35.15200 3.82700 32.22800
C  34.04400 3.98100 33.01500
C  34.25900 4.19100 34.51300
C  35.82400 4.40700 34.42800
C  36.24800 3.93800 33.03700
C  36.24500 5.93400 34.71000
C  33.78400 2.99300 35.39700
C  33.38400 3.43000 36.81200
H  34.25200 4.41000 37.66900
N  37.28600 3.21600 30.17800
C  38.05900 3.36100 31.31200
C  39.36600 2.87100 31.02100
C  39.37700 2.58500 29.62400
C  37.99000 2.77900 29.10500
C  40.47500 2.78200 32.02300
C  40.49700 2.14900 28.72300
O  40.43900 1.94000 27.48100
C  41.87500 1.86800 29.33800
N  35.14400 3.27800 27.91100
C  36.23400 2.74600 27.26100
C  35.85500 2.46000 25.81400
C  34.28900 2.75000 25.75900
C  34.05100 3.29400 27.11300
C  36.71500 3.35000 24.75500
C  33.37300 1.63800 25.21100
C  32.08800 2.06300 24.44800
N  33.21900 3.87400 29.97100
C  32.33300 3.85700 28.91200
C  31.07600 4.16300 29.38900
C  31.24200 4.32000 30.74100
C  32.53200 4.10100 31.07500
C  29.76500 4.23500 28.60000
C  30.43400 4.66200 31.86100
O  29.25200 5.04600 31.97500
C  31.43900 4.43000 33.10300
C  31.37000 5.67900 33.93800
O  31.58900 6.82800 33.51800
O  30.92200 5.31800 35.21200
C  30.58900 6.55400 36.00900
H  38.31800 3.90800 33.39000
H  38.23400 1.92100 27.27500
H  31.91200 3.52300 26.87500
H  33.73500 5.10400 34.79700
H  36.43200 3.90400 35.17900
H  35.34500 6.40100 35.11000
H  36.67700 6.45400 33.85500
H  36.91400 5.98600 35.56900
H  34.52200 2.21200 35.58200
H  32.89600 2.56800 34.92800
H  33.29100 2.50400 37.38000
H  32.36200 3.78600 36.67700
H  40.64700 1.82700 32.52000
H  40.23600 3.54800 32.76000
H  41.43400 3.13300 31.64200
H  41.91700 1.20800 30.20400
H  42.37000 2.80000 29.60700
H  42.54700 1.50400 28.56100
H  36.07300 1.40800 25.63500
H  34.19000 3.58800 25.06900
H  37.15500 2.59700 24.10200
H  37.44700 3.92800 25.31900
H  36.04900 3.97500 24.15900
H  32.90600 1.18000 26.08300
H  33.90900 0.87400 24.64800
H  31.26900 2.25500 25.14000
H  31.81000 1.28800 23.73400
H  32.35000 2.94600 23.86400
H  29.01700 4.47600 29.35600
H  29.40000 3.34500 28.08800
H  29.86500 5.07500 27.91200
H  31.11000 3.60500 33.73600
H  29.82900 7.20600 35.57800
H  31.53900 7.04900 36.20800
H  30.10600 6.14300 36.89600
Mg 27.37800 49.89900 26.33800
C  25.56700 51.23700 29.04000
C  29.50600 48.53200 28.62100
C  29.37300 49.25700 23.71000
C  25.18200 51.55300 24.16000
N  27.52400 49.94800 28.62200
C  26.66500 50.58500 29.49300
C  26.98600 50.25800 31.03600
C  28.42500 49.65500 30.81300
C  28.50900 49.27000 29.22900
C  29.66500 50.62700 31.26400
C  25.96300 49.24700 31.69000
C  25.23600 49.72700 32.94600
H  26.09000 50.25300 34.12200
N  29.15600 48.91400 26.17200
C  29.92600 48.39000 27.25300
C  31.02400 47.65400 26.71700
C  31.00100 47.82900 25.32600
C  29.84800 48.72400 25.00100
C  31.85300 46.72700 27.58600
C  31.90300 47.30200 24.17800
O  31.75300 47.62200 23.01600
C  32.96300 46.33400 24.59300
N  27.31600 50.33800 24.23000
C  28.26900 50.02900 23.34500
C  27.87600 50.39600 21.86900
C  26.44500 51.01100 22.08100
C  26.31300 50.99600 23.61400
C  28.86500 51.30100 21.02700
C  25.24100 50.28200 21.44300
C  24.24300 51.24700 20.81100
N  25.78400 51.11400 26.53700
C  24.91800 51.68300 25.53500
C  23.81000 52.42800 26.19700
C  24.10800 52.17900 27.51400
C  25.21900 51.37500 27.69800
C  22.76600 53.01700 25.51800
C  23.55900 52.49900 28.81900
O  22.59900 53.14600 29.05800
C  24.52100 51.85100 29.90300
C  25.01200 52.94300 30.80500
O  25.78800 53.80900 30.48100
O  24.34900 53.03000 32.01500
C  24.78200 54.12700 32.86600
H  30.30900 48.18700 29.27600
H  30.01100 49.12000 22.83400
H  24.39700 51.95200 23.51500
H  26.97700 51.19900 31.58600
H  28.46800 48.66000 31.25800
H  30.31500 50.72900 30.39500
H  30.11300 50.21200 32.16700
H  29.35300 51.60500 31.63200
H  26.45600 48.31400 31.96300
H  25.16000 49.13400 30.96200
H  24.61200 48.92400 33.33900
H  24.57000 50.50600 32.57600
H  31.65500 46.79200 28.65600
H  32.91400 46.92700 27.43300
H  31.52100 45.73100 27.29500
H  33.80200 46.80900 25.10100
H  33.38300 45.85500 23.70800
H  32.57300 45.42200 25.04500
H  27.84400 49.50600 21.24200
H  26.52800 52.05800 21.78800
H  29.80000 51.45100 21.56700
H  28.54000 52.26200 20.62700
H  28.98000 50.75800 20.08900
H  24.81100 49.56800 22.14500
H  25.71600 49.61800 20.72000
H  23.53500 51.58600 21.56700
H  23.74800 50.74500 19.98000
H  24.64600 52.17100 20.39700
H  22.34500 52.38000 24.74000
H  23.12900 53.92300 25.03200
H  21.92300 53.40400 26.09000
H  23.91600 51.12000 30.43900
H  24.74400 55.05200 32.29000
H  25.73800 53.90300 33.33900
H  24.03000 54.19900 33.65200

