158

Mg 16.87600 -3.01900 28.20800
C  16.06200 -0.80100 30.88300
C  18.97200 -4.77700 30.35100
C  18.53600 -4.58000 25.62200
C  15.76100 -0.58700 26.03700
N  17.50600 -2.79700 30.38000
C  16.88900 -1.92100 31.30100
C  17.27300 -2.27700 32.74500
C  18.48600 -3.28900 32.52400
C  18.26200 -3.68200 31.01900
C  19.96700 -2.80200 32.98000
C  16.10100 -2.81400 33.63700
C  16.18100 -2.43900 35.16300
H  17.50100 -2.21700 35.82400
N  18.35100 -4.59000 27.98000
C  19.06400 -5.15300 28.98300
C  19.94500 -6.16700 28.51100
C  19.68900 -6.20200 27.11000
C  18.74400 -5.10500 26.87300
C  20.82900 -7.05900 29.43300
C  20.27900 -7.05600 26.06500
O  19.81800 -7.08400 24.93500
C  21.35200 -8.07400 26.40800
N  17.02500 -2.68700 26.13500
C  17.75500 -3.47500 25.29100
C  17.62900 -2.99700 23.85800
C  16.67400 -1.70500 23.99800
C  16.49400 -1.65500 25.44600
C  18.96000 -2.62200 23.07300
C  15.29600 -1.85400 23.26700
C  14.69600 -0.58300 22.67200
N  15.90900 -1.19900 28.39500
C  15.36200 -0.39900 27.35800
C  14.51800 0.66600 27.92600
C  14.80800 0.51100 29.30000
C  15.61400 -0.63800 29.57400
C  13.84600 1.70800 27.08900
C  14.69800 1.17200 30.58400
O  14.14600 2.29100 30.80900
C  15.44900 0.26400 31.67800
C  16.44900 1.18100 32.34300
O  17.61600 1.39500 32.02200
O  15.88500 1.83000 33.43700
C  16.67200 2.93800 34.00500
H  19.60400 -5.26000 31.09900
H  19.02000 -4.95600 24.71900
H  15.77700 0.32700 25.43900
H  17.68900 -1.37400 33.19300
H  18.33400 -4.16100 33.15900
H  20.27200 -3.39100 33.84500
H  19.82800 -1.77900 33.32900
H  20.68700 -3.08900 32.21300
H  15.90100 -3.88400 33.56500
H  15.20900 -2.29200 33.29100
H  15.62200 -3.08900 35.83500
H  15.57200 -1.53700 35.10400
H  21.82900 -6.66600 29.24900
H  20.88000 -8.10000 29.11300
H  20.59700 -6.98500 30.49500
H  22.15200 -7.62100 26.99400
H  21.87600 -8.55100 25.57800
H  20.84300 -8.86800 26.95400
H  17.07200 -3.75700 23.31000
H  17.23400 -0.78700 23.81900
H  18.80600 -1.76600 22.41600
H  19.30800 -3.47600 22.49200
H  19.81000 -2.37400 23.70800
H  14.60500 -2.15800 24.05200
H  15.37700 -2.62400 22.49900
H  15.00300 -0.59400 21.62600
H  15.17300 0.21700 23.23900
H  13.60900 -0.52700 22.72500
H  14.14200 2.70700 27.40900
H  12.78200 1.71400 27.32400
H  13.98700 1.55800 26.01800
H  14.66600 -0.03800 32.37300
H  16.42700 3.88500 33.52500
H  17.75300 2.79700 33.98900
H  16.37000 2.89100 35.05100
Mg -8.55700 17.99100 42.81100
C  -5.11500 17.52100 42.63700
C  -8.08200 21.34800 42.12900
C  -11.83100 18.26200 42.33300
C  -8.89000 14.41800 42.81100
N  -6.81000 19.32200 42.41800
C  -5.46800 18.89900 42.46400
C  -4.45600 20.03500 42.23100
C  -5.40400 21.26000 42.38200
C  -6.88000 20.63800 42.20300
C  -5.23400 22.22300 43.59600
C  -3.65200 19.95200 40.93100
C  -4.30500 19.23300 39.68300
H  -3.91900 19.86400 38.33500
N  -9.80200 19.60800 42.33900
C  -9.42600 20.92000 42.12800
C  -10.58700 21.71000 41.88100
C  -11.74800 20.86900 41.91600
C  -11.14900 19.48900 42.17100
C  -10.54300 23.20400 41.53500
C  -13.21100 21.25700 41.76500
O  -13.49500 22.46200 41.78000
C  -14.30200 20.30400 41.84600
N  -10.08700 16.46200 42.37200
C  -11.33300 16.92500 42.45500
C  -12.34100 15.74500 42.84100
C  -11.53400 14.47800 42.76300
C  -10.08600 15.17900 42.66900
C  -13.07500 15.97500 44.15500
C  -11.81200 13.45400 41.62500
C  -12.24500 12.01700 42.03700
N  -7.29400 16.19000 42.87000
C  -7.57600 14.88700 42.91000
C  -6.34800 14.17900 42.91700
C  -5.31300 15.18200 42.90800
C  -5.96400 16.35600 42.81600
C  -6.24500 12.65200 42.80500
C  -3.87300 15.39600 42.94700
O  -2.96400 14.61500 43.03800
C  -3.74800 16.94700 42.77900
C  -3.09200 17.31600 44.04500
O  -1.92400 17.76600 44.04700
O  -3.96300 17.23300 45.14100
C  -3.35100 17.44200 46.43900
H  -7.99800 22.42900 41.99500
H  -12.91500 18.32200 42.45300
H  -8.97100 13.33700 42.94200
H  -3.77800 19.81900 43.05600
H  -5.35000 21.99700 41.58100
H  -4.37000 21.81200 44.11800
H  -6.14300 22.18300 44.19600
H  -5.01800 23.23900 43.26400
H  -2.75300 19.39700 41.20000
H  -3.24400 20.93500 40.69400
H  -5.38100 19.40500 39.71100
H  -4.21600 18.14600 39.68600
H  -10.25700 23.51500 40.53100
H  -9.93300 23.77200 42.23800
H  -11.48200 23.69800 41.78800
H  -14.40600 19.84200 42.82700
H  -13.98100 19.53300 41.14500
H  -15.17200 20.85600 41.48900
H  -13.12800 15.77300 42.08700
H  -11.60000 13.94300 43.71000
H  -12.60900 16.79600 44.70000
H  -13.17100 15.03700 44.70100
H  -14.15000 16.04400 43.99200
H  -10.96200 13.34200 40.95200
H  -12.63700 13.90200 41.07200
H  -11.75400 11.17800 41.54400
H  -13.25500 11.77900 41.70500
H  -12.18200 11.90000 43.11900
H  -7.24700 12.23100 42.88100
H  -5.55400 12.27900 43.56100
H  -5.84600 12.42800 41.81600
H  -2.99300 17.19500 42.03200
H  -3.54600 16.59400 47.09500
H  -3.69300 18.39500 46.84000
H  -2.26900 17.57000 46.48200

