158

Mg -0.22300 7.61900 25.96600
C  0.72200 9.18800 28.97800
C  -0.24600 4.66500 27.72300
C  -0.38200 6.09300 23.10500
C  0.79200 10.53900 24.26100
N  0.13600 6.99900 28.18700
C  0.42100 7.82600 29.23300
C  0.13500 7.17400 30.57300
C  0.12500 5.66900 30.09900
C  0.01600 5.72400 28.55800
C  1.26200 4.72800 30.63100
C  -1.23400 7.62500 31.21100
C  -1.21700 7.69700 32.77100
H  0.03600 7.25100 33.54100
N  -0.35000 5.59100 25.46000
C  -0.37100 4.51500 26.30700
C  -0.66200 3.34500 25.54100
C  -0.82900 3.72600 24.14300
C  -0.53700 5.19300 24.18100
C  -0.73900 2.03300 26.17700
C  -1.19200 2.90100 22.88800
O  -1.34300 3.36700 21.75100
C  -1.34100 1.38200 22.99900
N  0.24400 8.19600 24.01400
C  -0.16600 7.35800 22.98100
C  0.25600 7.97200 21.64500
C  0.29000 9.44600 21.98400
C  0.41700 9.44000 23.48400
C  1.73100 7.46500 21.21700
C  -0.97000 10.40400 21.60700
C  -2.14900 10.38500 22.52300
N  0.35500 9.49000 26.45300
C  0.84000 10.52700 25.67900
C  1.36400 11.57100 26.47900
C  1.19100 11.16000 27.79300
C  0.71300 9.86300 27.67700
C  1.96400 12.91700 26.05000
C  1.44600 11.52000 29.13700
O  2.03200 12.45900 29.64600
C  1.02400 10.22200 30.03800
C  2.03300 9.89100 31.02300
O  3.11900 9.39800 30.76800
O  1.68900 10.52700 32.20000
C  2.79900 10.73300 33.12600
H  -0.45100 3.79700 28.35400
H  -0.38800 5.51500 22.17800
H  1.17400 11.38500 23.68500
H  0.94900 7.35900 31.27400
H  -0.77500 5.08800 30.29700
H  0.88400 4.16200 31.48200
H  2.06300 5.39700 30.94500
H  1.69900 4.16000 29.80900
H  -2.05000 6.98400 30.87700
H  -1.47500 8.57700 30.73700
H  -2.10900 7.14900 33.07700
H  -1.57600 8.68500 33.05900
H  -1.65200 1.55000 25.83100
H  -0.88700 2.07300 27.25600
H  0.15600 1.43800 25.99400
H  -2.30700 0.96700 23.28700
H  -0.46500 1.13400 23.59900
H  -1.36300 1.00200 21.97800
H  -0.32000 7.83400 20.73000
H  1.18100 9.96600 21.63300
H  1.78200 6.47000 20.77400
H  2.29100 7.33000 22.14200
H  2.18400 8.26400 20.63000
H  -1.20500 10.43700 20.54300
H  -0.56400 11.39800 21.79600
H  -2.06000 11.00100 23.41700
H  -2.32000 9.37700 22.90100
H  -2.93700 10.72200 21.84900
H  2.85500 13.13400 26.64000
H  1.26200 13.71800 26.28000
H  2.09400 12.69000 24.99200
H  0.11300 10.55600 30.53400
H  2.87200 11.82100 33.11400
H  3.71400 10.15100 33.01700
H  2.41500 10.61200 34.13800
Mg 1.05400 41.84100 25.78300
C  2.52300 42.15400 28.99200
C  -1.78900 40.72100 27.29800
C  -0.11400 41.06700 22.78800
C  4.07100 42.97800 24.44200
N  0.48000 41.54300 27.88900
C  1.19500 41.74300 29.05400
C  0.30300 41.77500 30.29900
C  -1.06200 41.12900 29.81800
C  -0.80900 41.10600 28.24400
C  -1.46900 39.75800 30.49600
C  0.16100 43.15500 30.90800
C  0.42700 43.30800 32.40000
H  0.03600 42.10000 33.20200
N  -0.76400 41.03800 25.10600
C  -1.76900 40.61500 25.87900
C  -2.81500 40.11500 24.98500
C  -2.35700 40.34600 23.61300
C  -1.02400 40.88500 23.79900
C  -4.08300 39.29900 25.41600
C  -2.98500 39.96600 22.36800
O  -2.42800 40.00100 21.29300
C  -4.50500 39.62200 22.32900
N  1.83100 42.01800 23.93200
C  1.20300 41.43300 22.88900
C  2.00100 41.44200 21.59100
C  3.19100 42.50000 21.97700
C  3.06900 42.52100 23.57100
C  2.60600 40.02300 21.22900
C  3.00300 43.89400 21.31000
C  4.24300 44.52300 20.63800
N  2.88100 42.50300 26.50600
C  4.02200 42.89400 25.83500
C  5.09700 43.17100 26.75900
C  4.50900 42.90800 27.97400
C  3.20700 42.51600 27.81000
C  6.56900 43.53600 26.49200
C  4.81900 42.75200 29.40700
O  5.90200 42.83800 29.98200
C  3.49900 42.39200 30.10900
C  3.70000 41.15900 30.97200
O  3.31800 40.01800 30.55100
O  4.06500 41.46800 32.26900
C  4.22900 40.32100 33.25800
H  -2.66900 40.29800 27.78800
H  -0.44600 40.90800 21.76000
H  4.85800 43.45100 23.85000
H  0.84000 41.06100 30.92300
H  -1.92600 41.78300 29.93700
H  -1.20600 38.89000 29.89100
H  -2.54600 39.65100 30.62600
H  -1.04300 39.43000 31.44400
H  -0.84200 43.57000 30.80800
H  0.92100 43.73100 30.38000
H  -0.11300 44.18600 32.75500
H  1.51100 43.40700 32.44700
H  -4.01500 38.94700 26.44600
H  -4.23400 38.38700 24.83800
H  -4.91900 39.90200 25.06200
H  -4.71800 38.56800 22.50400
H  -4.81700 39.89300 21.32100
H  -4.95500 40.32900 23.02700
H  1.31800 41.80700 20.82300
H  4.21500 42.15900 21.82900
H  2.65500 39.27900 22.02400
H  3.61600 40.15800 20.84200
H  2.00000 39.58200 20.43700
H  2.69000 44.66100 22.01800
H  2.25200 43.83000 20.52200
H  4.54900 45.35100 21.27700
H  4.01800 44.88400 19.63500
H  5.07700 43.82400 20.57900
H  6.82300 44.53300 26.85400
H  6.75300 43.30300 25.44300
H  7.18200 42.81300 27.03000
H  3.32500 43.25100 30.75600
H  4.17100 40.61300 34.30600
H  5.24600 39.98600 33.05300
H  3.58700 39.47500 33.01300

