158

Mg 25.04900 -7.23000 47.49000
C  27.24900 -4.74200 46.64700
C  22.97400 -6.22300 44.98900
C  23.19200 -10.08400 47.80900
C  27.74900 -8.74000 49.14500
N  25.19100 -5.76400 45.89300
C  26.16000 -4.75200 45.79800
C  25.81300 -3.72100 44.75200
C  24.35000 -4.14400 44.44400
C  24.13000 -5.48100 45.10100
C  23.26100 -3.21100 44.90600
C  26.81200 -3.77100 43.61100
C  27.36800 -2.38100 43.13100
H  27.09900 -2.02000 41.74100
N  23.16600 -7.87600 46.74900
C  22.53600 -7.37400 45.63600
C  21.37800 -8.12600 45.35600
C  21.30000 -9.21100 46.30300
C  22.59900 -9.14600 46.98800
C  20.39900 -7.85500 44.24500
C  20.18800 -10.20500 46.53100
O  19.16300 -10.14000 45.87900
C  20.28300 -11.31500 47.47400
N  25.45100 -9.12300 48.39900
C  24.47300 -10.07200 48.45400
C  24.95900 -11.29500 49.35300
C  26.40900 -10.91800 49.60700
C  26.59800 -9.57400 48.98000
C  24.23200 -11.42100 50.64300
C  27.38700 -11.97300 48.95100
C  28.36900 -12.70400 49.91400
N  27.06300 -6.78400 47.93500
C  28.00700 -7.47800 48.61600
C  29.19500 -6.68200 48.82200
C  28.88400 -5.53400 48.04400
C  27.64100 -5.68900 47.54900
C  30.35000 -7.05500 49.64800
C  29.36000 -4.25900 47.55100
O  30.44200 -3.69600 47.84600
C  28.23000 -3.66800 46.71500
C  27.61000 -2.46400 47.43000
O  27.09800 -2.51900 48.48700
O  27.80600 -1.26400 46.70600
C  27.02000 -0.13400 47.16500
H  22.32800 -5.83800 44.19800
H  22.70800 -10.99300 48.17300
H  28.57200 -9.19500 49.69900
H  25.99100 -2.78300 45.27900
H  24.31600 -4.29100 43.36500
H  22.63400 -3.68900 45.65800
H  22.66900 -2.72400 44.13000
H  23.74200 -2.43800 45.50600
H  26.35900 -4.37300 42.82400
H  27.65500 -4.40900 43.87400
H  28.44500 -2.52500 43.22400
H  27.08000 -1.52900 43.74700
H  20.05400 -8.84800 43.95700
H  20.86100 -7.33000 43.40900
H  19.52900 -7.30500 44.60500
H  21.06500 -12.07400 47.49300
H  19.31900 -11.79900 47.62800
H  20.54200 -10.76700 48.37900
H  24.81200 -12.17200 48.72200
H  26.73600 -10.70000 50.62400
H  23.56900 -10.57800 50.84000
H  24.88300 -11.57700 51.50300
H  23.70300 -12.36600 50.51600
H  27.92500 -11.62900 48.06800
H  26.78400 -12.81700 48.61600
H  28.22100 -12.29200 50.91200
H  29.42100 -12.56500 49.66300
H  28.12800 -13.76700 49.91300
H  30.99200 -7.62200 48.97400
H  30.09200 -7.54900 50.58500
H  30.85500 -6.09700 49.76700
H  28.57000 -3.54800 45.68700
H  26.54400 0.33000 46.30100
H  27.73500 0.60500 47.52700
H  26.22500 -0.35500 47.87800
Mg 17.26900 -2.44200 27.37700
C  15.93200 -0.33200 29.84900
C  18.84100 -4.17900 29.83400
C  18.72400 -4.10700 24.98400
C  15.62900 -0.45200 24.95700
N  17.42500 -2.19200 29.56000
C  16.70400 -1.37100 30.36600
C  16.96200 -1.61500 31.78400
C  17.88400 -2.86000 31.78400
C  18.08500 -3.10300 30.28500
C  19.24400 -2.79400 32.56600
C  15.61200 -1.71400 32.57800
C  15.74100 -1.15700 34.01000
H  16.99400 -0.62600 34.66200
N  18.54200 -4.05400 27.39000
C  19.07200 -4.59300 28.53000
C  19.90500 -5.71000 28.11900
C  19.88800 -5.72200 26.70800
C  19.07600 -4.59500 26.27400
C  20.46000 -6.77200 29.00700
C  20.50700 -6.71400 25.74900
O  20.17700 -6.67000 24.59400
C  21.34100 -7.85900 26.20100
N  17.01200 -2.52800 25.28200
C  17.85900 -3.20100 24.53400
C  17.87600 -2.80500 23.03100
C  16.70200 -1.71100 23.00900
C  16.32700 -1.58600 24.49200
C  19.25400 -2.26600 22.48300
C  15.51900 -1.94200 21.97600
C  15.10300 -0.74500 21.08900
N  16.03900 -0.70300 27.33000
C  15.35100 -0.14400 26.28500
C  14.54300 0.94600 26.77800
C  14.80500 0.98800 28.13300
C  15.71700 -0.05800 28.42600
C  13.72800 1.82500 25.88100
C  14.44200 1.68900 29.37700
O  13.74800 2.62400 29.63400
C  15.17500 0.84700 30.49400
C  16.08500 1.81800 31.32000
O  17.26000 2.01400 30.96100
O  15.46500 2.45000 32.33900
C  16.10600 3.60300 32.99900
H  19.32700 -4.69700 30.66300
H  19.31500 -4.56600 24.18900
H  15.22300 0.26500 24.24000
H  17.53700 -0.77700 32.17900
H  17.26800 -3.67700 32.16100
H  19.20400 -2.10800 33.41200
H  20.12700 -2.51400 31.99200
H  19.32800 -3.79300 32.99200
H  15.38500 -2.75900 32.79000
H  14.73200 -1.34600 32.05100
H  15.29600 -1.92300 34.64400
H  15.11000 -0.27400 34.11000
H  21.47100 -7.10400 28.77100
H  19.82800 -7.65800 28.95500
H  20.38300 -6.51600 30.06400
H  20.77000 -8.45900 26.91000
H  22.22000 -7.41300 26.66600
H  21.62900 -8.50700 25.37400
H  17.57100 -3.69300 22.47700
H  17.19000 -0.75100 22.84100
H  20.01000 -2.18000 23.26300
H  19.12600 -1.31200 21.97100
H  19.51700 -3.00900 21.73100
H  14.60000 -2.09000 22.54300
H  15.78000 -2.78900 21.34200
H  14.42700 -1.26400 20.40900
H  15.89400 -0.40300 20.42100
H  14.73200 0.08700 21.68800
H  14.30900 2.11500 25.00500
H  13.38900 2.66400 26.48900
H  12.92200 1.22700 25.45600
H  14.33000 0.56900 31.12300
H  16.71500 3.15400 33.78300
H  15.33800 4.18000 33.51500
H  16.68900 4.30900 32.40800

