158

Mg 6.50200 54.96400 40.84100
C  5.29700 51.86100 40.31500
C  9.40700 54.14200 39.06500
C  7.44600 58.17400 40.98800
C  3.42400 55.77300 42.43100
N  7.08800 53.30500 39.49900
C  6.40200 52.11800 39.57900
C  7.21700 51.05100 38.70100
C  8.68300 51.66200 38.83100
C  8.41600 53.15900 39.04900
C  9.79300 50.97600 39.75400
C  6.59700 50.99100 37.19700
C  6.67600 49.54000 36.52900
H  5.53400 48.96000 35.73900
N  8.21500 56.05100 40.11900
C  9.27000 55.46900 39.43200
C  10.18600 56.53400 39.15800
C  9.67300 57.72400 39.80500
C  8.37200 57.40600 40.35200
C  11.48500 56.34500 38.45400
C  10.43700 59.00600 39.95300
O  11.45500 59.29800 39.31000
C  9.97500 60.02100 40.96300
N  5.43300 56.73100 41.45300
C  6.11900 57.92100 41.45100
C  5.13700 59.07700 41.96700
C  3.88800 58.26500 42.48400
C  4.21600 56.84500 42.18400
C  5.61100 60.14900 43.04900
C  2.56900 58.73400 41.83800
C  1.57100 59.42300 42.74800
N  4.63800 54.03200 41.29900
C  3.57300 54.40200 42.06400
C  2.60600 53.29300 42.17000
C  3.32200 52.22000 41.51900
C  4.50200 52.80100 41.01300
C  1.28900 53.24300 42.99000
C  3.19900 50.88200 41.23600
O  2.35000 50.09400 41.49900
C  4.53100 50.53900 40.46700
C  4.05600 49.88400 39.18000
O  3.16100 50.30400 38.40800
O  4.65400 48.66500 39.08200
C  4.01200 47.84500 38.17500
H  10.39300 53.75400 38.80000
H  7.62200 59.25100 40.96700
H  2.48200 56.03700 42.91700
H  7.31800 50.07700 39.18100
H  9.08100 51.64700 37.81600
H  9.87600 51.62700 40.62400
H  10.72700 50.88600 39.19900
H  9.37600 50.03900 40.12100
H  7.17600 51.64700 36.54800
H  5.53700 51.23900 37.24800
H  6.76400 48.83500 37.35500
H  7.50400 49.45600 35.82500
H  11.41200 55.42300 37.87600
H  12.12900 56.33000 39.33300
H  11.86900 57.24900 37.98100
H  10.79100 60.69600 41.22100
H  9.63000 59.43400 41.81300
H  9.14200 60.68900 40.74000
H  4.90000 59.75800 41.15000
H  3.77500 58.35800 43.56400
H  5.67600 61.16800 42.66700
H  6.65800 59.88100 43.19700
H  5.01700 60.14800 43.96300
H  2.02000 57.89400 41.41300
H  2.78400 59.41800 41.01600
H  0.65500 58.84100 42.84100
H  1.44100 60.41800 42.32200
H  1.95800 59.43800 43.76700
H  0.76500 54.19200 42.88300
H  1.46200 52.86000 43.99600
H  0.65000 52.51900 42.48400
H  5.17700 49.93000 41.09800
H  3.37800 47.20200 38.78500
H  4.71900 47.08100 37.85000
H  3.41000 48.24000 37.35700
Mg -5.41400 25.91300 26.04900
C  -4.06400 27.05200 29.06200
C  -7.44100 23.64300 27.93200
C  -6.32700 24.45400 23.27400
C  -2.87800 27.73600 24.40500
N  -5.69600 25.46400 28.16100
C  -5.05400 26.04800 29.19100
C  -5.53600 25.54600 30.58000
C  -6.42800 24.31300 30.18500
C  -6.60500 24.51800 28.66200
C  -5.75800 22.96200 30.65500
C  -6.34400 26.65400 31.24400
C  -6.71500 26.51900 32.75800
H  -6.12100 25.34800 33.62400
N  -6.85000 24.37000 25.65100
C  -7.62600 23.62500 26.50600
C  -8.48500 22.74200 25.71300
C  -8.16700 22.93600 24.29800
C  -7.06200 23.89200 24.35400
C  -9.51600 21.84600 26.29200
C  -8.84000 22.32600 23.13300
O  -8.41700 22.44200 21.98700
C  -10.00700 21.42400 23.23200
N  -4.86900 26.12500 24.17300
C  -5.37400 25.42700 23.13000
C  -4.68300 25.71300 21.79100
C  -3.87100 26.99300 22.12200
C  -3.87400 26.96500 23.67200
C  -3.97600 24.44200 21.24300
C  -4.55100 28.29200 21.58900
C  -3.68500 29.17400 20.65300
N  -3.91200 27.30700 26.57900
C  -3.00900 27.92200 25.77600
C  -2.13500 28.75000 26.56500
C  -2.56700 28.43900 27.87200
C  -3.61000 27.60200 27.80600
C  -1.10400 29.67000 26.12400
C  -2.25300 28.69100 29.27000
O  -1.47100 29.44700 29.86100
C  -3.24500 27.79100 30.08300
C  -2.45300 27.07700 31.05500
O  -1.81000 26.01600 30.95200
O  -2.57000 27.80900 32.21800
C  -1.89100 27.11400 33.39200
H  -8.07600 22.98800 28.53200
H  -6.63300 23.98000 22.33900
H  -2.12100 28.20800 23.77400
H  -4.74200 25.17500 31.22900
H  -7.39300 24.46500 30.67000
H  -5.10100 23.07600 31.51700
H  -5.18100 22.45600 29.88000
H  -6.52400 22.22300 30.89000
H  -7.20200 26.88200 30.61100
H  -5.71900 27.54700 31.27500
H  -7.80300 26.48900 32.80400
H  -6.34800 27.44500 33.20100
H  -10.46900 22.30300 26.02600
H  -9.55300 21.97300 27.37400
H  -9.43300 20.79200 26.02700
H  -9.84200 20.42200 23.62800
H  -10.36800 21.20600 22.22600
H  -10.80400 21.86600 23.83100
H  -5.51300 25.98700 21.14100
H  -2.87100 26.96000 21.69000
H  -4.46800 24.20600 20.29900
H  -3.99600 23.56400 21.88800
H  -2.90600 24.61300 21.13300
H  -4.73900 28.90200 22.47300
H  -5.54700 28.10800 21.18600
H  -2.76800 28.63800 20.40800
H  -3.49200 30.18300 21.01800
H  -4.25600 29.30400 19.73400
H  -0.31700 29.25300 25.49600
H  -0.51000 29.94700 26.99400
H  -1.48700 30.59100 25.68600
H  -3.96200 28.43600 30.59100
H  -0.80700 27.22700 33.40900
H  -2.03000 26.03400 33.42000
H  -2.09800 27.54800 34.37100

