158

Mg 1.15400 7.59100 25.92900
C  1.70600 9.63300 28.69100
C  1.47600 4.79000 28.00500
C  0.91100 5.60900 23.15600
C  1.65800 10.39100 23.86800
N  1.60700 7.28900 28.09700
C  1.64500 8.28500 29.06600
C  1.56500 7.63100 30.41900
C  1.91800 6.09300 30.15900
C  1.69600 6.03800 28.68600
C  3.35700 5.60700 30.60900
C  0.23000 7.93400 31.16100
C  0.34100 8.33700 32.62400
H  1.58700 7.89800 33.51700
N  1.08700 5.52700 25.65200
C  1.19900 4.52600 26.62000
C  1.06000 3.26700 26.02800
C  0.85700 3.45700 24.60200
C  0.89600 4.87700 24.38100
C  1.00200 1.92600 26.82300
C  0.79000 2.41800 23.50500
O  0.78700 2.77100 22.36100
C  0.65900 0.89300 23.79800
N  1.29100 7.96500 23.72200
C  1.03700 6.97100 22.87100
C  0.98000 7.55500 21.44800
C  1.41200 9.03000 21.67800
C  1.38800 9.21600 23.16000
C  1.78100 6.77300 20.37000
C  0.56900 10.06300 20.95600
C  -0.66200 10.52600 21.68800
N  1.54100 9.58100 26.17100
C  1.70900 10.59100 25.26100
C  1.88200 11.85100 25.91800
C  1.83800 11.52500 27.32300
C  1.71500 10.14900 27.39700
C  2.14200 13.16800 25.32600
C  1.95800 12.05000 28.64200
O  2.33800 13.17400 28.98500
C  1.83500 10.87400 29.60500
C  3.01800 10.79300 30.49700
O  4.10700 10.20900 30.32100
O  2.73400 11.47500 31.66900
C  3.93100 11.92300 32.45700
H  1.46100 3.92300 28.66800
H  0.80000 5.03700 22.23300
H  1.80200 11.25700 23.21900
H  2.34100 8.15100 30.98000
H  1.18000 5.44500 30.63200
H  3.93300 6.46200 30.96300
H  3.78800 5.07600 29.76000
H  3.29700 4.94700 31.47400
H  -0.38600 7.05000 31.33200
H  -0.28700 8.71300 30.60200
H  -0.56600 7.96600 33.10300
H  0.30300 9.42400 32.70500
H  0.06700 1.62000 27.29300
H  1.69300 2.08800 27.65000
H  1.41500 1.07500 26.28300
H  0.40500 0.53000 22.80200
H  -0.15500 0.68100 24.49100
H  1.64200 0.54800 24.12100
H  -0.04400 7.59700 21.07600
H  2.40700 9.19200 21.26400
H  2.17500 5.84200 20.77800
H  2.57500 7.40900 19.97900
H  1.04000 6.37900 19.67500
H  0.12500 9.74900 20.01100
H  1.25500 10.87600 20.71700
H  -0.53400 11.58900 21.89300
H  -0.84600 9.92000 22.57500
H  -1.51700 10.33500 21.04100
H  1.39400 13.38700 24.56400
H  3.18400 13.33300 25.05100
H  2.08100 13.91900 26.11300
H  0.92400 10.98100 30.19400
H  4.51500 12.40400 31.67200
H  4.34600 10.99100 32.84000
H  3.43500 12.46300 33.26400
Mg -9.71400 39.55000 41.29200
C  -8.88000 36.20500 40.16000
C  -6.84200 40.58900 39.84900
C  -10.98400 42.76200 41.31300
C  -12.92900 38.30400 41.88300
N  -8.05600 38.44900 40.18600
C  -7.92300 37.18200 39.84400
C  -6.61200 36.95600 39.11800
C  -5.86500 38.20700 39.36900
C  -6.97700 39.17100 39.79000
C  -4.70600 37.99300 40.36400
C  -6.92800 36.66700 37.60000
C  -6.22600 35.49200 36.89500
H  -5.37100 35.85600 35.69200
N  -8.94300 41.39800 40.83200
C  -7.67400 41.66500 40.30500
C  -7.44800 43.05400 40.16500
C  -8.64700 43.64900 40.49500
C  -9.61900 42.61000 40.90900
C  -6.09600 43.61900 39.75700
C  -8.90700 45.13500 40.40000
O  -7.99400 45.90900 40.17200
C  -10.21000 45.87300 40.75200
N  -11.72000 40.41900 41.49200
C  -11.92900 41.74500 41.52400
C  -13.41300 42.07400 41.78200
C  -14.05900 40.67000 41.97400
C  -12.87400 39.72600 41.77600
C  -13.65900 43.06900 42.93600
C  -15.30100 40.22100 41.10200
C  -16.53100 39.73200 41.82400
N  -10.65300 37.64900 41.36500
C  -11.95000 37.33900 41.64600
C  -12.11700 35.89300 41.56000
C  -10.92200 35.42000 40.94700
C  -10.11400 36.52800 40.79600
C  -13.22000 35.06100 42.00100
C  -10.22800 34.24200 40.48900
O  -10.50000 33.08600 40.63200
C  -8.89900 34.69800 39.86900
C  -7.72200 33.84500 40.43900
O  -7.36100 33.78500 41.62500
O  -6.97900 33.43200 39.44100
C  -5.63900 32.91900 39.63700
H  -5.86400 40.93300 39.50600
H  -11.39200 43.77400 41.34800
H  -13.90000 37.87900 42.14500
H  -6.25700 36.03400 39.58000
H  -5.48500 38.62600 38.43700
H  -5.13500 37.49400 41.23300
H  -4.26600 38.95600 40.62300
H  -3.98200 37.27500 39.97900
H  -6.70200 37.62600 37.13500
H  -8.00500 36.57200 37.46100
H  -6.99600 34.80500 36.54600
H  -5.48400 35.10900 37.59600
H  -6.19400 44.40600 39.01000
H  -5.48400 42.95600 39.14600
H  -5.45700 43.97600 40.56500
H  -10.33000 45.78700 41.83200
H  -11.10000 45.51400 40.23500
H  -10.19200 46.89600 40.37600
H  -13.83100 42.36100 40.81700
H  -14.39700 40.56300 43.00400
H  -14.21400 43.95500 42.62600
H  -12.71200 43.34000 43.40300
H  -14.20000 42.52400 43.70900
H  -14.87000 39.41400 40.50900
H  -15.52800 40.91100 40.28900
H  -16.62900 38.64700 41.84500
H  -17.34600 40.08900 41.19400
H  -16.78400 40.07800 42.82600
H  -13.61000 35.36500 42.97300
H  -12.86900 34.03000 41.96300
H  -14.01900 35.24700 41.28300
H  -8.84100 34.44000 38.81100
H  -5.11400 32.86700 38.68300
H  -5.65700 31.91900 40.07100
H  -5.12100 33.56800 40.34200

