158

Mg 48.21100 15.92900 28.13000
C  46.06500 15.81800 30.95900
C  50.50400 17.68400 30.15100
C  50.13400 15.92600 25.51100
C  45.46800 14.45800 26.28200
N  48.22600 16.59900 30.34300
C  47.27900 16.44300 31.26600
C  47.71300 16.85100 32.65400
C  49.02600 17.71300 32.31100
C  49.26000 17.35700 30.84100
C  48.85200 19.18500 32.47700
C  48.06200 15.56800 33.50500
C  48.81300 15.72800 34.87400
H  48.78300 17.08800 35.53400
N  50.02900 16.79100 27.81200
C  50.81700 17.44000 28.76500
C  52.08400 17.75800 28.08200
C  52.05900 17.31200 26.74900
C  50.73000 16.59500 26.63100
C  53.14800 18.63800 28.69600
C  53.16800 17.37400 25.70100
O  53.04200 16.81700 24.61000
C  54.48800 18.04500 25.96600
N  47.76000 15.57700 26.14800
C  48.89300 15.47800 25.33700
C  48.44700 14.88600 23.96600
C  47.08100 14.19000 24.28700
C  46.70100 14.76200 25.64700
C  48.38100 15.93700 22.82800
C  46.99200 12.64400 24.11500
C  46.23100 11.96900 22.87400
N  46.12300 15.28900 28.49000
C  45.20900 14.68400 27.66100
C  43.94300 14.41400 28.35700
C  44.23400 14.76500 29.63800
C  45.56400 15.26000 29.67600
C  42.62300 13.94000 27.78500
C  43.67300 14.96900 30.92700
O  42.53000 14.73100 31.34500
C  44.82100 15.58000 31.80700
C  44.31100 16.75500 32.51000
O  44.15700 17.91800 32.20600
O  43.74200 16.21600 33.62200
C  43.23500 17.15600 34.65800
H  51.12600 18.29100 30.81100
H  50.88700 15.77300 24.73500
H  44.77500 13.89100 25.65700
H  46.90000 17.43400 33.08600
H  49.86400 17.34800 32.90400
H  48.14900 19.45300 33.26600
H  48.64700 19.58200 31.48300
H  49.85000 19.51000 32.77100
H  48.76700 14.98800 32.91000
H  47.13000 15.02100 33.65000
H  49.86500 15.49000 34.71600
H  48.45300 14.98500 35.58600
H  53.29800 19.50100 28.04700
H  54.08000 18.07600 28.65000
H  53.00000 18.81200 29.76200
H  55.19200 18.04900 25.13400
H  54.98300 17.43800 26.72300
H  54.35900 19.11600 26.12200
H  49.19100 14.10400 23.81500
H  46.30300 14.64500 23.67400
H  48.91700 16.78600 23.25000
H  47.39100 16.38600 22.75100
H  48.72900 15.68600 21.82600
H  46.48200 12.25400 24.99600
H  47.95000 12.12400 24.14400
H  46.80100 11.45000 22.10300
H  45.66000 12.61500 22.20800
H  45.52400 11.22700 23.24300
H  42.57500 12.85300 27.84400
H  42.50800 14.15400 26.72200
H  41.82800 14.33700 28.41500
H  45.04600 14.73100 32.45200
H  42.14900 17.12500 34.57100
H  43.56600 18.18700 34.53100
H  43.69500 16.91000 35.61600
Mg 50.48900 46.37200 41.53400
C  47.42500 47.62400 40.75700
C  49.58400 43.20300 40.54400
C  53.91000 45.30200 41.71000
C  51.70900 49.69300 42.32300
N  48.61800 45.55700 40.90100
C  47.48900 46.20900 40.52000
C  46.44600 45.21900 39.95600
C  47.10300 43.77600 40.34700
C  48.52300 44.15700 40.68400
C  46.38400 43.03200 41.47800
C  45.91300 45.36400 38.42000
C  44.49100 45.01200 38.02500
H  44.42200 43.98900 36.85200
N  51.59900 44.55200 40.94100
C  50.99100 43.38300 40.58100
C  52.00300 42.40400 40.34700
C  53.24000 43.00900 40.67600
C  52.98000 44.38400 41.13900
C  51.65900 40.95700 39.96500
C  54.55200 42.34000 40.43400
O  54.53900 41.17000 40.07500
C  55.85200 42.91300 40.68900
N  52.63100 47.46500 41.70500
C  53.72100 46.71600 41.95900
C  54.89900 47.52600 42.50900
C  54.15400 48.80800 42.89100
C  52.74000 48.68900 42.27600
C  55.65600 46.88900 43.74100
C  54.90900 50.11900 42.40700
C  55.78000 50.86300 43.41900
N  49.69100 48.24000 41.76500
C  50.29300 49.47200 42.09000
C  49.24100 50.45600 42.01100
C  48.11800 49.72600 41.50900
C  48.43000 48.45700 41.31500
C  49.34700 51.88900 42.34100
C  46.68300 49.88300 41.17400
O  45.83500 50.75700 41.37600
C  46.26900 48.51400 40.52300
C  44.99100 47.93300 41.18500
O  45.03300 47.33800 42.20700
O  43.85800 48.06400 40.43500
C  42.61500 47.68300 41.12300
H  49.20900 42.20800 40.29400
H  54.87600 44.93600 42.06500
H  51.96800 50.67500 42.72200
H  45.55400 45.17800 40.58200
H  47.16400 43.09400 39.49900
H  47.11500 42.72700 42.22600
H  45.97200 42.11200 41.06200
H  45.64600 43.60800 42.03700
H  46.49800 44.70800 37.77500
H  46.09100 46.37500 38.05400
H  44.03700 45.95400 37.71500
H  43.92500 44.53400 38.82400
H  51.87100 40.23800 40.75600
H  52.27400 40.64700 39.12000
H  50.61800 40.98100 39.64300
H  56.02100 42.84600 41.76300
H  55.77600 43.95500 40.38000
H  56.61400 42.52300 40.01400
H  55.66400 47.65300 41.74300
H  53.96500 48.86500 43.96300
H  55.77700 47.66700 44.49400
H  56.60900 46.44600 43.45200
H  55.06500 46.08800 44.18600
H  54.10800 50.73600 42.00200
H  55.55000 50.05600 41.52700
H  55.35100 51.80900 43.74700
H  56.73700 51.02000 42.92000
H  55.90000 50.22400 44.29400
H  49.90500 52.49600 41.62800
H  49.83100 52.09000 43.29700
H  48.34400 52.29300 42.48000
H  46.13400 48.71300 39.46000
H  41.81000 47.73600 40.39000
H  42.35300 48.45200 41.85000
H  42.63200 46.69200 41.57700

