158

Mg -9.92800 39.35500 41.75300
C  -8.33400 36.47900 40.43100
C  -7.80400 41.21200 39.83700
C  -12.06200 41.88400 41.93300
C  -12.43200 37.20600 42.99800
N  -8.34100 38.90500 40.23800
C  -7.74900 37.67800 39.96700
C  -6.60500 37.79700 38.96600
C  -6.36000 39.31100 38.95700
C  -7.55100 39.88400 39.76200
C  -5.02000 39.72100 39.66700
C  -7.00600 37.19000 37.62600
C  -6.13000 36.14300 36.95400
H  -5.57800 36.45700 35.51700
N  -9.74200 41.33800 41.34000
C  -8.78400 41.95800 40.55000
C  -9.03200 43.39000 40.56500
C  -10.26300 43.60700 41.11400
C  -10.72500 42.21600 41.51200
C  -7.96500 44.36700 40.08400
C  -11.01400 44.99300 41.30300
O  -10.44900 46.10300 41.14300
C  -12.47600 45.01100 41.66700
N  -11.97900 39.48900 42.24700
C  -12.61900 40.70900 42.36200
C  -14.05900 40.66200 42.75000
C  -14.21500 39.07200 43.06100
C  -12.82700 38.56200 42.81400
C  -14.33300 41.52000 43.97300
C  -15.20500 38.42100 42.04000
C  -16.05300 37.27200 42.60900
N  -10.30600 37.24800 41.85700
C  -11.25100 36.55000 42.51300
C  -10.90200 35.15500 42.48500
C  -9.76000 35.10500 41.72200
C  -9.42100 36.42100 41.29100
C  -11.74100 33.99200 43.13300
C  -8.78400 34.21400 41.21400
O  -8.78100 33.02300 41.40400
C  -7.87500 34.99600 40.28100
C  -6.54700 34.64400 40.58300
O  -5.77300 34.01600 39.85000
O  -6.05400 35.15800 41.79800
C  -4.68400 34.73000 42.20900
H  -7.08700 41.80800 39.26800
H  -12.85300 42.63600 41.89100
H  -13.22000 36.53100 43.33900
H  -5.82900 37.16200 39.39300
H  -6.31200 39.72800 37.95100
H  -4.26100 39.91900 38.91000
H  -4.71800 39.01200 40.43800
H  -5.04000 40.67600 40.19100
H  -7.09400 37.99000 36.89200
H  -8.01200 36.77200 37.64700
H  -6.66200 35.19300 36.91900
H  -5.24700 35.97500 37.57000
H  -8.43100 45.01500 39.34100
H  -7.11000 43.75300 39.80200
H  -7.53500 44.92300 40.91700
H  -12.88700 46.01800 41.59800
H  -12.53500 44.61500 42.68000
H  -12.86700 44.37000 40.87600
H  -14.65700 41.01500 41.90900
H  -14.51900 38.88400 44.09100
H  -15.09600 42.25700 43.72300
H  -13.44300 42.00500 44.37400
H  -14.94700 41.01200 44.71600
H  -14.63700 38.09100 41.17000
H  -15.88700 39.16400 41.62700
H  -17.11500 37.51700 42.57000
H  -15.79600 37.12900 43.65900
H  -15.97900 36.38400 41.98200
H  -11.07300 33.19700 43.46500
H  -12.41500 33.58200 42.38000
H  -12.37400 34.33200 43.95300
H  -8.12700 34.67800 39.26900
H  -4.02200 34.64300 41.34800
H  -4.65200 33.93500 42.95500
H  -4.18200 35.53400 42.74700
Mg -1.07100 34.91400 26.99700
C  -2.91000 33.33600 29.59700
C  0.30200 37.03400 29.40700
C  0.55100 36.35800 24.49400
C  -2.69700 32.74600 24.78900
N  -1.28700 35.12500 29.27100
C  -2.00900 34.29400 30.08300
C  -1.71800 34.66600 31.51800
C  -0.88900 36.00000 31.49800
C  -0.60500 36.09100 29.99500
C  -1.57500 37.30900 32.04700
C  -1.11700 33.53000 32.42700
C  -0.92900 33.98000 33.90600
H  -1.49400 33.11500 35.08900
N  0.18000 36.49500 26.93300
C  0.69000 37.19200 28.01500
C  1.64700 38.22400 27.55000
C  1.62300 38.12500 26.17900
C  0.72100 36.95900 25.77100
C  2.35800 39.10900 28.52700
C  2.30100 39.07400 25.16000
O  2.15700 38.98700 23.94800
C  3.16500 40.14700 25.67600
N  -1.27000 34.73500 24.94500
C  -0.30500 35.35500 24.16700
C  -0.41000 34.87700 22.68300
C  -1.52600 33.74800 22.74000
C  -1.87000 33.72500 24.28000
C  -0.62800 35.89000 21.60300
C  -1.05400 32.34900 22.14500
C  -0.56000 31.28800 23.16600
N  -2.53100 33.39000 27.06000
C  -3.02700 32.59200 26.10400
C  -3.96000 31.66900 26.62600
C  -3.91300 31.85100 28.06600
C  -3.06800 32.95900 28.24300
C  -4.71100 30.51500 25.86800
C  -4.47400 31.43200 29.38700
O  -5.22400 30.48000 29.68700
C  -3.81200 32.41100 30.42400
C  -4.92300 33.10700 31.06500
O  -5.45600 34.10900 30.64400
O  -5.26900 32.43700 32.19400
C  -6.31800 33.04900 33.00700
H  0.58000 37.83000 30.10000
H  1.19800 36.57900 23.64200
H  -3.15500 32.01300 24.12200
H  -2.67400 34.74300 32.03500
H  0.04500 35.75500 32.00400
H  -1.85000 37.97100 31.22600
H  -0.76400 37.74100 32.63400
H  -2.51800 37.18800 32.57900
H  -0.11600 33.30700 32.05800
H  -1.77500 32.67000 32.55500
H  -1.26600 35.00900 34.02400
H  0.14300 33.98700 34.09900
H  2.33600 38.67900 29.52800
H  1.91800 40.10200 28.43100
H  3.42000 39.09200 28.28200
H  3.90100 39.55400 26.21900
H  2.69700 40.93200 26.27000
H  3.66100 40.61900 24.82800
H  0.54400 34.37100 22.53400
H  -2.42200 34.07300 22.21200
H  -0.82300 36.84900 22.08300
H  -1.51000 35.74700 20.97800
H  0.31700 35.90800 21.06000
H  -0.27600 32.51400 21.40000
H  -1.95800 32.05400 21.61300
H  -0.11800 31.76400 24.04200
H  0.30600 30.82900 22.69000
H  -1.34700 30.54900 23.31500
H  -4.18300 30.32000 24.93400
H  -5.76000 30.78000 25.73100
H  -4.78000 29.56000 26.38700
H  -3.21200 31.78300 31.08400
H  -6.00500 33.74400 33.78700
H  -6.85300 32.28300 33.56600
H  -7.10200 33.48600 32.38900

