158

Mg 16.67500 -2.48900 28.22400
C  16.08400 -0.32700 31.05900
C  18.22900 -4.56200 30.25300
C  17.59500 -4.02200 25.52800
C  14.98800 -0.00600 26.24600
N  17.19700 -2.34300 30.36100
C  16.81800 -1.50800 31.37000
C  17.10400 -2.02900 32.69300
C  18.16600 -3.17300 32.44600
C  17.90000 -3.40400 30.94500
C  19.70100 -2.75800 32.82000
C  15.91300 -2.47400 33.45700
C  15.78300 -1.96300 34.87000
H  16.99700 -1.50900 35.69600
N  17.62100 -4.12700 27.97600
C  18.19200 -4.93900 28.95300
C  18.78600 -6.11300 28.30100
C  18.54400 -5.97000 26.87700
C  17.91300 -4.69000 26.73000
C  19.60500 -7.14000 29.04100
C  18.87000 -6.90900 25.74800
O  18.63900 -6.62200 24.56600
C  19.63300 -8.18000 26.06900
N  16.36900 -1.99900 26.13700
C  16.92600 -2.85800 25.22300
C  16.84700 -2.28200 23.80700
C  15.74400 -1.15100 23.98100
C  15.58600 -1.06100 25.53600
C  18.21900 -1.86600 23.16800
C  14.42800 -1.34500 23.18600
C  13.91400 -0.16900 22.31500
N  15.75300 -0.55600 28.54900
C  15.10900 0.26400 27.59700
C  14.67700 1.43900 28.32400
C  14.96400 1.27200 29.64600
C  15.68100 0.07300 29.71900
C  13.90200 2.61800 27.90300
C  14.83900 1.73800 31.02200
O  14.24500 2.68000 31.53200
C  15.58500 0.73700 31.96700
C  16.62000 1.55400 32.67800
O  17.71300 1.80800 32.28800
O  16.07100 1.87900 33.89300
C  16.93800 2.66600 34.81300
H  18.57700 -5.32800 30.95000
H  17.98900 -4.52900 24.64500
H  14.60300 0.82800 25.65500
H  17.41900 -1.13800 33.23700
H  18.03900 -4.09900 33.00700
H  19.78300 -1.74500 33.21500
H  20.33300 -3.10300 32.00200
H  20.05200 -3.44300 33.59000
H  15.92100 -3.54800 33.63800
H  15.02400 -2.18900 32.89300
H  15.14200 -2.59800 35.48100
H  15.10600 -1.11500 34.76900
H  19.46700 -6.95100 30.10500
H  20.66200 -7.03700 28.79300
H  19.34400 -8.16600 28.78300
H  20.50100 -8.04800 26.71500
H  19.97300 -8.55600 25.10400
H  18.93800 -8.82300 26.61000
H  16.34000 -3.04700 23.21900
H  16.16300 -0.20000 23.65000
H  18.13700 -0.86600 22.74100
H  18.50900 -2.58100 22.39800
H  19.01600 -1.93800 23.90800
H  13.69200 -1.58500 23.95300
H  14.43700 -2.28100 22.62600
H  13.43200 -0.55200 21.41600
H  14.75000 0.48800 22.07700
H  13.11400 0.36600 22.82700
H  14.21200 2.64400 26.85800
H  14.21300 3.54400 28.38700
H  12.83300 2.52200 28.09300
H  14.80500 0.31700 32.60100
H  16.55900 2.60700 35.83300
H  16.98500 3.73700 34.61500
H  17.97100 2.32000 34.77100
Mg 8.56200 48.48900 25.25000
C  6.33100 48.55600 28.11900
C  11.00000 49.40100 27.43400
C  10.44000 48.40500 22.68000
C  5.60200 48.15200 23.24200
N  8.59100 48.92600 27.59100
C  7.64800 48.73100 28.52700
C  8.14100 49.28100 29.90000
C  9.55600 49.96500 29.53900
C  9.76500 49.31400 28.10200
C  9.68800 51.53100 29.62800
C  8.22300 48.18200 30.93400
C  7.58100 48.62100 32.22900
H  7.55400 47.61200 33.42400
N  10.51900 48.60600 25.07900
C  11.36700 49.04600 26.07600
C  12.73400 49.18400 25.49600
C  12.61500 48.82900 24.14500
C  11.18100 48.55500 23.91300
C  13.93800 49.74400 26.30100
C  13.67800 48.72000 23.13500
O  13.36700 48.43000 21.98900
C  15.07400 49.03900 23.37300
N  8.04300 48.24000 23.21000
C  9.06100 48.17000 22.36600
C  8.51900 47.91900 20.87900
C  7.02200 47.47800 21.22800
C  6.82500 47.91000 22.63700
C  8.70400 49.10500 19.90200
C  6.83600 45.91800 21.06900
C  5.69900 45.52200 20.09600
N  6.48200 48.50400 25.51100
C  5.46100 48.29500 24.64400
C  4.18500 48.30800 25.34800
C  4.52200 48.34900 26.65100
C  5.91300 48.48900 26.76000
C  2.86500 48.13100 24.75900
C  3.85800 48.43100 27.94000
O  2.68400 48.33000 28.25800
C  5.07300 48.54900 29.00700
C  4.86100 47.36200 29.94100
O  5.48800 46.30400 29.82000
O  3.97000 47.62600 30.95100
C  3.84300 46.60700 32.00100
H  11.77200 49.70100 28.14600
H  11.03800 48.51700 21.77300
H  4.70800 48.18100 22.61600
H  7.39400 50.03900 30.13400
H  10.38700 49.60600 30.14500
H  8.76600 52.10800 29.69500
H  10.27800 51.93600 28.80500
H  10.25900 51.75000 30.53000
H  9.26300 48.05200 31.23400
H  7.72800 47.34900 30.43600
H  6.54700 48.82000 31.94500
H  7.95800 49.61400 32.47200
H  13.68400 49.97100 27.33600
H  14.20800 50.65100 25.76000
H  14.72600 48.99200 26.25200
H  15.24200 50.08800 23.61800
H  15.63400 48.71800 22.49500
H  15.44800 48.42400 24.19100
H  9.15600 47.10900 20.52500
H  6.35900 48.10000 20.62600
H  8.97900 50.07000 20.33000
H  7.79600 49.18300 19.30400
H  9.52700 48.77500 19.26800
H  6.63100 45.51700 22.06200
H  7.72700 45.46500 20.63500
H  5.63600 46.35600 19.39700
H  4.76000 45.41500 20.64000
H  5.81900 44.52400 19.67500
H  2.45700 47.18700 25.11900
H  2.77600 48.14800 23.67200
H  2.29400 48.96100 25.17400
H  4.97900 49.48300 29.56100
H  4.41100 45.68100 31.91100
H  2.77000 46.42400 32.05900
H  4.11000 47.08400 32.94400

