158

Mg 1.10000 7.43600 24.59000
C  1.65900 9.55600 27.44000
C  1.71900 4.70900 26.67100
C  0.77100 5.47100 21.95500
C  1.60800 10.22600 22.55300
N  1.89900 7.25800 26.80300
C  1.82600 8.19000 27.75400
C  1.78600 7.49900 29.07300
C  2.13600 6.01800 28.81600
C  1.94400 5.95600 27.31200
C  3.46000 5.49400 29.33700
C  0.54400 7.78500 29.94300
C  0.81300 7.75400 31.51600
H  1.93400 6.88100 32.12300
N  1.22100 5.37600 24.35100
C  1.40100 4.39200 25.27300
C  1.17900 3.03700 24.70600
C  0.82600 3.24900 23.33100
C  0.89400 4.75700 23.12600
C  1.18300 1.78600 25.52300
C  0.34600 2.16600 22.30700
O  0.22800 2.41400 21.10500
C  0.15900 0.77000 22.75900
N  1.16600 7.81400 22.60300
C  0.82200 6.86000 21.66200
C  0.85600 7.36900 20.22000
C  1.20400 8.90700 20.35400
C  1.35100 9.01600 21.92900
C  1.70400 6.56700 19.19300
C  0.14600 9.85200 19.78800
C  0.62900 10.79100 18.67200
N  1.38000 9.55900 24.90800
C  1.60300 10.59300 23.96400
C  1.70400 11.93500 24.64000
C  1.70500 11.53500 26.00400
C  1.53700 10.09000 26.10600
C  1.85900 13.27100 24.01900
C  1.83900 12.07500 27.36800
O  2.05900 13.24000 27.72800
C  1.74900 10.88200 28.36200
C  2.89400 10.89000 29.37600
O  4.02600 10.38400 29.26800
O  2.40400 11.20200 30.61300
C  3.18000 10.67600 31.77400
H  1.69600 3.81400 27.29700
H  0.83800 4.84000 21.06500
H  1.86900 11.05900 21.89700
H  2.55000 8.01300 29.65700
H  1.33200 5.46700 29.30400
H  3.97800 6.23000 29.95200
H  3.98800 5.14400 28.45000
H  3.33500 4.63500 29.99600
H  -0.26500 7.12600 29.62800
H  0.31800 8.83100 29.73600
H  -0.10000 7.29400 31.89400
H  0.95200 8.78600 31.83800
H  1.86300 2.07000 26.32700
H  1.53500 0.87000 25.05000
H  0.18400 1.63500 25.93200
H  -0.35900 0.73400 23.71700
H  1.20300 0.52100 22.94800
H  -0.29000 0.10500 22.02100
H  -0.18200 7.34100 19.88900
H  2.19400 9.06000 19.92500
H  2.37400 5.82300 19.62500
H  2.31100 7.14800 18.49900
H  0.97500 6.06600 18.55600
H  -0.25800 10.49400 20.57100
H  -0.66800 9.22000 19.43200
H  1.03000 11.68000 19.15900
H  -0.23100 11.13900 18.09900
H  1.35600 10.36200 17.98200
H  1.70800 13.20800 22.94200
H  2.91900 13.46000 24.19000
H  1.21300 14.00500 24.50200
H  0.88400 10.91100 29.02600
H  2.41100 10.49400 32.52500
H  3.78100 11.47300 32.21300
H  3.80500 9.80600 31.56900
Mg 30.51100 57.97800 40.10000
C  27.71300 56.12100 39.15700
C  32.51000 55.53700 38.53500
C  33.11300 60.11400 40.07800
C  28.47100 60.48600 41.15000
N  30.10000 56.03300 38.98200
C  28.87900 55.49000 38.83900
C  28.98000 54.06900 38.14300
C  30.53600 53.75600 38.50100
C  31.12800 55.21100 38.65900
C  30.69400 52.93600 39.80300
C  28.85100 54.12800 36.61000
C  27.78800 53.37200 35.93800
H  26.85700 54.16700 35.02600
N  32.59400 57.82000 39.45600
C  33.15300 56.74900 38.75000
C  34.51100 57.08300 38.55300
C  34.74300 58.36800 39.00400
C  33.46600 58.87300 39.49600
C  35.56600 56.20300 37.81100
C  36.13800 59.09000 38.89100
O  37.05100 58.54300 38.24200
C  36.42700 60.49400 39.46500
N  30.71300 59.96200 40.52400
C  31.91100 60.63000 40.53200
C  31.74900 62.06200 41.05000
C  30.20300 62.21000 41.39300
C  29.75500 60.78900 40.97300
C  32.76200 62.39600 42.17600
C  29.39300 63.35700 40.65700
C  28.33300 64.18500 41.40700
N  28.42800 58.29000 40.26000
C  27.75300 59.33800 40.73100
C  26.33300 59.03100 40.64500
C  26.25000 57.76200 40.09100
C  27.55400 57.37200 39.84400
C  25.23200 59.88200 41.16300
C  25.37400 56.69800 39.76900
O  24.16600 56.52600 39.83300
C  26.31200 55.59900 39.16000
C  26.28900 54.40700 40.07500
O  26.76500 54.42300 41.19700
O  25.73000 53.36600 39.38100
C  25.48500 52.06700 40.09300
H  33.09000 54.64600 38.28800
H  33.94300 60.82300 40.10100
H  27.79100 61.27900 41.46600
H  28.27300 53.36300 38.57600
H  31.03800 53.11500 37.77700
H  29.76800 52.98100 40.37600
H  31.52000 53.33000 40.39500
H  30.86800 51.87200 39.64100
H  29.82000 53.97100 36.13500
H  28.66600 55.16600 36.33500
H  27.15100 52.93400 36.70600
H  28.12000 52.52600 35.33600
H  35.99200 56.78400 36.99300
H  34.97000 55.44900 37.29800
H  36.23400 55.70000 38.51100
H  36.11200 60.54300 40.50800
H  35.70500 61.14400 38.97100
H  37.48100 60.75800 39.37800
H  32.03200 62.64500 40.17300
H  30.15500 62.25700 42.48100
H  33.42300 61.54700 42.34900
H  32.23700 62.62700 43.10200
H  33.36600 63.21900 41.79300
H  28.81500 62.90900 39.84800
H  30.04400 64.09800 40.19200
H  28.68100 65.20400 41.57400
H  28.11400 63.64000 42.32600
H  27.38900 64.23700 40.86500
H  25.54400 60.92600 41.18100
H  24.80700 59.71800 42.15400
H  24.50300 59.74400 40.36500
H  25.96300 55.19700 38.20900
H  24.80400 52.33100 40.90200
H  26.38100 51.55700 40.44900
H  24.95900 51.46600 39.35100

