158

Mg 34.75900 2.50600 29.29900
C  32.87400 3.50800 31.94500
C  37.46700 1.89800 31.48600
C  36.86800 1.88700 26.68000
C  32.33200 3.60200 27.06100
N  35.13800 2.76300 31.51200
C  34.17400 3.20900 32.42300
C  34.82000 3.11000 33.82900
C  36.33200 2.67200 33.57800
C  36.36800 2.44700 32.11900
C  37.40900 3.61800 34.14400
C  34.04600 2.20700 34.77700
C  33.93700 2.72400 36.21500
H  35.04600 3.76300 36.73100
N  36.87400 1.81600 29.14300
C  37.73800 1.70800 30.18800
C  38.98900 1.23800 29.57400
C  38.86200 1.21500 28.15800
C  37.48000 1.64500 27.94300
C  40.22300 1.18500 30.37500
C  39.89000 0.70600 27.10600
O  39.61900 0.63400 25.92300
C  41.25800 0.20900 27.54400
N  34.56900 2.57500 27.17400
C  35.57800 2.28500 26.33100
C  35.15900 2.74300 24.90100
C  33.65200 3.14000 24.99100
C  33.47200 3.14400 26.49000
C  36.05000 3.83700 24.34000
C  32.58300 2.19100 24.34700
C  32.10600 0.87500 25.04800
N  32.96700 3.33800 29.43900
C  31.99000 3.62500 28.43400
C  30.77800 4.07900 29.05800
C  31.04500 4.04900 30.42200
C  32.40400 3.63100 30.67100
C  29.51200 4.49400 28.41700
C  30.51600 4.29400 31.78800
O  29.36500 4.54700 32.15600
C  31.64800 4.00800 32.79900
C  31.97200 5.31000 33.46900
O  32.64800 6.22600 32.95100
O  31.45800 5.27100 34.73400
C  31.51200 6.55500 35.51100
H  38.19500 1.53600 32.21600
H  37.50900 1.64500 25.83000
H  31.47000 3.85900 26.44200
H  34.76200 4.16500 34.10000
H  36.51000 1.70300 34.04500
H  37.99400 4.03900 33.32600
H  38.02800 3.04400 34.83400
H  37.07400 4.52500 34.64700
H  34.48100 1.22900 34.57200
H  33.07700 2.01000 34.31900
H  34.05600 1.88800 36.90400
H  32.96800 3.19500 36.37800
H  40.95900 1.78900 29.84400
H  40.60500 0.16500 30.34100
H  40.07000 1.63300 31.35700
H  41.17500 -0.68300 28.16500
H  41.92100 0.95200 27.98700
H  41.76300 0.09400 26.58500
H  35.07900 1.89900 24.21600
H  33.40100 4.09700 24.53400
H  36.95800 4.00600 24.91900
H  35.56500 4.81000 24.25600
H  36.50700 3.58200 23.38400
H  32.95900 1.86700 23.37700
H  31.69000 2.71900 24.01300
H  32.89500 0.35400 25.59100
H  31.83900 0.16700 24.26400
H  31.27300 1.01800 25.73700
H  29.71300 5.03500 27.49200
H  29.08300 5.22300 29.10500
H  28.87100 3.63100 28.23700
H  31.45100 3.27300 33.57900
H  31.57900 6.20800 36.54200
H  30.56800 7.03000 35.24600
H  32.43600 7.10800 35.34200
Mg 47.16300 17.25700 27.87400
C  45.36300 17.05700 30.97600
C  49.75100 18.72200 29.49700
C  48.52500 17.81600 24.89400
C  44.26600 15.75500 26.22200
N  47.48400 17.88600 29.90900
C  46.59800 17.66300 31.01400
C  47.24600 18.08200 32.28700
C  48.55500 18.82000 31.77700
C  48.62100 18.39400 30.32800
C  48.58400 20.36200 32.02300
C  47.45500 16.94100 33.37900
C  46.78900 17.21800 34.70400
H  46.70300 18.71600 35.15600
N  48.88600 18.24800 27.30800
C  49.86100 18.68000 28.12500
C  51.01500 19.01000 27.34800
C  50.77500 18.71700 25.96900
C  49.32700 18.25400 26.00700
C  52.32400 19.41600 27.93900
C  51.59000 18.89600 24.65800
O  51.08900 18.56700 23.62500
C  53.03300 19.43800 24.71100
N  46.47700 16.88900 25.97100
C  47.29700 17.23900 24.92100
C  46.65700 16.85600 23.62000
C  45.52500 15.88400 24.04100
C  45.35100 16.20100 25.50500
C  46.31600 17.98500 22.67600
C  45.84500 14.32100 23.69100
C  44.80900 13.20400 23.63500
N  45.25500 16.45500 28.45200
C  44.14800 15.96000 27.67900
C  43.07200 15.53200 28.57500
C  43.52500 15.90200 29.86100
C  44.80400 16.44500 29.76400
C  41.79500 14.92300 28.20100
C  43.09200 15.96400 31.20300
O  42.00400 15.62100 31.69300
C  44.39700 16.52200 31.99400
C  43.97100 17.68600 32.80400
O  43.89400 18.84000 32.36900
O  43.57900 17.24700 34.04800
C  42.70300 18.17800 34.78200
H  50.45800 19.30900 30.08700
H  48.92300 18.02800 23.89900
H  43.45200 15.21700 25.73200
H  46.48600 18.83300 32.50400
H  49.41300 18.30900 32.21200
H  48.93000 20.93800 31.16500
H  49.33700 20.52300 32.79500
H  47.66600 20.79300 32.42400
H  48.52400 16.88100 33.58300
H  47.12000 15.99200 32.96000
H  47.33800 16.70200 35.49100
H  45.79900 16.76200 34.70800
H  52.28100 19.41600 29.02800
H  52.67800 20.41500 27.68300
H  53.04800 18.69400 27.56100
H  53.11600 20.06000 23.82000
H  53.65300 18.58400 24.43700
H  53.38600 19.88000 25.64200
H  47.42200 16.23400 23.15500
H  44.61000 16.23700 23.56600
H  45.25700 18.18300 22.84300
H  46.50400 17.58500 21.67900
H  46.85900 18.91600 22.83900
H  46.47700 14.07800 24.54500
H  46.46700 14.29300 22.79700
H  43.87400 13.61300 23.25200
H  44.61200 12.55500 24.48800
H  45.18900 12.48800 22.90600
H  41.66800 13.89100 28.52800
H  41.58100 15.10100 27.14700
H  41.05900 15.46400 28.79600
H  44.70200 15.65200 32.57600
H  41.83700 18.25300 34.12400
H  43.21100 19.08200 35.11700
H  42.33600 17.74900 35.71500

