158

Mg 40.97500 10.02700 30.20600
C  43.07000 10.95100 32.69000
C  38.76500 8.69800 32.59200
C  38.92100 8.78800 27.76400
C  43.20200 11.07300 27.79800
N  40.95400 9.80000 32.43300
C  41.89100 10.35000 33.20000
C  41.35600 10.46100 34.65800
C  40.10200 9.53100 34.64300
C  39.87000 9.31400 33.15000
C  40.19500 8.08800 35.42100
C  41.11300 11.95900 35.10200
C  41.77100 12.32400 36.48200
H  40.89000 12.74000 37.68500
N  39.18900 8.81800 30.21700
C  38.50000 8.39200 31.31100
C  37.33700 7.68000 30.88500
C  37.28900 7.71400 29.43300
C  38.50000 8.44300 29.07500
C  36.36000 6.99900 31.87400
C  36.31000 7.06500 28.38400
O  36.49400 7.05600 27.12900
C  35.28600 6.05900 28.86100
N  41.18200 9.76200 27.98500
C  40.01400 9.43000 27.29200
C  40.31900 9.62800 25.79700
C  41.73700 10.29400 25.79800
C  42.00000 10.51100 27.25800
C  40.16700 8.44200 24.88000
C  42.03100 11.48200 24.80300
C  41.21400 12.72400 25.21100
N  42.86000 10.70800 30.24000
C  43.57400 11.15400 29.19200
C  44.79800 11.76600 29.69400
C  44.64500 11.74600 31.06300
C  43.45900 11.01400 31.35600
C  45.85700 12.28000 28.78400
C  45.20700 12.16100 32.25300
O  46.30100 12.73100 32.47600
C  44.18200 11.66800 33.46200
C  44.88700 10.81200 34.45100
O  44.91200 9.58600 34.61000
O  45.50600 11.67600 35.36400
C  46.04600 11.02600 36.60000
H  38.05100 8.40400 33.36400
H  38.31200 8.29200 27.00600
H  43.84300 11.53800 27.04700
H  42.17500 9.94900 35.16400
H  39.32600 10.14400 35.10300
H  40.71300 8.34600 36.34500
H  40.68200 7.27600 34.88100
H  39.19500 7.78200 35.72900
H  40.08000 12.28600 35.22700
H  41.50500 12.59100 34.30500
H  42.49900 13.11200 36.29100
H  42.40600 11.47600 36.73900
H  36.50100 7.15300 32.94300
H  36.19900 5.94600 31.63900
H  35.43100 7.48800 31.58100
H  34.48800 6.60000 29.37100
H  35.77400 5.37800 29.55700
H  34.92300 5.37900 28.09000
H  39.55200 10.33500 25.48100
H  42.42300 9.58200 25.34100
H  40.88700 8.37300 24.06400
H  39.14100 8.38700 24.51500
H  40.33400 7.59000 25.53800
H  41.71300 11.25700 23.78500
H  43.10400 11.66400 24.75800
H  40.62300 12.53900 26.10700
H  40.55100 13.13100 24.44800
H  41.85500 13.53600 25.55500
H  45.49000 13.15800 28.25100
H  46.15800 11.56000 28.02300
H  46.75300 12.40500 29.39200
H  43.80800 12.57300 33.94300
H  46.87900 10.38300 36.31600
H  45.28700 10.45900 37.13800
H  46.65700 11.64900 37.25300
Mg 47.46600 26.07000 28.17800
C  48.59000 27.93800 30.89900
C  46.51800 23.63400 30.42100
C  46.74500 24.10100 25.57100
C  48.81700 28.55200 26.08000
N  47.43300 25.92600 30.40000
C  47.88300 26.84300 31.28200
C  47.67400 26.34800 32.74800
C  47.27800 24.90600 32.57500
C  47.11600 24.76800 31.02500
C  48.33500 23.88400 33.11500
C  46.58800 27.15000 33.50800
C  47.03800 27.70400 34.88900
H  46.05500 27.76200 36.08700
N  46.70700 24.15600 28.00800
C  46.35100 23.32700 29.01100
C  45.90900 22.08800 28.46500
C  45.84300 22.30300 27.06800
C  46.43800 23.57200 26.79600
C  45.62000 20.84600 29.31000
C  45.37500 21.38100 25.98000
O  45.57200 21.52300 24.78400
C  44.49100 20.26100 26.34300
N  47.92500 26.18300 26.17200
C  47.39700 25.28400 25.26500
C  47.52500 25.83200 23.83200
C  47.98400 27.33500 24.06100
C  48.21700 27.39200 25.58400
C  48.41200 24.89500 22.96400
C  47.04300 28.55100 23.55600
C  47.57000 29.68800 22.66100
N  48.50200 27.86600 28.39600
C  49.03800 28.70100 27.45600
C  49.77000 29.75600 28.05900
C  49.57300 29.49600 29.43000
C  48.84200 28.31700 29.59700
C  50.54600 30.87100 27.37500
C  49.85600 30.06800 30.73700
O  50.33900 31.17900 31.05200
C  49.18800 29.18400 31.79200
C  50.31500 28.77800 32.73900
O  51.17600 27.98600 32.49400
O  50.15000 29.41700 33.92800
C  51.29400 29.29500 34.87200
H  46.20400 22.93100 31.19500
H  46.32600 23.75700 24.62300
H  49.24400 29.32700 25.44000
H  48.59800 26.34200 33.32700
H  46.39400 24.63600 33.15300
H  47.84500 23.27200 33.87200
H  49.26600 24.37200 33.40500
H  48.57800 23.20600 32.29700
H  45.61900 26.66300 33.61500
H  46.28800 27.95500 32.83700
H  47.45100 28.70900 34.80600
H  47.82400 27.02200 35.21200
H  46.31000 20.09600 28.92600
H  44.59700 20.56200 29.06300
H  45.65600 20.88900 30.39900
H  44.22500 19.64000 25.48700
H  43.61600 20.63900 26.87200
H  45.10000 19.68400 27.04000
H  46.51300 25.94000 23.44000
H  49.00200 27.41600 23.68200
H  48.70700 24.11400 23.66500
H  49.32600 25.41400 22.67600
H  47.90700 24.56700 22.05600
H  46.60700 28.91400 24.48600
H  46.14900 28.18200 23.05300
H  48.57300 29.56300 22.25400
H  47.52500 30.52800 23.35400
H  46.95200 29.78600 21.76800
H  50.55500 31.77200 27.98800
H  50.01900 31.17500 26.47000
H  51.52300 30.46200 27.12000
H  48.30600 29.53000 32.33200
H  51.19900 28.36100 35.42700
H  51.30300 30.07800 35.63000
H  52.25600 29.17500 34.37500

