158

Mg 1.48900 8.29300 25.70600
C  1.98100 9.63300 28.88200
C  1.90400 5.20800 27.15600
C  1.33100 6.90200 22.62900
C  2.28200 11.43400 24.19700
N  1.78500 7.47600 27.85000
C  1.84800 8.19200 28.99700
C  1.74700 7.31900 30.20500
C  1.90800 5.83800 29.60700
C  1.84400 6.18600 28.16300
C  3.21300 5.16900 30.10300
C  0.43100 7.54600 31.00400
C  0.46000 7.64900 32.52900
H  1.68500 7.10700 33.23500
N  1.45300 6.35100 25.03100
C  1.59000 5.23200 25.78300
C  1.40400 4.08100 24.93100
C  1.05400 4.52200 23.67900
C  1.32500 6.01300 23.68900
C  1.35600 2.63100 25.43500
C  0.73900 3.69800 22.44400
O  0.62100 4.20800 21.31400
C  0.45400 2.24300 22.67300
N  1.75100 9.11100 23.76700
C  1.61700 8.28500 22.65900
C  1.76900 9.10600 21.33000
C  1.68100 10.54700 21.88200
C  1.85800 10.36200 23.36500
C  3.02500 8.81100 20.57700
C  0.31800 11.33100 21.59600
C  0.17400 12.13800 20.24600
N  2.07800 10.18700 26.36000
C  2.32800 11.33800 25.65000
C  2.57300 12.39100 26.61700
C  2.48100 11.75200 27.90100
C  2.12000 10.41000 27.63300
C  2.72600 13.92600 26.25800
C  2.48900 12.03600 29.30900
O  2.81000 13.07200 29.86600
C  2.08000 10.71200 29.97200
C  3.11100 10.32600 31.02600
O  4.20300 9.79900 30.83200
O  2.68600 10.95100 32.21300
C  3.72800 11.05900 33.33000
H  2.13300 4.20300 27.51800
H  1.05400 6.46800 21.66600
H  2.41600 12.43100 23.77400
H  2.58100 7.59800 30.84900
H  1.12000 5.16400 29.94200
H  2.93000 4.28400 30.67300
H  3.85200 5.83200 30.68600
H  3.87400 4.87700 29.28600
H  -0.18900 6.69700 30.71700
H  -0.07700 8.42900 30.61500
H  -0.31500 7.12200 33.08500
H  0.39300 8.68400 32.86500
H  1.75200 1.92800 24.70200
H  0.35000 2.29600 25.68700
H  2.08600 2.65000 26.24400
H  1.45600 1.81500 22.69900
H  -0.12400 2.00300 21.78100
H  -0.18800 2.07100 23.53700
H  0.84800 8.98100 20.75900
H  2.49700 11.16100 21.50200
H  3.87700 9.42300 20.87200
H  2.99800 8.79300 19.48700
H  3.34000 7.79000 20.79000
H  0.26200 12.08000 22.38600
H  -0.42800 10.55400 21.76000
H  0.17900 13.20400 20.47400
H  -0.69700 11.72800 19.73500
H  1.02700 11.88200 19.61800
H  1.76100 14.33900 26.55100
H  3.06700 14.19600 25.25900
H  3.42700 14.41800 26.93300
H  1.12800 10.78000 30.49800
H  4.14500 12.05900 33.44700
H  4.67700 10.52400 33.29400
H  3.23000 10.79300 34.26300
Mg 55.40300 24.04100 45.06300
C  53.03300 26.57700 44.21900
C  53.09000 21.76500 43.89100
C  57.87900 21.78100 44.95600
C  57.77200 26.59600 45.79000
N  53.34400 24.14300 43.99900
C  52.55700 25.29800 43.88900
C  51.13900 24.88300 43.44200
C  51.07900 23.37200 43.82500
C  52.56700 23.03000 43.84600
C  50.35400 22.88500 45.03600
C  50.94100 25.21200 41.92800
C  49.55100 25.57800 41.45600
H  49.19400 25.46400 39.93900
N  55.44400 22.07700 44.49400
C  54.36600 21.32300 44.11400
C  54.86300 19.94600 43.89300
C  56.25700 19.89300 44.12900
C  56.59900 21.28700 44.54500
C  53.83800 18.87300 43.41100
C  57.12600 18.68900 43.93400
O  56.63600 17.61300 43.57100
C  58.61300 18.74500 44.19800
N  57.58900 24.17900 45.31900
C  58.32600 23.04000 45.39200
C  59.78200 23.45800 45.76500
C  59.75900 25.01700 45.95600
C  58.25200 25.30100 45.71600
C  60.34700 22.74400 47.00800
C  60.75900 25.70400 44.89500
C  61.50900 26.95500 45.48600
N  55.41300 26.13500 45.11500
C  56.42700 26.97400 45.53600
C  55.83200 28.34300 45.55400
C  54.52600 28.20600 45.02800
C  54.31800 26.82900 44.80800
C  56.57100 29.54900 45.96700
C  53.28500 28.86900 44.81100
O  52.92100 30.04700 44.91300
C  52.40000 27.93200 44.03600
C  52.32200 28.37300 42.59900
O  53.16800 28.28200 41.73600
O  51.03300 28.94300 42.44800
C  50.76400 29.26800 41.06100
H  52.31700 21.01400 43.71300
H  58.71600 21.08600 45.04600
H  58.52000 27.34600 46.05400
H  50.33900 25.40200 43.96900
H  50.56900 22.92300 42.97300
H  49.83900 23.72800 45.49600
H  51.08600 22.46400 45.72500
H  49.67800 22.10300 44.69000
H  51.12000 24.27900 41.39400
H  51.57600 26.06400 41.68400
H  49.37900 26.63000 41.68200
H  48.73400 25.06100 41.95900
H  53.75900 18.64100 42.34900
H  52.82000 19.03600 43.76600
H  54.14600 17.92900 43.86100
H  59.14600 19.52000 43.64700
H  59.14400 17.85900 43.85100
H  58.73300 18.74800 45.28100
H  60.33200 23.16600 44.87100
H  59.89200 25.23700 47.01500
H  61.09900 21.97200 46.85000
H  59.53400 22.27300 47.56100
H  60.76100 23.49800 47.67800
H  60.11400 26.06300 44.09300
H  61.51100 25.04300 44.46400
H  62.47700 27.08700 45.00100
H  61.58800 26.85600 46.56800
H  60.85600 27.81000 45.30900
H  57.43800 29.89000 45.40200
H  56.83600 29.20100 46.96500
H  55.80600 30.32500 46.02600
H  51.41800 27.91100 44.50800
H  51.54300 29.92500 40.67400
H  49.76300 29.69900 41.03600
H  50.85000 28.33600 40.50200

