158

Mg 15.89200 -1.73400 28.25200
C  15.03400 0.23000 31.04800
C  17.95300 -3.54800 30.39100
C  17.20900 -3.26800 25.66200
C  14.19100 0.47100 26.24600
N  16.40000 -1.66500 30.46900
C  15.80500 -0.82300 31.39400
C  16.35100 -1.09100 32.81400
C  17.42300 -2.23800 32.49900
C  17.22900 -2.52200 31.03000
C  18.88300 -2.08500 33.03100
C  15.21300 -1.50800 33.71100
C  15.10500 -1.03800 35.15900
H  16.46200 -0.72700 35.77400
N  17.29600 -3.27700 28.03900
C  17.99200 -3.93200 29.03000
C  18.76300 -4.99500 28.41000
C  18.65500 -4.88000 27.00600
C  17.71600 -3.75500 26.82300
C  19.60700 -6.03700 29.22100
C  19.25500 -5.66400 25.87300
O  19.04600 -5.47600 24.66900
C  20.28100 -6.81300 26.13500
N  15.73600 -1.39300 26.20600
C  16.31300 -2.20400 25.29700
C  15.98400 -1.82800 23.81000
C  14.77800 -0.86300 24.05100
C  14.89100 -0.56300 25.58400
C  17.12000 -1.34900 22.84500
C  13.38900 -1.53600 23.74300
C  12.55900 -0.92400 22.54700
N  14.94800 0.02800 28.52300
C  14.20000 0.76300 27.62200
C  13.64800 1.90300 28.27000
C  13.90500 1.70800 29.61800
C  14.74200 0.54400 29.75900
C  12.85400 2.98700 27.65000
C  13.76400 2.31500 30.96600
O  13.15500 3.34100 31.29700
C  14.52800 1.40500 31.95400
C  15.51300 2.19600 32.61100
O  16.64600 2.31700 32.34400
O  14.87400 2.85100 33.68500
C  15.68000 3.88500 34.38700
H  18.48500 -4.20000 31.08700
H  17.51400 -3.75600 24.73400
H  13.76200 1.17900 25.53400
H  16.82200 -0.21000 33.25000
H  17.17600 -3.14900 33.04400
H  19.59900 -1.96400 32.21900
H  19.03400 -2.90600 33.73400
H  18.84900 -1.24100 33.72000
H  15.24000 -2.59700 33.72200
H  14.24200 -1.29600 33.26200
H  14.63800 -1.73100 35.85800
H  14.55900 -0.09600 35.12200
H  19.50800 -5.89800 30.29700
H  20.60800 -5.80800 28.85500
H  19.45000 -7.10800 29.09500
H  21.11800 -6.33000 26.63900
H  20.59800 -7.19500 25.16500
H  19.81700 -7.63900 26.67500
H  15.55600 -2.71500 23.34300
H  14.79600 0.00000 23.38700
H  17.11800 -0.28600 22.60200
H  17.06100 -1.94900 21.93700
H  18.07800 -1.54400 23.32700
H  12.73500 -1.48000 24.61300
H  13.55600 -2.59300 23.53600
H  11.78900 -0.23800 22.90000
H  12.17400 -1.68000 21.86400
H  13.25500 -0.39300 21.89800
H  13.31500 3.49900 26.80600
H  12.75200 3.82300 28.34200
H  11.90500 2.56900 27.31700
H  13.89400 0.94200 32.71100
H  15.11000 4.74100 34.74900
H  16.59400 4.24800 33.91700
H  16.01200 3.32100 35.25800
Mg 40.47000 9.24100 29.85500
C  42.38300 10.56000 32.38500
C  38.16800 8.32400 32.07000
C  38.85600 7.87300 27.24000
C  43.16200 9.67800 27.64600
N  40.33600 9.26200 32.09600
C  41.31700 9.78700 32.93500
C  40.80600 9.73400 34.40100
C  39.38300 9.08700 34.29600
C  39.26300 8.88300 32.75700
C  39.22000 7.79000 35.14400
C  40.78200 11.21600 35.08000
C  39.81700 11.28500 36.32100
H  40.50700 11.81400 37.61500
N  38.70700 8.36800 29.62400
C  37.88700 8.09000 30.69400
C  36.62100 7.60500 30.17800
C  36.75900 7.49100 28.75100
C  38.13900 7.90600 28.49300
C  35.42200 7.32500 31.05200
C  35.76700 7.01900 27.74600
O  36.02900 7.01600 26.53600
C  34.39500 6.41200 28.24100
N  41.08300 8.51600 27.83400
C  40.18300 8.04300 26.95500
C  40.69400 8.09700 25.43000
C  42.14700 8.59900 25.60400
C  42.16500 8.98400 27.12700
C  40.54800 6.67700 24.69700
C  42.54600 9.64900 24.55700
C  42.46400 11.16600 25.06100
N  42.31400 9.99800 29.91100
C  43.17300 10.25800 28.91600
C  44.20100 11.16800 29.48500
C  43.91800 11.26900 30.84500
C  42.77400 10.54700 31.07800
C  45.32200 11.79700 28.73100
C  44.38500 11.83600 32.05700
O  45.39400 12.47300 32.23800
C  43.31300 11.41700 33.15800
C  44.01100 10.74500 34.28900
O  44.20000 9.53100 34.46900
O  44.39300 11.71600 35.22200
C  44.71200 11.19200 36.59500
H  37.39600 8.16100 32.82500
H  38.32600 7.50800 26.35800
H  44.03200 9.92900 27.03600
H  41.46600 9.18000 35.06900
H  38.49800 9.70300 34.45600
H  38.34900 7.77800 35.80000
H  40.05700 7.63100 35.82300
H  39.14100 6.93400 34.47400
H  40.51300 11.97200 34.34200
H  41.78000 11.46900 35.43700
H  39.43800 10.28600 36.53500
H  39.11400 12.02800 35.94500
H  34.52400 7.61500 30.50600
H  35.35600 7.85200 32.00400
H  35.20300 6.30800 31.37500
H  34.41400 5.79700 29.14100
H  34.04200 5.74000 27.45900
H  33.79400 7.31800 28.31800
H  40.04600 8.79600 24.90100
H  42.89300 7.80900 25.51500
H  41.48400 6.31300 24.27300
H  39.70500 6.71800 24.00700
H  40.33400 5.97100 25.50000
H  42.09900 9.67700 23.56300
H  43.57700 9.49700 24.23900
H  43.45700 11.52800 25.32900
H  41.74200 11.26600 25.87200
H  42.08300 11.84600 24.30000
H  45.11000 11.95500 27.67300
H  46.17000 11.12500 28.85800
H  45.53700 12.70400 29.29500
H  42.84200 12.36800 33.40700
H  43.97700 10.47900 36.96800
H  44.64600 12.02100 37.29900
H  45.73800 10.82800 36.64000

