158

Mg 1.03600 8.18300 26.33500
C  1.60300 9.96000 29.36200
C  0.94700 5.32800 28.33900
C  0.71900 6.30700 23.56200
C  1.31300 11.06300 24.60900
N  1.24800 7.75000 28.58900
C  1.31500 8.61900 29.64200
C  1.19200 7.95700 30.94800
C  1.39700 6.48700 30.57600
C  1.14400 6.50100 29.07800
C  2.69100 5.78000 30.90100
C  -0.09400 8.41100 31.69200
C  0.01700 8.51800 33.22800
H  1.25400 7.93600 33.95300
N  0.83900 6.07500 26.02400
C  0.85100 5.11900 26.94400
C  0.55300 3.84500 26.28500
C  0.68300 4.11900 24.92500
C  0.74800 5.53800 24.77800
C  0.35400 2.52600 26.99600
C  0.60200 3.12400 23.66900
O  0.60100 3.53000 22.51200
C  0.57200 1.60900 23.86500
N  0.94000 8.60400 24.43000
C  0.82300 7.71300 23.41600
C  0.76300 8.45100 22.01500
C  0.83400 9.96000 22.39500
C  0.99700 9.85900 23.92100
C  1.71400 7.97000 20.87300
C  -0.46500 10.77400 21.91300
C  -1.73400 10.51600 22.74700
N  1.37700 10.10400 26.78600
C  1.51000 11.17100 25.96400
C  1.81800 12.37600 26.77200
C  1.83100 11.89000 28.06100
C  1.55800 10.53600 28.05200
C  2.04400 13.81900 26.21300
C  2.20000 12.28800 29.39000
O  2.57200 13.39800 29.84200
C  1.93400 11.01300 30.31900
C  3.15600 10.67200 31.07900
O  4.09000 9.87100 30.83900
O  3.17900 11.52100 32.18300
C  4.40600 11.54600 33.08100
H  0.82600 4.38700 28.88000
H  0.66400 5.89700 22.55100
H  1.22200 11.95700 23.98800
H  2.11800 8.15800 31.48600
H  0.60200 5.87500 31.00200
H  2.48100 5.07300 31.70300
H  3.45000 6.39800 31.38100
H  3.09700 5.17400 30.09100
H  -0.91200 7.72200 31.47700
H  -0.42800 9.37800 31.31800
H  -0.88000 8.07900 33.66400
H  0.08700 9.59800 33.35700
H  1.34400 2.08400 26.88100
H  -0.43600 1.95200 26.51200
H  0.01800 2.67100 28.02300
H  1.56500 1.18800 24.02300
H  0.31300 1.15500 22.90900
H  -0.13100 1.24800 24.61600
H  -0.26000 8.16900 21.76500
H  1.77900 10.39400 22.06700
H  2.42300 7.22000 21.22700
H  2.27900 8.88100 20.67800
H  1.23000 7.44200 20.05200
H  -0.54800 10.57000 20.84500
H  -0.27700 11.84200 22.02000
H  -1.58400 9.99900 23.69500
H  -2.40200 9.80800 22.25700
H  -2.18500 11.48900 22.94100
H  2.47100 13.72900 25.21400
H  2.76700 14.29800 26.87200
H  1.14300 14.42200 26.09400
H  1.08000 11.19900 30.96900
H  5.29300 11.02000 32.72900
H  4.13100 11.15700 34.06200
H  4.75800 12.57000 33.20800
Mg -12.58200 37.30800 42.29900
C  -10.11400 34.86000 41.49700
C  -10.66500 39.58700 40.60000
C  -15.26100 39.29000 42.24500
C  -14.55800 34.65200 43.55500
N  -10.60900 37.21400 41.17100
C  -9.84700 36.09700 40.92300
C  -8.48500 36.53200 40.35100
C  -8.52800 38.11400 40.29200
C  -10.04100 38.28100 40.64000
C  -7.57200 38.92200 41.25200
C  -8.28600 35.81600 39.03900
C  -6.96000 35.01500 38.84400
H  -6.04700 35.57100 37.79400
N  -12.96500 39.22900 41.62400
C  -12.00400 40.00100 40.89700
C  -12.59700 41.26800 40.61100
C  -13.93800 41.10100 40.97500
C  -14.13600 39.84600 41.68400
C  -11.87700 42.34200 39.88900
C  -14.91100 42.08900 40.60800
O  -14.62700 43.08600 39.95100
C  -16.36600 41.97100 40.85300
N  -14.63200 37.00600 42.76300
C  -15.50700 37.99900 42.79700
C  -16.92700 37.47800 43.25800
C  -16.59200 36.05600 43.83100
C  -15.15400 35.85800 43.36200
C  -17.68000 38.35700 44.26700
C  -17.53300 34.84500 43.46100
C  -17.79900 33.85400 44.60700
N  -12.38200 35.22100 42.56300
C  -13.22900 34.29900 43.19500
C  -12.62700 32.99400 43.30700
C  -11.38000 33.18800 42.62200
C  -11.30900 34.51200 42.18400
C  -13.22900 31.71200 43.87000
C  -10.26300 32.49000 42.16900
O  -10.00100 31.26000 42.32000
C  -9.32400 33.54600 41.46600
C  -7.98200 33.51800 42.12300
O  -7.08900 32.83900 41.73100
O  -8.03200 34.33300 43.29500
C  -6.75700 34.66100 43.86200
H  -10.02300 40.28500 40.05700
H  -16.12400 39.95900 42.27700
H  -15.07200 33.85900 44.10100
H  -7.80500 36.19500 41.13400
H  -8.46300 38.50200 39.27600
H  -8.17500 39.39100 42.03000
H  -7.07800 39.63100 40.58900
H  -6.86100 38.26900 41.75700
H  -8.29800 36.55300 38.23600
H  -9.04300 35.07700 38.77800
H  -7.09200 33.95100 38.64700
H  -6.43400 34.98900 39.79800
H  -12.03700 43.35600 40.25500
H  -12.12600 42.29400 38.82800
H  -10.79000 42.26400 39.89500
H  -16.71600 40.98100 40.56000
H  -16.95000 42.77200 40.39800
H  -16.53200 41.93700 41.92900
H  -17.57200 37.34200 42.38900
H  -16.33100 36.07000 44.88900
H  -18.59900 38.78400 43.86500
H  -16.92200 39.13000 44.39300
H  -18.01400 37.75400 45.11100
H  -17.08400 34.31500 42.62100
H  -18.44500 35.31800 43.09800
H  -17.16900 34.04200 45.47700
H  -17.63600 32.86600 44.17800
H  -18.85200 33.93500 44.87900
H  -12.72700 30.92100 43.31300
H  -14.28100 31.84200 43.61800
H  -13.03200 31.55700 44.93100
H  -9.05300 33.25100 40.45200
H  -6.53300 35.72600 43.80600
H  -5.90400 34.23900 43.33000
H  -6.77500 34.22900 44.86300

