158

Mg -1.67200 18.06600 27.53300
C  -2.24400 15.82700 30.06500
C  -2.21200 20.66400 29.55500
C  -1.37500 20.05800 24.81700
C  -1.89000 15.28400 25.22300
N  -2.06300 18.21200 29.64200
C  -2.24300 17.18300 30.52400
C  -2.57000 17.66600 31.94500
C  -2.90700 19.19000 31.69100
C  -2.32500 19.39800 30.22800
C  -4.43400 19.63500 31.89200
C  -1.44500 17.45900 32.94200
C  -1.90100 16.92000 34.24800
H  -0.87200 16.81500 35.38600
N  -1.73500 20.08100 27.20600
C  -1.94100 20.99700 28.22600
C  -1.74200 22.36900 27.74300
C  -1.58100 22.27100 26.34700
C  -1.56300 20.73800 26.08100
C  -1.78500 23.58300 28.58400
C  -1.31900 23.30900 25.34700
O  -1.41100 23.13900 24.11500
C  -0.87700 24.53700 25.84100
N  -1.63200 17.70100 25.32100
C  -1.44100 18.71400 24.42100
C  -1.56700 18.33900 22.96500
C  -1.86600 16.78000 23.08800
C  -1.82400 16.52800 24.60800
C  -2.81200 19.04800 22.30300
C  -0.89900 16.00000 22.15200
C  0.63500 15.97200 22.55900
N  -1.89300 16.02200 27.58100
C  -1.94100 15.01900 26.61300
C  -2.06500 13.68200 27.20900
C  -2.16700 13.97000 28.58000
C  -2.10000 15.38600 28.72200
C  -1.97500 12.40000 26.53100
C  -2.33900 13.35900 29.86600
O  -2.52700 12.18600 30.10100
C  -2.39600 14.52600 30.87900
C  -1.09400 14.29100 31.65900
O  0.05600 14.42100 31.24900
O  -1.37500 13.81300 32.86400
C  -0.23700 13.68300 33.75500
H  -2.30000 21.33400 30.41300
H  -1.20300 20.72500 23.96900
H  -1.96900 14.49000 24.47700
H  -3.48600 17.18800 32.29000
H  -2.32600 19.68400 32.46900
H  -4.79900 20.08100 30.96700
H  -4.49200 20.38200 32.68400
H  -5.10300 18.81300 32.14800
H  -0.95300 18.41600 33.11600
H  -0.62500 16.81700 32.62100
H  -2.45900 15.98700 34.16600
H  -2.63400 17.59700 34.68800
H  -2.25300 23.42300 29.55600
H  -2.13000 24.49900 28.10400
H  -0.75200 23.78400 28.86700
H  -1.67600 25.27400 25.92300
H  -0.35700 25.10900 25.07200
H  -0.23300 24.41600 26.71200
H  -0.65100 18.61300 22.44100
H  -2.85900 16.44600 22.78700
H  -2.82100 18.62600 21.29900
H  -2.68600 20.12800 22.21900
H  -3.73700 18.88300 22.85500
H  -1.00800 16.44400 21.16200
H  -1.31500 14.99500 22.23300
H  0.84600 16.40600 23.53600
H  1.14700 16.65200 21.87800
H  1.17900 15.04600 22.37400
H  -1.20600 11.75900 26.96200
H  -1.65200 12.45900 25.49100
H  -2.98000 12.02800 26.72900
H  -3.28300 14.38200 31.49500
H  0.31300 14.62300 33.81700
H  0.40000 12.89500 33.35200
H  -0.57400 13.33200 34.73000
Mg -10.08100 39.78600 39.59700
C  -9.07900 36.57500 38.84600
C  -6.91800 40.86000 38.79100
C  -11.32500 43.10100 39.60400
C  -13.45100 38.60000 39.72900
N  -8.23700 38.82700 38.76900
C  -8.04300 37.48200 38.66300
C  -6.53200 37.15700 38.48700
C  -5.80100 38.48900 38.71600
C  -7.06000 39.46500 38.80600
C  -4.90400 38.63800 40.01400
C  -6.06500 36.39100 37.16200
C  -6.27500 37.05900 35.81200
H  -7.10700 36.34500 34.76900
N  -9.26200 41.79100 39.21000
C  -7.92500 41.92100 38.94700
C  -7.68000 43.38700 38.87600
C  -8.92400 44.04900 38.99000
C  -9.93100 43.00000 39.29100
C  -6.30800 43.92900 38.44900
C  -9.10400 45.56400 38.98500
O  -8.09100 46.19600 38.89600
C  -10.44800 46.12400 39.15500
N  -12.09200 40.71100 39.34900
C  -12.27800 42.04100 39.70600
C  -13.75800 42.26000 39.87700
C  -14.39200 40.90200 39.83300
C  -13.22300 39.96000 39.58200
C  -14.03000 43.01600 41.26000
C  -15.57600 40.62500 38.70400
C  -16.84400 39.92900 39.24800
N  -11.05100 38.01000 39.55600
C  -12.39000 37.67800 39.71800
C  -12.53800 36.22400 39.70100
C  -11.27900 35.77200 39.37100
C  -10.40400 36.89900 39.25600
C  -13.84900 35.44500 39.70500
C  -10.52700 34.61100 38.94600
O  -10.82700 33.44700 38.77500
C  -8.99400 35.08000 38.66300
C  -8.14800 34.39500 39.63900
O  -8.48200 34.30400 40.79800
O  -7.01000 33.81700 39.09800
C  -6.11900 33.28100 40.03800
H  -5.89400 41.23700 38.76300
H  -11.76700 44.05400 39.90100
H  -14.47500 38.23500 39.83900
H  -6.39500 36.39800 39.25700
H  -5.18400 38.60800 37.82500
H  -4.03300 39.03800 39.49600
H  -4.84800 37.63500 40.43800
H  -5.33500 39.30100 40.76500
H  -6.64900 35.47200 37.13400
H  -5.04400 36.02100 37.25600
H  -5.29700 37.12900 35.33500
H  -6.61300 38.09500 35.77700
H  -5.68500 43.15700 37.99600
H  -5.83400 44.36800 39.32700
H  -6.43500 44.73700 37.72900
H  -10.77100 46.31600 40.17800
H  -11.16700 45.49800 38.62700
H  -10.42100 46.97000 38.46700
H  -14.30900 42.92300 39.20900
H  -14.68200 40.50300 40.80600
H  -14.30600 44.06900 41.20300
H  -13.16000 42.95600 41.91300
H  -14.87000 42.61400 41.82700
H  -15.09400 39.94300 38.00300
H  -15.77500 41.53900 38.14400
H  -16.86500 39.96000 40.33800
H  -16.89800 38.89000 38.92300
H  -17.78600 40.40100 38.96800
H  -14.28300 35.40500 38.70600
H  -14.63200 35.92900 40.29000
H  -13.83200 34.48700 40.22400
H  -8.78200 34.96200 37.60000
H  -6.64700 32.59700 40.70200
H  -5.72400 34.08900 40.65300
H  -5.36300 32.79900 39.41700

