158

Mg 17.56300 -1.15000 28.12200
C  15.88700 0.73200 30.72700
C  19.28600 -2.71200 30.63000
C  19.08000 -2.80900 25.69300
C  15.65600 0.68200 25.86500
N  17.54500 -0.99500 30.43600
C  16.87300 -0.14000 31.26400
C  17.19600 -0.33000 32.75600
C  18.39500 -1.36100 32.66200
C  18.50800 -1.69900 31.15800
C  19.71700 -0.88100 33.37300
C  15.93400 -0.85000 33.57100
C  16.00400 -0.60800 35.05200
H  17.35700 -0.21000 35.76300
N  19.01500 -2.56100 28.16200
C  19.48500 -3.14000 29.26300
C  20.28300 -4.29500 28.85300
C  20.28800 -4.31400 27.43900
C  19.45800 -3.17800 27.01000
C  20.90200 -5.31200 29.85600
C  20.99700 -5.23200 26.48200
O  20.74700 -5.12500 25.28700
C  21.95900 -6.21800 27.04600
N  17.55200 -0.97100 26.11800
C  18.18500 -1.80600 25.25900
C  17.83500 -1.48100 23.78600
C  16.71100 -0.45300 23.95200
C  16.56100 -0.26000 25.47100
C  19.01500 -0.98700 22.95400
C  15.40600 -0.97600 23.17200
C  14.34000 -1.81000 23.96700
N  16.00600 0.42200 28.20400
C  15.29400 1.02100 27.19700
C  14.37400 2.01700 27.65200
C  14.54800 1.96000 29.06300
C  15.52500 0.93600 29.34900
C  13.58800 2.93900 26.71400
C  14.17700 2.48500 30.32700
O  13.37300 3.36300 30.51000
C  15.03200 1.83200 31.46500
C  15.78200 2.94100 32.23300
O  16.82700 3.48500 31.92000
O  15.12700 3.04400 33.50300
C  15.69500 4.07500 34.40400
H  19.80600 -3.27000 31.41100
H  19.43900 -3.27800 24.77400
H  15.09300 1.24000 25.11400
H  17.56700 0.63000 33.11400
H  18.03200 -2.28200 33.11700
H  19.69200 -1.15600 34.42700
H  19.78300 0.20500 33.43700
H  20.62900 -1.25800 32.91000
H  15.76100 -1.92400 33.50200
H  15.07400 -0.27800 33.22200
H  15.64800 -1.45800 35.63400
H  15.35500 0.24600 35.24900
H  20.35400 -5.17600 30.78800
H  21.92100 -4.97200 30.04400
H  20.84600 -6.36200 29.56900
H  22.54000 -6.58200 26.19800
H  21.40100 -7.10200 27.35500
H  22.68600 -5.83700 27.76200
H  17.44500 -2.40800 23.36400
H  16.92300 0.55300 23.59000
H  19.44100 -0.08300 23.38800
H  18.61300 -0.79400 21.95900
H  19.82000 -1.72100 22.91400
H  15.59700 -1.50400 22.23700
H  14.88200 -0.09600 22.79900
H  13.92900 -2.66300 23.42700
H  13.51700 -1.20300 24.34400
H  14.82100 -2.34000 24.78900
H  14.20200 3.67400 26.19400
H  12.83100 3.38600 27.35800
H  13.15800 2.19700 26.04100
H  14.22100 1.33100 31.99400
H  14.87000 4.74900 34.63600
H  16.44000 4.71900 33.93700
H  16.03200 3.59000 35.32000
Mg 42.80900 3.99800 46.49600
C  41.11200 7.10200 46.66000
C  39.89000 2.35400 46.42300
C  44.64400 1.23000 45.76000
C  45.81400 5.96600 45.99700
N  40.74800 4.69500 46.61200
C  40.22400 5.97400 46.72200
C  38.70900 5.89300 46.97400
C  38.45800 4.41900 47.11000
C  39.77800 3.69900 46.68400
C  37.89600 3.94200 48.53400
C  37.80300 6.61900 45.91200
C  37.96600 6.11500 44.42200
H  37.99400 7.18900 43.32700
N  42.33300 2.10000 46.16000
C  41.04000 1.59900 46.17000
C  41.11500 0.08700 45.93800
C  42.48100 -0.18300 45.77000
C  43.20500 1.03500 45.96900
C  39.88500 -0.73500 45.82100
C  43.01700 -1.55500 45.45400
O  42.23500 -2.50500 45.57000
C  44.48300 -1.90700 44.94600
N  44.93500 3.68600 45.79400
C  45.41800 2.39400 45.67900
C  46.97900 2.37000 45.56500
C  47.33000 3.89100 45.34500
C  45.95600 4.57600 45.80300
C  47.60100 1.72500 46.86200
C  47.84400 4.29900 43.98800
C  49.40500 4.48000 43.84100
N  43.40500 6.09300 46.26300
C  44.64200 6.72100 46.10800
C  44.50500 8.08600 46.22600
C  43.11300 8.30000 46.50500
C  42.47800 7.05600 46.46300
C  45.56900 9.14600 46.22800
C  42.09200 9.30600 46.67700
O  42.23300 10.52100 46.78500
C  40.73100 8.53800 46.79500
C  39.98900 8.81000 48.01300
O  40.08100 8.19800 49.10800
O  39.03100 9.75100 47.64900
C  37.93700 9.95800 48.65400
H  38.89500 1.90400 46.41300
H  45.23400 0.31300 45.72200
H  46.79300 6.44200 46.08000
H  38.46800 6.30000 47.95600
H  37.65200 4.12800 46.43700
H  36.90600 3.53500 48.33000
H  37.73500 4.83000 49.14500
H  38.53400 3.21500 49.03600
H  38.06700 7.67500 45.85900
H  36.76800 6.50200 46.23200
H  37.26400 5.34200 44.11000
H  38.96900 5.71000 44.28600
H  38.98200 -0.13600 45.70600
H  39.88100 -1.34100 46.72700
H  39.98900 -1.43000 44.98800
H  45.19800 -1.98700 45.76400
H  44.84100 -1.11800 44.28500
H  44.61800 -2.81300 44.35400
H  47.34400 1.80600 44.70600
H  48.18000 4.02300 46.01400
H  48.33700 2.37000 47.34100
H  48.06200 0.80300 46.50700
H  46.79600 1.44900 47.54300
H  47.32200 5.18600 43.62900
H  47.56600 3.62000 43.18200
H  49.91900 4.53000 44.80100
H  49.52100 5.48000 43.42200
H  49.77000 3.70400 43.16900
H  46.20400 8.94100 45.36600
H  46.23900 8.96300 47.06800
H  45.22600 10.18000 46.25100
H  40.15900 8.87100 45.92900
H  38.53500 10.46200 49.41300
H  37.59900 9.00900 49.06900
H  37.21100 10.53100 48.07700

