158

Mg 41.16500 8.90100 28.94300
C  42.80200 10.27700 31.67800
C  38.88800 7.63800 31.10600
C  39.58000 7.64800 26.22300
C  43.92900 9.78800 26.88200
N  40.93800 8.94100 31.19000
C  41.58900 9.78500 32.05200
C  41.00200 9.83300 33.44500
C  39.78100 8.79900 33.24700
C  39.85000 8.40900 31.71400
C  39.86500 7.52500 34.08500
C  40.58000 11.23400 33.96900
C  39.96000 11.35100 35.39800
H  40.79600 11.89900 36.59500
N  39.50300 7.78600 28.65900
C  38.68800 7.39500 29.73800
C  37.61600 6.59100 29.19100
C  37.82900 6.43600 27.76500
C  38.97700 7.36300 27.50100
C  36.49000 6.05700 30.13900
C  37.03600 5.71500 26.70400
O  37.41400 5.76300 25.54300
C  35.82300 5.01800 27.18000
N  41.64700 8.70700 26.78600
C  40.81300 8.23000 25.85500
C  41.30500 8.40700 24.41700
C  42.72500 9.04300 24.67500
C  42.84200 9.20400 26.23200
C  41.29700 7.13300 23.61400
C  42.91700 10.34300 23.90600
C  42.54000 11.67100 24.55600
N  43.04700 9.64800 29.13400
C  44.02600 10.05200 28.26500
C  45.00900 10.95200 28.92300
C  44.55600 10.92000 30.27800
C  43.40900 10.17600 30.41200
C  46.18400 11.67000 28.33000
C  44.89000 11.43900 31.54100
O  45.75500 12.21500 31.87500
C  43.74400 11.12700 32.58300
C  44.35000 10.36600 33.64100
O  45.14200 9.42000 33.46200
O  43.98600 10.82300 34.87600
C  44.70000 10.31600 36.08900
H  38.16800 7.21700 31.81100
H  39.05800 7.51600 25.27200
H  44.85300 10.08100 26.37800
H  41.72300 9.49300 34.18800
H  38.86500 9.30300 33.55600
H  40.66800 7.66600 34.81000
H  40.02700 6.67600 33.42200
H  39.00200 7.40900 34.74100
H  39.84500 11.68400 33.30200
H  41.48100 11.84600 33.95500
H  39.65800 10.37300 35.77200
H  39.01700 11.89500 35.33800
H  35.61700 6.04700 29.48700
H  36.28600 6.72000 30.98000
H  36.80500 5.12500 30.60800
H  36.09100 4.18900 27.83500
H  35.45700 4.48900 26.30000
H  35.07000 5.66200 27.63400
H  40.68900 9.13000 23.88400
H  43.44500 8.26600 24.41400
H  41.09100 6.37100 24.36500
H  42.16400 6.85900 23.01200
H  40.43900 7.17900 22.94300
H  42.29400 10.31800 23.01200
H  43.93000 10.30700 23.50500
H  43.31100 12.07700 25.21100
H  41.60800 11.43700 25.07000
H  42.28400 12.49500 23.88900
H  47.14000 11.16400 28.46800
H  46.31000 12.62100 28.84700
H  46.01900 11.83500 27.26500
H  43.27500 12.03200 32.96900
H  43.91700 10.63800 36.77500
H  45.70800 10.72900 36.11300
H  44.62200 9.22900 36.12000
Mg 26.41700 50.17700 27.00100
C  24.29900 51.16800 29.53000
C  28.51300 48.81000 29.44800
C  28.66700 49.19400 24.56100
C  24.21500 51.49600 24.58400
N  26.43000 50.03200 29.25300
C  25.46900 50.49600 30.08000
C  25.72700 50.04500 31.62500
C  27.11400 49.44100 31.51800
C  27.38900 49.43700 29.98500
C  28.18400 50.09900 32.36900
C  24.57400 49.09700 32.11400
C  24.01100 49.40900 33.49100
H  24.82900 49.86900 34.69300
N  28.31500 49.18900 27.01000
C  29.00200 48.73400 28.12900
C  30.34700 48.43400 27.75100
C  30.43300 48.55000 26.32200
C  29.12000 48.99100 25.86200
C  31.44000 48.10500 28.79100
C  31.54900 48.29100 25.43400
O  31.50800 48.52300 24.23100
C  32.86200 47.76000 25.86100
N  26.50900 50.38300 24.85900
C  27.44300 49.73000 24.05700
C  26.87600 49.69100 22.57400
C  25.68100 50.71300 22.63800
C  25.44000 50.89000 24.14800
C  27.91200 49.96100 21.43400
C  24.52200 50.10600 21.79500
C  23.98500 50.91100 20.54500
N  24.71200 51.27400 27.01000
C  23.87800 51.71300 25.94900
C  22.75400 52.45500 26.55700
C  22.84100 52.22500 27.94200
C  24.01000 51.39500 28.15700
C  21.75800 53.42600 25.85900
C  22.24000 52.53300 29.21000
O  21.27300 53.14800 29.50900
C  23.14100 51.81800 30.30600
C  23.59100 52.72800 31.45200
O  24.69700 53.34300 31.46100
O  22.55300 52.90600 32.30100
C  22.88100 53.81000 33.40600
H  29.21900 48.43100 30.19000
H  29.35200 48.74400 23.83900
H  23.50900 51.87300 23.84200
H  25.72300 50.89500 32.30900
H  27.07100 48.39300 31.81500
H  28.88000 50.64100 31.72900
H  28.79400 49.37200 32.90600
H  27.75900 50.82000 33.06800
H  24.89700 48.05800 32.17700
H  23.72300 49.01100 31.43900
H  23.44400 48.50900 33.73000
H  23.26400 50.19300 33.37100
H  31.21200 48.45100 29.79900
H  32.39100 48.54800 28.49400
H  31.59400 47.02800 28.72400
H  32.73800 47.00400 26.63600
H  33.28400 48.68700 26.24900
H  33.49500 47.41900 25.04100
H  26.55600 48.64900 22.59400
H  26.05700 51.59000 22.11200
H  28.18200 49.00700 20.98200
H  28.79400 50.29500 21.98100
H  27.62800 50.68000 20.66600
H  23.68000 49.82900 22.42900
H  24.80500 49.11600 21.43900
H  22.93200 51.14000 20.71000
H  24.03300 50.60700 19.49900
H  24.51500 51.86200 20.50200
H  22.36800 54.03700 25.19300
H  21.43800 53.98600 26.73700
H  20.96500 52.93700 25.29300
H  22.46700 51.07000 30.72300
H  23.47900 54.67500 33.11600
H  23.46300 53.15500 34.05400
H  21.95800 54.01600 33.94800

