158

Mg 54.66500 24.66100 44.46500
C  51.89300 26.59600 44.00100
C  52.69500 21.73800 43.91800
C  57.42100 22.67600 44.21100
C  56.64500 27.44000 44.38900
N  52.47800 24.21600 43.92800
C  51.58500 25.18500 43.89300
C  50.21300 24.47100 43.79600
C  50.43600 22.96800 44.28900
C  51.93400 22.92700 43.99100
C  50.09400 22.71900 45.76100
C  49.32300 24.57400 42.58200
C  49.94000 24.01000 41.33300
H  49.45800 24.59500 39.98800
N  55.00100 22.59900 44.05100
C  54.03600 21.55700 43.85700
C  54.70000 20.30900 43.84600
C  56.04700 20.45700 44.05600
C  56.22200 21.94500 44.15000
C  53.78700 19.02900 43.65100
C  57.11300 19.42200 44.01000
O  56.76900 18.29500 43.59600
C  58.60700 19.60900 44.37000
N  56.77200 25.00000 44.39500
C  57.72600 24.04300 44.33100
C  59.11800 24.62100 44.21000
C  58.80300 26.17200 44.18800
C  57.30900 26.27400 44.42300
C  60.10700 24.19100 45.38200
C  59.34600 26.92700 42.93500
C  58.45500 26.75400 41.64800
N  54.40800 26.67600 44.29700
C  55.29500 27.75700 44.29000
C  54.53500 28.98500 44.32700
C  53.18300 28.58600 44.12200
C  53.21800 27.15800 44.11900
C  55.05600 30.33600 44.61400
C  51.88000 29.10900 44.02300
O  51.54300 30.24000 43.99900
C  50.99800 27.84600 43.86200
C  50.42300 28.02400 42.53500
O  51.02400 27.87600 41.48100
O  49.04100 28.16400 42.55600
C  48.27600 28.15500 41.28000
H  52.03700 20.86600 43.92300
H  58.28700 22.01600 44.12900
H  57.27800 28.31500 44.22600
H  49.67000 24.99600 44.58300
H  49.95500 22.25400 43.62000
H  50.96600 22.25600 46.22300
H  49.24300 22.03800 45.75800
H  49.78600 23.61000 46.30700
H  48.94700 25.57600 42.37400
H  48.42500 23.99000 42.77800
H  49.84400 22.92800 41.24400
H  51.00600 24.23900 41.34400
H  54.23700 18.06300 43.42200
H  52.97900 19.28600 42.96700
H  53.36700 18.99000 44.65600
H  59.19000 20.21100 43.67400
H  59.02200 18.60200 44.41200
H  58.70600 20.03600 45.36800
H  59.48100 24.41500 43.20300
H  59.22200 26.73300 45.02300
H  60.89300 23.54800 44.98500
H  59.57500 23.44200 45.96800
H  60.55100 25.06600 45.85700
H  60.37000 26.59700 42.76000
H  59.40300 28.00500 43.08200
H  57.98200 27.71000 41.42200
H  57.67800 25.99000 41.67000
H  59.14900 26.46400 40.85900
H  54.85100 30.94500 43.73300
H  56.13500 30.26900 44.75800
H  54.53900 30.74800 45.48000
H  50.20500 27.84900 44.61000
H  48.10300 29.15700 40.88800
H  47.34600 27.65200 41.54600
H  48.78100 27.57100 40.51000
Mg 36.28500 49.45800 26.11400
C  36.88200 47.33800 28.99300
C  34.80900 51.63600 28.27000
C  35.18900 51.10100 23.43700
C  37.33000 46.69900 24.23400
N  35.73300 49.40100 28.36400
C  36.23200 48.55700 29.38300
C  36.09700 49.18500 30.81300
C  35.09900 50.31700 30.43100
C  35.33500 50.53500 28.89600
C  33.62100 50.15000 30.76100
C  37.49100 49.62700 31.42900
C  37.62500 49.21200 32.84200
H  36.58300 49.81300 33.86900
N  35.07700 51.13300 25.80400
C  34.65000 51.95800 26.86600
C  34.05900 53.13800 26.28400
C  34.14000 52.95600 24.87800
C  34.78300 51.68200 24.66300
C  33.44300 54.20400 27.11200
C  33.81800 53.92200 23.82800
O  33.89500 53.70000 22.63200
C  33.46500 55.31700 24.18700
N  36.23900 48.97200 24.09600
C  35.82100 49.82900 23.10700
C  36.03300 49.19000 21.74000
C  36.67500 47.72500 22.03500
C  36.75900 47.81200 23.56100
C  34.66600 49.15800 20.92900
C  38.03700 47.46000 21.37000
C  39.18500 48.42400 21.74100
N  37.11600 47.53400 26.49700
C  37.53200 46.49300 25.60600
C  38.08100 45.39700 26.30400
C  37.83700 45.66600 27.64600
C  37.22800 46.96400 27.70900
C  38.81200 44.13700 25.75500
C  37.95100 45.15300 29.01400
O  38.45100 44.12400 29.42700
C  37.36400 46.28500 29.97000
C  36.29900 45.71200 30.76400
O  35.31900 45.12600 30.29600
O  36.50200 45.77100 32.13700
C  35.42400 45.24200 32.93400
H  34.54200 52.43100 28.97000
H  34.96100 51.74900 22.58900
H  37.69800 45.90100 23.58500
H  35.67300 48.35400 31.37600
H  35.42200 51.24800 30.89800
H  33.08700 51.07200 30.53400
H  33.37300 49.86600 31.78300
H  33.29500 49.35600 30.08900
H  37.70700 50.69200 31.34600
H  38.20500 49.20800 30.71900
H  38.65800 49.31900 33.17200
H  37.45500 48.13700 32.90500
H  34.00300 55.13600 27.03700
H  33.26200 53.92800 28.15000
H  32.42800 54.25200 26.71800
H  33.34900 55.89100 23.26800
H  34.26900 55.64700 24.84500
H  32.45400 55.31900 24.59500
H  36.78000 49.80800 21.24300
H  36.06400 46.86700 21.75400
H  34.47400 48.14200 20.58400
H  34.78200 49.94700 20.18600
H  33.79700 49.39200 21.54500
H  38.03100 47.65400 20.29700
H  38.39700 46.44500 21.53700
H  39.55800 48.85000 20.80900
H  40.08100 47.94900 22.13900
H  38.99800 49.09500 22.57900
H  38.94600 44.24100 24.67800
H  38.12300 43.32500 25.98800
H  39.76800 44.04600 26.27100
H  38.16800 46.68800 30.58700
H  35.31400 44.17300 32.75400
H  34.48200 45.67600 32.59800
H  35.58500 45.43400 33.99500

