158

Mg 40.49900 9.21800 30.25900
C  42.62600 10.32800 32.81800
C  38.27000 8.34100 32.64500
C  38.65900 8.00900 27.80600
C  43.22000 9.62800 28.02400
N  40.46600 9.34700 32.44200
C  41.36200 9.91900 33.25500
C  40.84700 9.91500 34.70000
C  39.62800 9.09900 34.63200
C  39.44200 8.90500 33.11800
C  39.65700 7.73900 35.47100
C  40.59300 11.32900 35.29300
C  40.14800 11.33500 36.72400
H  40.86000 12.21800 37.77400
N  38.66500 8.39200 30.21700
C  37.82200 8.13700 31.29000
C  36.56400 7.57500 30.80200
C  36.70300 7.51000 29.39900
C  38.00400 8.05000 29.07000
C  35.49800 7.08600 31.72600
C  35.65100 7.08100 28.41400
O  35.61000 7.25300 27.24700
C  34.48200 6.34900 28.96100
N  40.82900 8.99800 28.21900
C  39.90200 8.39000 27.40700
C  40.33300 8.28200 25.89900
C  41.78000 9.02300 25.98500
C  41.98300 9.16800 27.50300
C  40.54600 6.77100 25.55900
C  41.77600 10.42300 25.35100
C  43.10500 11.03700 24.91400
N  42.50600 9.79000 30.33000
C  43.48000 9.93800 29.35900
C  44.75200 10.37100 29.95100
C  44.46900 10.59300 31.27900
C  43.07500 10.29600 31.42500
C  45.98100 10.56800 29.11700
C  44.97000 11.03300 32.48600
O  46.07300 11.43100 32.77000
C  43.75900 11.02700 33.57100
C  44.30700 10.27800 34.73000
O  44.87800 9.23500 34.56200
O  44.00000 10.82600 35.90600
C  44.22300 10.14400 37.12000
H  37.48000 8.09600 33.35800
H  37.98800 7.52900 27.09100
H  44.11300 9.59600 27.39700
H  41.62500 9.39000 35.25400
H  38.74500 9.57200 35.06100
H  40.63400 7.40000 35.81600
H  39.30500 6.99600 34.75600
H  39.01200 7.85300 36.34200
H  39.88500 11.75700 34.58300
H  41.45300 11.98100 35.13900
H  40.24200 10.32100 37.11400
H  39.09800 11.62600 36.69000
H  35.63100 7.30000 32.78600
H  35.28700 6.02800 31.57100
H  34.58300 7.60400 31.43700
H  33.91200 7.06800 29.54900
H  34.88300 5.53200 29.56200
H  33.87700 5.89100 28.17800
H  39.53100 8.65500 25.26100
H  42.60600 8.38800 25.66400
H  40.92400 6.21200 26.41600
H  41.16600 6.59500 24.68000
H  39.53700 6.42300 25.34100
H  41.26700 11.16900 25.96100
H  41.12200 10.43900 24.47900
H  43.94600 10.35100 25.02500
H  43.27400 11.96500 25.45900
H  43.17600 11.24100 23.84600
H  45.87800 11.52900 28.61400
H  46.12500 9.77700 28.38100
H  46.87400 10.55900 29.74000
H  43.55000 12.04400 33.90300
H  43.33600 10.22400 37.74900
H  45.06400 10.57500 37.66300
H  44.48400 9.08600 37.08200
Mg 51.55400 45.77200 42.02300
C  48.64900 47.42100 40.98800
C  50.13600 42.89000 41.07900
C  54.64900 44.53200 42.13000
C  52.90300 48.91200 42.94200
N  49.58800 45.25600 41.12900
C  48.49200 46.04700 40.91500
C  47.29800 45.27400 40.45100
C  47.73100 43.83400 40.86100
C  49.25000 43.97500 40.89200
C  47.29000 43.27700 42.22700
C  46.83600 45.39600 38.98900
C  45.25300 45.24600 38.73800
H  44.77900 44.07500 37.89800
N  52.34000 43.94700 41.56100
C  51.58800 42.84600 41.29000
C  52.39500 41.69000 41.37200
C  53.75300 42.18300 41.36700
C  53.67000 43.64500 41.67200
C  51.84300 40.34600 41.06600
C  54.92100 41.32800 41.07100
O  54.85900 40.08900 40.79400
C  56.41200 41.95700 41.07200
N  53.56900 46.71400 42.45100
C  54.67000 45.85300 42.52700
C  55.98800 46.66600 42.93200
C  55.41800 47.99400 43.23900
C  53.86800 47.89100 42.99100
C  56.79500 45.91900 44.05400
C  55.95500 49.15800 42.22300
C  56.37500 50.41200 42.93800
N  50.96300 47.77500 42.10500
C  51.63200 48.94900 42.40600
C  50.78300 50.05200 42.34600
C  49.67400 49.48000 41.65800
C  49.81600 48.12100 41.56200
C  50.92000 51.48900 42.76400
C  48.33500 49.84300 41.15300
O  47.77800 50.94400 41.23600
C  47.69200 48.54300 40.59300
C  46.31000 48.32100 41.01000
O  45.42400 48.52300 40.26100
O  46.20800 48.02700 42.36000
C  44.84200 47.99000 42.84600
H  49.61900 41.93000 41.02100
H  55.66300 44.12800 42.16300
H  53.29200 49.90000 43.19600
H  46.47200 45.51500 41.12000
H  47.34400 43.09600 40.15800
H  46.71900 43.97800 42.83600
H  48.15300 43.13300 42.87700
H  46.76100 42.32400 42.23800
H  47.36600 44.72700 38.31100
H  47.06600 46.38900 38.60300
H  44.83400 46.09200 38.19300
H  44.73500 45.13600 39.69000
H  50.88300 40.16200 41.54900
H  52.55900 39.63300 41.47400
H  51.74800 40.23600 39.98500
H  56.68100 42.27800 42.07900
H  56.40300 42.85900 40.45900
H  57.11400 41.28000 40.58500
H  56.68900 46.62300 42.09900
H  55.67500 48.27500 44.26000
H  56.56300 46.34700 45.02900
H  57.87800 46.02400 43.98900
H  56.58900 44.85500 44.16700
H  55.21900 49.46600 41.48000
H  56.70200 48.74700 41.54400
H  56.25600 50.38400 44.02100
H  55.76300 51.28200 42.69900
H  57.39800 50.62700 42.62900
H  49.99600 51.74400 43.28300
H  51.11700 52.06600 41.86000
H  51.82100 51.58100 43.37100
H  47.71100 48.65300 39.50800
H  44.16000 47.28500 42.37000
H  44.37300 48.96800 42.74700
H  44.85700 47.67100 43.88800

