158

Mg 48.22500 25.00100 28.17200
C  49.23300 27.13900 30.79900
C  47.54300 22.66000 30.69200
C  47.61100 22.74200 25.78000
C  49.58300 27.11300 25.80200
N  48.39900 24.90100 30.53800
C  48.77100 25.92300 31.36200
C  48.42500 25.59300 32.81700
C  48.02700 24.11400 32.71300
C  48.05800 23.86200 31.20900
C  48.93300 23.08200 33.40200
C  47.28300 26.58400 33.37400
C  46.56400 26.05200 34.63400
H  46.46900 26.91600 35.89500
N  47.50000 23.04900 28.20200
C  47.30900 22.25200 29.34700
C  46.82200 20.99300 28.89100
C  46.79600 20.98200 27.50600
C  47.36500 22.30400 27.07900
C  46.51800 19.86500 29.89100
C  46.31100 19.85400 26.55200
O  46.57700 19.90000 25.34900
C  45.68500 18.62900 27.14700
N  48.74100 24.79400 26.05600
C  48.13300 23.89700 25.25200
C  48.33000 24.23800 23.75100
C  48.66200 25.74700 23.87800
C  48.97900 25.90600 25.33800
C  49.43000 23.34900 23.12500
C  47.51800 26.69200 23.44600
C  47.78000 27.83200 22.48300
N  49.28500 26.71900 28.22600
C  49.86400 27.45400 27.18000
C  50.55200 28.63100 27.73000
C  50.17500 28.57700 29.21400
C  49.47600 27.43300 29.43100
C  51.30500 29.69800 27.06200
C  50.40700 29.35000 30.47700
O  51.02100 30.33000 30.73200
C  49.52200 28.47000 31.54400
C  50.30800 28.22300 32.76000
O  51.28300 27.52500 32.74900
O  49.87500 28.97500 33.80300
C  50.66000 28.96500 35.06900
H  47.21300 21.96400 31.46600
H  47.20600 21.99700 25.09100
H  49.91200 27.87400 25.09100
H  49.26800 25.68800 33.50100
H  46.98700 23.99400 33.01700
H  49.39700 23.55900 34.26500
H  49.66500 22.62600 32.73500
H  48.24300 22.32300 33.77000
H  46.52000 26.52700 32.59800
H  47.71500 27.58100 33.46300
H  47.10400 25.18500 35.01300
H  45.54700 25.71300 34.43800
H  45.44100 19.77100 30.03200
H  46.92900 20.01500 30.88900
H  46.84100 18.92200 29.44900
H  46.38100 18.07000 27.77300
H  45.30600 17.91700 26.41400
H  44.86300 19.13800 27.65000
H  47.43100 24.02900 23.17000
H  49.55600 26.03600 23.32400
H  50.28100 23.93400 22.77500
H  49.09600 22.85200 22.21400
H  49.77300 22.57300 23.80900
H  47.04100 27.08600 24.34300
H  46.70000 26.07400 23.07600
H  47.91000 28.75400 23.05100
H  46.91700 27.98900 21.83600
H  48.59800 27.62000 21.79500
H  51.34300 29.37300 26.02200
H  52.34200 29.76500 27.39200
H  50.75800 30.64000 27.06900
H  48.62100 29.06300 31.69700
H  51.71200 28.72100 34.92000
H  50.32000 28.24600 35.81500
H  50.43900 29.94600 35.48900
Mg 26.36800 49.00000 26.12200
C  24.58100 50.51700 28.66000
C  28.78900 48.11600 28.51900
C  28.36800 47.82100 23.64800
C  24.17200 50.29600 23.68600
N  26.69500 49.35200 28.34300
C  25.66700 49.77600 29.17800
C  26.05700 49.44700 30.67900
C  27.48700 48.94300 30.57400
C  27.66300 48.72000 29.09000
C  28.60700 49.90700 31.11900
C  24.96600 48.54200 31.33300
C  25.40100 47.80100 32.59000
H  24.60000 48.10500 33.85700
N  28.22300 47.98200 26.10600
C  29.04800 47.78600 27.17600
C  30.19400 47.06800 26.76000
C  30.19000 47.02700 25.35500
C  28.86200 47.58000 24.93600
C  31.19000 46.54100 27.76900
C  31.24800 46.50100 24.45300
O  31.15800 46.36000 23.22300
C  32.50400 45.98600 25.05600
N  26.26700 49.12000 24.03100
C  27.19800 48.44200 23.24400
C  26.95500 48.71200 21.80100
C  25.53000 49.38800 21.75400
C  25.26200 49.57000 23.18200
C  27.97900 49.56500 21.08900
C  24.46500 48.55100 20.96000
C  23.90600 47.23600 21.72100
N  24.69100 50.16300 26.13100
C  23.87400 50.61500 25.07200
C  22.71600 51.26700 25.66900
C  22.96800 51.28200 27.03600
C  24.19100 50.61500 27.25900
C  21.49600 51.71600 25.03300
C  22.45400 51.64700 28.34100
O  21.34900 52.08000 28.52100
C  23.41400 51.09400 29.41600
C  23.85800 52.18400 30.30600
O  24.82800 52.88500 30.17000
O  23.01600 52.33600 31.36900
C  23.36100 53.36600 32.36200
H  29.36100 47.72100 29.36100
H  28.89700 47.33200 22.82800
H  23.38400 50.65500 23.02200
H  26.05400 50.37300 31.25400
H  27.52600 48.06200 31.21500
H  29.50800 49.90500 30.50400
H  28.87500 49.47100 32.08100
H  28.18800 50.90500 31.25100
H  24.56400 47.78400 30.66000
H  24.07200 49.11800 31.57000
H  26.44600 47.95700 32.85900
H  25.35700 46.72400 32.43000
H  32.11700 47.10000 27.89500
H  31.47500 45.51000 27.56200
H  30.78400 46.41000 28.77100
H  33.17700 45.82500 24.21400
H  32.45200 45.02700 25.57000
H  32.88600 46.81900 25.64500
H  26.86700 47.73800 21.32100
H  25.41000 50.40700 21.38700
H  27.41400 50.15700 20.36900
H  28.64400 48.90500 20.53100
H  28.60100 50.16200 21.75600
H  24.95000 48.27400 20.02400
H  23.64400 49.24100 20.76700
H  24.24100 47.39400 22.74600
H  24.44900 46.39300 21.29400
H  22.81700 47.24700 21.66700
H  21.69300 52.48100 24.28200
H  20.80400 52.09900 25.78300
H  21.01500 50.86900 24.54300
H  22.81800 50.48800 30.09700
H  22.70000 54.20500 32.57900
H  24.37800 53.74000 32.24800
H  23.51600 52.94100 33.35300

