158

Mg 2.46300 -1.52500 43.85200
C  5.77700 -1.18500 42.68700
C  1.61200 1.20800 41.97000
C  -0.67600 -2.45200 44.21500
C  3.53100 -4.65400 45.25000
N  3.58500 -0.16900 42.45800
C  4.89300 -0.21500 42.12200
C  5.26600 0.94300 41.19700
C  4.06400 1.90200 41.39000
C  2.97500 0.97600 42.02400
C  4.25200 3.23000 42.22700
C  5.56300 0.52000 39.74300
C  6.61000 1.41200 39.01700
H  6.17200 2.05500 37.65800
N  0.66800 -0.66200 43.30900
C  0.56600 0.43900 42.47700
C  -0.87900 0.67200 42.28300
C  -1.58500 -0.28200 43.10800
C  -0.51000 -1.16500 43.61400
C  -1.40900 1.84300 41.44200
C  -3.05900 -0.38500 43.33600
O  -3.81000 0.38700 42.79700
C  -3.74800 -1.51000 44.13000
N  1.55600 -3.31700 44.55000
C  0.22400 -3.40100 44.62300
C  -0.18800 -4.77900 45.13500
C  1.15200 -5.42500 45.64300
C  2.18400 -4.42700 45.04100
C  -1.53600 -4.79400 45.98400
C  1.46400 -6.90500 45.22300
C  1.48100 -8.04000 46.24100
N  4.30000 -2.69600 44.05600
C  4.56600 -3.89900 44.68200
C  6.00700 -4.23700 44.65000
C  6.53300 -3.15200 43.84100
C  5.43800 -2.32800 43.49200
C  6.59000 -5.42700 45.25600
C  7.71700 -2.64400 43.21200
O  8.88700 -3.07700 43.23700
C  7.28500 -1.27100 42.57400
C  7.97400 -0.18100 43.25000
O  7.87000 0.08000 44.40300
O  8.77300 0.54000 42.41000
C  9.14500 1.83400 42.88900
H  1.26600 2.17100 41.58900
H  -1.67700 -2.86800 44.35000
H  3.82400 -5.67900 45.48800
H  6.10600 1.50800 41.60200
H  3.65200 2.29800 40.46200
H  5.24200 3.15200 42.67700
H  3.56300 3.40500 43.05300
H  4.21700 4.07800 41.54300
H  4.67600 0.56500 39.11100
H  6.08800 -0.43500 39.75800
H  7.55400 0.86800 39.05200
H  6.82000 2.28300 39.63700
H  -2.40400 2.06500 41.82800
H  -1.43600 1.52000 40.40100
H  -0.75200 2.70400 41.56200
H  -4.81600 -1.29600 44.18300
H  -3.36600 -1.59900 45.14700
H  -3.66800 -2.44400 43.57500
H  -0.37100 -5.09300 44.10700
H  1.23400 -5.32500 46.72500
H  -2.39200 -5.01800 45.34700
H  -1.64000 -3.79800 46.41400
H  -1.49100 -5.54900 46.76900
H  2.29900 -6.91300 44.52300
H  0.62200 -7.07500 44.55100
H  2.23100 -8.78200 45.96800
H  0.55100 -8.59600 46.11500
H  1.45600 -7.78900 47.30100
H  6.75800 -6.11900 44.43100
H  6.03800 -5.87300 46.08300
H  7.57400 -5.30100 45.70700
H  7.70600 -1.24300 41.56900
H  9.48600 1.75700 43.92100
H  8.27600 2.49100 42.92600
H  10.02200 2.21400 42.36400
Mg 8.95500 47.79700 27.38000
C  7.36000 47.48600 30.62000
C  11.87000 48.41200 29.08800
C  10.30900 48.68700 24.57200
C  5.66100 47.83100 25.98000
N  9.59500 47.73700 29.65200
C  8.77700 47.54200 30.76800
C  9.57200 47.74600 32.04400
C  10.98000 48.15500 31.57900
C  10.87000 48.12600 30.05400
C  11.50000 49.51800 32.15200
C  9.47900 46.45000 32.95000
C  9.58500 46.76500 34.41900
H  10.23300 45.77200 35.36900
N  10.81300 48.15600 26.85000
C  11.87500 48.39100 27.64100
C  13.04300 48.70700 26.81900
C  12.66700 48.74000 25.46500
C  11.21800 48.52100 25.55800
C  14.28400 49.10800 27.47900
C  13.48200 49.02400 24.21600
O  12.91600 49.21500 23.15200
C  15.02800 49.20000 24.32400
N  8.07200 48.27900 25.54100
C  8.92000 48.52800 24.53200
C  8.21000 48.51600 23.14900
C  6.78600 48.25400 23.58500
C  6.80300 48.06700 25.12800
C  8.40600 49.69500 22.22300
C  6.14100 47.05000 22.88000
C  5.96600 46.99200 21.35000
N  6.95300 47.78400 28.05200
C  5.72500 47.86900 27.34600
C  4.60300 47.71800 28.27900
C  5.24000 47.57200 29.53400
C  6.65700 47.60900 29.38900
C  3.10500 47.67100 27.95100
C  4.98100 47.45100 30.86200
O  3.92800 47.53500 31.46400
C  6.28300 47.25700 31.61200
C  6.24600 45.86500 31.99400
O  6.49200 44.86100 31.31600
O  5.80000 45.84200 33.32500
C  5.66700 44.50900 33.98200
H  12.75300 48.71100 29.65600
H  10.60300 49.14500 23.62500
H  4.67200 47.67900 25.54300
H  9.02100 48.45400 32.66300
H  11.74600 47.44400 31.89000
H  10.85700 50.00400 32.88700
H  11.59300 50.22600 31.32900
H  12.42700 49.20200 32.62900
H  10.31200 45.77500 32.75500
H  8.57000 45.87600 32.77000
H  8.59600 46.91200 34.85200
H  10.11900 47.71600 34.40500
H  15.04400 48.36800 27.22800
H  14.33200 48.89900 28.54800
H  14.58600 50.13600 27.27700
H  15.35200 49.56400 23.34900
H  15.56200 48.25000 24.36000
H  15.35700 49.91900 25.07400
H  8.56800 47.69300 22.53000
H  6.23700 49.15300 23.30700
H  8.50800 50.59200 22.83400
H  7.61000 49.78100 21.48400
H  9.33300 49.48900 21.68900
H  5.12600 46.97700 23.27000
H  6.63200 46.13800 23.21900
H  6.03800 48.00600 20.95700
H  5.00000 46.60400 21.02400
H  6.60800 46.25900 20.86200
H  2.94200 47.57900 26.87700
H  2.55200 48.55300 28.27400
H  2.57600 46.84100 28.42000
H  6.30700 47.97400 32.43300
H  6.57900 43.98200 33.70200
H  4.83300 43.97300 33.52900
H  5.64300 44.51000 35.07100

