158

Mg 10.27600 47.06000 25.82500
C  8.21100 47.15200 28.65200
C  12.68800 48.62100 27.76100
C  11.97300 47.60500 22.97200
C  7.46200 46.03400 23.89800
N  10.34200 47.90800 27.95300
C  9.45000 47.76200 28.95800
C  9.98700 48.32600 30.27500
C  11.34100 48.98800 29.84000
C  11.46300 48.46600 28.43300
C  11.25200 50.57100 29.83400
C  10.02100 47.32900 31.43400
C  10.67600 47.87500 32.76000
H  9.85800 47.87100 34.03500
N  12.19200 47.80900 25.47200
C  13.05200 48.29900 26.39500
C  14.35000 48.55300 25.70200
C  14.17100 48.20100 24.31000
C  12.73000 47.83100 24.18100
C  15.63100 49.16900 26.48600
C  15.11200 48.36000 23.16600
O  14.91900 47.89200 22.03600
C  16.47900 48.92200 23.42200
N  9.71000 46.92300 23.67300
C  10.69500 47.06400 22.75400
C  10.04200 46.79700 21.34200
C  8.78000 46.01300 21.69400
C  8.63700 46.22000 23.21800
C  9.90500 48.25000 20.67400
C  8.63700 44.42900 21.22800
C  8.35500 43.46000 22.35900
N  8.24200 46.71100 26.15500
C  7.13700 46.31500 25.32800
C  5.95200 46.26800 26.07000
C  6.39200 46.56300 27.38700
C  7.75500 46.75200 27.39200
C  4.53200 45.96100 25.62800
C  5.88300 46.74300 28.73600
O  4.72400 46.52500 29.13500
C  7.12900 47.02300 29.59900
C  7.38100 45.85600 30.50100
O  7.94400 44.81300 30.16100
O  6.70900 46.13800 31.69900
C  6.85900 45.14500 32.73500
H  13.48900 49.17300 28.25700
H  12.57100 47.52100 22.06200
H  6.63900 45.45300 23.47600
H  9.25700 48.98800 30.74200
H  12.21200 48.61000 30.37500
H  10.42200 50.86900 30.47400
H  11.04500 50.99300 28.85100
H  12.12900 51.04100 30.28000
H  10.55400 46.44100 31.09400
H  9.10700 46.96500 31.90400
H  10.98400 48.91200 32.63200
H  11.65500 47.46900 33.01100
H  16.15400 49.97800 25.97500
H  16.35100 48.43800 26.85300
H  15.30700 49.56800 27.44700
H  17.02700 48.51900 24.27400
H  16.42500 50.00700 23.34100
H  16.99400 48.68000 22.49300
H  10.77400 46.24100 20.75700
H  7.96300 46.50000 21.16100
H  10.39800 48.15000 19.70700
H  10.39100 49.05800 21.22100
H  8.85900 48.53300 20.56100
H  9.58500 44.11700 20.79100
H  7.84800 44.32600 20.48300
H  9.07900 42.64500 22.37000
H  7.35700 43.08300 22.13600
H  8.39400 43.81500 23.38900
H  4.26000 45.03700 26.13900
H  4.51100 45.75800 24.55700
H  3.77100 46.72800 25.76900
H  7.00800 47.84700 30.30200
H  6.59400 44.10300 32.56000
H  6.17000 45.52400 33.49000
H  7.89300 45.21800 33.07300
Mg -0.82200 33.35500 27.35300
C  -2.93600 31.99200 29.75700
C  0.66300 35.44800 29.69800
C  0.70400 34.98200 24.86600
C  -2.73800 31.57600 24.94200
N  -1.07800 33.66200 29.44600
C  -1.90600 32.87700 30.25700
C  -1.73300 33.22200 31.75500
C  -0.62000 34.30300 31.67800
C  -0.33400 34.51200 30.15700
C  -1.05200 35.61900 32.36900
C  -1.52500 32.02000 32.64200
C  -0.66100 32.13000 33.88600
H  -1.18200 31.50600 35.16500
N  0.45600 35.01100 27.29500
C  1.02100 35.65000 28.38900
C  2.01600 36.61000 27.96100
C  1.98300 36.57500 26.48500
C  1.00100 35.50800 26.16000
C  2.84400 37.42800 28.98900
C  2.76700 37.39400 25.44500
O  2.66800 37.20600 24.25400
C  3.64600 38.39100 25.97500
N  -0.97100 33.29400 25.20000
C  -0.12300 33.89900 24.44900
C  -0.21900 33.45500 22.99600
C  -1.10900 32.20900 23.01400
C  -1.66000 32.34400 24.48900
C  -0.78300 34.50700 21.99100
C  -0.41600 30.88900 22.68300
C  -0.89000 30.00600 21.55200
N  -2.45300 31.93100 27.29800
C  -3.12100 31.38800 26.28600
C  -4.21000 30.51900 26.72300
C  -4.20300 30.75000 28.15600
C  -3.10400 31.59100 28.42200
C  -5.09500 29.57000 25.87700
C  -4.88800 30.37300 29.41300
O  -5.92800 29.75800 29.62900
C  -3.99800 31.11200 30.53000
C  -4.84200 32.07100 31.25300
O  -5.02600 33.22400 30.95900
O  -5.42400 31.36100 32.28300
C  -6.40400 32.11400 33.10100
H  1.19900 35.93000 30.51800
H  1.24200 35.41600 24.02100
H  -3.27900 30.91800 24.26000
H  -2.66600 33.73000 32.00300
H  0.29900 33.85300 32.05200
H  -0.89100 35.60000 33.44700
H  -2.10700 35.76600 32.13600
H  -0.39100 36.34300 31.89300
H  -1.13900 31.12700 32.15200
H  -2.50200 31.70100 33.00500
H  -0.59000 33.19600 34.10200
H  0.34600 31.77900 33.66200
H  2.19500 37.83300 29.76600
H  3.34800 38.29300 28.55700
H  3.50700 36.74600 29.52100
H  4.48400 37.91200 26.48200
H  3.08600 38.99500 26.68800
H  4.15300 38.97800 25.20800
H  0.82500 33.19300 22.82500
H  -2.01400 32.34200 22.42200
H  0.04900 34.81300 21.35600
H  -1.02400 35.44900 22.48300
H  -1.54800 34.19100 21.28200
H  -0.61200 30.26900 23.55900
H  0.64600 31.07400 22.52200
H  -1.90000 30.32800 21.30100
H  -1.05600 28.95400 21.78300
H  -0.32200 30.18400 20.63800
H  -4.61100 29.14800 24.99600
H  -5.93900 30.12900 25.47400
H  -5.61400 28.90100 26.56300
H  -3.44300 30.55100 31.28200
H  -5.87700 32.88900 33.65800
H  -6.77500 31.41500 33.85000
H  -7.24000 32.47500 32.50200

