158

Mg 2.71600 -0.07700 43.66600
C  6.03700 0.39700 42.75000
C  1.99300 2.92900 42.13700
C  -0.57600 -0.81000 43.72400
C  3.51900 -3.17900 44.88700
N  3.93400 1.46700 42.58000
C  5.24000 1.48200 42.27700
C  5.62300 2.64900 41.50200
C  4.40600 3.58000 41.67100
C  3.37500 2.61300 42.18800
C  4.53400 4.85100 42.56700
C  6.11100 2.39500 39.97000
C  7.28400 3.25200 39.45300
H  6.98400 3.95200 38.16200
N  0.93100 0.94600 43.00300
C  0.88800 2.17700 42.41300
C  -0.45100 2.66700 42.29800
C  -1.24500 1.54300 42.74200
C  -0.34400 0.50000 43.20700
C  -0.89900 3.87900 41.65400
C  -2.79200 1.39800 42.65900
O  -3.49400 2.20500 42.15600
C  -3.60900 0.27000 43.44800
N  1.65700 -1.71500 44.07800
C  0.27900 -1.86900 44.05400
C  -0.22100 -3.33800 44.22500
C  1.11400 -3.99800 44.70800
C  2.18900 -2.85800 44.57200
C  -1.51400 -3.58800 45.12600
C  1.55700 -5.25300 43.83300
C  1.73800 -6.59300 44.55700
N  4.43000 -1.15100 43.95100
C  4.60700 -2.43400 44.44100
C  6.04300 -2.72400 44.57600
C  6.58400 -1.69100 43.77600
C  5.55200 -0.70700 43.50200
C  6.66600 -4.05000 45.18100
C  7.82600 -1.29200 43.24000
O  8.93200 -1.78700 43.30500
C  7.51700 0.07700 42.50100
C  8.42300 1.20800 43.06300
O  8.51700 1.57500 44.20400
O  9.22300 1.63900 42.00400
C  10.05600 2.83800 42.17000
H  1.80200 3.89600 41.66800
H  -1.58200 -1.23600 43.72600
H  3.77700 -4.05600 45.48400
H  6.45200 3.02900 42.09800
H  4.24600 3.92300 40.64900
H  5.55900 4.79100 42.93300
H  3.84200 4.77900 43.40600
H  4.35100 5.77700 42.02100
H  5.23400 2.60800 39.35800
H  6.34900 1.35500 39.74700
H  8.14200 2.58400 39.38000
H  7.47400 4.02500 40.19800
H  -1.87200 3.78500 41.17300
H  -0.26600 4.26300 40.85400
H  -0.91900 4.66000 42.41400
H  -4.66500 0.50800 43.57700
H  -3.15400 0.12200 44.42700
H  -3.53700 -0.68700 42.93200
H  -0.48700 -3.76600 43.25900
H  1.09900 -4.30800 45.75300
H  -1.17800 -4.04100 46.05900
H  -2.09700 -4.32900 44.57900
H  -2.04900 -2.65800 45.31700
H  2.44600 -5.01700 43.24800
H  0.85000 -5.46100 43.03000
H  1.03800 -7.31700 44.14000
H  1.44100 -6.50500 45.60200
H  2.79300 -6.84300 44.44800
H  6.32200 -4.27500 46.19000
H  7.75300 -4.00400 45.24700
H  6.54500 -4.89300 44.50000
H  7.52200 -0.05100 41.41800
H  10.08400 3.40600 41.24000
H  11.07000 2.53600 42.43300
H  9.72200 3.41600 43.03200
Mg 47.31500 44.69300 42.72900
C  43.85600 44.15500 42.69500
C  47.74600 41.20300 42.31600
C  50.62300 45.14100 42.88000
C  46.79900 48.02700 42.56500
N  45.97000 42.94000 42.30000
C  44.54700 42.93400 42.39000
C  43.98300 41.52200 42.34200
C  45.29400 40.63300 42.07200
C  46.43000 41.62400 42.28600
C  45.40200 39.31000 42.92200
C  42.92700 41.32300 41.17600
C  43.22800 42.03200 39.76500
H  43.21300 41.16600 38.50000
N  49.00800 43.38000 42.63500
C  48.92400 42.04500 42.38400
C  50.28200 41.47400 42.23800
C  51.18700 42.58100 42.36400
C  50.28900 43.77000 42.61900
C  50.55600 39.98300 42.03700
C  52.64600 42.52100 42.32200
O  53.24200 41.48800 42.04700
C  53.53300 43.66500 42.64400
N  48.58200 46.29100 42.33700
C  49.89100 46.22900 42.64700
C  50.53900 47.60100 42.75400
C  49.29100 48.57200 42.55600
C  48.12000 47.58400 42.46000
C  51.51000 47.98600 43.99900
C  49.43100 49.59400 41.31300
C  49.46500 51.04900 41.63500
N  45.65400 45.91600 42.72400
C  45.57000 47.27900 42.70500
C  44.23700 47.71200 42.78600
C  43.45000 46.51200 42.85800
C  44.42900 45.44300 42.82900
C  43.79900 49.13800 42.81300
C  42.15000 45.89400 42.99300
O  41.04700 46.29000 43.11000
C  42.44100 44.29600 42.87200
C  41.95300 43.58800 44.14700
O  42.47600 43.65800 45.21600
O  40.80200 42.81500 43.92400
C  40.43200 41.85200 45.01300
H  47.92400 40.16100 42.04600
H  51.70200 45.29900 42.92300
H  46.74400 49.11400 42.47600
H  43.65900 41.29300 43.35700
H  45.18100 40.19100 41.08200
H  44.60800 39.32200 43.66900
H  46.32500 39.17000 43.48400
H  45.36000 38.50800 42.18500
H  41.94500 41.69800 41.46200
H  42.94700 40.23300 41.17600
H  44.18200 42.52900 39.94400
H  42.50600 42.84300 39.67000
H  50.06800 39.50800 41.18500
H  50.34200 39.42800 42.95000
H  51.62700 39.79700 41.94900
H  53.36100 44.52300 41.99400
H  54.57500 43.38700 42.48200
H  53.48600 43.95900 43.69200
H  51.12000 47.68800 41.83600
H  49.14800 49.08300 43.50800
H  51.22100 47.43400 44.89300
H  51.27100 49.02800 44.21300
H  52.55100 47.86900 43.69900
H  48.61700 49.42100 40.60900
H  50.33300 49.41100 40.72900
H  49.47500 51.26300 42.70400
H  48.55700 51.56700 41.32700
H  50.30700 51.48400 41.09700
H  42.85400 49.17300 43.35500
H  43.57700 49.61500 41.85800
H  44.53300 49.79100 43.28600
H  41.93600 43.90400 41.99000
H  39.56800 41.32900 44.60300
H  40.09300 42.40000 45.89200
H  41.33500 41.30500 45.28400

