158

Mg 54.22800 24.57600 44.21100
C  51.39000 26.82600 43.66900
C  52.16700 21.94700 43.56400
C  56.99500 22.80500 43.83200
C  56.16100 27.52400 44.12900
N  52.03900 24.47400 43.61500
C  51.06400 25.49000 43.49900
C  49.74100 24.79100 43.19800
C  50.00500 23.27200 43.49200
C  51.50900 23.20400 43.58700
C  49.40600 22.64000 44.78500
C  49.20900 25.19700 41.75800
C  50.30500 25.08900 40.67000
H  49.74200 24.63800 39.27000
N  54.49900 22.58100 43.92300
C  53.55500 21.67900 43.73200
C  54.24200 20.30400 43.77300
C  55.60200 20.58300 43.89600
C  55.78200 22.02800 43.89200
C  53.53600 19.01000 43.58100
C  56.62300 19.47300 43.99400
O  56.25200 18.32300 43.93300
C  58.01800 19.73000 44.13900
N  56.33700 25.07900 44.13200
C  57.25200 24.19400 43.93700
C  58.70500 24.75100 43.94700
C  58.45800 26.28300 43.83300
C  56.88100 26.32400 44.01700
C  59.57900 24.38500 45.27800
C  58.88500 26.84900 42.43600
C  60.41700 27.00900 42.20900
N  53.86300 26.74800 44.08600
C  54.79700 27.75100 44.19300
C  54.16500 28.95900 44.40100
C  52.78700 28.63500 44.13900
C  52.66100 27.30700 44.00900
C  54.75800 30.32700 44.65600
C  51.45500 29.19500 44.08400
O  51.03800 30.26300 44.35900
C  50.52100 28.00100 43.59800
C  50.18300 28.50700 42.18200
O  50.87300 28.56300 41.15800
O  48.89900 28.92000 42.21900
C  48.36500 29.42600 40.95000
H  51.55100 21.04900 43.48500
H  57.91400 22.29700 43.53500
H  56.79400 28.39800 44.29700
H  49.04900 25.11600 43.97500
H  49.68700 22.69700 42.62200
H  50.23300 22.38400 45.44800
H  48.85600 21.76500 44.43800
H  48.70300 23.31300 45.27500
H  48.89500 26.23900 41.80700
H  48.32300 24.59600 41.55100
H  51.10000 24.48400 41.10600
H  50.74800 26.06600 40.47400
H  53.64300 18.39800 44.47600
H  54.03500 18.39000 42.83600
H  52.45600 19.15400 43.53700
H  58.57100 18.85000 44.46700
H  58.18800 20.47000 44.92200
H  58.29300 20.11200 43.15600
H  59.21900 24.37400 43.06400
H  59.02900 26.74500 44.63800
H  60.55500 24.06600 44.91000
H  59.06200 23.65100 45.89600
H  59.78800 25.19400 45.97800
H  58.44500 27.83300 42.27200
H  58.47100 26.23200 41.63900
H  60.84300 27.96300 41.89900
H  60.95600 26.22900 41.67200
H  60.82400 26.90100 43.21400
H  54.05600 30.79900 45.34300
H  54.63300 30.92700 43.75500
H  55.79500 30.24900 44.98400
H  49.68600 27.85300 44.28200
H  47.31200 29.70600 40.94000
H  48.35800 28.78400 40.06900
H  48.94600 30.32700 40.75600
Mg -12.15300 38.53500 41.59000
C  -9.62600 36.26000 40.94500
C  -10.41500 40.92100 39.82200
C  -14.81200 40.64000 41.84200
C  -14.22300 35.97000 42.74000
N  -10.42600 38.48600 40.13000
C  -9.47200 37.48000 40.19200
C  -8.19100 37.87900 39.53700
C  -8.47300 39.40900 39.13500
C  -9.83700 39.67400 39.75700
C  -7.25700 40.33700 39.50400
C  -7.72700 36.95100 38.35400
C  -6.27900 36.40500 38.43400
H  -5.50900 36.44400 37.09500
N  -12.56600 40.53800 40.87700
C  -11.65900 41.38400 40.24100
C  -12.33800 42.61100 39.88800
C  -13.58500 42.61600 40.52700
C  -13.71700 41.19000 41.09400
C  -11.63000 43.75000 39.06800
C  -14.58200 43.79700 40.56600
O  -14.26400 44.86200 40.04600
C  -15.95300 43.76600 41.07400
N  -14.36300 38.24800 41.99100
C  -15.16300 39.32200 42.18200
C  -16.53900 38.90100 42.73300
C  -16.38400 37.28900 42.89500
C  -14.94800 37.12200 42.50400
C  -16.95000 39.65400 44.04000
C  -17.36300 36.39400 42.02600
C  -18.61500 35.92200 42.76100
N  -12.07000 36.44600 41.76500
C  -12.93400 35.56300 42.41700
C  -12.17500 34.32600 42.61900
C  -10.88500 34.58600 42.16500
C  -10.90000 35.81700 41.55600
C  -12.60800 33.17400 43.43500
C  -9.47500 34.08300 42.03500
O  -9.08200 32.98000 42.36100
C  -8.69000 35.08100 41.17600
C  -7.40600 35.37700 41.90900
O  -6.35900 34.74200 41.68300
O  -7.49700 36.49800 42.66600
C  -6.21900 36.88700 43.29400
H  -9.72800 41.67300 39.42800
H  -15.60900 41.31800 42.15600
H  -14.89500 35.21900 43.16100
H  -7.45200 37.81700 40.33600
H  -8.53500 39.47600 38.04900
H  -6.64500 39.78000 40.21400
H  -7.51800 41.35100 39.80600
H  -6.61000 40.55600 38.65400
H  -7.84000 37.60600 37.49000
H  -8.39900 36.13400 38.09200
H  -6.17700 35.40500 38.85700
H  -5.75600 37.02700 39.15900
H  -12.32200 44.26100 38.39900
H  -11.07800 43.22800 38.28600
H  -10.84700 44.31300 39.57700
H  -16.48800 42.96300 40.56700
H  -16.49500 44.70600 40.97600
H  -16.01100 43.46900 42.12100
H  -17.22000 39.16500 41.92400
H  -16.43300 37.06700 43.96100
H  -17.41500 40.59900 43.75700
H  -16.07000 39.91800 44.62600
H  -17.60200 39.06700 44.68700
H  -16.77600 35.51500 41.75900
H  -17.81800 37.00400 41.24500
H  -18.48600 36.22700 43.79900
H  -18.74100 34.85100 42.59800
H  -19.46800 36.40900 42.29000
H  -12.84800 32.27200 42.87100
H  -13.39000 33.43700 44.14700
H  -11.75300 32.94700 44.07200
H  -8.49500 34.57500 40.23100
H  -6.10400 36.03900 43.97000
H  -6.27600 37.71200 44.00400
H  -5.43300 36.99100 42.54700

