158

Mg 35.58100 2.40700 30.14900
C  33.04900 3.14800 32.34100
C  37.86200 2.73700 32.65900
C  37.95100 1.83100 27.80300
C  33.22600 2.55600 27.45000
N  35.46600 2.93500 32.22800
C  34.32600 2.96200 32.94300
C  34.50700 2.93100 34.47700
C  36.06700 3.22500 34.49700
C  36.55700 2.94600 33.06500
C  36.39200 4.65600 34.87200
C  33.98400 1.66700 35.26500
C  33.60700 1.89200 36.79800
H  34.40700 2.93300 37.66400
N  37.59200 2.24900 30.29500
C  38.35100 2.45400 31.43300
C  39.77100 2.21300 31.06200
C  39.79200 1.80900 29.70900
C  38.40200 1.96100 29.22900
C  40.91400 2.19000 32.06900
C  40.94300 1.43700 28.74200
O  40.77400 0.90800 27.59400
C  42.38100 1.49200 29.18400
N  35.62400 2.39500 27.86700
C  36.76600 1.99800 27.23000
C  36.44900 1.69000 25.74700
C  34.96400 2.01700 25.65300
C  34.53800 2.42600 27.06300
C  37.35600 2.38300 24.74300
C  34.08500 0.88900 24.96500
C  33.58700 -0.27400 25.83600
N  33.50000 2.67900 29.91100
C  32.70100 2.73700 28.72600
C  31.31500 3.01600 29.15800
C  31.39800 3.25500 30.56100
C  32.73600 2.98800 30.94800
C  30.09400 3.23000 28.29700
C  30.73100 3.64800 31.79300
O  29.58100 4.06800 31.95200
C  31.74900 3.38400 33.01700
C  31.73500 4.62200 33.84700
O  32.35800 5.70900 33.69600
O  30.85100 4.40400 34.87200
C  31.06400 5.15900 36.13700
H  38.65900 2.93100 33.37900
H  38.67600 1.61300 27.01600
H  32.44400 2.48500 26.69100
H  33.98600 3.79800 34.88300
H  36.70500 2.61100 35.13300
H  37.16500 4.80900 35.62500
H  35.49600 5.17000 35.22100
H  36.61600 5.26000 33.99300
H  34.73000 0.87500 35.32500
H  33.14200 1.28300 34.68800
H  33.83300 0.94700 37.29300
H  32.53600 2.09500 36.79600
H  40.53400 2.17400 33.09100
H  41.57900 3.04100 31.92200
H  41.63100 1.37200 32.00500
H  42.97100 1.63300 28.27800
H  42.55800 0.52300 29.65100
H  42.55100 2.33800 29.85000
H  36.59300 0.61600 25.63600
H  34.87000 2.95700 25.11000
H  36.83500 2.94100 23.96400
H  37.98800 1.66300 24.22400
H  37.97500 3.03100 25.36300
H  34.67100 0.50100 24.13100
H  33.21000 1.32900 24.48500
H  34.05500 -1.15100 25.39000
H  32.49800 -0.31200 25.84600
H  33.91300 -0.14300 26.86800
H  29.17400 2.76800 28.65500
H  30.18000 2.72800 27.33400
H  30.01200 4.28900 28.05000
H  31.38300 2.59300 33.67200
H  30.82200 6.21900 36.06000
H  32.04400 4.92500 36.55400
H  30.38400 4.76000 36.89000
Mg -10.91000 18.18300 40.91000
C  -7.37200 17.45800 40.82200
C  -10.07500 21.47600 40.29100
C  -14.02200 18.74400 40.27500
C  -11.49300 14.67400 40.63800
N  -8.94500 19.31800 40.40500
C  -7.61100 18.79700 40.52500
C  -6.53100 19.94100 40.22400
C  -7.44100 21.22100 40.54400
C  -8.91900 20.66700 40.43400
C  -6.97500 21.88700 41.89000
C  -6.19400 19.86900 38.65900
C  -4.79900 19.32500 38.20200
H  -4.77600 18.06500 37.20100
N  -11.97900 19.88500 40.42800
C  -11.45900 21.11200 40.17900
C  -12.49400 22.03000 39.90900
C  -13.67300 21.28600 39.81100
C  -13.28300 19.91800 40.11700
C  -12.26900 23.54000 39.80000
C  -15.06000 21.87100 39.47800
O  -15.26300 23.10600 39.38000
C  -16.25800 21.01300 39.17800
N  -12.47500 16.90700 40.26300
C  -13.72300 17.40400 40.36900
C  -14.74900 16.30900 40.37500
C  -14.00700 14.94800 40.17500
C  -12.56700 15.50300 40.36800
C  -15.63100 16.22400 41.60400
C  -14.29400 14.04100 38.91700
C  -13.34500 14.12200 37.67600
N  -9.77500 16.44100 40.92700
C  -10.15000 15.11000 40.78200
C  -9.00700 14.21500 41.00800
C  -7.90100 15.06500 40.98100
C  -8.42200 16.43900 40.95500
C  -8.89200 12.73800 41.01400
C  -6.49900 15.14900 40.92300
O  -5.64600 14.29400 40.84700
C  -6.08900 16.68600 40.95100
C  -5.28600 16.94300 42.25600
O  -4.08500 17.29500 42.23400
O  -5.98000 16.56800 43.37000
C  -5.11000 16.64000 44.59100
H  -9.76300 22.50500 40.10100
H  -15.09200 18.87600 40.10200
H  -11.82000 13.63200 40.64800
H  -5.67800 19.90200 40.90100
H  -7.36500 22.00000 39.78500
H  -7.81500 21.85600 42.58400
H  -6.66400 22.91200 41.69000
H  -6.04800 21.45000 42.26200
H  -6.20900 20.84800 38.18000
H  -6.89400 19.25700 38.09100
H  -4.30500 19.06300 39.13700
H  -4.15000 20.12300 37.84100
H  -12.02000 23.79000 40.83100
H  -13.22900 24.02500 39.62300
H  -11.52100 23.83200 39.06200
H  -15.98200 20.23000 38.47200
H  -17.15800 21.58100 38.94200
H  -16.58500 20.47600 40.06900
H  -15.45700 16.58800 39.59400
H  -14.19700 14.25900 40.99900
H  -15.19100 16.90800 42.33000
H  -15.77900 15.20700 41.96600
H  -16.63500 16.59500 41.39500
H  -15.34100 14.26200 38.70900
H  -14.40900 12.99800 39.21400
H  -13.74700 14.65900 36.81600
H  -13.22800 13.09400 37.33300
H  -12.36500 14.50000 37.96700
H  -8.37400 12.48200 40.09000
H  -9.84500 12.21000 40.99500
H  -8.32200 12.39100 41.87600
H  -5.34500 17.01600 40.22600
H  -5.31900 15.68200 45.06800
H  -5.57000 17.44100 45.17000
H  -4.07400 16.94100 44.43900

