158

Mg 35.43200 3.30500 29.87900
C  32.95100 3.92200 32.30000
C  37.82300 3.51100 32.51300
C  37.87200 2.53100 27.65500
C  33.08100 3.54500 27.41600
N  35.36100 3.75700 32.14800
C  34.24400 3.92100 32.89100
C  34.54200 3.98300 34.43000
C  36.11200 4.09800 34.42800
C  36.49900 3.77400 32.93000
C  36.66400 5.35800 35.02800
C  34.09500 2.66200 35.16900
C  33.63300 2.70900 36.62300
H  34.31800 3.75800 37.53800
N  37.51100 3.01800 30.04100
C  38.32800 3.19800 31.20100
C  39.67000 2.78200 30.88800
C  39.66500 2.33900 29.48800
C  38.31400 2.67300 28.97700
C  40.76300 2.60400 31.94800
C  40.69600 1.51900 28.71700
O  40.53900 1.19100 27.53400
C  41.89300 0.94700 29.38100
N  35.47000 3.09600 27.79600
C  36.56700 2.70700 27.15800
C  36.18000 2.65800 25.66000
C  34.63100 2.85600 25.51500
C  34.36200 3.21900 26.99700
C  36.98300 3.49500 24.60100
C  33.85300 1.69300 24.97200
C  33.31400 1.74000 23.58600
N  33.45000 3.84500 29.78100
C  32.58600 3.78600 28.69100
C  31.19400 4.02000 29.16900
C  31.30100 4.08100 30.56700
C  32.66700 3.84600 30.90400
C  29.92800 4.22800 28.41400
C  30.56900 4.28300 31.83700
O  29.41100 4.51400 32.05200
C  31.64900 4.23700 32.97100
C  31.76500 5.57700 33.57400
O  32.01400 6.65400 33.01700
O  31.19400 5.52200 34.84400
C  31.12000 6.70800 35.71100
H  38.56600 3.45200 33.31000
H  38.49900 2.13500 26.85400
H  32.33900 3.51800 26.61500
H  33.97900 4.84000 34.79900
H  36.50200 3.23400 34.96700
H  37.46600 5.12700 35.72900
H  35.87100 5.98100 35.44200
H  37.21100 5.82200 34.20700
H  34.82800 1.85600 35.14000
H  33.24200 2.32300 34.58100
H  33.83700 1.69200 36.95700
H  32.54300 2.72700 36.64500
H  41.71000 2.81000 31.45100
H  40.72400 1.60400 32.38000
H  40.61000 3.39800 32.67900
H  42.69100 1.63400 29.66400
H  42.27800 0.19200 28.69500
H  41.50100 0.34700 30.20200
H  36.47400 1.67400 25.29600
H  34.43000 3.71200 24.87000
H  36.42600 3.92800 23.77000
H  37.75500 2.86800 24.15600
H  37.50000 4.26900 25.16700
H  33.04000 1.43800 25.65200
H  34.49600 0.81800 25.06300
H  33.92600 2.49000 23.08400
H  32.27000 2.05400 23.56600
H  33.53100 0.89100 22.93700
H  29.27000 3.42000 28.73400
H  30.07300 4.39000 27.34600
H  29.43500 5.12700 28.78300
H  31.39400 3.52500 33.75600
H  30.28900 7.35500 35.42800
H  32.07400 7.23400 35.67500
H  31.00500 6.33900 36.73000
Mg -9.52800 38.95400 41.18800
C  -7.51200 36.11400 40.56700
C  -7.23200 41.00800 39.81200
C  -11.67400 41.41100 41.54100
C  -12.08700 36.65600 42.10100
N  -7.72800 38.58900 40.17500
C  -6.96500 37.39700 40.15200
C  -5.57800 37.60700 39.59300
C  -5.44200 39.16100 39.67500
C  -6.88800 39.66500 39.94400
C  -4.38500 39.68600 40.67500
C  -5.40000 36.92200 38.25000
C  -6.65900 36.70500 37.37500
H  -6.40600 36.52100 35.84100
N  -9.38200 40.94500 40.82300
C  -8.41700 41.58200 40.16900
C  -8.84900 42.95000 39.91300
C  -9.96800 43.15200 40.70400
C  -10.39100 41.82500 41.04100
C  -7.95700 43.94700 39.06700
C  -10.70300 44.47600 40.89500
O  -10.32500 45.50800 40.40300
C  -11.85500 44.69000 41.88400
N  -11.58400 38.98700 41.58400
C  -12.19100 40.20200 41.90700
C  -13.62200 40.08100 42.17600
C  -13.70200 38.55900 42.44500
C  -12.33200 38.04500 41.97700
C  -14.15400 40.99100 43.28100
C  -14.93800 37.82700 41.76000
C  -16.39100 38.45600 41.86900
N  -9.72300 36.76500 41.35000
C  -10.81400 36.01000 41.85700
C  -10.45300 34.58200 41.89900
C  -9.14700 34.56300 41.34100
C  -8.75600 35.89100 41.01800
C  -11.21700 33.54000 42.48600
C  -7.94500 33.74100 41.07200
O  -7.70300 32.52900 41.13600
C  -6.82500 34.76800 40.53300
C  -5.58800 34.62800 41.27800
O  -5.19800 35.41200 42.15600
O  -4.86300 33.63100 40.70600
C  -3.53500 33.27500 41.18500
H  -6.49400 41.47700 39.15700
H  -12.47600 42.15100 41.57900
H  -12.84500 35.98200 42.50500
H  -4.88100 37.20500 40.32800
H  -5.23100 39.62900 38.71300
H  -4.50100 40.76500 40.77500
H  -3.44100 39.32600 40.26600
H  -4.44900 39.20200 41.65000
H  -4.97200 35.92800 38.38600
H  -4.61600 37.43600 37.69500
H  -7.39300 37.48800 37.56800
H  -7.20600 35.82000 37.70100
H  -7.91600 44.85800 39.66400
H  -8.48400 44.29200 38.17800
H  -6.96600 43.50300 38.97700
H  -11.79300 44.04000 42.75700
H  -12.76500 44.52500 41.30800
H  -11.83600 45.71200 42.26400
H  -14.14800 40.26400 41.23900
H  -13.63400 38.41200 43.52300
H  -13.47100 41.64400 43.82500
H  -14.51400 40.26800 44.01300
H  -15.00300 41.58500 42.94200
H  -15.06300 36.82000 42.16000
H  -14.61400 37.51600 40.76700
H  -16.74200 38.73700 40.87600
H  -16.44700 39.25700 42.60600
H  -16.97900 37.60700 42.22000
H  -12.16600 33.97000 42.80800
H  -10.75200 32.96800 43.28900
H  -11.24100 33.00800 41.53500
H  -6.67300 34.48000 39.49300
H  -2.94300 32.66500 40.50400
H  -3.69600 32.72100 42.11000
H  -2.91800 34.15200 41.38200

