158

Mg 0.66800 43.57300 25.59300
C  2.94700 43.05800 28.16100
C  -1.83900 42.66200 27.87600
C  -1.50000 43.56400 23.04600
C  3.29900 43.65400 23.34700
N  0.58600 43.00900 27.76500
C  1.58100 43.01500 28.67300
C  1.10600 42.82500 30.20400
C  -0.44200 42.61100 29.99100
C  -0.57600 42.65100 28.44500
C  -1.07200 41.36900 30.77400
C  1.51000 44.17400 30.98500
C  1.69100 44.04500 32.54200
H  1.25000 42.81100 33.29200
N  -1.35800 43.24700 25.50200
C  -2.21600 42.96900 26.54200
C  -3.54600 43.05500 26.01600
C  -3.49600 43.40300 24.71600
C  -2.05900 43.37600 24.34000
C  -4.84600 42.90200 26.95600
C  -4.64400 43.70500 23.75500
O  -4.44700 44.05200 22.55100
C  -6.06300 43.62000 24.23300
N  0.89500 43.83400 23.59000
C  -0.14600 43.69100 22.70400
C  0.32700 43.40700 21.29700
C  1.76000 43.78700 21.33000
C  2.02900 43.79300 22.82400
C  0.07700 41.98100 20.80400
C  1.95700 45.23000 20.70000
C  1.86500 46.54100 21.58200
N  2.78300 43.42400 25.64800
C  3.71800 43.59500 24.66500
C  5.05900 43.36700 25.22300
C  4.83500 43.18400 26.62100
C  3.39500 43.18800 26.84000
C  6.45700 43.51400 24.58400
C  5.44000 42.91800 27.93800
O  6.62500 42.88200 28.24900
C  4.26000 42.92000 28.96800
C  4.39000 41.74800 29.95100
O  4.44900 40.55600 29.79100
O  4.51300 42.30600 31.14600
C  5.14400 41.49700 32.18700
H  -2.62800 42.62900 28.63000
H  -2.20900 43.34600 22.24400
H  4.12000 43.88700 22.66600
H  1.52300 41.96100 30.72200
H  -1.04800 43.48200 30.24200
H  -1.85800 41.80900 31.38800
H  -0.34900 40.95700 31.47800
H  -1.59700 40.72300 30.07100
H  0.79400 44.98700 30.87000
H  2.33500 44.60700 30.41900
H  1.20200 44.95500 32.89000
H  2.72000 44.23700 32.84700
H  -5.27400 43.90000 27.05000
H  -4.52400 42.57500 27.94400
H  -5.53000 42.13100 26.60100
H  -6.27400 42.63200 24.64200
H  -6.84600 43.73000 23.48300
H  -6.33500 44.44800 24.88700
H  -0.35100 43.94800 20.63700
H  2.52800 43.14800 20.89500
H  0.84300 41.51300 20.18700
H  -0.88500 41.96100 20.29200
H  -0.07500 41.41000 21.72000
H  1.41400 45.22900 19.75500
H  2.98100 45.23300 20.32700
H  2.85500 46.71600 22.00500
H  1.11300 46.51600 22.37000
H  1.66600 47.39200 20.93000
H  6.42200 43.13400 23.56300
H  7.29600 43.03200 25.08400
H  6.71600 44.57300 24.57200
H  4.39700 43.81000 29.58200
H  5.76700 42.09900 32.84800
H  5.74400 40.67800 31.79200
H  4.36000 41.11300 32.83800
Mg -2.54600 34.56100 26.64500
C  -3.55200 32.36100 29.23100
C  -0.95000 36.51200 28.94400
C  -1.87600 36.77800 24.12300
C  -4.44300 32.68100 24.42000
N  -2.17400 34.25000 28.81400
C  -2.65600 33.31900 29.71900
C  -2.44500 33.77000 31.12800
C  -1.78500 35.18200 31.02200
C  -1.66200 35.34200 29.46900
C  -2.73200 36.38200 31.69700
C  -1.83600 32.78200 32.16600
C  -2.48800 32.86900 33.58000
H  -1.60300 32.52700 34.74500
N  -1.46000 36.30300 26.54500
C  -0.81800 36.91400 27.57600
C  -0.14300 38.09700 27.10700
C  -0.42200 38.17800 25.70900
C  -1.27300 37.04400 25.35600
C  0.81200 38.98500 27.89200
C  0.12100 39.21500 24.66200
O  -0.11500 39.13500 23.45600
C  0.90900 40.41200 25.09200
N  -3.24900 34.79000 24.51800
C  -2.61600 35.67700 23.73800
C  -3.04500 35.34600 22.30600
C  -3.72700 33.99800 22.32500
C  -3.90900 33.83900 23.80000
C  -4.07500 36.42200 21.82000
C  -2.97600 32.85400 21.51100
C  -1.80900 32.05200 22.16400
N  -3.77100 32.94700 26.76800
C  -4.43500 32.25400 25.80000
C  -5.19300 31.12100 26.38900
C  -4.84000 31.14600 27.69600
C  -3.95400 32.23400 27.91200
C  -5.98300 30.09300 25.70900
C  -4.97000 30.35700 28.90300
O  -5.54100 29.27200 29.07500
C  -4.41800 31.37300 30.04400
C  -5.54000 32.10400 30.73900
O  -6.12800 33.05400 30.23600
O  -5.81200 31.49900 31.93800
C  -6.63300 32.31900 32.91800
H  -0.41800 37.15200 29.65100
H  -1.66500 37.39000 23.24400
H  -5.03700 32.03100 23.77400
H  -3.45900 33.89000 31.51100
H  -0.80200 35.24900 31.48900
H  -3.71300 35.95600 31.90900
H  -2.75700 37.25900 31.05000
H  -2.22900 36.59900 32.63900
H  -0.76100 32.93700 32.25100
H  -1.89200 31.78800 31.72200
H  -3.07700 31.95200 33.56500
H  -3.13800 33.73300 33.71600
H  1.20000 38.44500 28.75600
H  0.28100 39.89300 28.18000
H  1.73200 39.16800 27.33700
H  1.18900 41.17000 24.36000
H  1.94800 40.10500 25.20400
H  0.33300 40.70200 25.97100
H  -2.15600 35.31600 21.67600
H  -4.79100 33.99600 22.08900
H  -4.34700 37.14100 22.59200
H  -5.04400 36.09700 21.43900
H  -3.67500 37.10000 21.06600
H  -2.62100 33.16000 20.52700
H  -3.67900 32.04000 21.33500
H  -0.99200 32.22400 21.46400
H  -1.90800 30.97900 22.33400
H  -1.56400 32.51500 23.12000
H  -5.80500 30.05700 24.63400
H  -6.98300 30.44500 25.96000
H  -5.85800 29.06400 26.04500
H  -3.84900 30.73300 30.71700
H  -5.97200 32.96900 33.49200
H  -7.05300 31.51100 33.51700
H  -7.41400 32.84700 32.37000

