158

Mg 25.93900 0.12000 29.56300
C  27.65000 0.06300 32.61200
C  23.04500 0.66500 31.15800
C  24.55000 0.29800 26.62900
C  29.09300 -0.56300 27.93300
N  25.48800 0.29100 31.64000
C  26.31000 0.39100 32.74100
C  25.48400 0.38900 34.04000
C  23.97600 0.22600 33.55800
C  24.13200 0.50100 32.02000
C  23.37300 -1.20200 33.81000
C  25.80500 1.52800 35.03500
C  25.94300 1.09400 36.53400
H  25.29000 2.00900 37.57900
N  24.04700 0.35900 28.99600
C  22.98200 0.59500 29.75800
C  21.78200 0.79900 28.97900
C  22.25700 0.75300 27.58300
C  23.70900 0.55100 27.68600
C  20.47200 1.08700 29.69700
C  21.46000 0.86600 26.26200
O  22.00500 0.70700 25.16700
C  19.90800 1.14200 26.27000
N  26.76600 -0.12600 27.57600
C  25.89200 0.02700 26.48900
C  26.54100 -0.19600 25.11600
C  28.06200 -0.26400 25.56600
C  27.98700 -0.33900 27.09300
C  26.22300 -1.50200 24.31400
C  28.89800 1.03300 25.19600
C  30.33200 0.70700 24.75900
N  28.01400 -0.21700 30.08000
C  29.13300 -0.46700 29.34200
C  30.25700 -0.57300 30.24200
C  29.76200 -0.40000 31.55400
C  28.34700 -0.20800 31.44000
C  31.70300 -0.75700 29.82100
C  30.08100 -0.30900 32.92700
O  31.14800 -0.28600 33.43800
C  28.76200 0.04600 33.67100
C  28.65300 -0.97900 34.69900
O  28.24000 -2.13700 34.53400
O  29.14600 -0.53900 35.92800
C  28.83800 -1.36700 37.05500
H  22.17400 0.97900 31.73700
H  24.24800 0.37200 25.58200
H  29.93000 -0.79300 27.27100
H  25.74600 -0.57900 34.46700
H  23.36300 0.88700 34.17000
H  22.83600 -1.59900 32.94900
H  22.70200 -1.21200 34.66900
H  24.16100 -1.88400 34.12900
H  25.08100 2.34100 35.08200
H  26.76400 1.91300 34.68600
H  26.96500 0.93300 36.87700
H  25.46800 0.12100 36.66000
H  19.77500 1.72100 29.15000
H  20.53700 1.40000 30.73900
H  20.05300 0.08100 29.66700
H  19.41300 0.30900 26.76900
H  19.46300 1.19400 25.27600
H  19.73600 2.06100 26.83100
H  26.37900 0.65200 24.45000
H  28.63300 -1.14600 25.27500
H  26.96800 -1.65100 23.53300
H  25.21400 -1.34600 23.93400
H  26.13100 -2.37900 24.95500
H  29.09300 1.68200 26.05000
H  28.48800 1.67400 24.41600
H  30.39600 -0.27400 24.29000
H  30.91500 0.82000 25.67300
H  30.68400 1.41600 24.01000
H  31.92900 -1.81800 29.93600
H  32.37400 -0.45600 30.62500
H  31.93500 -0.31500 28.85200
H  28.91000 1.05400 34.05800
H  27.78100 -1.21700 37.27400
H  29.42000 -1.10800 37.94000
H  29.04200 -2.38700 36.72800
Mg -5.28300 24.67800 25.84700
C  -3.71700 26.32900 28.48600
C  -6.72300 22.59300 28.28200
C  -7.02500 23.28800 23.48000
C  -3.50400 26.71500 23.62100
N  -5.23500 24.55700 28.12200
C  -4.60200 25.37600 28.97300
C  -5.12400 25.15600 30.43800
C  -5.83100 23.78100 30.29100
C  -5.93700 23.61200 28.77100
C  -5.01900 22.67900 31.04100
C  -6.05100 26.35600 30.86900
C  -6.02700 26.76200 32.32800
H  -5.61400 25.72500 33.40800
N  -6.72400 23.15500 25.89300
C  -7.19100 22.44500 26.93300
C  -8.25500 21.58500 26.45800
C  -8.29700 21.70600 25.07100
C  -7.36500 22.72600 24.75700
C  -9.10300 20.83100 27.47700
C  -9.22200 21.00800 24.03500
O  -9.31300 21.30000 22.82700
C  -10.18100 20.04000 24.60800
N  -5.20900 24.88500 23.78000
C  -6.10600 24.21100 23.00700
C  -5.87800 24.54700 21.50100
C  -4.80900 25.73700 21.57200
C  -4.51900 25.81300 23.03400
C  -5.18400 23.44100 20.55500
C  -5.25600 27.06900 21.03700
C  -4.37400 27.59300 19.92400
N  -3.88700 26.22100 25.98600
C  -3.27200 26.93200 24.99900
C  -2.45400 27.95500 25.64000
C  -2.52200 27.75700 27.00700
C  -3.41500 26.61800 27.12800
C  -1.67500 29.04600 25.04000
C  -2.06400 28.14900 28.37900
O  -1.33100 29.07000 28.69400
C  -2.76900 27.17900 29.38100
C  -1.81400 26.40300 30.19100
O  -1.00800 25.55000 29.80700
O  -1.99700 26.83900 31.43100
C  -1.30100 26.06600 32.45100
H  -7.05100 21.97300 29.11900
H  -7.64400 22.89200 22.67100
H  -2.84900 27.33600 23.00600
H  -4.26100 25.08900 31.10100
H  -6.83200 23.90300 30.70400
H  -5.08700 21.73800 30.49700
H  -5.53000 22.61300 32.00100
H  -3.99400 23.02300 31.17900
H  -7.07900 26.09200 30.62000
H  -5.78800 27.15300 30.17300
H  -6.99800 27.16100 32.62100
H  -5.30600 27.58000 32.33000
H  -10.15700 21.01400 27.26400
H  -8.95800 21.15200 28.50900
H  -8.94800 19.75400 27.41400
H  -9.71400 19.23400 25.17500
H  -10.74500 19.63800 23.76600
H  -10.84600 20.54900 25.30500
H  -6.81100 24.80800 21.00100
H  -3.82100 25.52700 21.16200
H  -5.88200 23.12200 19.78100
H  -4.85200 22.57200 21.12300
H  -4.28300 23.70800 20.00300
H  -5.49500 27.80500 21.80400
H  -6.15500 26.76700 20.49900
H  -4.91900 28.21100 19.21000
H  -3.98400 26.80500 19.28000
H  -3.52200 28.14700 20.32000
H  -1.40800 28.61400 24.07600
H  -0.85800 29.36300 25.68700
H  -2.26500 29.93300 24.80800
H  -3.37400 27.80600 30.03600
H  -0.73600 25.24700 32.00600
H  -2.15900 25.76500 33.05300
H  -0.70000 26.59300 33.19200

