158

Mg 2.74800 -2.44700 43.68600
C  6.04300 -1.48800 43.11000
C  1.58600 0.03800 41.51900
C  -0.24400 -3.95500 43.58900
C  4.04300 -5.35400 45.17700
N  3.73300 -0.94200 42.48000
C  5.15000 -0.68000 42.37700
C  5.44000 0.49100 41.40800
C  3.95100 0.97000 41.08300
C  2.99600 -0.06000 41.69400
C  3.60400 2.34500 41.62100
C  6.40700 -0.03400 40.23200
C  7.71600 0.78800 40.06600
H  8.30400 0.97200 38.66100
N  0.84600 -1.79000 42.96500
C  0.59200 -0.76600 42.08700
C  -0.80600 -0.67700 41.83200
C  -1.35700 -1.88000 42.34300
C  -0.30400 -2.60400 43.01800
C  -1.39000 0.59500 41.07700
C  -2.82700 -2.27500 42.16300
O  -3.57800 -1.47900 41.52000
C  -3.49700 -3.54600 42.54700
N  2.06500 -4.44600 44.17000
C  0.72500 -4.74800 44.16100
C  0.43200 -6.23600 44.58800
C  1.74600 -6.51800 45.34700
C  2.72000 -5.43100 44.81600
C  -0.88300 -6.37500 45.44200
C  2.34200 -7.95900 45.12600
C  2.94200 -8.79300 46.27700
N  4.59800 -3.22500 44.25400
C  4.97800 -4.40400 44.82100
C  6.41500 -4.40300 45.11700
C  6.80500 -3.18800 44.49900
C  5.69000 -2.62600 43.88900
C  7.18800 -5.45100 45.88000
C  7.96000 -2.40600 44.21100
O  9.10900 -2.62600 44.51900
C  7.48500 -1.23900 43.35500
C  7.72200 0.02700 44.13800
O  7.26000 0.25300 45.24500
O  8.46800 0.86800 43.32400
C  8.63400 2.17200 43.84400
H  1.18500 0.84100 40.89600
H  -1.21900 -4.44300 43.52900
H  4.37300 -6.19500 45.79000
H  6.00300 1.24600 41.95700
H  3.81400 1.08800 40.00800
H  4.53000 2.90300 41.76200
H  3.03200 2.24000 42.54300
H  3.01900 2.88500 40.87700
H  5.90900 0.18300 39.28700
H  6.63500 -1.09600 40.31800
H  8.41700 0.24300 40.69800
H  7.53300 1.79100 40.44900
H  -2.40900 0.76900 41.42300
H  -1.34200 0.45700 39.99600
H  -0.81400 1.51500 41.17300
H  -3.43100 -3.92500 43.56600
H  -3.02400 -4.28300 41.89900
H  -4.57700 -3.43000 42.45800
H  0.31300 -6.77200 43.64700
H  1.64400 -6.29800 46.41000
H  -1.21900 -5.34100 45.51200
H  -0.71900 -6.95900 46.34800
H  -1.72900 -6.82500 44.92300
H  3.04200 -7.91000 44.29200
H  1.48900 -8.56600 44.82500
H  3.04200 -8.17100 47.16600
H  3.98300 -8.96900 46.00600
H  2.31300 -9.64800 46.52200
H  8.20200 -5.05800 45.79600
H  7.02100 -6.39900 45.36900
H  6.87900 -5.47900 46.92500
H  7.99400 -1.28700 42.39200
H  8.66300 2.79300 42.94900
H  9.43900 2.21600 44.57800
H  7.87900 2.60700 44.49900
Mg -5.79200 25.26100 26.71800
C  -3.84200 26.60800 29.23500
C  -7.30000 23.15400 29.01800
C  -7.20000 23.59900 24.17200
C  -3.86300 27.20800 24.34600
N  -5.34900 24.73400 28.78600
C  -4.67600 25.56800 29.64700
C  -5.05300 25.25700 31.11900
C  -5.90300 23.95300 30.99200
C  -6.25100 23.93000 29.49000
C  -5.22200 22.62600 31.42900
C  -5.83600 26.39100 31.76600
C  -5.83200 26.55400 33.31600
H  -5.81800 25.32700 34.19500
N  -7.07900 23.63500 26.59800
C  -7.70500 22.95300 27.66600
C  -8.68500 21.97300 27.08800
C  -8.70700 22.23300 25.65600
C  -7.65700 23.21300 25.44300
C  -9.50400 21.06100 27.87800
C  -9.57200 21.50300 24.53100
O  -9.51300 21.81200 23.35600
C  -10.46100 20.36200 24.83600
N  -5.52500 25.43500 24.62300
C  -6.22900 24.62700 23.75500
C  -5.73500 24.76500 22.27800
C  -4.78900 25.93200 22.37600
C  -4.75200 26.25100 23.87000
C  -5.18400 23.48900 21.53800
C  -5.14000 27.22900 21.50700
C  -4.38500 27.29500 20.14100
N  -4.14800 26.73400 26.75000
C  -3.52900 27.46900 25.75300
C  -2.55800 28.34300 26.39100
C  -2.62100 28.05100 27.78900
C  -3.59900 27.07800 27.91200
C  -1.63100 29.37400 25.67600
C  -2.13000 28.24300 29.14500
O  -1.20100 28.96600 29.55300
C  -3.03100 27.44300 30.12000
C  -2.15600 26.60100 30.94800
O  -1.58500 25.54400 30.66600
O  -1.97200 27.18300 32.17000
C  -1.13700 26.42800 33.06100
H  -7.91000 22.52100 29.66600
H  -7.56400 22.94100 23.38000
H  -3.21000 27.74200 23.65200
H  -4.10500 25.16200 31.64900
H  -6.85800 24.06200 31.50800
H  -5.01600 22.08600 30.50500
H  -5.99700 22.06400 31.95100
H  -4.37400 22.77500 32.09700
H  -6.89500 26.24100 31.55500
H  -5.49700 27.26900 31.21500
H  -6.69500 27.18200 33.54000
H  -4.97300 27.18900 33.53500
H  -10.56500 21.03600 27.63100
H  -9.50600 21.19600 28.95900
H  -8.99200 20.09800 27.85100
H  -9.77800 19.63700 25.27900
H  -10.83300 20.00800 23.87500
H  -11.36000 20.61400 25.39800
H  -6.68100 24.99000 21.78600
H  -3.81300 25.53700 22.09600
H  -4.81800 22.86500 22.35400
H  -4.27300 23.70200 20.97800
H  -5.83000 23.09100 20.75600
H  -4.90500 28.14900 22.04100
H  -6.18800 27.28300 21.21000
H  -3.64800 26.50000 20.25800
H  -3.83900 28.23800 20.09500
H  -5.02600 27.08500 19.28500
H  -2.16900 29.83200 24.84600
H  -0.73500 28.85500 25.33500
H  -1.43900 30.23300 26.31800
H  -3.65900 28.13700 30.67800
H  -1.27300 26.92000 34.02400
H  -0.05700 26.53400 32.95200
H  -1.25900 25.34500 33.06500

