158

Mg 24.37000 -5.09300 46.11900
C  25.89200 -2.18300 44.63800
C  21.71700 -4.36800 44.12600
C  23.25300 -8.04600 46.67500
C  27.48800 -5.87200 47.51800
N  23.83300 -3.25500 44.70500
C  24.63500 -2.40300 44.11200
C  23.96700 -1.52300 43.03500
C  22.48300 -2.15300 43.08300
C  22.61400 -3.31300 44.09500
C  21.53000 -1.03700 43.55200
C  24.70700 -1.65600 41.67700
C  25.39800 -0.37100 41.09500
H  25.51900 -0.34800 39.56100
N  22.59500 -6.04800 45.61000
C  21.66600 -5.64700 44.73700
C  20.59100 -6.60600 44.65900
C  21.08500 -7.79700 45.27500
C  22.35100 -7.35200 45.90900
C  19.29600 -6.38200 43.80300
C  20.54400 -9.15800 45.22100
O  19.50300 -9.43000 44.68000
C  21.14300 -10.38400 45.78400
N  25.26800 -6.72900 46.96800
C  24.53900 -7.85400 47.16100
C  25.33300 -8.82200 47.95000
C  26.65600 -8.12500 48.33000
C  26.43600 -6.83700 47.61700
C  24.59200 -9.46100 49.12500
C  27.97100 -8.89300 47.94500
C  29.12000 -8.92300 49.02600
N  26.36500 -4.16200 46.28400
C  27.44900 -4.59600 46.87200
C  28.49800 -3.66200 46.78700
C  27.95800 -2.72900 45.82500
C  26.62700 -3.07900 45.53700
C  29.86800 -3.80100 47.30500
C  28.26800 -1.59300 45.11500
O  29.33500 -0.97100 45.19500
C  26.99600 -1.19000 44.21100
C  26.70200 0.27200 44.62500
O  25.83700 0.67100 45.40500
O  27.24300 1.10400 43.67200
C  26.67900 2.42000 43.51300
H  20.86700 -4.16000 43.47300
H  22.83700 -9.03200 46.89300
H  28.39400 -6.24100 48.00200
H  23.94700 -0.47000 43.31700
H  22.33400 -2.53900 42.07400
H  21.14700 -0.50600 42.68000
H  22.06500 -0.31400 44.16700
H  20.75300 -1.46400 44.18700
H  23.98800 -1.98600 40.92600
H  25.48100 -2.42200 41.72500
H  26.37700 -0.10600 41.49500
H  24.71200 0.41400 41.41400
H  18.42800 -6.87800 44.23700
H  19.34400 -6.69700 42.76100
H  18.86000 -5.38300 43.78800
H  20.52900 -11.28200 45.70400
H  21.32700 -10.17100 46.83700
H  22.09100 -10.60100 45.29300
H  25.55700 -9.59100 47.21100
H  26.76600 -7.80100 49.36500
H  23.73000 -8.86100 49.41500
H  25.28400 -9.46100 49.96700
H  24.28400 -10.47000 48.85100
H  28.50600 -8.50300 47.07900
H  27.67600 -9.94100 47.90300
H  30.09000 -8.73700 48.56400
H  29.14800 -9.84400 49.60700
H  29.10400 -8.10000 49.74100
H  30.22100 -2.77400 47.39800
H  30.35800 -4.32800 46.48600
H  29.88500 -4.46200 48.17100
H  27.23400 -1.25300 43.14900
H  27.52800 3.09200 43.38700
H  26.16500 2.95300 44.31300
H  26.00700 2.33500 42.65900
Mg 35.03800 2.59000 29.55400
C  33.16000 3.68700 32.40100
C  37.72100 2.69200 31.64500
C  36.90900 1.36800 27.06900
C  32.37700 3.23600 27.51000
N  35.29100 2.89400 31.83600
C  34.47700 3.29500 32.78400
C  35.05600 3.41100 34.20900
C  36.54900 3.33300 33.83800
C  36.54700 3.04800 32.33700
C  37.42500 4.53900 34.17300
C  34.57300 2.16700 35.05700
C  34.40000 2.29800 36.58100
H  35.30900 3.30900 37.29000
N  36.99000 1.92000 29.43700
C  37.91200 2.07800 30.39500
C  39.16900 1.53600 29.96800
C  38.98400 1.16000 28.60500
C  37.62000 1.46200 28.31800
C  40.42100 1.41300 30.81700
C  39.98400 0.53600 27.57800
O  39.65600 0.31900 26.43700
C  41.45900 0.27800 27.87200
N  34.77200 2.50500 27.57500
C  35.63500 1.79200 26.75800
C  34.99400 1.67300 25.33400
C  33.52500 1.84200 25.64800
C  33.52600 2.57900 26.93300
C  35.56700 2.81100 24.34800
C  32.77600 0.53400 25.72900
C  31.56200 0.22500 24.79700
N  33.22600 3.39500 29.79800
C  32.21100 3.57100 28.86500
C  31.02800 4.05400 29.54000
C  31.40000 4.19100 30.88400
C  32.73700 3.67900 31.01500
C  29.64400 4.35300 29.05900
C  30.78100 4.56700 32.11700
O  29.68900 4.97800 32.44800
C  31.96000 4.30400 33.13500
C  32.31600 5.55000 33.76600
O  33.23500 6.38000 33.51000
O  31.28000 5.85100 34.61500
C  31.27500 7.18600 35.19500
H  38.64600 2.60300 32.21900
H  37.47400 1.01500 26.20400
H  31.50600 3.40000 26.87300
H  34.83000 4.37400 34.66700
H  36.96000 2.45300 34.33300
H  38.38900 4.28900 34.61400
H  36.94900 5.07500 34.99300
H  37.64900 5.28300 33.40800
H  35.06300 1.21700 34.84400
H  33.55100 2.07200 34.68800
H  34.62700 1.32100 37.00600
H  33.34200 2.42400 36.81500
H  40.98000 0.53700 30.48600
H  40.25400 1.12300 31.85400
H  41.05000 2.30200 30.77500
H  41.93600 1.17200 28.27400
H  41.92600 0.16900 26.89300
H  41.53000 -0.57000 28.55400
H  35.20600 0.69600 24.90000
H  32.98900 2.44300 24.91300
H  36.48600 3.25600 24.73000
H  34.89700 3.61100 24.03400
H  35.87200 2.24500 23.46800
H  32.33000 0.47300 26.72200
H  33.43000 -0.33100 25.61900
H  31.63300 -0.81800 24.48700
H  31.58600 0.97900 24.01000
H  30.58800 0.26000 25.28500
H  29.19400 3.44600 28.65600
H  29.67600 5.08800 28.25500
H  29.02200 4.71300 29.87900
H  31.76100 3.61700 33.95700
H  32.26800 7.63200 35.24900
H  30.79300 7.08500 36.16700
H  30.60500 7.83200 34.62600

