158

Mg 35.31100 1.79700 29.95700
C  32.83000 2.84200 32.17700
C  37.54800 1.85700 32.64100
C  37.71800 1.19800 27.83400
C  32.90000 2.10300 27.35700
N  35.23700 2.48300 32.08400
C  34.10000 2.71600 32.80000
C  34.31500 2.85100 34.27100
C  35.89100 2.85800 34.47200
C  36.29300 2.40300 32.92400
C  36.54800 4.29300 34.78400
C  33.69500 1.63100 35.08500
C  33.60700 1.86700 36.60500
H  34.03500 3.22800 37.27500
N  37.32200 1.47500 30.22900
C  38.05100 1.48200 31.36500
C  39.44700 0.95700 31.18600
C  39.53300 0.78200 29.73300
C  38.16400 1.14300 29.17300
C  40.56400 0.89600 32.25900
C  40.56400 0.09700 28.89100
O  40.39000 -0.25300 27.72100
C  41.88300 -0.28700 29.54200
N  35.21500 1.72200 27.94300
C  36.42000 1.34900 27.30700
C  36.08200 1.18700 25.78500
C  34.56400 1.55400 25.65600
C  34.17000 1.85400 27.04400
C  36.98700 2.09100 24.84100
C  33.70700 0.46300 24.92300
C  33.35700 0.75300 23.43500
N  33.19800 2.30800 29.69500
C  32.36100 2.35300 28.63900
C  31.00800 2.63800 29.04900
C  31.10900 2.83900 30.44100
C  32.53600 2.65800 30.78800
C  29.73300 2.84900 28.30600
C  30.40700 3.11200 31.65800
O  29.19200 3.18500 31.82200
C  31.50800 3.18500 32.77300
C  31.42200 4.60200 33.33400
O  31.84900 5.62500 32.78600
O  30.88800 4.48100 34.60300
C  30.64900 5.75300 35.19600
H  38.27100 1.69600 33.44400
H  38.49600 0.86700 27.14200
H  32.16000 2.22100 26.56300
H  33.96800 3.83000 34.60100
H  36.22300 2.15300 35.23500
H  37.29200 4.41300 33.99700
H  37.17800 4.16400 35.66400
H  35.83500 5.10400 34.93300
H  34.42700 0.82300 35.07500
H  32.77200 1.37900 34.56300
H  34.17900 1.03900 37.02200
H  32.57100 1.81500 36.93800
H  40.58500 -0.12100 32.65100
H  40.47900 1.67000 33.02200
H  41.54100 1.16500 31.85800
H  41.76300 -0.91300 30.42600
H  42.42000 0.62600 29.79800
H  42.39500 -0.87000 28.77600
H  36.24400 0.12000 25.63000
H  34.65000 2.47500 25.08000
H  37.53500 1.39700 24.20400
H  37.62600 2.73600 25.44400
H  36.46400 2.76500 24.16200
H  32.82500 0.25300 25.52800
H  34.14400 -0.53500 24.93600
H  33.46300 -0.11900 22.78900
H  33.89000 1.63300 23.07300
H  32.28700 0.95400 23.46700
H  29.20100 1.93200 28.05400
H  30.03100 3.36700 27.39400
H  29.21900 3.66300 28.81700
H  31.18800 2.41300 33.47400
H  31.36600 6.51600 34.89400
H  30.76200 5.52300 36.25600
H  29.62200 6.10700 35.10600
Mg 53.71700 23.94700 44.36600
C  50.76200 25.96700 44.11900
C  51.73000 21.27200 43.60700
C  56.44600 22.19100 44.07100
C  55.55700 26.91100 45.29900
N  51.39200 23.71700 43.77900
C  50.43000 24.63200 43.82100
C  49.10000 23.94900 43.43400
C  49.46900 22.43800 43.72700
C  51.02000 22.45200 43.72100
C  48.81200 21.93600 45.01700
C  48.54900 24.26400 41.96200
C  49.58000 24.49000 40.87200
H  49.55500 23.50700 39.72700
N  54.03800 22.05200 43.66700
C  53.13100 21.04800 43.54100
C  53.79100 19.77100 43.25700
C  55.20100 20.09100 43.39600
C  55.28700 21.49400 43.70500
C  53.06100 18.47900 43.00300
C  56.24200 19.02100 43.14700
O  55.96200 17.83100 43.04900
C  57.64100 19.45200 42.91700
N  55.67200 24.52900 44.42600
C  56.62100 23.54900 44.39800
C  57.93700 24.05400 44.96000
C  57.67900 25.61400 45.15400
C  56.19600 25.69000 44.94700
C  58.54700 23.30500 46.14900
C  58.54600 26.50400 44.16500
C  57.85700 27.37100 43.05800
N  53.29300 25.97900 44.83100
C  54.15100 27.00800 45.20000
C  53.35600 28.17400 45.34200
C  52.05300 27.79900 44.87400
C  52.06300 26.49100 44.49500
C  53.72700 29.56200 45.89800
C  50.66500 28.33300 44.71300
O  50.17900 29.43300 44.88100
C  49.83000 27.13200 44.22700
C  49.23900 27.47500 42.90900
O  49.84500 27.44300 41.81900
O  47.96600 27.86300 42.98600
C  47.41300 28.36800 41.67400
H  51.17800 20.33000 43.62500
H  57.29800 21.52000 44.19900
H  56.19100 27.77000 45.52800
H  48.39100 24.42900 44.10800
H  48.98100 21.84000 42.95800
H  48.19300 21.07200 44.77500
H  48.17500 22.66800 45.51400
H  49.61300 21.57300 45.66100
H  47.91700 25.13000 42.15800
H  47.90700 23.40100 41.78400
H  50.60300 24.39100 41.23600
H  49.32300 25.46800 40.46700
H  53.66300 17.71900 43.50200
H  52.90900 18.18400 41.96500
H  52.04700 18.44000 43.40000
H  57.70600 20.36300 42.32300
H  58.22000 18.65700 42.44800
H  58.15800 19.56400 43.87000
H  58.64500 23.87100 44.15200
H  57.76900 25.82900 46.21900
H  57.73200 22.86300 46.72200
H  59.28300 23.92800 46.65900
H  58.98600 22.38400 45.76500
H  59.18400 25.85600 43.56400
H  59.27100 27.04600 44.77200
H  57.46200 28.31400 43.43500
H  56.96600 26.85400 42.70300
H  58.52000 27.40100 42.19300
H  54.55100 29.45800 46.60400
H  52.80400 29.85500 46.39900
H  53.92900 30.35500 45.17700
H  48.97300 26.89100 44.85600
H  46.44900 28.87400 41.73300
H  47.13500 27.54400 41.01800
H  48.15900 28.92800 41.11000

