158

Mg 47.46400 34.55700 27.54900
C  45.80200 32.75400 30.21800
C  47.43500 37.38800 29.58100
C  48.16400 36.47400 24.89000
C  46.70400 31.84800 25.49600
N  46.80400 34.92100 29.73800
C  46.19000 34.05100 30.62800
C  46.16400 34.74300 31.92700
C  46.34600 36.23700 31.63600
C  46.86800 36.21600 30.20100
C  45.08600 37.12400 31.77600
C  47.21500 34.12000 32.88700
C  46.70200 33.89400 34.34700
H  47.38500 34.82100 35.40400
N  47.95900 36.62800 27.32900
C  48.00300 37.61400 28.26500
C  48.48400 38.84300 27.73700
C  48.87600 38.52800 26.35200
C  48.21900 37.24500 26.12200
C  48.45600 40.06300 28.55600
C  49.58100 39.38400 25.29000
O  49.83900 38.98100 24.14600
C  49.98300 40.71400 25.72800
N  47.39300 34.18700 25.50500
C  47.73300 35.20400 24.59300
C  47.87000 34.59300 23.16600
C  47.54400 33.08400 23.36000
C  47.19400 33.00800 24.86800
C  47.08200 35.28900 22.02000
C  48.83200 32.16000 23.03600
C  48.47300 30.81000 22.41500
N  46.50000 32.71100 27.70800
C  46.30400 31.70600 26.81200
C  45.79200 30.54200 27.44000
C  45.49600 30.93800 28.74200
C  46.00000 32.24200 28.90000
C  45.51800 29.16500 26.82900
C  44.96700 30.46600 30.02800
O  44.52900 29.33900 30.25500
C  45.02100 31.58700 30.98800
C  45.64300 31.03800 32.27500
O  46.83400 30.77700 32.50000
O  44.58600 30.86900 33.18700
C  44.95000 30.24600 34.44700
H  47.49400 38.23900 30.26300
H  48.44600 36.99700 23.97400
H  46.57800 31.07300 24.73800
H  45.14000 34.48300 32.19100
H  47.20100 36.71800 32.11200
H  44.54500 37.22200 30.83500
H  45.38800 38.09800 32.16000
H  44.35400 36.57200 32.36500
H  47.95700 34.86500 33.17400
H  47.68100 33.24100 32.44100
H  46.92100 32.86700 34.63800
H  45.62700 34.07300 34.33900
H  49.05800 39.81700 29.43000
H  47.40800 40.20900 28.82100
H  48.89600 40.90800 28.02500
H  50.77600 40.68800 26.47500
H  49.07700 41.28100 25.94200
H  50.35100 41.28300 24.87500
H  48.86600 34.74800 22.75300
H  46.72200 32.79200 22.70600
H  46.73400 36.25800 22.37600
H  46.21200 34.75800 21.63400
H  47.69900 35.64400 21.19500
H  49.25500 32.03400 24.03300
H  49.50800 32.66300 22.34400
H  47.43600 30.50800 22.27200
H  48.89700 30.01200 23.02400
H  48.96500 30.73200 21.44500
H  46.44800 28.82500 26.37300
H  44.73700 29.41200 26.11100
H  44.99600 28.42200 27.43100
H  43.96300 31.78500 31.16100
H  44.10800 30.49400 35.09400
H  45.92600 30.59400 34.78500
H  44.98800 29.16500 34.30900
Mg 15.84400 51.77100 25.23400
C  17.36900 50.71000 28.16000
C  13.06100 52.74600 27.14200
C  14.35200 52.49900 22.47800
C  18.52700 50.33900 23.38800
N  15.28900 51.74100 27.44900
C  16.21700 51.46400 28.43800
C  15.65200 51.81400 29.84500
C  14.18500 52.34400 29.50500
C  14.09800 52.27500 27.94700
C  13.04100 51.67000 30.33800
C  16.66000 52.65100 30.63700
C  16.95300 52.22600 32.05300
H  15.93200 51.44300 32.81900
N  13.99500 52.54900 24.88500
C  12.99300 52.87100 25.79900
C  11.84900 53.49700 25.05000
C  12.27800 53.53800 23.63100
C  13.60900 52.84400 23.61400
C  10.69200 54.20700 25.74300
C  11.57400 54.03100 22.48800
O  11.93900 53.93700 21.30500
C  10.30100 54.79000 22.69200
N  16.41200 51.59100 23.18100
C  15.56300 51.96500 22.22800
C  16.09400 51.58800 20.82400
C  17.47600 50.87100 21.14000
C  17.46700 50.93400 22.65100
C  15.03000 50.73000 20.05500
C  18.66400 51.63800 20.43200
C  18.41200 52.16800 19.04800
N  17.57000 50.68700 25.63100
C  18.56900 50.19200 24.78000
C  19.52800 49.41500 25.65400
C  19.05900 49.63700 26.93900
C  17.84100 50.41500 26.87400
C  20.63100 48.60800 25.17900
C  19.51100 49.51200 28.36500
O  20.57100 49.10400 28.85500
C  18.41400 50.20400 29.23200
C  18.01000 49.13100 30.21900
O  17.02600 48.42500 30.10300
O  18.78600 49.22200 31.38400
C  18.46800 48.34000 32.54800
H  12.28300 53.22500 27.73900
H  13.97200 52.85300 21.51700
H  19.32400 49.83500 22.83600
H  15.49900 50.81800 30.26100
H  14.13200 53.37400 29.85800
H  12.23300 51.29800 29.70700
H  12.64700 52.35600 31.08700
H  13.36000 50.78900 30.89500
H  16.23100 53.64900 30.72600
H  17.55400 52.76500 30.02300
H  17.12700 53.17000 32.57000
H  17.83800 51.59600 31.95800
H  10.63700 53.93400 26.79700
H  9.71700 53.97200 25.31600
H  10.75700 55.29300 25.81200
H  9.93600 55.05600 21.70000
H  10.56300 55.68400 23.25700
H  9.53900 54.20800 23.21100
H  16.06700 52.51600 20.25400
H  17.47300 49.80400 20.91800
H  15.48100 49.97000 19.41700
H  14.28400 51.36500 19.57600
H  14.45000 50.12700 20.75300
H  19.54700 51.00000 20.47200
H  18.81000 52.52100 21.05400
H  19.30100 51.99500 18.44200
H  18.27500 53.22800 19.26100
H  17.56700 51.85400 18.43500
H  20.29600 48.13600 24.25600
H  20.82900 47.78800 25.86900
H  21.46200 49.30100 25.04600
H  18.90200 50.97600 29.82700
H  19.29000 47.64300 32.71200
H  17.57300 47.74800 32.36000
H  18.30200 49.00100 33.39800

