158

Mg 53.32600 23.96100 44.37300
C  51.07500 26.35700 43.29500
C  51.38500 21.54100 42.94800
C  55.92500 21.85000 44.46000
C  55.39600 26.52200 45.43600
N  51.50000 23.96500 43.21500
C  50.75900 25.05100 42.83100
C  49.55700 24.55200 41.90900
C  49.43800 23.11500 42.38000
C  50.88400 22.79400 42.85400
C  48.32000 22.78400 43.40900
C  49.71600 24.85900 40.37400
C  51.16300 25.26000 39.88600
H  51.37100 25.83100 38.50200
N  53.57500 21.99500 43.92800
C  52.65200 21.15400 43.40800
C  53.06800 19.77100 43.43100
C  54.37100 19.78500 43.93900
C  54.69200 21.25500 44.11600
C  52.29800 18.56300 42.83800
C  55.24500 18.54800 44.19800
O  54.76200 17.41900 43.91600
C  56.51500 18.66100 44.97400
N  55.38600 24.21500 44.64800
C  56.22500 23.17300 44.79500
C  57.63500 23.58800 45.05200
C  57.49800 25.04800 45.50500
C  55.96200 25.29900 45.18700
C  58.52100 22.69700 46.07100
C  58.52600 26.10700 44.98000
C  58.35700 26.73500 43.65400
N  53.18000 25.99000 44.60900
C  54.09400 26.93500 45.15000
C  53.47400 28.22100 45.15900
C  52.24600 28.03700 44.55600
C  52.15400 26.70000 44.15700
C  54.02400 29.47600 45.80200
C  51.01500 28.61900 44.13100
O  50.54400 29.77700 44.36700
C  50.19800 27.52400 43.22800
C  49.95300 28.02000 41.85400
O  50.83700 28.57700 41.16900
O  48.59600 27.88800 41.53600
C  48.20400 28.39600 40.20900
H  50.74500 20.77000 42.51300
H  56.80500 21.20300 44.47200
H  56.12200 27.22000 45.85900
H  48.80800 25.26400 42.25700
H  49.22700 22.46600 41.53000
H  47.30400 22.83400 43.01800
H  48.32600 23.64300 44.08000
H  48.68000 21.94500 44.00500
H  48.87900 25.49500 40.08500
H  49.57400 23.90300 39.87100
H  51.83500 24.42900 40.09900
H  51.51800 26.04300 40.55600
H  51.91300 18.13900 43.76600
H  52.94100 17.82900 42.35200
H  51.53100 18.89600 42.13900
H  56.50500 17.78000 45.61600
H  56.61800 19.52200 45.63400
H  57.39800 18.67900 44.33500
H  57.94700 23.53800 44.00900
H  57.29500 25.13500 46.57200
H  58.80200 23.39200 46.86300
H  59.48800 22.35900 45.69900
H  57.95400 21.85200 46.46300
H  59.54300 25.90600 45.31600
H  58.18700 26.87000 45.68200
H  59.33100 26.83900 43.17700
H  57.66900 27.58000 43.65200
H  57.80700 26.04500 43.01400
H  54.15100 30.13000 44.94000
H  55.02000 29.49100 46.24400
H  53.27400 29.80300 46.52200
H  49.25400 27.40100 43.75800
H  48.22600 29.48600 40.20600
H  47.17300 28.05000 40.14500
H  48.76100 27.93500 39.39300
Mg 29.61300 57.18600 40.20200
C  26.77900 55.24000 39.73900
C  31.59500 54.44100 39.62600
C  32.23500 59.26000 39.34400
C  27.56800 60.02200 40.43700
N  29.16900 55.06000 39.71400
C  27.95400 54.50600 39.52300
C  28.19100 52.94000 39.35500
C  29.69900 52.70800 39.71500
C  30.24900 54.14100 39.70300
C  30.10400 51.92000 40.97900
C  27.64900 52.35800 37.98900
C  28.20400 53.08700 36.77500
H  27.14900 53.70000 35.72600
N  31.60000 56.85800 39.42300
C  32.20800 55.64400 39.46900
C  33.56700 55.74100 38.99700
C  33.83400 57.21000 38.88000
C  32.50600 57.87500 39.18700
C  34.55600 54.61900 38.98200
C  35.15700 57.91400 38.45200
O  36.17500 57.26600 38.28400
C  35.20900 59.43300 38.21000
N  29.79800 59.32500 39.69700
C  30.97700 59.87600 39.65000
C  30.92900 61.40600 39.84400
C  29.41100 61.61500 40.12600
C  28.92400 60.24000 40.10700
C  31.82700 61.94000 41.03800
C  28.73600 62.56400 39.04400
C  28.47500 64.03600 39.34300
N  27.53500 57.58300 40.25500
C  26.82900 58.76700 40.48400
C  25.44200 58.45000 40.52700
C  25.35200 57.09900 40.15900
C  26.64100 56.59700 39.99300
C  24.25000 59.46000 40.80300
C  24.40500 56.04900 39.95800
O  23.13400 56.04900 40.00300
C  25.32000 54.77500 39.58900
C  24.90200 53.67000 40.40800
O  25.30900 53.48300 41.56100
O  24.08600 52.93600 39.61600
C  23.19800 51.97800 40.31200
H  32.18400 53.52200 39.59900
H  33.03400 59.99300 39.47400
H  27.07100 60.95900 40.69800
H  27.69000 52.37100 40.13800
H  30.23700 52.32300 38.84800
H  29.26100 51.40500 41.44100
H  30.41300 52.57800 41.79200
H  30.91600 51.27200 40.65100
H  26.55900 52.33600 38.01700
H  27.96100 51.32200 37.85200
H  28.86700 52.38300 36.27300
H  28.87200 53.90200 37.05500
H  35.55500 55.05300 38.94100
H  34.37000 54.00100 38.10400
H  34.40600 53.98800 39.85800
H  35.44300 60.05200 39.07700
H  34.27200 59.59800 37.67800
H  35.90600 59.38800 37.37300
H  31.30200 61.77700 38.89000
H  29.14700 61.92000 41.13900
H  32.59600 62.56000 40.57700
H  32.46500 61.25200 41.59200
H  31.19300 62.51400 41.71500
H  27.76900 62.09600 38.86100
H  29.32900 62.56100 38.12800
H  29.32800 64.53300 38.88200
H  28.39000 64.27700 40.40300
H  27.60800 64.25700 38.72200
H  23.63100 59.05700 41.60500
H  23.73600 59.59700 39.85200
H  24.62600 60.44700 41.07300
H  25.19000 54.62800 38.51700
H  23.43900 51.95400 41.37400
H  23.11200 50.98300 39.87300
H  22.17900 52.35600 40.22300

