158

Mg 41.22600 40.92400 26.39600
C  40.78300 43.42800 28.85100
C  42.26400 38.74900 28.86500
C  41.69200 38.73900 24.11600
C  40.44300 43.32000 23.98400
N  41.41500 41.07700 28.63000
C  41.26700 42.20600 29.38200
C  41.33500 41.79800 30.83100
C  42.18900 40.50100 30.82300
C  42.01000 40.02300 29.36300
C  43.77700 40.67100 31.06600
C  39.94000 41.63500 31.61600
C  39.56300 42.70400 32.69800
H  39.05000 42.25400 34.05900
N  41.80300 39.00900 26.50700
C  42.18500 38.26300 27.52900
C  42.52000 36.91300 27.12600
C  42.34200 36.85000 25.71400
C  41.98100 38.19200 25.35400
C  42.99000 35.77300 28.05800
C  42.56500 35.67700 24.73100
O  42.48900 35.82900 23.48200
C  42.92900 34.35300 25.23900
N  41.19000 41.05800 24.34900
C  41.37100 39.95100 23.61900
C  41.34400 40.21400 22.14800
C  40.79600 41.67600 22.06600
C  40.81200 42.08900 23.57100
C  42.68800 40.02600 21.42700
C  39.32800 41.74300 21.53700
C  38.33700 40.84900 22.33000
N  40.63800 42.96500 26.34100
C  40.32300 43.84800 25.28300
C  39.83400 45.06300 25.80200
C  39.93700 44.94900 27.19300
C  40.53800 43.72800 27.48400
C  39.24300 46.17400 24.97300
C  39.71900 45.60700 28.44700
O  39.27600 46.70300 28.66800
C  40.31800 44.66800 29.58500
C  41.38800 45.43900 30.31300
O  42.60500 45.29200 30.10500
O  40.85800 46.25900 31.28000
C  41.72000 46.79400 32.33000
H  42.52200 38.06300 29.67500
H  41.75000 38.02500 23.29200
H  40.12600 43.95800 23.15700
H  41.82300 42.55600 31.44200
H  41.82700 39.77500 31.55100
H  44.02800 41.72900 31.13800
H  44.35600 40.39600 30.18500
H  43.91800 40.12300 31.99800
H  39.95300 40.73200 32.22600
H  39.11800 41.58600 30.90200
H  38.68000 43.22100 32.32300
H  40.40200 43.37700 32.87100
H  42.33600 34.90700 27.95800
H  43.17100 36.05100 29.09600
H  43.95200 35.47700 27.63900
H  43.94700 34.50600 25.59800
H  42.89400 33.52100 24.53600
H  42.21500 34.06100 26.00900
H  40.61100 39.44400 21.91000
H  41.44000 42.30600 21.45200
H  43.44000 40.26100 22.18000
H  42.82700 40.75200 20.62700
H  42.77700 39.05300 20.94300
H  39.00700 41.54000 20.51600
H  39.15800 42.81700 21.61300
H  38.92900 40.21500 22.99100
H  37.87600 40.10000 21.68500
H  37.57500 41.44200 22.83600
H  38.71200 45.77400 24.11000
H  40.07300 46.86500 24.82900
H  38.46800 46.62800 25.59200
H  39.53200 44.39600 30.28900
H  42.08100 45.91400 32.86300
H  41.11200 47.52200 32.86700
H  42.53500 47.31200 31.82300
Mg -4.19300 25.91900 25.86500
C  -3.13200 27.25400 28.92900
C  -6.03800 23.61800 27.54700
C  -4.97400 24.32700 22.95800
C  -1.96700 28.06900 24.26900
N  -4.49800 25.44700 27.94300
C  -4.09500 26.21800 29.01900
C  -4.73900 25.71400 30.30400
C  -5.54800 24.44400 29.79200
C  -5.31400 24.47800 28.31000
C  -5.14300 23.13800 30.42400
C  -5.67500 26.74000 31.00100
C  -5.44600 26.71700 32.51100
H  -5.08300 25.47400 33.26200
N  -5.34100 24.32800 25.31400
C  -6.14300 23.58700 26.17200
C  -7.02100 22.64500 25.50400
C  -6.68400 22.73500 24.13000
C  -5.60100 23.80400 24.06100
C  -7.98700 21.81800 26.20500
C  -7.03900 21.89800 22.94800
O  -6.32600 21.91600 21.95100
C  -8.35000 21.11100 23.03000
N  -3.63700 26.21100 23.90400
C  -3.98500 25.40800 22.87200
C  -3.20500 25.84400 21.54800
C  -2.61300 27.18800 21.93000
C  -2.75200 27.16600 23.50800
C  -2.11600 24.76700 21.13400
C  -3.21200 28.36200 21.17000
C  -3.45400 29.70900 21.85000
N  -2.81800 27.44800 26.47700
C  -1.97500 28.17900 25.68200
C  -1.19200 29.06000 26.56100
C  -1.64000 28.74800 27.88200
C  -2.61900 27.73700 27.71300
C  -0.24500 30.19300 26.13900
C  -1.49700 29.05200 29.29500
O  -0.89000 29.90000 29.87100
C  -2.47600 28.06300 30.04500
C  -1.73300 27.21700 30.99600
O  -1.11500 26.19500 30.64500
O  -1.76400 27.71400 32.32100
C  -0.67700 27.19100 33.16200
H  -6.61800 22.86400 28.08400
H  -5.05300 23.82800 21.99000
H  -1.26200 28.73100 23.76200
H  -3.93200 25.48400 30.99900
H  -6.62500 24.49900 29.94900
H  -6.09400 22.60800 30.48500
H  -4.72600 23.31300 31.41600
H  -4.32200 22.72900 29.83500
H  -6.76300 26.68000 30.99500
H  -5.37500 27.75400 30.73600
H  -6.27700 27.25600 32.96600
H  -4.53900 27.27800 32.73500
H  -8.46900 22.29400 27.05900
H  -7.52200 20.86300 26.45000
H  -8.77800 21.78600 25.45500
H  -9.18000 21.78500 23.24300
H  -8.20100 20.29300 23.73500
H  -8.60900 20.72200 22.04500
H  -3.88000 25.99300 20.70500
H  -1.53800 27.13800 21.75400
H  -2.16600 23.92900 21.82800
H  -1.09000 25.13600 21.15600
H  -2.36500 24.40600 20.13600
H  -4.19900 28.07200 20.80900
H  -2.52400 28.57400 20.35200
H  -2.85600 30.46200 21.33700
H  -3.21200 29.78100 22.91100
H  -4.49900 30.00200 21.75200
H  -0.70800 31.10300 25.75700
H  0.34300 29.67600 25.38100
H  0.48000 30.44900 26.91200
H  -3.15900 28.72800 30.57400
H  -0.93400 26.24500 33.63900
H  -0.39800 27.95300 33.88900
H  0.25500 27.10200 32.60400

