158

Mg 6.60600 57.27100 41.57500
C  5.14100 54.05000 41.46600
C  9.51200 55.79600 40.49300
C  7.64700 60.39200 40.66700
C  3.46400 58.65500 42.26300
N  7.22100 55.15000 40.95100
C  6.46300 54.06300 41.04200
C  7.25700 52.84500 40.53300
C  8.71000 53.37200 40.69700
C  8.52100 54.86000 40.73800
C  9.48100 52.83400 41.93400
C  6.97400 52.61500 39.01200
C  7.02000 51.09200 38.55100
H  6.08500 50.61500 37.50000
N  8.35200 57.97800 40.71700
C  9.50400 57.21200 40.42600
C  10.49500 58.06500 39.93400
C  9.94600 59.41200 39.86100
C  8.54900 59.28000 40.35000
C  11.89800 57.62800 39.64400
C  10.69000 60.61300 39.45800
O  11.86000 60.50400 39.16100
C  10.06900 61.96500 39.23300
N  5.79900 59.31100 41.57500
C  6.39400 60.40800 41.17500
C  5.58300 61.65300 41.29800
C  4.20900 61.06700 41.77600
C  4.45300 59.56700 41.82700
C  6.27800 62.66000 42.25900
C  2.91400 61.50000 41.05600
C  1.71100 61.72600 41.86400
N  4.63900 56.49500 41.95700
C  3.51700 57.21500 42.20600
C  2.46400 56.21100 42.39600
C  3.08600 54.94300 42.10700
C  4.43100 55.21400 41.79900
C  0.95600 56.41300 42.66100
C  2.89800 53.54000 42.17900
O  1.93200 52.91000 42.53900
C  4.21800 52.86100 41.70100
C  3.95800 52.07800 40.55100
O  3.62100 52.42000 39.43600
O  4.04600 50.78200 40.92300
C  3.29300 49.79600 40.14200
H  10.47700 55.30600 40.35000
H  7.97200 61.36100 40.28300
H  2.48300 59.07600 42.49200
H  7.05900 51.94700 41.11700
H  9.40300 53.20700 39.87200
H  10.42200 52.50200 41.49600
H  8.92300 52.04300 42.43500
H  9.59400 53.69900 42.58700
H  7.82900 53.07100 38.51400
H  6.06200 53.11600 38.68600
H  6.97000 50.42500 39.41100
H  8.03800 50.89200 38.21700
H  12.69300 58.20400 40.11800
H  12.06800 57.74900 38.57400
H  12.13400 56.60100 39.92000
H  9.76500 62.43600 40.16800
H  9.16900 61.87800 38.62500
H  10.71700 62.66400 38.70400
H  5.49700 62.06900 40.29400
H  4.09100 61.31200 42.83200
H  5.48600 63.13600 42.83700
H  6.71300 63.42800 41.61800
H  6.87300 62.13400 43.00500
H  2.68100 60.70000 40.35400
H  3.05600 62.38900 40.44200
H  1.85200 61.42800 42.90300
H  0.92200 61.09100 41.46000
H  1.32900 62.74100 41.75300
H  0.60200 57.18300 41.97600
H  0.88100 56.78600 43.68200
H  0.45000 55.45500 42.53300
H  4.69900 52.27900 42.48700
H  3.82100 48.86600 40.35300
H  3.12100 50.12400 39.11700
H  2.31500 49.65900 40.60400
Mg -9.14400 18.72700 43.00900
C  -5.58300 18.04400 43.22000
C  -8.35600 21.85400 42.10700
C  -12.39100 19.11000 42.15900
C  -9.69800 15.22400 43.29100
N  -7.16400 19.77500 42.89100
C  -5.83200 19.39500 42.96500
C  -4.79900 20.45000 42.60300
C  -5.72000 21.71100 42.44000
C  -7.20500 21.09500 42.57700
C  -5.55900 22.89200 43.49500
C  -3.85100 20.07800 41.36900
C  -4.47700 19.35700 40.10900
H  -3.96700 19.89800 38.70500
N  -10.28400 20.36600 42.28600
C  -9.74500 21.57500 41.95100
C  -10.85300 22.43300 41.45200
C  -12.06700 21.72900 41.68200
C  -11.64100 20.31900 42.04100
C  -10.63700 23.81500 40.97500
C  -13.42700 22.25200 41.39000
O  -13.56700 23.41100 41.07800
C  -14.60400 21.39500 41.46500
N  -10.78200 17.34100 42.79300
C  -12.04800 17.78300 42.39700
C  -13.06500 16.64600 42.39800
C  -12.17100 15.41500 42.74000
C  -10.84400 16.03700 43.05800
C  -14.35900 16.86800 43.16100
C  -11.97800 14.42300 41.53400
C  -12.60700 13.05200 41.77200
N  -7.92200 16.92400 43.10000
C  -8.31600 15.63800 43.23600
C  -7.15400 14.80100 43.39400
C  -6.09800 15.69800 43.42000
C  -6.58200 16.98700 43.25300
C  -7.16700 13.26200 43.53000
C  -4.73200 15.74300 43.64600
O  -3.89000 14.85600 43.96400
C  -4.19100 17.23800 43.49400
C  -3.35500 17.75100 44.63700
O  -2.15300 17.84400 44.52100
O  -4.07200 17.90400 45.78900
C  -3.29100 18.30300 46.83100
H  -8.13400 22.90900 41.93600
H  -13.46100 19.17700 41.95400
H  -9.85800 14.14400 43.25600
H  -4.07500 20.53800 43.41300
H  -5.53400 22.20600 41.48700
H  -6.44400 22.91600 44.12900
H  -5.52000 23.83400 42.94900
H  -4.60100 22.87700 44.01600
H  -2.97000 19.50400 41.65600
H  -3.55700 21.07300 41.03700
H  -5.56300 19.27100 40.09000
H  -4.24000 18.29700 40.02100
H  -11.00500 24.05300 39.97700
H  -9.57100 23.99100 41.11800
H  -11.12700 24.57400 41.58500
H  -14.54800 20.75800 42.34800
H  -14.65300 20.66600 40.65600
H  -15.57700 21.88500 41.48800
H  -13.44100 16.60400 41.37500
H  -12.40300 14.82300 43.62500
H  -14.49700 15.99600 43.80000
H  -15.16100 16.92500 42.42500
H  -14.57500 17.77900 43.71900
H  -10.92100 14.26400 41.32100
H  -12.39500 14.83400 40.61500
H  -13.50300 12.90100 41.17000
H  -12.93800 13.02200 42.81000
H  -11.98300 12.17500 41.59900
H  -6.42600 13.07800 44.30800
H  -6.87000 12.70800 42.64000
H  -8.15000 12.86900 43.79000
H  -3.43000 17.29100 42.71600
H  -2.46800 18.96800 46.56900
H  -2.80600 17.44200 47.29300
H  -3.78500 18.67100 47.73000

