158

Mg 9.13800 3.75400 27.45800
C  10.47400 2.21600 30.35300
C  7.56700 5.99600 29.39700
C  7.72800 4.95700 24.79400
C  10.46300 1.08100 25.51900
N  8.89800 3.90300 29.62600
C  9.62600 3.29800 30.61900
C  9.38800 3.93800 32.00200
C  8.20000 4.94900 31.68100
C  8.29200 5.02200 30.12900
C  6.83400 4.51300 32.14600
C  10.66400 4.48900 32.60100
C  11.07500 3.98000 34.02100
H  11.34800 5.05800 35.06100
N  7.92300 5.40700 27.10600
C  7.42500 6.23600 28.11700
C  6.49800 7.21200 27.49200
C  6.60300 6.98700 26.07100
C  7.38700 5.74200 25.93900
C  5.67400 8.26800 28.27200
C  6.07400 7.69200 24.81500
O  6.44900 7.44100 23.66800
C  5.09700 8.78600 24.98800
N  9.17900 3.10300 25.42200
C  8.42700 3.80200 24.51800
C  8.47100 3.24800 23.08500
C  9.37100 1.95600 23.33100
C  9.71300 2.07700 24.86600
C  7.13900 3.06500 22.34200
C  10.61000 1.71600 22.38100
C  10.49100 0.40100 21.68700
N  10.33900 2.06300 27.78100
C  10.82800 1.06200 26.91200
C  11.62900 0.11800 27.62400
C  11.59200 0.57000 29.00800
C  10.75700 1.69100 29.05700
C  12.31400 -0.99000 26.98600
C  11.93500 0.28200 30.31900
O  12.56800 -0.67700 30.75100
C  11.29500 1.35800 31.28400
C  10.34600 0.64800 32.28500
O  9.44700 -0.12700 32.02900
O  10.66900 1.07300 33.57200
C  9.95100 0.39100 34.64600
H  7.01200 6.65500 30.06700
H  7.30800 5.34400 23.86400
H  10.90500 0.30900 24.88600
H  9.02400 3.16400 32.67900
H  8.28700 5.94800 32.10700
H  6.18100 4.80000 31.32100
H  6.55500 5.12900 33.00100
H  6.79200 3.48100 32.49500
H  10.61800 5.56700 32.75400
H  11.47700 4.30500 31.89900
H  11.97700 3.48400 33.66300
H  10.24800 3.45200 34.49600
H  5.82600 8.40600 29.34300
H  4.64000 8.08600 27.98100
H  5.84600 9.25400 27.84200
H  5.70100 9.65700 25.24500
H  4.53900 8.60100 25.90500
H  4.41900 8.91700 24.14400
H  8.99800 4.04100 22.55400
H  8.71800 1.08600 23.38000
H  6.96900 3.78100 21.53800
H  6.25500 3.26100 22.94800
H  7.15100 2.04500 21.95700
H  11.57900 1.67900 22.87900
H  10.63400 2.64800 21.81700
H  9.57000 -0.17400 21.78400
H  11.34000 -0.20400 22.00700
H  10.58100 0.72500 20.65100
H  12.33400 -1.68800 27.82400
H  13.30500 -0.72500 26.61800
H  11.69200 -1.43100 26.20800
H  11.96300 2.04100 31.80900
H  10.68900 -0.04600 35.31800
H  9.33200 -0.45400 34.34500
H  9.35600 1.16700 35.12700
Mg 48.14400 34.45900 26.49900
C  46.35500 33.05300 29.29700
C  48.27400 37.39800 28.16300
C  48.97300 35.71200 23.51300
C  47.01400 31.40900 24.62900
N  47.53600 35.08800 28.58100
C  46.96800 34.36900 29.53100
C  46.93300 35.15800 30.82900
C  47.06200 36.61400 30.31200
C  47.59700 36.44700 28.90200
C  45.74500 37.43200 30.34300
C  48.07200 34.65400 31.79600
C  47.82000 34.56200 33.26500
H  46.82900 35.61000 33.83000
N  48.84900 36.27500 25.99800
C  48.79300 37.33300 26.79900
C  49.33900 38.53400 25.96000
C  49.58600 38.01400 24.59800
C  49.08700 36.62300 24.64700
C  49.55600 39.88800 26.63100
C  50.10200 38.72000 23.34600
O  50.20800 38.16300 22.19400
C  50.48800 40.16400 23.53100
N  48.12500 33.59200 24.40300
C  48.62500 34.36100 23.40200
C  48.43700 33.70300 22.03600
C  48.12800 32.17500 22.38800
C  47.76600 32.34200 23.89600
C  47.37400 34.48600 21.15300
C  49.27300 31.14700 22.11800
C  50.57000 31.28800 22.98800
N  46.93700 32.61900 26.85600
C  46.57800 31.53800 26.05000
C  45.76800 30.59400 26.76800
C  45.67600 31.16400 28.02300
C  46.30200 32.39900 28.04200
C  45.17800 29.37800 26.12600
C  45.11600 30.94500 29.36900
O  44.41400 30.05600 29.73400
C  45.33700 32.27200 30.13100
C  45.59600 31.90200 31.55500
O  46.60600 31.45600 32.10400
O  44.44700 32.19500 32.21200
C  44.29500 31.63400 33.57100
H  48.18100 38.36600 28.66100
H  49.14300 36.12700 22.51700
H  46.67800 30.49200 24.14200
H  45.94100 35.03600 31.26300
H  47.88700 37.09600 30.83700
H  44.94000 36.89900 30.84900
H  45.62300 37.76000 29.31100
H  45.95900 38.30800 30.95600
H  48.96300 35.26700 31.66000
H  48.31800 33.60600 31.62700
H  48.74600 34.76900 33.80100
H  47.49900 33.54800 33.50300
H  50.60500 39.88500 26.92900
H  49.05800 39.92100 27.60000
H  49.31100 40.72200 25.97400
H  49.68400 40.75300 23.97300
H  50.83700 40.51200 22.55900
H  51.26300 40.28200 24.28800
H  49.35300 33.80400 21.45400
H  47.32400 31.86100 21.72300
H  47.93200 35.02700 20.38800
H  46.84500 35.28200 21.67700
H  46.73000 33.75700 20.66200
H  49.54800 31.23100 21.06700
H  48.85100 30.20300 22.46300
H  51.40200 30.94500 22.37400
H  50.49700 30.54900 23.78500
H  50.78000 32.22000 23.51200
H  45.84500 28.93800 25.38400
H  44.24900 29.73700 25.68500
H  44.98900 28.58800 26.85200
H  44.36700 32.76200 30.04200
H  44.52100 30.57300 33.67200
H  43.28900 31.87900 33.91400
H  45.09700 32.12800 34.12100

