158

Mg 25.90400 50.23400 27.10600
C  24.00400 51.78200 29.45100
C  28.34000 49.41300 29.48900
C  27.91200 49.27700 24.59300
C  23.65400 51.32700 24.60400
N  26.09000 50.45500 29.21600
C  25.09600 51.01800 30.03100
C  25.43800 50.83700 31.51100
C  26.93500 50.26000 31.51600
C  27.14000 49.98700 30.00200
C  27.95600 51.24300 32.06900
C  24.42600 50.00300 32.33500
C  24.05100 50.64100 33.69100
H  24.00700 49.62000 34.82900
N  27.86500 49.46700 27.04000
C  28.69000 49.15500 28.12700
C  29.86800 48.46500 27.61600
C  29.80000 48.55500 26.19300
C  28.49300 49.07500 25.87300
C  30.84800 47.86000 28.52400
C  30.81100 48.05700 25.19300
O  30.62400 48.10300 23.95000
C  32.13600 47.32100 25.66900
N  25.86000 50.42200 24.89600
C  26.67400 49.78100 24.14100
C  26.32000 49.82200 22.67100
C  24.89700 50.48200 22.70000
C  24.79100 50.76200 24.11900
C  27.24700 50.57300 21.66000
C  23.81900 49.54700 22.14000
C  23.29500 48.38600 23.02600
N  24.16500 51.38600 27.03000
C  23.31000 51.60100 25.91000
C  22.11900 52.25300 26.45800
C  22.37100 52.40600 27.86600
C  23.59500 51.85700 28.10800
C  21.05400 52.81900 25.62100
C  21.88300 52.95700 29.06300
O  20.88100 53.60600 29.28400
C  22.85200 52.40100 30.23400
C  23.16600 53.34800 31.33500
O  23.96100 54.24100 31.27100
O  22.26700 53.08900 32.29500
C  22.44600 53.85400 33.53400
H  29.02200 49.14900 30.30000
H  28.60000 48.97200 23.80200
H  22.90900 51.51700 23.82800
H  25.55000 51.80200 32.00600
H  26.99100 49.37900 32.15500
H  28.50100 51.71500 31.25200
H  28.71300 50.63600 32.56600
H  27.53300 51.95900 32.77400
H  24.81500 49.01400 32.57800
H  23.50900 49.96700 31.74700
H  23.07200 51.11000 33.58900
H  24.67700 51.51900 33.85100
H  30.95300 46.79700 28.30700
H  30.43000 47.83700 29.53000
H  31.86000 48.25800 28.59000
H  32.80800 48.01900 26.16800
H  32.53400 46.85300 24.76800
H  31.87800 46.60100 26.44600
H  26.26000 48.77800 22.36600
H  24.96100 51.41000 22.13200
H  26.63600 51.09000 20.92000
H  27.78900 49.79400 21.12400
H  27.93200 51.26500 22.15000
H  24.16600 49.06700 21.22500
H  23.01500 50.21400 21.83100
H  22.21200 48.37200 22.90200
H  23.57700 48.54100 24.06700
H  23.68000 47.48800 22.54100
H  21.44300 53.62600 25.00000
H  20.19500 53.16400 26.19600
H  20.82300 52.02000 24.91700
H  22.37000 51.47400 30.54600
H  23.48300 53.87600 33.87000
H  21.87000 53.22100 34.20900
H  22.06100 54.87200 33.47600
Mg 16.27500 52.51800 26.73600
C  18.26000 51.23900 29.51300
C  14.09600 53.82200 28.88300
C  14.81000 53.62500 24.07200
C  18.52700 50.68800 24.68300
N  16.15200 52.41400 28.86500
C  17.07800 51.95400 29.84700
C  16.58100 52.34100 31.28800
C  15.06000 52.78900 31.03000
C  15.12300 52.99800 29.51300
C  14.03000 51.73600 31.42900
C  17.46300 53.33600 31.98600
C  17.80300 53.18100 33.48600
H  16.70900 52.64500 34.46500
N  14.59100 53.54300 26.54600
C  13.87800 54.11400 27.53400
C  12.89100 54.99200 26.88300
C  13.10100 54.92100 25.45500
C  14.19900 53.94200 25.29400
C  11.92400 55.81700 27.74600
C  12.29800 55.62600 24.39600
O  12.32400 55.33900 23.17300
C  11.36900 56.72700 24.71300
N  16.84500 52.40200 24.67000
C  15.96100 52.94800 23.78800
C  16.44200 52.75200 22.32900
C  17.72100 51.83000 22.55300
C  17.72200 51.58700 24.05400
C  15.35100 52.29600 21.20400
C  19.08800 52.36600 22.06400
C  20.08700 51.36400 21.69500
N  18.00000 51.25200 27.02700
C  18.71000 50.46600 26.03500
C  19.85700 49.73700 26.60400
C  19.65900 49.95200 28.00500
C  18.56800 50.86200 28.16200
C  20.95200 49.04200 25.89000
C  20.20100 49.69900 29.36400
O  21.20400 49.06500 29.70800
C  19.36900 50.62600 30.32100
C  18.83800 49.73900 31.40100
O  17.72800 49.16200 31.44900
O  19.84400 49.57000 32.31200
C  19.59700 48.76100 33.49000
H  13.40900 54.21100 29.63700
H  14.31800 54.01200 23.17700
H  19.13200 50.18300 23.92700
H  16.51600 51.44000 31.89800
H  14.94000 53.78400 31.45900
H  13.49400 52.24600 32.22900
H  14.37800 50.73900 31.70000
H  13.31700 51.63600 30.61100
H  17.15000 54.36300 31.79500
H  18.45100 53.13300 31.57200
H  17.98800 54.17900 33.88300
H  18.70200 52.57100 33.58100
H  12.09700 56.88100 27.58600
H  12.20200 55.72300 28.79500
H  10.89300 55.56800 27.49600
H  10.64100 56.38200 25.44600
H  10.95600 57.21100 23.82800
H  11.94700 57.50500 25.21200
H  16.77400 53.76100 22.08500
H  17.60700 50.81500 22.17300
H  14.35400 52.57400 21.54600
H  15.51400 51.23500 21.01300
H  15.44900 52.89000 20.29600
H  19.51000 52.83000 22.95500
H  19.05200 53.05600 21.22200
H  20.84800 51.17300 22.45200
H  20.59500 51.71700 20.79800
H  19.49500 50.50500 21.37800
H  21.06200 49.53600 24.92500
H  20.67500 47.99200 25.78700
H  21.87800 49.09100 26.46200
H  19.95100 51.32200 30.92400
H  19.26300 47.78300 33.14300
H  18.80000 49.31900 33.98200
H  20.41200 48.55200 34.18300

