158

Mg 53.63000 23.67900 44.33900
C  51.25900 26.25300 43.86200
C  51.51600 21.49600 42.71600
C  56.16300 21.40100 44.39700
C  55.86000 26.24500 45.40800
N  51.70500 23.91700 43.26200
C  50.92500 25.06000 43.21800
C  49.70700 24.87500 42.30900
C  49.51700 23.29300 42.54600
C  50.97100 22.84200 42.84400
C  48.60400 22.97900 43.73500
C  50.01900 25.23800 40.78200
C  51.42700 25.39200 40.28600
H  51.74900 26.14100 39.02200
N  53.74400 21.65500 43.72400
C  52.74800 20.94900 43.17100
C  53.15100 19.55600 43.07400
C  54.50600 19.47300 43.46600
C  54.86800 20.85000 43.94000
C  52.25200 18.50400 42.58700
C  55.30700 18.18200 43.51400
O  54.82800 17.15800 43.06200
C  56.66500 18.02700 44.02200
N  55.75500 23.83200 44.58600
C  56.54600 22.74200 44.72300
C  57.98100 23.08400 45.14500
C  57.83200 24.63400 45.45400
C  56.37300 24.95300 45.10200
C  58.49700 22.28900 46.31100
C  58.77000 25.46000 44.60500
C  59.19500 26.86700 45.03700
N  53.66900 25.88000 44.54000
C  54.56000 26.71400 45.05900
C  53.98700 28.07100 45.16200
C  52.65200 27.94600 44.73600
C  52.53400 26.59200 44.33700
C  54.62300 29.37600 45.70600
C  51.40500 28.64500 44.55900
O  51.09100 29.79200 44.89100
C  50.46100 27.59100 43.92700
C  50.07600 28.20800 42.55500
O  50.82500 28.33900 41.59000
O  48.75900 28.46500 42.58900
C  48.03300 28.56200 41.35900
H  50.67500 20.89400 42.36600
H  56.99700 20.69900 44.33300
H  56.45600 26.97500 45.96000
H  48.87500 25.44700 42.72100
H  49.24400 22.85600 41.58500
H  48.17200 23.91400 44.09000
H  49.38000 22.82100 44.48400
H  48.01700 22.12100 43.40700
H  49.40900 26.09500 40.49600
H  49.60600 24.49100 40.10400
H  51.71500 24.34100 40.25300
H  52.08500 25.74400 41.08100
H  52.84200 17.79000 42.01100
H  51.48900 18.90900 41.92300
H  51.85400 17.99200 43.46300
H  57.03000 17.04200 44.31300
H  56.51500 18.47500 45.00400
H  57.39800 18.41800 43.31600
H  58.57500 22.91700 44.24700
H  57.94100 24.80700 46.52400
H  59.50600 21.92600 46.11300
H  57.88400 21.39200 46.21900
H  58.42600 22.74500 47.29800
H  58.36100 25.66800 43.61600
H  59.63800 24.82900 44.41500
H  58.92000 27.57800 44.25800
H  60.27400 27.02300 45.03600
H  58.90300 27.10400 46.06000
H  55.65500 29.23700 45.38500
H  54.58600 29.28800 46.79200
H  54.02300 30.17000 45.26200
H  49.65800 27.52100 44.66100
H  48.42700 28.03400 40.49100
H  47.86800 29.59700 41.06000
H  47.06400 28.13000 41.60600
Mg 27.67600 49.82800 26.83200
C  25.54700 50.83700 29.45700
C  30.01600 49.09700 29.13900
C  29.65800 49.18400 24.20400
C  25.19600 50.73200 24.58900
N  27.67800 49.90100 29.14000
C  26.71700 50.28300 30.01000
C  27.17400 50.26800 31.51500
C  28.71400 49.87900 31.30000
C  28.81300 49.60600 29.75300
C  29.71600 50.98600 31.75700
C  26.35500 49.24300 32.28600
C  25.48200 49.76100 33.47400
H  25.30800 48.90200 34.69600
N  29.57300 49.19300 26.69700
C  30.36600 48.94900 27.76700
C  31.62300 48.50600 27.20400
C  31.62200 48.55700 25.77900
C  30.21000 48.95000 25.50000
C  32.75700 48.00500 28.08700
C  32.68900 48.16900 24.68900
O  32.50400 48.29000 23.47000
C  34.04600 47.70800 25.23500
N  27.37800 49.74900 24.59300
C  28.37200 49.47900 23.74600
C  27.96800 49.69000 22.27900
C  26.48400 50.15000 22.36800
C  26.33800 50.24600 23.90600
C  28.77900 50.68500 21.49600
C  25.41800 49.26200 21.62100
C  24.45400 50.03200 20.64100
N  25.81800 50.61500 27.02400
C  24.95900 50.91100 25.98500
C  23.81700 51.58800 26.55400
C  23.96100 51.52800 27.95700
C  25.21600 50.95800 28.12200
C  22.70500 52.18100 25.76900
C  23.31100 51.88500 29.23500
O  22.20200 52.36100 29.44300
C  24.40800 51.42900 30.29400
C  24.75500 52.63800 30.96900
O  25.74400 53.33700 30.71000
O  23.96300 52.83200 32.05700
C  24.34300 53.85300 33.02300
H  30.77900 48.91800 29.90000
H  30.34800 49.03600 23.37100
H  24.33500 50.92700 23.94700
H  27.22400 51.31400 31.81700
H  28.90900 48.93600 31.81100
H  29.21100 51.70600 32.40100
H  30.20100 51.48600 30.91800
H  30.53000 50.53300 32.32400
H  27.02500 48.51100 32.73700
H  25.64400 48.67800 31.68200
H  24.47400 50.02300 33.15500
H  25.92900 50.72200 33.72900
H  32.84100 46.93800 27.87900
H  32.70500 48.08300 29.17300
H  33.72200 48.36500 27.73100
H  34.73300 47.41000 24.44300
H  33.77000 46.92400 25.94100
H  34.48000 48.54400 25.78400
H  28.09700 48.68100 21.88800
H  26.35500 51.15300 21.96000
H  29.55000 51.17600 22.09000
H  28.22500 51.52900 21.08400
H  29.26000 50.07800 20.72800
H  24.72100 48.80300 22.32100
H  25.83000 48.50100 20.95900
H  25.05700 50.87800 20.31100
H  23.61000 50.40100 21.22400
H  24.14200 49.37500 19.82900
H  22.36000 51.56800 24.93700
H  22.98700 53.17500 25.42300
H  21.87200 52.41400 26.43300
H  23.94800 50.73100 30.99400
H  25.09700 54.55000 32.65600
H  24.56300 53.43700 34.00600
H  23.41600 54.42100 33.10600

