158

Mg -11.03800 40.47800 42.77900
C  -10.20900 37.24100 41.98100
C  -7.98300 41.50900 41.58100
C  -12.31900 43.56500 42.86800
C  -14.48400 39.25900 43.29500
N  -9.42800 39.53300 41.64000
C  -9.23600 38.16900 41.58700
C  -7.88400 37.82900 40.92000
C  -7.09200 39.27100 40.90300
C  -8.18900 40.16900 41.34300
C  -5.68800 39.22700 41.65600
C  -8.07100 37.20100 39.45500
C  -7.04100 36.21100 39.09500
H  -5.96800 36.68200 38.09800
N  -10.15500 42.22300 42.53000
C  -8.86800 42.49600 42.06100
C  -8.69100 43.95600 42.00200
C  -9.83200 44.54800 42.59000
C  -10.86200 43.41800 42.65200
C  -7.36800 44.55200 41.51700
C  -10.09400 46.05000 42.92600
O  -9.27700 46.88800 42.51500
C  -11.17300 46.41800 43.78400
N  -13.15000 41.27400 43.02600
C  -13.32800 42.62600 43.03200
C  -14.82500 43.01500 42.93800
C  -15.54200 41.61000 43.06900
C  -14.31700 40.62700 43.08800
C  -15.28300 44.06300 43.97400
C  -16.64900 41.39500 41.99700
C  -18.15100 41.25100 42.38300
N  -12.17300 38.57900 42.81100
C  -13.46500 38.30500 43.06900
C  -13.64800 36.88000 43.11100
C  -12.38000 36.37600 42.71100
C  -11.53100 37.47600 42.46500
C  -14.92800 36.17800 43.34500
C  -11.64400 35.24800 42.33400
O  -11.90500 34.06900 42.40300
C  -10.21900 35.75800 41.79400
C  -9.23200 35.00300 42.55000
O  -9.03900 35.05000 43.80200
O  -8.45600 34.26900 41.72800
C  -7.48700 33.48000 42.32900
H  -7.02700 41.76100 41.11900
H  -12.58200 44.62200 42.79500
H  -15.52200 38.95800 43.45300
H  -7.25400 37.20700 41.55500
H  -6.87900 39.61200 39.89000
H  -4.94200 39.67100 40.99600
H  -5.53800 38.20600 42.00700
H  -5.76900 39.91900 42.49400
H  -8.19900 38.04900 38.78300
H  -8.92200 36.52300 39.38600
H  -7.57700 35.37600 38.64300
H  -6.59000 35.77600 39.98700
H  -6.70200 43.80800 41.08100
H  -6.88200 45.04500 42.35900
H  -7.54300 45.32300 40.76600
H  -12.04600 46.73500 43.21300
H  -10.80500 47.20800 44.43700
H  -11.43000 45.55400 44.39700
H  -15.07000 43.45900 41.97300
H  -16.00000 41.47800 44.05000
H  -14.41000 44.46600 44.48900
H  -16.12200 43.71900 44.57700
H  -15.61500 44.99100 43.50700
H  -16.42500 40.47700 41.45200
H  -16.63200 42.20400 41.26700
H  -18.62100 41.94000 41.68200
H  -18.27400 41.65500 43.38800
H  -18.65800 40.29700 42.23900
H  -15.26300 36.42400 44.35200
H  -14.76800 35.10100 43.40000
H  -15.73200 36.44400 42.65900
H  -10.28300 35.52600 40.73100
H  -8.02700 32.88200 43.06300
H  -6.75300 34.20500 42.68200
H  -7.12800 32.82200 41.53700
Mg -0.22900 43.07400 26.02800
C  2.07900 42.64700 28.66500
C  -2.68800 41.79300 27.96500
C  -2.21100 43.25400 23.33500
C  2.50100 43.98500 23.92800
N  -0.26500 42.28600 27.94800
C  0.72100 42.37800 28.92500
C  0.27300 42.14400 30.36600
C  -1.16900 41.36100 30.09000
C  -1.40300 41.81700 28.56900
C  -1.22200 39.86200 30.30600
C  0.23800 43.37300 31.29900
C  0.60100 43.15200 32.79900
H  0.29800 41.69600 33.46300
N  -2.21400 42.60200 25.71500
C  -3.07700 42.09500 26.56900
C  -4.39500 41.97600 25.95900
C  -4.33600 42.63400 24.67300
C  -2.84400 42.75600 24.45400
C  -5.55900 41.37700 26.63200
C  -5.41400 42.84000 23.59400
O  -5.15800 43.13300 22.41300
C  -6.84600 42.70400 23.96300
N  0.10500 43.47700 23.96900
C  -0.90500 43.57900 23.04300
C  -0.40000 44.20700 21.69400
C  1.04000 44.57600 22.04400
C  1.28600 43.89600 23.35500
C  -0.66500 43.23900 20.57800
C  1.28400 46.14000 22.13100
C  0.76600 46.93100 23.30400
N  1.90100 43.23900 26.18900
C  2.83700 43.64800 25.25300
C  4.12400 43.58700 25.92800
C  3.88900 43.31600 27.24000
C  2.52000 43.08500 27.34600
C  5.43800 43.80000 25.21200
C  4.51300 43.03400 28.54200
O  5.68000 42.99400 28.84800
C  3.27200 42.84800 29.53000
C  3.72500 41.63300 30.39400
O  3.88800 40.47700 30.03000
O  4.11500 41.98100 31.66000
C  4.68300 40.91500 32.52400
H  -3.45900 41.43300 28.64900
H  -2.86400 43.58800 22.52600
H  3.33700 44.21300 23.26400
H  1.00800 41.51300 30.86600
H  -1.97700 41.83400 30.64700
H  -2.19800 39.68100 30.75500
H  -0.34500 39.55300 30.87400
H  -1.34000 39.24800 29.41300
H  -0.78800 43.73800 31.34500
H  0.72000 44.27500 30.92300
H  0.06300 43.85000 33.44200
H  1.67400 43.33400 32.85900
H  -6.24800 42.20700 26.79300
H  -5.14200 40.87000 27.50100
H  -6.01400 40.55100 26.08500
H  -6.98500 43.14200 24.95200
H  -7.07100 41.63700 23.96100
H  -7.49300 43.17200 23.22100
H  -0.99300 45.10100 21.50100
H  1.81800 44.19400 21.38300
H  -1.00500 42.26100 20.91800
H  0.25000 43.00700 20.03300
H  -1.55700 43.50200 20.01000
H  0.98200 46.57100 21.17600
H  2.36300 46.21800 22.26400
H  0.07000 47.62900 22.83800
H  1.49500 47.59100 23.77300
H  0.35100 46.33200 24.11400
H  5.44100 43.32000 24.23300
H  6.20300 43.32200 25.82300
H  5.64700 44.85900 25.06300
H  3.17800 43.65500 30.25600
H  5.70100 40.68500 32.21100
H  4.03700 40.04200 32.61200
H  4.82000 41.22100 33.56100

