158

Mg 24.96600 -7.23600 47.89600
C  27.24300 -5.03400 46.76100
C  22.77900 -6.13000 45.39300
C  22.85700 -9.80300 48.55500
C  27.24500 -8.69700 50.11500
N  25.06900 -5.87800 46.09100
C  26.11700 -4.97600 45.95200
C  25.73300 -3.84500 45.00000
C  24.24200 -4.15800 44.62600
C  24.06300 -5.49400 45.34200
C  23.16100 -3.08000 45.07200
C  26.70100 -3.77100 43.74700
C  27.20100 -2.33400 43.30500
H  27.15500 -1.95500 41.90400
N  23.15500 -7.88400 47.10700
C  22.35800 -7.26600 46.05500
C  21.10500 -7.97500 45.83900
C  21.16300 -9.00800 46.74800
C  22.42800 -8.92700 47.47700
C  19.98500 -7.53800 44.82900
C  20.06700 -10.11500 46.81700
O  19.13400 -10.19600 46.04500
C  20.09600 -11.17800 47.84300
N  24.92700 -8.87200 49.33600
C  23.93500 -9.75700 49.39600
C  24.21300 -10.90900 50.28900
C  25.62000 -10.54300 50.85000
C  26.00100 -9.34200 49.99800
C  23.10900 -11.26700 51.38300
C  26.70900 -11.64500 50.89200
C  26.31600 -13.01800 51.50700
N  26.84900 -6.93900 48.40900
C  27.65800 -7.64100 49.27700
C  28.96600 -7.01800 49.23600
C  28.83600 -5.95700 48.31200
C  27.54000 -5.99200 47.81900
C  30.10000 -7.61300 49.97300
C  29.48400 -4.76900 47.67300
O  30.62900 -4.30800 47.84100
C  28.48400 -4.17400 46.70800
C  28.22000 -2.76900 47.19200
O  27.89000 -2.45300 48.32800
O  28.39800 -1.86700 46.20000
C  28.18300 -0.44700 46.44900
H  22.02500 -5.69300 44.73400
H  22.30000 -10.73500 48.66900
H  27.97000 -9.03000 50.86100
H  25.80800 -2.86200 45.46500
H  24.23200 -4.24300 43.53900
H  23.76100 -2.30300 45.54600
H  22.53500 -3.60500 45.79400
H  22.59100 -2.83700 44.17500
H  26.28000 -4.21300 42.84500
H  27.58100 -4.35900 44.00900
H  28.27600 -2.21000 43.43000
H  26.88300 -1.53400 43.97400
H  20.18400 -8.00800 43.86600
H  19.94300 -6.45000 44.79200
H  19.07900 -7.96600 45.25800
H  20.61100 -11.97600 47.30800
H  19.02500 -11.37700 47.83700
H  20.42500 -11.02800 48.87200
H  24.31700 -11.82400 49.70700
H  25.45300 -10.14000 51.84900
H  23.53100 -11.43000 52.37400
H  22.64600 -12.20400 51.07100
H  22.28200 -10.55700 51.36200
H  27.50100 -11.30000 51.55600
H  27.14400 -11.83100 49.91000
H  26.41900 -13.82400 50.78100
H  25.27900 -13.04900 51.84300
H  26.89000 -13.27800 52.39600
H  30.91800 -6.90800 49.82500
H  30.40900 -8.56300 49.53800
H  29.97300 -7.83400 51.03200
H  28.94600 -4.18100 45.72000
H  27.09900 -0.36100 46.52300
H  28.61600 0.26100 45.74300
H  28.56500 -0.24000 47.44900
Mg 16.91700 52.61300 25.70200
C  18.57500 51.24600 28.57400
C  14.44000 53.76500 27.66000
C  15.19300 53.08600 22.88600
C  19.38900 50.99000 23.73100
N  16.51300 52.39700 27.88300
C  17.35700 51.98900 28.84100
C  16.80600 52.31200 30.24000
C  15.46200 53.10000 29.91000
C  15.45900 53.10300 28.37400
C  14.14300 52.52300 30.49600
C  17.80200 52.96700 31.19700
C  17.91300 52.56400 32.68300
H  16.89700 51.66000 33.31600
N  15.03000 53.33300 25.25600
C  14.11400 53.75100 26.21500
C  12.88700 54.25100 25.55600
C  13.11800 54.10100 24.14300
C  14.50100 53.50600 24.03500
C  11.64300 54.68500 26.33100
C  12.16400 54.41700 22.94400
O  12.46500 54.07200 21.79500
C  10.81900 55.20600 23.14700
N  17.31000 52.21300 23.61700
C  16.40700 52.44600 22.65600
C  16.97600 51.99500 21.29300
C  18.50000 51.90700 21.50600
C  18.46800 51.73300 23.04500
C  16.37800 50.71200 20.74600
C  19.30800 53.11600 20.93500
C  20.24900 52.68400 19.88700
N  18.68500 51.50100 26.06800
C  19.49200 50.83800 25.13700
C  20.46200 50.05100 25.77100
C  20.18400 50.17400 27.14700
C  19.06100 51.08000 27.25700
C  21.37500 49.12900 25.17100
C  20.55600 49.65900 28.44100
O  21.47500 48.93400 28.74900
C  19.51400 50.41800 29.47900
C  18.79900 49.37800 30.27600
O  17.61900 49.09200 30.17700
O  19.63300 48.92100 31.26000
C  19.18400 47.95200 32.24100
H  13.72600 54.30000 28.28900
H  14.79400 53.26600 21.88500
H  20.12900 50.52000 23.08000
H  16.48900 51.38700 30.72200
H  15.62200 54.14100 30.19200
H  14.42000 51.53000 30.85100
H  13.35000 52.42900 29.75500
H  13.71800 53.23200 31.20700
H  17.46300 53.99700 31.30700
H  18.79100 52.94900 30.73900
H  18.25900 53.41500 33.27000
H  18.75000 51.87100 32.60000
H  11.62400 55.77100 26.42200
H  11.53500 54.10800 27.24900
H  10.78300 54.26500 25.81000
H  10.33800 55.43000 22.19600
H  11.02500 56.09800 23.73800
H  10.18600 54.58800 23.78500
H  16.68400 52.72800 20.54100
H  18.88300 50.96700 21.11000
H  15.31700 50.96200 20.72800
H  16.57700 49.94500 21.49500
H  16.84600 50.48200 19.78900
H  19.88400 53.58800 21.73100
H  18.65000 53.84100 20.45500
H  20.27000 53.12000 18.88800
H  20.19000 51.63400 19.60000
H  21.28500 52.72500 20.22100
H  22.19900 49.69800 24.74100
H  20.90900 48.57100 24.35900
H  21.80900 48.37700 25.83000
H  20.06900 51.14500 30.07200
H  19.93500 48.05300 33.02500
H  19.20500 46.89500 31.97300
H  18.22800 48.27100 32.65800

