158

Mg 30.18700 58.15900 39.55700
C  27.29100 56.38900 38.44500
C  32.07300 55.64100 38.25400
C  33.02800 60.17300 39.35100
C  28.23400 60.90600 40.13200
N  29.63700 56.22600 38.48200
C  28.45100 55.66500 38.22200
C  28.53700 54.24700 37.72500
C  30.09000 54.00700 37.88900
C  30.66600 55.41900 38.19900
C  30.57900 52.96300 38.96300
C  28.02900 54.15900 36.22700
C  28.32900 55.35800 35.24300
H  28.12900 55.16100 33.75200
N  32.25700 57.89300 39.03600
C  32.81400 56.77300 38.53800
C  34.24100 56.85400 38.52100
C  34.52000 58.23400 38.88400
C  33.21300 58.84900 39.09200
C  35.21200 55.72600 38.14400
C  35.90500 58.80900 38.94400
O  36.89000 58.09400 38.67200
C  36.23600 60.22400 39.21500
N  30.55600 60.26700 39.44200
C  31.77900 60.90400 39.50800
C  31.71500 62.38000 39.78600
C  30.20100 62.49500 40.32500
C  29.63800 61.13000 39.95900
C  32.79800 63.05700 40.80700
C  29.38300 63.66800 39.70600
C  28.71500 64.68600 40.50000
N  28.19400 58.62500 39.41400
C  27.49600 59.74900 39.69300
C  26.06900 59.54500 39.63400
C  25.90100 58.23300 39.10100
C  27.26100 57.73100 38.90300
C  25.04800 60.50500 40.11300
C  24.97000 57.24000 38.73100
O  23.73400 57.37100 38.78500
C  25.86800 55.96500 38.24800
C  25.51500 54.79300 39.08400
O  25.59700 54.78200 40.28900
O  24.90000 53.83600 38.26300
C  24.27800 52.76600 39.09800
H  32.57900 54.72500 37.94300
H  33.85600 60.85000 39.57200
H  27.56600 61.69600 40.48200
H  27.94200 53.61100 38.38000
H  30.47400 53.70400 36.91500
H  30.98800 52.06200 38.50500
H  29.64700 52.60800 39.40300
H  31.26600 53.43900 39.66200
H  26.97400 53.94000 36.06000
H  28.62900 53.30900 35.90100
H  29.40200 55.27400 35.41800
H  27.95500 56.25800 35.73000
H  35.93300 55.94100 37.35600
H  34.75500 54.80200 37.79000
H  35.70700 55.44500 39.07300
H  37.31200 60.32100 39.07600
H  35.91700 60.50900 40.21800
H  35.87300 60.97800 38.51700
H  31.74200 62.93500 38.84800
H  30.26200 62.69000 41.39500
H  32.30600 63.52600 41.65900
H  33.44800 63.77000 40.30000
H  33.38500 62.27700 41.29100
H  28.50500 63.29800 39.17600
H  30.00700 64.30100 39.07500
H  29.25200 65.63100 40.58900
H  28.64100 64.24000 41.49200
H  27.70500 64.79500 40.10600
H  24.18900 59.86700 40.32300
H  24.73900 61.35100 39.50000
H  25.57300 60.95100 40.95900
H  25.87200 55.80800 37.16900
H  24.98900 52.33000 39.79900
H  23.96400 51.96700 38.42700
H  23.50600 53.10400 39.78900
Mg 5.93200 53.72800 41.39200
C  5.50000 50.24300 41.12400
C  9.18500 53.15400 40.13100
C  6.45300 56.98100 41.32100
C  2.77300 54.05900 42.60700
N  7.15800 51.91300 40.51400
C  6.71800 50.60900 40.57700
C  7.74700 49.74100 39.87700
C  9.03500 50.60200 39.84600
C  8.40900 52.01500 40.10700
C  9.99500 50.18300 40.97600
C  7.37500 49.24700 38.40800
C  6.61700 50.24700 37.44400
H  5.88400 49.61000 36.36400
N  7.63600 54.93300 40.85400
C  8.79100 54.48000 40.40800
C  9.67500 55.62700 40.32000
C  8.98600 56.75300 40.72500
C  7.63200 56.29500 40.95400
C  11.12400 55.57100 39.85300
C  9.49000 58.22200 40.86500
O  10.64900 58.58500 40.67200
C  8.60500 59.36200 41.39600
N  4.66700 55.30100 41.61600
C  5.17700 56.54200 41.65700
C  4.07100 57.52000 42.15300
C  2.85900 56.61300 42.54300
C  3.44000 55.25300 42.19500
C  4.55900 58.51400 43.30700
C  1.44000 56.88100 41.94700
C  0.85500 58.23400 42.31100
N  4.31400 52.44200 41.66300
C  3.12600 52.66800 42.28800
C  2.40800 51.47500 42.51600
C  3.35200 50.43700 42.13200
C  4.45000 51.13000 41.62500
C  0.98900 51.33800 43.18300
C  3.56800 49.06600 42.06400
O  2.87100 48.08500 42.27900
C  4.98600 48.89500 41.44400
C  4.75300 48.01300 40.27600
O  4.14900 48.33000 39.22100
O  5.33700 46.71600 40.52900
C  5.07500 45.67300 39.57200
H  10.15600 53.05600 39.64100
H  6.62000 58.05800 41.39200
H  1.89500 54.19900 43.24200
H  7.88200 48.89700 40.55300
H  9.48200 50.63500 38.85300
H  11.04200 50.19400 40.67200
H  9.80800 49.19800 41.40100
H  9.86900 50.78100 41.87900
H  6.90900 48.26100 38.41800
H  8.29100 48.97300 37.88400
H  7.36100 50.92000 37.01900
H  5.88100 50.83800 37.98900
H  11.74500 56.17800 40.51200
H  11.21700 55.88900 38.81400
H  11.58200 54.58300 39.80000
H  9.24300 60.23300 41.54700
H  8.24200 59.12400 42.39600
H  7.87300 59.56400 40.61400
H  3.74100 58.14900 41.32600
H  2.77400 56.68100 43.62700
H  4.85500 59.44400 42.82300
H  5.40000 58.04800 43.82100
H  3.80200 58.54300 44.09000
H  0.81200 56.01600 42.16300
H  1.49900 57.03600 40.87000
H  1.22600 58.63900 43.25200
H  -0.22300 58.11700 42.41700
H  0.95900 59.08000 41.63100
H  1.12400 51.14200 44.24600
H  0.43000 50.52400 42.72100
H  0.42400 52.26700 43.10700
H  5.70900 48.42600 42.11100
H  5.21000 44.70000 40.04400
H  5.80200 45.72000 38.76100
H  4.06800 45.66500 39.15700

