158

Mg 3.05300 -1.56000 44.70300
C  6.55200 -0.84500 44.51200
C  2.59600 1.16300 42.65600
C  -0.07500 -2.59600 44.69700
C  3.99200 -4.85300 46.06800
N  4.51800 0.07900 43.80000
C  5.84400 0.06500 43.69100
C  6.34800 1.23600 42.76300
C  4.96700 1.90200 42.27600
C  3.92900 1.01800 42.96400
C  4.76600 3.44500 42.64100
C  7.15500 0.74700 41.54000
C  8.54200 1.31300 41.30400
H  8.58100 2.30000 40.04600
N  1.51900 -0.82900 43.74400
C  1.44400 0.31900 43.06100
C  0.09800 0.57700 42.75500
C  -0.68900 -0.47000 43.25300
C  0.21100 -1.37800 43.98400
C  -0.32500 1.95400 42.11300
C  -2.18000 -0.52100 43.18300
O  -2.80300 0.36200 42.60000
C  -3.04100 -1.61700 43.85400
N  2.12100 -3.54200 45.37100
C  0.81700 -3.60000 45.17300
C  0.30300 -5.00700 45.73300
C  1.61200 -5.76300 45.94500
C  2.62400 -4.68600 45.83300
C  -0.58900 -4.78600 46.98400
C  1.86300 -6.93400 44.89400
C  2.84800 -8.06200 45.15800
N  4.84400 -2.62400 45.23600
C  5.00300 -3.85300 45.88800
C  6.44200 -3.90900 46.22200
C  7.04000 -2.73700 45.73400
C  5.99900 -2.05000 45.10800
C  7.07800 -4.97300 47.04500
C  8.26900 -2.02600 45.65600
O  9.37800 -2.32900 46.06500
C  8.02600 -0.75900 44.83000
C  8.22200 0.37400 45.70700
O  7.46800 0.73400 46.60200
O  9.21200 1.23600 45.28700
C  9.08900 2.69800 45.68500
H  2.45600 1.87200 41.83800
H  -1.09400 -2.98600 44.74400
H  4.21400 -5.77600 46.60700
H  6.90000 1.92800 43.39900
H  4.87700 1.78900 41.19600
H  4.45600 3.57800 43.67800
H  4.03600 3.95800 42.01600
H  5.70900 3.99000 42.67500
H  6.60500 0.82200 40.60200
H  7.20100 -0.33800 41.63000
H  9.08000 0.48900 40.83600
H  9.01300 1.63500 42.23300
H  0.51300 2.39300 41.57100
H  -0.60000 2.64200 42.91300
H  -1.15900 1.84300 41.42000
H  -4.11200 -1.41700 43.84100
H  -2.74200 -1.41900 44.88300
H  -2.79300 -2.66600 43.68900
H  -0.21300 -5.40100 44.85700
H  1.90200 -6.04400 46.95700
H  -1.06500 -3.84900 47.27400
H  -0.06000 -5.08000 47.89000
H  -1.35500 -5.55100 46.85500
H  2.26700 -6.45800 44.00100
H  0.87300 -7.32500 44.65500
H  3.44400 -7.91600 46.05900
H  3.45000 -8.19000 44.25900
H  2.41800 -9.06000 45.24900
H  7.20000 -5.79700 46.34100
H  6.33100 -5.07300 47.83200
H  8.03700 -4.58500 47.39000
H  8.71000 -0.77800 43.98100
H  8.14100 2.92600 46.17100
H  9.15400 3.31700 44.79100
H  9.97200 2.99900 46.24900
Mg 17.27900 -1.21300 27.75300
C  16.40300 0.92000 30.40700
C  19.09400 -3.07700 29.98500
C  18.67200 -2.78900 25.09800
C  15.87400 1.15600 25.50000
N  17.67500 -1.00800 29.98000
C  17.15800 -0.07900 30.86600
C  17.48300 -0.46300 32.27900
C  18.53400 -1.64300 32.08900
C  18.46900 -1.95100 30.58000
C  19.96900 -1.24200 32.55500
C  16.27200 -0.77900 33.13000
C  16.35000 -0.13000 34.54900
H  17.81500 0.07800 35.12200
N  18.57700 -2.72100 27.61200
C  19.14700 -3.40400 28.61200
C  19.70800 -4.56100 28.10000
C  19.59600 -4.46000 26.69700
C  18.93400 -3.30000 26.39800
C  20.26300 -5.64800 28.94600
C  20.07400 -5.55200 25.69600
O  19.95300 -5.42300 24.51500
C  20.92800 -6.70900 26.08900
N  17.09300 -0.90300 25.51900
C  17.94600 -1.60800 24.76600
C  17.88600 -1.07100 23.33900
C  16.67700 -0.07400 23.40300
C  16.64200 0.18900 24.91000
C  19.19500 -0.34000 23.03600
C  15.27000 -0.68700 22.84100
C  14.88700 -0.43400 21.32700
N  16.14400 0.55700 27.89000
C  15.61300 1.36000 26.88900
C  14.84800 2.38500 27.46100
C  15.16300 2.33600 28.87200
C  15.95000 1.20300 29.04900
C  13.89700 3.36400 26.87100
C  14.99300 2.99100 30.17800
O  14.32300 3.95800 30.53300
C  15.77400 2.04000 31.20900
C  16.87500 2.86900 31.87400
O  18.03800 2.96200 31.50900
O  16.30900 3.58000 32.87300
C  17.01500 4.45600 33.71800
H  19.61600 -3.64500 30.75800
H  19.32700 -3.17200 24.31200
H  15.46900 1.94900 24.86800
H  18.01500 0.44900 32.55100
H  18.34500 -2.53000 32.69400
H  19.90800 -0.23600 32.97000
H  20.64800 -1.17000 31.70500
H  20.36700 -1.91100 33.31700
H  15.92000 -1.81100 33.12700
H  15.45000 -0.23200 32.66900
H  15.86700 -0.75700 35.29900
H  15.80800 0.81600 34.54400
H  19.89300 -5.63900 29.97100
H  21.32300 -5.39400 28.94600
H  20.08400 -6.68300 28.65500
H  20.43500 -7.53000 26.60900
H  21.78200 -6.44300 26.71100
H  21.29900 -7.20400 25.19100
H  17.79300 -1.96400 22.72000
H  16.97300 0.80000 22.82300
H  19.20200 0.73000 23.24300
H  19.38400 -0.34300 21.96200
H  20.01600 -0.70800 23.65100
H  14.48100 -0.25000 23.45300
H  15.05900 -1.73500 23.05400
H  15.37600 0.49000 21.01900
H  13.82900 -0.30700 21.09700
H  15.26800 -1.26300 20.73000
H  13.32600 3.91200 27.61900
H  13.24300 2.86100 26.15800
H  14.58400 4.07000 26.40500
H  15.07200 1.69300 31.96700
H  16.63100 5.47500 33.67300
H  18.08600 4.29600 33.59400
H  16.79200 4.24400 34.76300

