158

Mg 52.47300 24.19900 44.47200
C  49.75600 26.34200 44.02600
C  50.27600 21.52700 44.11400
C  55.13300 22.26600 43.90600
C  54.51900 27.05100 44.81900
N  50.31500 23.99400 43.83700
C  49.41000 25.04200 43.75000
C  47.97400 24.48600 43.59900
C  48.13200 22.98300 43.91000
C  49.71000 22.78200 44.01200
C  47.40100 22.30300 45.11800
C  47.17700 24.71300 42.26900
C  47.95700 24.58500 40.95000
H  47.40700 25.21400 39.72500
N  52.68100 22.10300 44.16400
C  51.65700 21.20600 44.29800
C  52.25100 19.90900 44.31400
C  53.68800 20.00100 44.22900
C  53.88300 21.48600 44.04100
C  51.40600 18.61800 44.58000
C  54.70700 18.90800 44.38500
O  54.39400 17.74800 44.58900
C  56.12600 19.30000 44.36000
N  54.46800 24.64000 44.30100
C  55.37200 23.62400 44.12700
C  56.82200 24.27800 43.94200
C  56.60800 25.81300 44.25100
C  55.10500 25.84800 44.42600
C  57.94100 23.50700 44.71800
C  57.20000 26.93300 43.30900
C  57.75100 28.22600 43.96700
N  52.21300 26.22800 44.50100
C  53.12800 27.25500 44.89400
C  52.35600 28.47400 45.11900
C  51.06900 28.11800 44.80000
C  51.05400 26.78400 44.37200
C  52.68500 29.75300 45.75300
C  49.71200 28.69000 44.79100
O  49.26000 29.68700 45.25500
C  48.84200 27.62700 44.11900
C  48.30000 28.06200 42.83200
O  48.89100 28.01400 41.74100
O  47.05100 28.54200 42.97700
C  46.40600 29.10800 41.80500
H  49.56300 20.71200 44.25300
H  56.02000 21.73000 43.56100
H  55.14600 27.93000 44.98100
H  47.43300 24.90900 44.44600
H  47.84200 22.31600 43.09900
H  47.15300 21.31600 44.72600
H  46.45600 22.76800 45.39900
H  48.05700 22.30000 45.98800
H  46.55900 25.60700 42.35800
H  46.49000 23.86800 42.29800
H  47.82000 23.54000 40.67400
H  48.96500 24.84600 41.27100
H  51.35100 17.86400 43.79500
H  50.45400 18.96800 44.97900
H  51.75700 18.01000 45.41300
H  56.67900 18.40200 44.63600
H  56.25700 20.04200 45.14800
H  56.48000 19.71800 43.41800
H  57.19000 24.17000 42.92200
H  57.08400 25.98300 45.21600
H  58.72000 24.23300 44.95200
H  58.22500 22.62300 44.14700
H  57.57400 23.12100 45.66900
H  56.34700 27.22300 42.69700
H  57.97900 26.51900 42.66900
H  57.86700 28.13300 45.04700
H  57.04400 29.02700 43.75300
H  58.63700 28.55200 43.42200
H  52.31300 30.63400 45.23100
H  53.76800 29.84000 45.84700
H  52.37800 29.80200 46.79700
H  47.94800 27.44900 44.71600
H  45.35300 29.31800 41.99300
H  46.41900 28.46900 40.92200
H  46.98000 29.95700 41.43500
Mg 47.16000 34.97400 28.30800
C  45.25100 33.04100 30.72200
C  47.39300 37.37100 30.65000
C  48.50800 36.85400 25.86500
C  46.68400 32.32300 26.01100
N  46.32700 35.10600 30.43400
C  45.81600 34.21400 31.26400
C  45.82600 34.68200 32.72500
C  46.19400 36.13300 32.59300
C  46.68700 36.22900 31.12700
C  45.03300 37.09900 32.79500
C  46.86100 33.74700 33.49300
C  46.92800 33.65000 35.05500
H  46.00800 34.59600 35.90700
N  47.93300 36.80100 28.32300
C  47.99300 37.66800 29.38200
C  48.76100 38.83300 29.01000
C  49.15200 38.70200 27.66600
C  48.60000 37.37000 27.22000
C  48.72400 40.02000 29.89400
C  49.76200 39.71400 26.78200
O  50.09000 39.48400 25.62500
C  50.06400 41.12300 27.28200
N  47.67400 34.61600 26.23100
C  48.02400 35.60600 25.37500
C  47.92700 35.20800 23.90900
C  47.69100 33.63700 24.05100
C  47.34600 33.50400 25.52900
C  46.78700 35.91300 23.15000
C  48.95900 32.68300 23.66200
C  50.34400 32.81500 24.45400
N  46.14900 33.13900 28.35400
C  46.01700 32.20800 27.27900
C  45.22700 31.05400 27.64800
C  44.87000 31.39400 28.99700
C  45.48700 32.63800 29.37200
C  44.96400 29.82900 26.82900
C  44.14600 30.90100 30.18100
O  43.61200 29.79300 30.36200
C  44.23900 31.98400 31.28400
C  44.50700 31.53000 32.65600
O  45.43500 30.84800 33.01200
O  43.41500 31.97900 33.42700
C  43.44300 31.57200 34.83900
H  47.61700 38.06800 31.46000
H  48.70400 37.58400 25.07600
H  46.37100 31.56500 25.28900
H  44.80100 34.52300 33.06100
H  47.00400 36.30500 33.30100
H  44.99100 37.86600 32.02300
H  45.19800 37.59900 33.75000
H  44.08900 36.55600 32.83100
H  47.77500 34.17100 33.07800
H  46.84800 32.72900 33.10400
H  47.92200 33.92300 35.40800
H  46.87900 32.59700 35.33400
H  48.16200 40.79900 29.38000
H  49.74400 40.40400 29.87300
H  48.33800 39.86100 30.90100
H  50.30600 41.62800 26.34700
H  50.87100 41.11100 28.01400
H  49.20100 41.56400 27.78200
H  48.88000 35.53200 23.49100
H  46.79600 33.26900 23.55000
H  47.18900 36.34100 22.23200
H  46.44300 36.73300 23.78200
H  45.95900 35.23600 22.94500
H  49.09800 32.96500 22.61800
H  48.56700 31.66600 23.68000
H  50.28700 33.55100 25.25700
H  51.11800 33.09200 23.73900
H  50.61600 31.86400 24.91200
H  45.70800 29.05000 26.99300
H  45.03000 30.11200 25.77900
H  43.98700 29.39400 27.03900
H  43.35000 32.59600 31.43500
H  44.06700 30.72700 35.13000
H  42.41900 31.25100 35.03300
H  43.74400 32.41200 35.46500

