158

Mg 46.21300 44.25300 43.08100
C  42.90200 43.38000 42.53000
C  46.92400 40.94600 42.69100
C  49.49900 45.07500 42.80300
C  45.38400 47.68900 43.23000
N  45.07000 42.42700 42.64200
C  43.72500 42.27200 42.45600
C  43.21200 40.81500 42.39500
C  44.51300 40.03800 42.57800
C  45.58000 41.22100 42.66800
C  44.42800 39.07300 43.78200
C  42.41900 40.34700 41.18500
C  43.03800 40.93200 39.85800
H  42.57000 40.10700 38.66900
N  47.98200 43.12600 42.84200
C  48.05900 41.79500 42.69700
C  49.53700 41.39200 42.54700
C  50.29600 42.59000 42.75200
C  49.25000 43.66500 42.82500
C  50.01900 39.91500 42.38600
C  51.89000 42.72400 42.84300
O  52.57000 41.73600 42.70100
C  52.63700 43.99200 43.03900
N  47.19400 46.09400 42.86400
C  48.55700 46.13500 42.85500
C  49.09800 47.59100 42.76600
C  47.80300 48.35800 43.05800
C  46.70600 47.34000 43.00200
C  50.29600 47.96400 43.65100
C  47.58000 49.71400 42.27600
C  47.23000 50.92400 43.14900
N  44.48100 45.42300 42.82100
C  44.26500 46.76800 43.07700
C  42.79700 46.95200 42.98900
C  42.22500 45.64800 42.83300
C  43.34700 44.74400 42.71600
C  42.03300 48.23700 42.95200
C  40.96300 44.95200 42.67900
O  39.78500 45.26000 42.65800
C  41.42300 43.42500 42.58100
C  40.62000 42.57900 43.54600
O  40.03700 41.56300 43.26500
O  40.81500 42.95300 44.88600
C  40.32800 41.96300 45.81800
H  47.13900 39.87600 42.73100
H  50.51700 45.42900 42.62400
H  45.09500 48.71700 43.46100
H  42.73000 40.77300 43.37200
H  44.78700 39.43800 41.71000
H  43.42800 38.64500 43.84800
H  44.53600 39.67800 44.68200
H  45.18700 38.29600 43.69300
H  41.39900 40.69600 41.34600
H  42.53600 39.26500 41.25000
H  44.10700 41.13200 39.92700
H  42.50300 41.87300 39.72700
H  51.02800 39.94600 41.97400
H  49.37100 39.37500 41.69600
H  49.95000 39.42500 43.35700
H  52.68900 44.48900 42.07000
H  53.65300 43.81200 43.39000
H  52.20200 44.70200 43.74200
H  49.44500 47.66400 41.73500
H  47.70100 48.60800 44.11400
H  50.74200 47.08000 44.10700
H  49.80400 48.52000 44.44800
H  51.09200 48.49300 43.12600
H  46.71400 49.58600 41.62700
H  48.41400 49.93300 41.60900
H  47.79000 50.86400 44.08300
H  46.15700 50.91500 43.34100
H  47.41600 51.84500 42.59700
H  42.07000 48.43300 41.88100
H  42.48900 49.00100 43.58300
H  41.01200 48.19600 43.33100
H  41.05800 43.05800 41.62200
H  39.24000 41.90600 45.85100
H  40.64100 42.25400 46.82000
H  40.67900 40.94600 45.64300
Mg -5.18700 25.15500 25.92300
C  -3.38300 26.31900 28.63500
C  -6.21200 22.51200 28.11900
C  -6.87300 23.64300 23.41400
C  -3.65500 27.31500 23.88400
N  -4.87000 24.51900 28.18500
C  -4.16500 25.30800 29.04300
C  -4.55000 24.95900 30.45500
C  -4.95600 23.51900 30.25300
C  -5.34900 23.45100 28.78800
C  -3.81200 22.55100 30.56100
C  -5.79700 25.82700 30.90900
C  -6.15700 25.91900 32.43500
H  -5.69400 24.83500 33.35300
N  -6.44100 23.44100 25.74700
C  -6.73000 22.45800 26.76100
C  -7.64900 21.54400 26.27900
C  -7.89200 21.84300 24.88200
C  -7.10700 23.07500 24.65300
C  -8.13000 20.38000 27.18800
C  -8.78900 21.09300 23.92400
O  -9.01900 21.51400 22.81500
C  -9.43000 19.77300 24.26100
N  -5.12700 25.28000 23.87400
C  -5.88200 24.57100 22.98100
C  -5.64900 25.11400 21.54300
C  -4.82100 26.48100 21.83700
C  -4.55500 26.33100 23.32800
C  -4.88600 24.15600 20.60200
C  -5.59600 27.80700 21.61000
C  -6.32900 28.00100 20.29700
N  -3.69400 26.46200 26.08200
C  -3.07300 27.34200 25.12300
C  -2.17000 28.19000 25.85000
C  -2.19000 27.83800 27.20000
C  -3.15000 26.75300 27.27800
C  -1.39400 29.42800 25.28600
C  -1.76800 28.19600 28.51100
O  -0.86800 28.94800 28.86500
C  -2.57000 27.30100 29.47200
C  -1.60000 26.63000 30.32200
O  -0.95600 25.65800 29.97200
O  -1.65100 27.23100 31.60900
C  -0.70200 26.74500 32.57800
H  -6.51900 21.64200 28.70300
H  -7.42200 23.27400 22.54500
H  -3.42300 28.18500 23.26700
H  -3.76000 25.15300 31.18000
H  -5.79900 23.27800 30.89900
H  -2.91600 22.88200 30.03500
H  -3.96800 21.54100 30.18300
H  -3.51100 22.45700 31.60400
H  -6.65200 25.47600 30.33100
H  -5.62700 26.82000 30.49300
H  -7.21900 26.11100 32.58300
H  -5.75500 26.91000 32.64500
H  -7.61700 19.43900 26.99000
H  -9.10300 19.95200 26.94500
H  -8.13000 20.65000 28.24400
H  -8.64300 19.11600 24.63100
H  -9.87400 19.38100 23.34600
H  -10.08800 19.99600 25.10100
H  -6.62000 25.35200 21.10700
H  -3.92200 26.56100 21.22600
H  -5.29100 23.15800 20.76900
H  -3.81900 24.17200 20.82500
H  -4.98700 24.58000 19.60300
H  -4.93400 28.65800 21.77100
H  -6.41700 27.67600 22.31500
H  -6.10400 29.04000 20.05300
H  -7.40500 28.00400 20.46900
H  -6.02000 27.27300 19.54700
H  -0.57000 29.59700 25.97800
H  -1.91000 30.36800 25.09300
H  -0.78800 29.22500 24.40300
H  -3.11900 27.79600 30.27400
H  -0.55400 27.50700 33.34300
H  0.29700 26.62500 32.15700
H  -0.96200 25.83700 33.12200

