158

Mg 56.00800 23.10200 44.36500
C  53.77100 25.60400 43.24600
C  53.92600 20.69200 43.18900
C  58.43400 20.82000 44.69800
C  58.27500 25.58700 45.27400
N  54.06900 23.13600 43.29600
C  53.31300 24.24200 43.03100
C  51.90400 23.82700 42.53000
C  51.90400 22.26000 42.81500
C  53.40300 21.97500 43.17400
C  50.94100 21.75800 43.93600
C  51.64400 24.14800 41.03300
C  50.26300 24.60700 40.81000
H  49.49700 23.84100 39.73000
N  56.12200 21.02300 44.05400
C  55.14600 20.27100 43.63500
C  55.54800 18.92600 43.71100
C  56.95900 18.90900 44.01000
C  57.23600 20.25700 44.24900
C  54.69100 17.67700 43.36000
C  57.80800 17.60100 44.16200
O  57.36500 16.48600 44.02800
C  59.19200 17.69800 44.62200
N  58.05300 23.21200 44.87300
C  58.79800 22.14900 44.95100
C  60.23600 22.53000 45.41500
C  60.07700 23.99900 45.87400
C  58.74500 24.27100 45.38700
C  60.92500 21.66200 46.53800
C  61.20000 24.98500 45.22700
C  61.98300 25.89800 46.18300
N  56.06700 25.23100 44.32300
C  57.00000 26.04200 44.74300
C  56.53600 27.39900 44.57900
C  55.23200 27.27800 44.04300
C  55.03700 25.89500 43.82500
C  57.29100 28.57900 44.98600
C  54.12300 27.98400 43.58500
O  53.95500 29.21200 43.60100
C  53.09200 26.93800 43.07100
C  52.74900 27.32700 41.59400
O  53.36300 27.11400 40.55600
O  51.52500 27.87100 41.63600
C  51.05700 28.53000 40.37400
H  53.16900 19.93500 42.97100
H  59.21800 20.06200 44.65700
H  58.93500 26.37900 45.63400
H  51.09100 24.23100 43.13300
H  51.64200 21.75800 41.88400
H  51.52900 21.59500 44.83900
H  50.64500 20.75300 43.63300
H  50.06000 22.38200 44.08600
H  51.88600 23.26400 40.44300
H  52.32100 24.92600 40.67800
H  50.35100 25.67300 40.59900
H  49.65300 24.75500 41.70200
H  54.58300 17.16700 44.31700
H  55.16800 17.01600 42.63700
H  53.69600 17.90700 42.98100
H  59.93200 17.97100 43.87000
H  59.47800 16.66100 44.79800
H  59.23200 18.06200 45.64900
H  60.88400 22.43000 44.54400
H  60.12900 23.98800 46.96200
H  61.95100 21.42900 46.25300
H  60.46800 20.67200 46.53500
H  60.90200 22.15700 47.50800
H  60.74700 25.62500 44.47000
H  61.86800 24.33100 44.66700
H  61.46600 25.94200 47.14200
H  62.14800 26.90500 45.80000
H  62.98100 25.51300 46.39700
H  58.20600 28.62700 44.39500
H  57.52900 28.45800 46.04300
H  56.68800 29.45500 44.74900
H  52.21600 26.78400 43.70100
H  51.72200 28.31400 39.53900
H  51.04700 29.59800 40.59100
H  50.02500 28.26300 40.14600
Mg 35.13400 49.10600 26.54600
C  35.56300 46.91800 29.26000
C  34.01200 51.54200 28.66600
C  34.24100 50.99400 23.82500
C  35.85600 46.52200 24.43300
N  34.79200 49.31900 28.73200
C  35.16700 48.22700 29.61000
C  34.88700 48.73500 31.01000
C  34.40200 50.24000 30.87000
C  34.37200 50.39200 29.38100
C  33.03300 50.48500 31.55200
C  36.12700 48.59600 31.86900
C  36.01500 48.03100 33.34100
H  36.46600 49.11800 34.36200
N  34.35600 51.00800 26.30700
C  33.93200 51.85200 27.33600
C  33.60700 53.17400 26.76300
C  33.64500 53.11300 25.37300
C  34.06300 51.63300 25.10000
C  33.51500 54.43700 27.63500
C  33.52100 54.19200 24.35600
O  33.68200 53.97000 23.17100
C  33.11600 55.63200 24.69500
N  35.08500 48.85600 24.41400
C  34.61200 49.70500 23.49100
C  34.48300 49.04600 22.09600
C  35.27100 47.70400 22.33900
C  35.51200 47.68300 23.81200
C  33.06000 48.79900 21.46700
C  36.58100 47.43400 21.46100
C  36.93900 45.96800 21.03300
N  35.58600 47.15600 26.75800
C  35.88700 46.25500 25.76000
C  36.13600 44.96400 26.41200
C  35.98500 45.18800 27.76000
C  35.68100 46.51300 27.89000
C  36.33800 43.61200 25.78200
C  36.06500 44.53800 29.08000
O  36.34100 43.41800 29.44300
C  35.70800 45.67700 30.09800
C  34.43100 45.39500 30.79300
O  33.37500 45.05500 30.22000
O  34.55300 45.41700 32.19400
C  33.43500 44.82900 32.94400
H  33.52300 52.30300 29.27700
H  33.92200 51.57500 22.95700
H  36.00500 45.59100 23.88200
H  34.06700 48.10400 31.35200
H  35.05300 51.03400 31.23500
H  32.80700 49.64700 32.21100
H  32.32800 50.43800 30.72300
H  32.86000 51.46300 32.00100
H  36.66300 49.54400 31.89400
H  36.86800 47.97100 31.36900
H  36.64600 47.15400 33.48300
H  35.01100 47.72600 33.63600
H  34.32100 55.13300 27.40200
H  33.39600 54.32800 28.71300
H  32.58800 54.92300 27.32900
H  33.23900 56.26000 23.81200
H  33.70900 56.16300 25.43900
H  32.08800 55.69200 25.05300
H  35.01800 49.63900 21.35300
H  34.66400 46.81200 22.18100
H  33.10200 49.43300 20.58100
H  32.19500 49.01900 22.09200
H  32.86600 47.83500 20.99500
H  37.35900 47.73900 22.16000
H  36.64900 48.08300 20.58700
H  38.00200 45.80300 21.20800
H  36.76900 45.83500 19.96500
H  36.41200 45.20100 21.60100
H  37.39100 43.62300 25.49700
H  35.77700 43.32600 24.89200
H  36.24300 42.88300 26.58600
H  36.50500 45.93000 30.79700
H  32.49300 45.26400 32.60900
H  33.66600 45.32900 33.88500
H  33.44400 43.74000 32.99900

