158

Mg 1.63200 8.42200 26.42700
C  1.74900 10.54100 29.08900
C  1.33600 5.69700 28.55600
C  2.06300 6.52200 23.79200
C  1.64500 11.42600 24.27800
N  1.49900 8.17000 28.57400
C  1.43900 9.17900 29.47100
C  1.29100 8.66400 30.93500
C  1.51800 7.11700 30.74200
C  1.45700 6.94500 29.21900
C  2.80500 6.51900 31.36700
C  -0.04800 9.12200 31.58300
C  -0.31100 8.62900 33.06300
H  0.87300 8.27900 33.97000
N  1.63400 6.48500 26.13600
C  1.43900 5.45700 27.17800
C  1.52900 4.14700 26.54600
C  1.87700 4.36400 25.23400
C  1.89400 5.84100 24.96700
C  1.16100 2.88700 27.32100
C  2.14900 3.38800 24.15900
O  2.50200 3.65200 23.00800
C  2.20100 1.86800 24.53200
N  1.86600 8.93700 24.37500
C  1.95000 7.90000 23.46500
C  2.01700 8.48700 22.02900
C  1.68200 9.95600 22.19400
C  1.71700 10.17700 23.71600
C  3.31400 8.16600 21.24000
C  0.32800 10.48900 21.64200
C  -0.84300 9.69700 22.19200
N  1.72800 10.55400 26.63100
C  1.80400 11.59300 25.64000
C  2.07700 12.79700 26.35900
C  2.09300 12.44900 27.75600
C  1.87900 11.07800 27.84000
C  2.26900 14.22300 25.86700
C  2.24900 12.93200 29.09400
O  2.51200 14.07700 29.52700
C  1.86800 11.77900 30.04000
C  2.89700 11.72900 31.15500
O  4.07000 11.31400 31.10500
O  2.31700 12.22400 32.26200
C  3.20100 12.16200 33.39600
H  1.25900 4.85700 29.24900
H  2.12000 5.97100 22.85100
H  1.55300 12.34100 23.68900
H  2.02600 9.04500 31.64400
H  0.69500 6.50500 31.11100
H  2.67900 5.48800 31.69800
H  3.07100 7.22700 32.15200
H  3.64900 6.49400 30.67800
H  -0.85300 8.85600 30.89900
H  0.01600 10.20800 31.65400
H  -0.97600 7.76800 32.98400
H  -0.99400 9.37500 33.46900
H  0.90500 3.07100 28.36500
H  1.90500 2.09100 27.33200
H  0.37200 2.32100 26.82600
H  1.26100 1.56200 24.99200
H  2.99700 1.72800 25.26300
H  2.58100 1.25900 23.71100
H  1.27400 7.84000 21.56200
H  2.43900 10.54000 21.67100
H  4.02700 8.98800 21.31100
H  3.01600 7.97700 20.20900
H  3.77000 7.22500 21.54700
H  0.40600 10.54200 20.55600
H  0.17300 11.53700 21.89600
H  -1.23400 10.06200 23.14100
H  -0.75100 8.61300 22.25300
H  -1.75800 9.85800 21.62100
H  1.67900 14.27400 24.95200
H  3.28600 14.45500 25.55300
H  1.94000 15.01600 26.53800
H  0.98300 12.09400 30.59400
H  4.05700 12.80600 33.19200
H  3.53500 11.14300 33.59600
H  2.70800 12.61000 34.25800
Mg 43.99700 4.72400 48.20800
C  41.88500 7.52200 47.59600
C  41.21400 2.71200 47.59900
C  46.08700 2.30700 47.93700
C  46.81300 7.13800 48.07300
N  41.84100 5.07600 47.43200
C  41.22500 6.30200 47.51800
C  39.70300 6.18900 47.32800
C  39.43300 4.63900 47.40200
C  40.85400 4.10700 47.64100
C  38.44700 4.15900 48.50700
C  39.11200 6.90600 46.06900
C  37.83000 6.39400 45.32800
H  38.10400 5.83800 43.95200
N  43.67800 2.70000 47.93400
C  42.47600 2.02200 47.72900
C  42.82000 0.64300 47.56200
C  44.18500 0.50500 47.80200
C  44.74200 1.87500 47.96800
C  41.76400 -0.45800 47.38700
C  44.93700 -0.83400 47.79000
O  44.31400 -1.90800 47.61700
C  46.39300 -0.80900 48.08200
N  46.13800 4.77200 47.94300
C  46.75900 3.55500 47.86400
C  48.25000 3.69000 47.90500
C  48.55900 5.17900 48.18500
C  47.10900 5.70900 48.09900
C  49.01100 2.76600 48.89400
C  49.48000 5.84000 47.23000
C  50.94100 5.99300 47.67000
N  44.31600 6.88600 47.95000
C  45.54900 7.64500 47.91400
C  45.15500 9.11200 47.80500
C  43.76300 9.07100 47.66600
C  43.31000 7.72300 47.75000
C  46.06300 10.24200 47.73100
C  42.60300 9.87800 47.56300
O  42.52100 11.07700 47.45700
C  41.35400 8.95800 47.52800
C  40.44500 9.31900 48.66100
O  40.09300 8.56400 49.51300
O  39.88700 10.56600 48.51700
C  38.77700 10.85000 49.47000
H  40.40200 1.98300 47.57600
H  46.79700 1.52100 47.67100
H  47.66600 7.82000 48.07700
H  39.23700 6.73300 48.15000
H  39.14800 4.37600 46.38300
H  37.66400 3.51100 48.11300
H  37.82400 5.00000 48.81100
H  38.94600 3.67800 49.34800
H  39.98900 6.90000 45.42100
H  38.85100 7.93000 46.33500
H  37.09400 7.19900 45.32100
H  37.42500 5.64000 46.00300
H  41.38200 -0.73000 48.37100
H  42.09900 -1.38200 46.91600
H  40.97800 -0.02400 46.76900
H  46.91100 -0.64300 47.13700
H  46.69100 -1.83300 48.30500
H  46.71800 -0.18800 48.91700
H  48.54000 3.42500 46.88900
H  48.93000 5.36600 49.19300
H  48.47300 2.30500 49.72300
H  49.99600 3.14400 49.16800
H  49.29300 1.95800 48.22000
H  49.11800 6.79000 46.83900
H  49.53600 5.20400 46.34700
H  51.56700 5.42900 46.97900
H  50.97000 5.63600 48.70000
H  51.26900 7.03300 47.69000
H  46.77700 10.23800 48.55500
H  45.47900 11.16200 47.74100
H  46.67200 10.24900 46.82700
H  40.82800 9.24000 46.61600
H  39.04300 10.64800 50.50700
H  37.86800 10.32000 49.18300
H  38.55300 11.91600 49.43600

