158

Mg 9.20400 48.44300 25.27500
C  7.07100 48.20800 28.00900
C  11.68300 49.27800 27.43000
C  11.23800 48.36200 22.68200
C  6.49300 47.96800 23.11900
N  9.29100 48.60300 27.57800
C  8.30000 48.56000 28.43900
C  8.75300 48.89000 29.85100
C  10.17700 49.63000 29.53800
C  10.44700 49.07100 28.09700
C  10.20600 51.14900 29.69100
C  8.76900 47.65200 30.77000
C  9.68400 47.61800 32.01800
H  9.08200 47.61800 33.47700
N  11.25100 48.75200 25.06700
C  12.11300 49.15200 26.06300
C  13.46600 49.27200 25.44500
C  13.31000 48.92700 24.04800
C  11.86900 48.72000 23.87100
C  14.67800 49.42300 26.29400
C  14.34300 48.66900 23.01400
O  14.23300 48.36600 21.83600
C  15.75400 48.63900 23.50900
N  8.84200 48.22900 23.12700
C  9.82100 48.12600 22.27400
C  9.52600 47.56800 20.85600
C  7.94700 47.52500 21.02600
C  7.71700 47.88800 22.51100
C  9.90700 48.41500 19.63500
C  7.25400 46.18800 20.66000
C  5.77200 46.17500 20.27200
N  7.25900 48.19700 25.44500
C  6.25000 48.02600 24.49000
C  5.01400 47.88800 25.19600
C  5.29800 47.88600 26.54300
C  6.67900 48.07400 26.65800
C  3.60600 47.71600 24.48500
C  4.63500 47.89700 27.85300
O  3.45600 47.79300 28.22400
C  5.80200 48.03900 28.87700
C  5.75000 46.76000 29.64600
O  6.35400 45.77000 29.24700
O  5.07000 46.89600 30.83200
C  5.25200 45.67900 31.71000
H  12.42800 49.77800 28.05200
H  11.93400 48.39700 21.84100
H  5.63300 47.76400 22.47700
H  8.02100 49.63400 30.16400
H  11.05200 49.17200 29.99900
H  9.22600 51.60800 29.82000
H  10.70600 51.58700 28.82800
H  10.75300 51.47900 30.57400
H  9.00600 46.77800 30.16400
H  7.76700 47.62800 31.20000
H  10.35300 48.47600 31.95500
H  10.21800 46.67200 31.92200
H  14.48500 49.40900 27.36600
H  15.17700 50.34300 25.99000
H  15.34700 48.58700 26.09300
H  16.02100 47.82600 24.18400
H  15.82400 49.62200 23.97500
H  16.44500 48.60000 22.66700
H  9.91900 46.56500 20.68900
H  7.52900 48.30100 20.38600
H  10.02300 49.42700 20.02200
H  9.12600 48.55600 18.88700
H  10.86200 48.05400 19.25300
H  7.26700 45.66100 21.61400
H  7.80900 45.78600 19.81200
H  5.13300 45.50000 20.84100
H  5.62700 46.06200 19.19800
H  5.29800 47.12900 20.50100
H  3.59400 47.03000 23.63800
H  3.56500 48.76800 24.20400
H  2.79200 47.36400 25.11800
H  5.61800 48.99400 29.36900
H  4.95900 45.94600 32.72500
H  6.28600 45.35600 31.83000
H  4.58800 44.85500 31.44700
Mg -9.46400 18.75600 42.50800
C  -6.10500 17.71600 42.49100
C  -8.41300 21.96300 41.72400
C  -12.62800 19.46500 41.91500
C  -10.29900 15.35500 43.05000
N  -7.40700 19.69700 41.76800
C  -6.21200 19.07800 42.11900
C  -5.07100 20.07300 42.13500
C  -5.83200 21.45900 42.20000
C  -7.30700 21.07300 41.91900
C  -5.75100 22.20800 43.57500
C  -3.85000 19.94400 41.18200
C  -4.12300 19.14800 39.84200
H  -3.65200 19.78800 38.54400
N  -10.43300 20.62000 41.97200
C  -9.81000 21.75900 41.70100
C  -10.84600 22.70400 41.45400
C  -12.10000 22.13700 41.68600
C  -11.80200 20.66000 41.87100
C  -10.61800 24.07600 41.00400
C  -13.42500 22.76400 41.59700
O  -13.38000 23.99800 41.48700
C  -14.78000 22.06600 41.84700
N  -11.22400 17.50900 42.45100
C  -12.35500 18.08800 42.14400
C  -13.52300 17.10600 42.29800
C  -12.81800 15.76200 42.61300
C  -11.37500 16.22400 42.70300
C  -14.66100 17.55000 43.25400
C  -12.99700 14.58000 41.57900
C  -14.41800 13.96500 41.33700
N  -8.47700 16.89700 42.73600
C  -8.94600 15.63500 43.03400
C  -7.87100 14.73300 43.27200
C  -6.69300 15.52800 43.10000
C  -7.15900 16.80400 42.72900
C  -7.93000 13.24700 43.58500
C  -5.26100 15.56200 43.22100
O  -4.57400 14.61300 43.49700
C  -4.80900 16.93200 42.82100
C  -3.87500 17.50100 43.87100
O  -2.72000 17.82300 43.58800
O  -4.43800 17.42900 45.11400
C  -3.68500 17.86600 46.26200
H  -8.03100 22.98000 41.61900
H  -13.70000 19.59700 41.75300
H  -10.60100 14.32200 43.23500
H  -4.62700 20.00100 43.12800
H  -5.45000 22.07300 41.38400
H  -4.76600 22.67100 43.62800
H  -5.95200 21.52400 44.40000
H  -6.50700 22.99000 43.64000
H  -3.00600 19.47900 41.69200
H  -3.63900 20.95400 40.83100
H  -5.20500 19.02000 39.87400
H  -3.68200 18.16200 39.99200
H  -11.13800 24.38000 40.09600
H  -9.55600 24.31100 40.94000
H  -11.00700 24.74200 41.77400
H  -14.60100 21.39400 42.68600
H  -14.93200 21.49600 40.93100
H  -15.54700 22.83000 41.97700
H  -13.91100 17.05000 41.28000
H  -13.15200 15.46800 43.60800
H  -14.62000 17.03200 44.21200
H  -15.61500 17.14800 42.91400
H  -14.55600 18.61600 43.45600
H  -12.25800 13.79000 41.70800
H  -12.67700 15.10200 40.67700
H  -15.31900 14.28100 41.86200
H  -14.27400 12.93700 41.66900
H  -14.68500 13.94500 40.28000
H  -6.93600 12.83200 43.75300
H  -8.52400 12.72100 42.83800
H  -8.55500 13.20600 44.47700
H  -4.28900 16.89200 41.86400
H  -4.42800 18.28300 46.94200
H  -2.92000 18.63600 46.16000
H  -3.11800 17.10400 46.79700

