158

Mg 6.84700 55.75000 41.00100
C  4.33600 53.19600 40.95500
C  9.02300 53.50200 39.59100
C  9.03700 58.33000 40.37100
C  4.35200 58.12600 41.74300
N  6.59000 53.59500 40.17200
C  5.48400 52.79100 40.28400
C  5.79500 51.49300 39.52300
C  7.39300 51.49300 39.24200
C  7.72600 52.95300 39.80100
C  8.14000 50.40200 39.89300
C  5.02200 51.51400 38.18200
C  4.51200 50.12900 37.72600
H  5.18200 49.62900 36.52200
N  8.81200 55.86900 40.22300
C  9.51200 54.85000 39.70800
C  10.83800 55.25200 39.55300
C  10.90200 56.67200 39.67300
C  9.54000 57.05400 40.07600
C  11.90900 54.37900 39.02500
C  12.07500 57.51100 39.35700
O  13.15000 57.08300 39.03900
C  11.99000 58.95300 39.35300
N  6.65300 57.97000 40.80400
C  7.73400 58.81100 40.72000
C  7.38300 60.24700 41.17600
C  5.92800 60.05400 41.67200
C  5.61800 58.59400 41.37200
C  8.23600 60.74900 42.29400
C  4.95500 61.15900 41.03700
C  3.81400 61.68900 41.95400
N  4.85800 55.71400 41.39300
C  3.97900 56.75000 41.72800
C  2.66900 56.21500 41.96200
C  2.82500 54.85800 41.71800
C  4.14200 54.60200 41.31300
C  1.45900 56.90000 42.39100
C  2.00800 53.63000 41.72100
O  0.80000 53.45000 41.95100
C  3.05600 52.47900 41.41900
C  2.45100 51.47400 40.49100
O  1.98800 51.71000 39.36900
O  2.61000 50.21300 41.01800
C  1.87100 49.09400 40.31200
H  9.75700 52.77100 39.24500
H  9.77100 59.12900 40.25300
H  3.64400 58.81300 42.21000
H  5.58700 50.68700 40.22700
H  7.54900 51.37600 38.16900
H  7.44600 49.66300 40.29300
H  8.68300 50.70500 40.78800
H  8.84800 50.00300 39.16600
H  5.67100 51.77500 37.34600
H  4.20300 52.21900 38.32000
H  3.42600 50.14500 37.64000
H  4.66300 49.38600 38.50900
H  11.67200 53.31700 38.96100
H  12.79000 54.44000 39.66400
H  12.24900 54.71600 38.04500
H  11.27100 59.28500 38.60400
H  12.93000 59.43600 39.08500
H  11.64900 59.28800 40.33200
H  7.38100 60.96300 40.35400
H  5.77200 60.05300 42.75100
H  7.65000 61.49700 42.82900
H  8.90200 61.33800 41.66500
H  8.88700 60.06200 42.83500
H  4.58400 60.68400 40.12900
H  5.64600 61.97100 40.81200
H  3.98300 62.75500 42.10600
H  3.64400 61.12900 42.87400
H  2.96300 61.59400 41.27900
H  1.09400 57.55300 41.59800
H  1.72400 57.46400 43.28500
H  0.63400 56.21600 42.59000
H  3.34200 51.96600 42.33700
H  2.11700 49.12100 39.25100
H  0.80900 49.07900 40.56100
H  2.20700 48.19200 40.82400
Mg 17.02700 52.82200 26.39600
C  19.27600 51.53500 28.76800
C  14.75800 53.19300 28.93200
C  14.77500 53.81100 24.11700
C  19.18600 51.87100 23.83400
N  17.05500 52.46300 28.48600
C  18.08700 51.97300 29.31300
C  17.79300 52.28000 30.75900
C  16.23800 52.35000 30.77600
C  16.01400 52.69700 29.29500
C  15.52500 51.05300 31.21100
C  18.58000 53.55700 31.24100
C  19.03800 53.54700 32.70800
H  18.20300 52.83200 33.75900
N  14.98900 53.44600 26.49000
C  14.24700 53.52800 27.64500
C  13.06500 54.24600 27.33200
C  12.97300 54.28900 25.88100
C  14.27700 53.85900 25.41900
C  12.15900 54.75800 28.38000
C  11.79600 54.77800 24.94300
O  11.80400 54.62700 23.73600
C  10.69900 55.56500 25.46500
N  17.09100 52.93400 24.29600
C  15.96300 53.30300 23.58100
C  16.18700 53.20100 22.05200
C  17.69700 52.68300 21.96800
C  18.03400 52.53700 23.41300
C  15.22000 52.35900 21.27300
C  18.56200 53.73700 21.16900
C  19.32700 54.82200 22.02400
N  18.92300 51.93100 26.24200
C  19.66400 51.56400 25.12600
C  20.80200 50.73000 25.66700
C  20.74700 50.88700 27.03600
C  19.55500 51.48800 27.33300
C  21.83100 50.14800 24.84000
C  21.41000 50.45300 28.27500
O  22.40500 49.82800 28.46300
C  20.48400 51.06700 29.51400
C  20.20400 49.96600 30.47500
O  19.32900 49.09400 30.30900
O  20.90000 50.10700 31.62400
C  20.58900 49.17800 32.68400
H  14.03000 53.40000 29.71900
H  14.04900 54.07200 23.34400
H  19.85900 51.48100 23.06800
H  18.07000 51.34400 31.24300
H  15.94000 53.08000 31.52800
H  15.42400 51.13700 32.29300
H  16.05200 50.11900 31.01600
H  14.55800 51.04900 30.70800
H  17.96800 54.41500 30.96000
H  19.49100 53.58700 30.64300
H  19.14100 54.55900 33.09900
H  20.06300 53.21000 32.86000
H  12.59600 54.64600 29.37200
H  11.11800 54.43600 28.39000
H  12.01300 55.81700 28.16500
H  10.23100 54.72400 25.97700
H  10.03500 55.87000 24.65600
H  11.00900 56.32500 26.18200
H  16.09800 54.20500 21.63900
H  17.72800 51.69500 21.50800
H  15.73400 51.63000 20.64700
H  14.61800 52.93900 20.57400
H  14.57800 51.76400 21.92300
H  17.99800 54.33300 20.45200
H  19.38700 53.28600 20.61600
H  19.81500 54.39900 22.90200
H  18.81900 55.69000 22.44400
H  20.11000 55.18100 21.35700
H  22.30700 51.03800 24.42700
H  21.48400 49.34900 24.18600
H  22.64300 49.69200 25.40700
H  21.02300 51.86600 30.02200
H  19.61600 49.34800 33.14400
H  21.36200 49.24500 33.45000
H  20.61000 48.17400 32.26000

