158

Mg 36.00200 49.89300 25.84600
C  36.46200 48.05500 28.80800
C  35.11200 52.50400 27.64500
C  35.24000 51.22800 22.86700
C  37.15400 46.89800 24.03600
N  35.66700 50.09500 27.96500
C  35.92200 49.33000 29.02800
C  35.58300 49.93000 30.40100
C  35.03400 51.33700 29.90400
C  35.28000 51.32200 28.40200
C  33.60600 51.68800 30.33000
C  36.80400 50.03700 31.36500
C  36.65800 49.73100 32.86900
H  35.31600 49.50900 33.54100
N  35.32600 51.62600 25.34400
C  35.09800 52.67300 26.22200
C  34.80100 53.81500 25.44400
C  34.74200 53.45800 24.07700
C  35.04500 52.01500 24.06500
C  34.67300 55.14900 26.12900
C  34.51400 54.31500 22.85900
O  34.47000 53.84900 21.71500
C  34.32700 55.77900 22.86200
N  36.08800 49.12600 23.73400
C  35.78000 49.97300 22.74100
C  36.11500 49.33300 21.38600
C  37.08500 48.15700 21.76900
C  36.71900 47.97800 23.25300
C  34.81700 48.90400 20.64300
C  38.63500 48.54200 21.63900
C  39.63600 47.34700 21.76500
N  36.73500 47.90600 26.24500
C  37.14600 46.82500 25.44500
C  37.60000 45.76100 26.29000
C  37.30900 46.21200 27.59500
C  36.80700 47.50300 27.52000
C  38.30300 44.48400 25.88400
C  37.34900 45.77200 29.00600
O  37.60100 44.67100 29.54500
C  36.82000 47.00200 29.85700
C  35.70600 46.57500 30.69400
O  34.57600 46.33200 30.32100
O  36.15600 46.18600 31.95900
C  35.15300 45.52900 32.84700
H  34.92900 53.37600 28.27500
H  35.11000 51.71700 21.89900
H  37.61700 46.10000 23.45100
H  34.81400 49.29700 30.84400
H  35.67600 52.13700 30.27300
H  33.16800 50.84300 30.86100
H  32.99600 51.65900 29.42800
H  33.55300 52.67500 30.79100
H  37.27100 51.01300 31.23900
H  37.57300 49.36800 30.97800
H  37.14100 50.53800 33.42000
H  37.27500 48.87100 33.12900
H  35.53400 55.78800 25.93000
H  34.53300 55.14200 27.21000
H  33.73800 55.62800 25.84000
H  34.83600 56.22500 23.71700
H  33.26500 55.96200 23.02300
H  34.74100 56.18100 21.93700
H  36.52600 50.13800 20.77600
H  36.82900 47.21100 21.29300
H  34.78100 49.51300 19.74000
H  33.92800 49.31100 21.12500
H  34.71700 47.88400 20.27300
H  38.80800 49.25200 22.44800
H  38.81400 49.06900 20.70100
H  39.03000 46.47100 21.53300
H  40.20300 47.43300 22.69200
H  40.26600 47.60900 20.91500
H  38.99600 44.66100 25.06100
H  37.58500 43.73400 25.55200
H  38.88800 44.09700 26.71900
H  37.53100 47.38400 30.58900
H  34.82300 44.56500 32.46100
H  34.23400 46.07600 33.05700
H  35.51100 45.37100 33.86400
Mg 16.70800 53.12600 26.70800
C  18.36100 51.64400 29.22800
C  13.97600 53.82700 28.89600
C  14.98800 54.49900 24.18600
C  18.90300 51.69200 24.38500
N  16.21300 52.71300 28.79300
C  17.15800 52.30600 29.63100
C  16.75800 52.52000 31.11400
C  15.27500 52.97300 31.04100
C  15.10900 53.20600 29.51100
C  14.13900 51.99200 31.53900
C  17.72400 53.47200 31.91200
C  18.20000 53.11300 33.33400
H  17.24400 52.49700 34.34700
N  14.83900 54.06700 26.62600
C  13.88400 54.29000 27.61500
C  12.82500 55.12400 27.10400
C  13.20200 55.46900 25.78300
C  14.42800 54.67000 25.52700
C  11.51200 55.34800 27.78000
C  12.49300 56.38300 24.74300
O  12.93800 56.67700 23.58400
C  11.15400 56.99600 25.05200
N  16.76100 52.88000 24.50600
C  15.99700 53.68200 23.75000
C  16.26200 53.42300 22.26100
C  17.59900 52.56700 22.30600
C  17.85000 52.43800 23.80600
C  15.11800 52.63100 21.62400
C  18.83800 53.17700 21.56100
C  19.37800 54.42500 22.27000
N  18.27400 51.84200 26.67800
C  19.17300 51.46400 25.68600
C  20.23000 50.71100 26.36100
C  19.97600 50.76900 27.76700
C  18.81700 51.46700 27.89900
C  21.34700 50.17300 25.54700
C  20.44400 50.35500 29.04500
O  21.53200 49.82700 29.35200
C  19.40400 50.94800 30.04600
C  18.83900 49.78300 30.75200
O  18.23000 48.87400 30.27100
O  19.20400 49.81600 32.07100
C  18.78700 48.69000 32.96300
H  13.18600 54.13900 29.58200
H  14.56600 55.04300 23.33800
H  19.54900 51.17400 23.67200
H  16.82400 51.52600 31.55700
H  15.20600 53.93600 31.54700
H  13.68900 52.33700 32.47000
H  14.55000 51.01400 31.79000
H  13.43700 51.89600 30.71000
H  17.15600 54.40000 31.98100
H  18.55000 53.61400 31.21500
H  18.64900 54.02200 33.73300
H  19.01500 52.39000 33.35500
H  10.71300 55.17800 27.05900
H  11.39500 56.36500 28.15400
H  11.42200 54.68200 28.63900
H  10.98300 57.40500 26.04800
H  10.42500 56.22300 24.81000
H  11.00600 57.79300 24.32300
H  16.52700 54.32300 21.70700
H  17.30200 51.58500 21.93800
H  14.32800 52.33700 22.31400
H  15.41800 51.78300 21.00900
H  14.63900 53.32000 20.92900
H  18.51800 53.38100 20.54000
H  19.58200 52.38300 21.48500
H  19.57600 55.09600 21.43400
H  20.13700 54.24300 23.03100
H  18.56000 54.86400 22.84000
H  22.09000 49.75800 26.22800
H  21.89100 50.88600 24.92700
H  21.01700 49.42400 24.82800
H  19.83900 51.55000 30.84400
H  19.00500 49.11400 33.94300
H  19.36300 47.78500 32.77100
H  17.71900 48.46900 32.94100

