158

Mg 46.74600 24.96000 28.86900
C  47.46000 27.46300 31.26900
C  45.75900 22.91400 31.34700
C  46.58000 22.51900 26.55900
C  48.31900 26.97600 26.48600
N  46.76800 25.20000 31.01700
C  46.94400 26.29900 31.79200
C  46.58000 26.07400 33.26400
C  46.17700 24.52300 33.32900
C  46.23700 24.17400 31.80400
C  47.14300 23.62100 34.19000
C  45.35300 27.01500 33.81800
C  44.90500 26.76200 35.25400
H  45.86700 26.49700 36.46100
N  46.03300 23.02500 28.92900
C  45.72300 22.35500 30.04400
C  45.26300 21.02500 29.65000
C  45.31200 20.93800 28.16600
C  46.04700 22.20200 27.81500
C  44.80500 19.97700 30.61900
C  44.84300 19.83600 27.16900
O  44.96300 19.93700 25.95900
C  44.17500 18.63100 27.76300
N  47.42900 24.72000 26.89000
C  47.34800 23.64400 26.15500
C  48.03500 23.65800 24.82300
C  48.37400 25.17400 24.75500
C  47.94200 25.71600 26.18400
C  49.09500 22.61000 24.75000
C  47.72000 26.08100 23.64400
C  48.70400 26.79000 22.70200
N  47.60100 26.85400 28.80900
C  48.13800 27.55300 27.75500
C  48.52200 28.89500 28.20300
C  48.30900 28.89600 29.60600
C  47.81400 27.61700 29.89800
C  49.08800 29.95400 27.42200
C  48.40000 29.69300 30.82800
O  48.82300 30.81600 31.01600
C  47.97600 28.73000 31.98800
C  49.13700 28.45500 32.91900
O  50.20900 27.93700 32.62100
O  48.65200 28.59000 34.20600
C  49.73700 28.48000 35.23700
H  45.50400 22.29000 32.20600
H  46.56000 21.68400 25.85500
H  48.87000 27.65000 25.82800
H  47.45400 26.39000 33.83300
H  45.14200 24.44500 33.66400
H  46.51100 23.13100 34.93000
H  47.90000 24.24200 34.66900
H  47.70000 22.92000 33.56900
H  44.44400 26.84500 33.24200
H  45.52900 28.08800 33.73900
H  44.22100 25.91300 35.27200
H  44.25100 27.58700 35.53500
H  43.74000 20.03400 30.84500
H  45.41600 20.12000 31.50900
H  45.07300 18.99400 30.23000
H  43.48200 18.85000 28.57500
H  44.90700 17.92600 28.15900
H  43.61300 18.15300 26.96000
H  47.26500 23.46400 24.07600
H  49.44700 25.32300 24.63900
H  49.01200 21.89800 23.92800
H  49.10300 22.00600 25.65800
H  50.06400 23.09800 24.65100
H  47.10100 26.84200 24.12000
H  47.02500 25.48300 23.05600
H  48.86900 27.83400 22.96900
H  48.51400 26.75900 21.62900
H  49.71200 26.43200 22.91100
H  50.17700 29.96400 27.43900
H  48.68300 30.84800 27.89600
H  48.77200 29.89700 26.38000
H  47.25000 29.21700 32.63900
H  50.75700 28.38000 34.86400
H  49.52300 27.65400 35.91500
H  49.84800 29.48300 35.65000
Mg 48.72600 44.99500 42.27400
C  45.67400 45.46400 40.82000
C  48.55100 41.68000 41.35700
C  52.02300 44.75000 42.98400
C  48.99700 48.60500 42.53500
N  47.24600 43.72300 41.31900
C  46.05000 44.12000 40.82200
C  45.34600 42.99400 40.11000
C  46.21700 41.73200 40.42100
C  47.37800 42.42100 41.14500
C  45.52300 40.81300 41.45100
C  45.04100 43.09600 38.56700
C  43.70000 42.48900 37.99300
H  43.54900 41.96300 36.56900
N  50.11300 43.42700 42.22600
C  49.81100 42.14400 41.86500
C  51.06400 41.40300 41.94900
C  52.09100 42.22700 42.49200
C  51.46800 43.51600 42.63600
C  51.14000 39.99500 41.47900
C  53.51800 41.82300 42.76200
O  53.90600 40.66700 42.54800
C  54.48300 42.78900 43.32100
N  50.29500 46.52400 42.72000
C  51.55700 46.09500 42.94000
C  52.48300 47.32200 43.28900
C  51.40200 48.45300 43.30900
C  50.16700 47.83500 42.80700
C  53.30900 47.23500 44.61000
C  51.89000 49.75500 42.71100
C  51.62600 50.99100 43.54400
N  47.58100 46.73000 41.82900
C  47.74800 48.08200 42.11400
C  46.46400 48.72800 41.95000
C  45.69200 47.73800 41.31800
C  46.34900 46.53600 41.36300
C  46.09100 50.10200 42.12700
C  44.42800 47.47800 40.60400
O  43.50500 48.25100 40.46700
C  44.41500 45.97300 40.20900
C  43.17200 45.46300 40.77400
O  42.18600 45.09900 40.17000
O  43.17400 45.55500 42.14500
C  41.92300 45.79600 42.87100
H  48.45200 40.62500 41.09400
H  53.09100 44.78600 43.21100
H  49.01000 49.68400 42.70600
H  44.45100 42.87600 40.72100
H  46.46800 41.17500 39.51900
H  46.02500 39.87100 41.67300
H  44.61400 40.46700 40.95900
H  45.24800 41.29900 42.38700
H  45.78300 42.55900 37.97700
H  45.06400 44.09100 38.12300
H  42.91400 43.22400 38.17200
H  43.45500 41.65300 38.64800
H  52.07800 39.65500 41.04000
H  50.37400 39.63800 40.79200
H  50.90200 39.45000 42.39300
H  54.74600 43.67200 42.73900
H  55.45900 42.30900 43.39800
H  54.19100 43.04300 44.34000
H  53.13800 47.48400 42.43200
H  51.03800 48.67800 44.31100
H  54.19700 47.84900 44.45800
H  53.65500 46.25300 44.93300
H  52.84900 47.79000 45.42700
H  51.56400 49.97300 41.69400
H  52.97500 49.70300 42.61500
H  52.02300 50.94100 44.55800
H  50.59700 51.34100 43.62000
H  52.16200 51.80300 43.05400
H  45.58800 50.23900 43.08400
H  45.45700 50.33100 41.27000
H  46.99400 50.71100 42.09100
H  44.29800 45.94500 39.12600
H  42.13500 45.85000 43.93900
H  41.08200 45.11900 42.72300
H  41.68800 46.84800 42.70800

