158

Mg 26.63700 0.67800 29.39600
C  28.56100 0.33800 32.17400
C  23.78300 1.17800 31.38800
C  24.66600 0.63300 26.59100
C  29.48100 -0.09500 27.31000
N  26.25700 0.68100 31.55000
C  27.22200 0.69300 32.52900
C  26.61500 0.89400 33.92000
C  25.08800 1.01000 33.60200
C  25.00900 1.02300 32.09300
C  24.25100 -0.02700 34.27600
C  27.19600 2.25200 34.53500
C  28.08700 2.01400 35.74900
H  27.81600 2.87900 37.03000
N  24.58000 0.88900 28.99400
C  23.61900 1.10900 29.96800
C  22.30600 1.30900 29.28300
C  22.53600 1.04100 27.88200
C  23.96200 0.86800 27.79900
C  20.99100 1.54500 30.00200
C  21.52900 1.07800 26.70100
O  21.89300 0.93900 25.52200
C  20.07400 1.29200 26.94500
N  27.03700 0.23700 27.31900
C  25.99800 0.33900 26.40700
C  26.55200 0.35900 24.92800
C  28.17000 0.23100 25.13400
C  28.23100 0.10400 26.70600
C  25.99700 -0.68500 24.10500
C  28.97800 1.56500 24.72500
C  30.03600 1.28600 23.68600
N  28.54800 0.13500 29.64500
C  29.59100 -0.09100 28.70400
C  30.79200 -0.33800 29.50900
C  30.43200 -0.18200 30.85400
C  29.07300 0.10800 30.87000
C  32.14800 -0.69000 28.93900
C  30.91400 -0.34700 32.19500
O  31.91600 -0.86000 32.70800
C  29.71000 0.10400 33.11200
C  29.40000 -0.99600 34.11400
O  28.63500 -1.97600 33.91800
O  30.07400 -0.74700 35.27800
C  30.09000 -1.81700 36.25800
H  22.81700 1.32800 31.87600
H  24.23100 0.69500 25.59200
H  30.42000 -0.34200 26.81100
H  26.82600 0.06100 34.59000
H  24.74000 1.94400 34.04300
H  23.55900 0.42600 34.98500
H  24.94200 -0.73500 34.73400
H  23.64500 -0.53900 33.52800
H  26.47500 2.97100 34.92500
H  27.81400 2.78100 33.80900
H  29.10600 2.31200 35.49900
H  28.05400 0.96400 36.03800
H  20.39900 0.65300 29.79800
H  20.50800 2.39200 29.51600
H  21.02000 1.68600 31.08200
H  19.48700 1.11600 26.04300
H  20.02100 2.36700 27.12200
H  19.73900 0.62200 27.73700
H  26.34400 1.25800 24.34900
H  28.49400 -0.64700 24.57600
H  26.66800 -1.14900 23.38300
H  25.37400 -0.19900 23.35300
H  25.39600 -1.45200 24.59300
H  29.56200 2.03700 25.51600
H  28.32200 2.34800 24.34500
H  31.05000 1.32600 24.08200
H  30.05800 2.05900 22.91700
H  29.86700 0.32100 23.20700
H  32.93700 -0.46700 29.65900
H  32.36400 -0.15900 28.01200
H  32.12400 -1.77200 28.80900
H  29.91200 1.06200 33.58900
H  30.12500 -2.85200 35.91700
H  29.25100 -1.63800 36.93000
H  31.02000 -1.76100 36.82300
Mg 45.22800 3.15800 47.73200
C  43.67600 6.03500 46.71000
C  42.42400 1.35500 47.08000
C  47.08500 0.33000 47.48200
C  48.24400 5.03900 48.00900
N  43.26000 3.69800 47.01200
C  42.80700 4.93400 46.63300
C  41.26100 4.94500 46.27300
C  40.85200 3.46500 46.66900
C  42.27300 2.81400 46.93700
C  39.84600 3.29300 47.87200
C  41.10000 5.37800 44.79900
C  39.80100 6.26800 44.59400
H  38.95000 5.96500 43.32000
N  44.77400 1.08700 47.56500
C  43.55700 0.51700 47.34100
C  43.68400 -0.91200 47.27700
C  45.06400 -1.22300 47.38800
C  45.72600 0.05700 47.47800
C  42.57100 -1.91900 46.75400
C  45.66400 -2.63600 47.31800
O  44.92800 -3.58300 47.02000
C  47.12400 -2.78600 47.66700
N  47.35000 2.78300 47.41300
C  47.82100 1.53700 47.54100
C  49.33500 1.53100 47.67700
C  49.71500 3.06200 47.74500
C  48.37500 3.69100 47.70700
C  50.11600 0.52700 48.61100
C  50.61200 3.55100 46.56400
C  51.65000 4.62000 46.89300
N  45.86300 5.15100 47.62300
C  47.05900 5.77800 47.79000
C  46.97800 7.17600 47.53300
C  45.65800 7.35700 46.96500
C  45.00400 6.06700 47.14200
C  48.09500 8.13200 47.62800
C  44.74100 8.26900 46.33900
O  44.96200 9.37800 45.85600
C  43.40300 7.55800 46.27600
C  42.45400 8.10400 47.33800
O  42.20500 7.60800 48.41400
O  41.79900 9.15800 46.74100
C  40.55800 9.53600 47.46800
H  41.46200 0.84400 47.01000
H  47.83600 -0.46300 47.50700
H  49.15100 5.59500 48.25900
H  40.80100 5.66900 46.94600
H  40.50600 2.95400 45.77000
H  39.41000 4.21800 48.25000
H  40.48000 2.94000 48.68500
H  39.00000 2.63100 47.68700
H  41.05100 4.53600 44.10900
H  41.98100 5.93400 44.47800
H  40.15100 7.29700 44.50800
H  39.23300 6.15200 45.51700
H  42.32400 -2.70000 47.47300
H  42.71100 -2.53000 45.86300
H  41.64800 -1.36300 46.59100
H  47.78200 -2.39200 46.89200
H  47.24300 -3.86900 47.63800
H  47.39100 -2.40100 48.65100
H  49.60700 1.28000 46.65200
H  50.12300 3.34500 48.71500
H  49.47000 -0.26400 48.99000
H  50.50800 1.15600 49.41000
H  50.96900 0.06000 48.11900
H  50.07000 3.88100 45.67700
H  51.22900 2.75900 46.14200
H  51.77800 5.37800 46.12100
H  52.58400 4.10900 47.12500
H  51.23200 5.21600 47.70400
H  48.56900 7.92300 48.58700
H  47.65600 9.12000 47.76500
H  48.83300 8.16000 46.82600
H  43.04600 7.64300 45.24900
H  40.88100 10.01000 48.39500
H  39.89100 8.67800 47.54900
H  40.00400 10.33200 46.96900

