158

Mg 2.02200 -1.75400 44.66800
C  5.38900 -0.98200 44.11900
C  1.15900 0.70300 42.37100
C  -1.00200 -3.17900 44.61300
C  3.25500 -4.85300 46.13600
N  3.20600 -0.29700 43.35500
C  4.57500 -0.22200 43.27900
C  4.88100 0.99100 42.27200
C  3.51500 1.64500 42.00400
C  2.57800 0.64000 42.65100
C  3.35300 3.11900 42.40500
C  5.66300 0.43200 41.05100
C  7.07500 1.02200 40.89000
H  7.58400 1.33300 39.41400
N  0.32000 -1.24300 43.71700
C  0.12700 -0.16600 42.87500
C  -1.30100 -0.06900 42.65000
C  -1.97800 -1.20800 43.33500
C  -0.87100 -1.88700 43.96100
C  -1.82600 1.08200 41.78500
C  -3.40700 -1.41400 43.39100
O  -4.21100 -0.70700 42.73900
C  -4.13200 -2.40400 44.34500
N  1.28400 -3.66800 45.38700
C  -0.03600 -3.99100 45.20500
C  -0.40300 -5.41300 45.69000
C  0.99400 -6.01600 46.06500
C  1.91700 -4.78900 45.91100
C  -1.41600 -5.50100 46.91900
C  1.37600 -7.19500 45.14100
C  2.19000 -8.43700 45.76500
N  3.90000 -2.61400 45.35200
C  4.21800 -3.84200 45.92500
C  5.58300 -3.84800 46.20400
C  6.13500 -2.71100 45.57200
C  5.02300 -2.04700 44.99000
C  6.42500 -4.88000 46.89000
C  7.35900 -2.04700 45.25500
O  8.46200 -2.34300 45.56600
C  6.86700 -0.86800 44.26100
C  7.26100 0.43400 44.98400
O  6.92000 0.76100 46.14200
O  8.05600 1.17600 44.14900
C  8.19500 2.53600 44.60900
H  0.84600 1.51600 41.71300
H  -1.95600 -3.67300 44.41600
H  3.63900 -5.78900 46.54600
H  5.52300 1.49900 42.99200
H  3.32400 1.61100 40.93200
H  3.12000 3.70800 41.51800
H  4.32900 3.38900 42.80800
H  2.57700 3.19800 43.16700
H  5.09000 0.74100 40.17700
H  5.65500 -0.65100 41.17200
H  7.71300 0.23300 41.28900
H  7.23800 1.94800 41.44100
H  -1.19800 1.46200 40.98000
H  -2.11000 1.96700 42.35600
H  -2.75500 0.87700 41.25300
H  -4.19000 -3.33000 43.77300
H  -5.07000 -1.88900 44.55300
H  -3.59600 -2.56800 45.28000
H  -0.93800 -5.87400 44.86000
H  1.07700 -6.27300 47.12100
H  -1.01000 -5.68100 47.91500
H  -2.17600 -6.26700 46.76600
H  -2.00600 -4.59200 47.03100
H  1.81900 -6.81300 44.22200
H  0.37700 -7.57700 44.92700
H  2.52200 -8.21400 46.77900
H  3.09100 -8.69300 45.20800
H  1.47100 -9.25700 45.76700
H  6.50400 -5.66500 46.13800
H  5.81700 -5.25900 47.71100
H  7.39500 -4.49200 47.20100
H  7.36600 -0.98300 43.29900
H  7.21900 3.02200 44.58600
H  8.74500 3.16400 43.90700
H  8.75500 2.69500 45.53000
Mg 7.77100 3.34900 27.54400
C  9.28400 2.09600 30.44300
C  5.82800 5.46600 29.47700
C  6.54800 4.57600 24.70200
C  9.20500 0.65500 25.72900
N  7.69400 3.79700 29.70200
C  8.36300 3.14200 30.70000
C  7.91700 3.67000 32.06100
C  6.69600 4.61200 31.76900
C  6.71400 4.68300 30.21500
C  5.35400 4.07500 32.31400
C  9.11100 4.39800 32.78500
C  9.70600 3.72100 33.97700
H  10.07900 4.54600 35.16600
N  6.31700 4.68200 27.13900
C  5.65300 5.57600 28.08100
C  4.78900 6.48900 27.37700
C  4.89300 6.18000 25.95400
C  6.00300 5.12900 25.89000
C  3.98200 7.60600 28.08500
C  4.24100 6.86500 24.74400
O  4.55000 6.67700 23.57400
C  3.14200 7.90200 24.93500
N  7.75300 2.60300 25.54400
C  7.31600 3.43600 24.50800
C  7.62200 2.88000 23.15500
C  8.42400 1.64100 23.55700
C  8.52800 1.63800 25.05900
C  6.41600 2.68100 22.18200
C  9.83900 1.47200 22.79400
C  9.87800 0.27500 21.70600
N  9.02100 1.80200 27.93800
C  9.46000 0.73900 27.13200
C  10.17600 -0.24800 27.89500
C  10.20900 0.34600 29.22000
C  9.43300 1.53900 29.18100
C  10.75600 -1.50300 27.35900
C  10.68800 0.15100 30.53300
O  11.45900 -0.70200 30.83000
C  10.20200 1.28100 31.39100
C  9.47900 0.58400 32.52400
O  8.28500 0.37700 32.67900
O  10.45800 0.32600 33.44800
C  9.99500 0.15300 34.84700
H  5.30800 6.20900 30.08500
H  6.01300 4.86000 23.79300
H  9.68800 -0.09800 25.10300
H  7.52400 2.86600 32.68400
H  6.82400 5.59800 32.21500
H  4.93900 3.21100 31.79500
H  4.56100 4.82200 32.32900
H  5.50600 3.68200 33.31900
H  8.74500 5.40300 32.99500
H  9.92600 4.56500 32.08100
H  10.69900 3.39100 33.67300
H  9.00800 2.93700 34.26900
H  3.00300 7.12900 28.12200
H  3.96400 8.50100 27.46300
H  4.34700 7.84700 29.08300
H  2.28700 7.69400 25.57800
H  2.74300 8.20600 23.96800
H  3.60900 8.80800 25.32300
H  8.38600 3.56700 22.79200
H  7.79200 0.77500 23.36600
H  5.53700 3.12900 22.64500
H  6.27100 1.60900 22.04300
H  6.55000 3.12900 21.19800
H  10.77000 1.36000 23.34800
H  10.16000 2.29000 22.14900
H  8.89800 -0.18500 21.58200
H  10.58500 -0.44400 22.12100
H  10.27200 0.74900 20.80700
H  10.13500 -1.95600 26.58600
H  10.70000 -2.23200 28.16700
H  11.79200 -1.30400 27.08300
H  11.03600 1.88400 31.74900
H  10.02300 1.10000 35.38600
H  10.56500 -0.58400 35.41300
H  8.96500 -0.19900 34.92100

