158

Mg 1.63700 8.89200 27.13100
C  2.21500 11.17500 29.70900
C  1.68900 6.40000 29.36400
C  1.20500 6.92200 24.64800
C  1.65100 11.69600 24.86900
N  1.89600 8.78700 29.20500
C  2.07600 9.84000 30.07400
C  1.89300 9.36200 31.60800
C  2.20900 7.80700 31.42500
C  1.85900 7.62400 29.91800
C  3.65200 7.43500 31.81400
C  0.45000 9.59100 32.17900
C  0.13200 8.99000 33.58200
H  1.30600 8.58100 34.60500
N  1.55600 6.94000 26.97800
C  1.52500 6.04200 28.02600
C  1.24600 4.72300 27.46000
C  1.27000 4.85000 26.06700
C  1.18600 6.27700 25.83600
C  1.09000 3.52200 28.26800
C  1.33100 3.82400 25.05100
O  1.25800 4.06200 23.86200
C  1.45600 2.42200 25.47400
N  1.40200 9.27100 25.02300
C  1.25400 8.26000 24.22600
C  1.10000 8.73900 22.76800
C  0.76900 10.28800 22.85300
C  1.29100 10.43200 24.30200
C  2.37700 8.32400 21.98300
C  -0.72300 10.69200 22.77900
C  -1.42300 10.74200 21.43500
N  2.01100 10.98500 27.24700
C  1.94600 11.98300 26.26000
C  2.27000 13.30800 26.83400
C  2.42900 12.99200 28.25600
C  2.20200 11.60500 28.41200
C  2.37900 14.65900 26.09000
C  2.64500 13.58100 29.60200
O  3.02800 14.66200 29.93000
C  2.32400 12.41000 30.66000
C  3.51200 12.29000 31.62000
O  4.57900 11.70700 31.45700
O  3.07800 12.79300 32.81900
C  4.08800 12.64800 33.89200
H  1.68300 5.52700 30.02000
H  1.25500 6.30200 23.75000
H  1.60700 12.58500 24.23600
H  2.64800 9.99000 32.08100
H  1.64200 7.07400 31.99900
H  4.27700 6.84300 31.14600
H  3.58600 6.91100 32.76700
H  4.28200 8.31500 31.94400
H  -0.31400 9.05800 31.61300
H  0.23200 10.65800 32.17400
H  -0.29600 8.01900 33.33300
H  -0.51900 9.65700 34.14800
H  0.66900 3.66600 29.26300
H  2.02200 2.97400 28.40600
H  0.26700 2.92400 27.87700
H  0.55700 2.06600 25.97700
H  2.38200 2.41500 26.05000
H  1.69800 1.77900 24.62800
H  0.22000 8.27300 22.32500
H  1.42000 10.88900 22.21700
H  2.83700 7.50400 22.53400
H  3.14500 9.07700 21.80500
H  2.18200 7.92500 20.98800
H  -0.78000 11.67100 23.25500
H  -1.18700 9.91700 23.38800
H  -1.04200 10.08800 20.65000
H  -1.31600 11.79100 21.15800
H  -2.48000 10.58200 21.64700
H  1.68200 15.33200 26.59000
H  2.05700 14.53900 25.05500
H  3.41300 14.98300 26.20300
H  1.34100 12.57400 31.10000
H  3.53200 12.28000 34.75400
H  4.37700 13.67800 34.10300
H  4.93700 11.98000 33.74800
Mg -5.03000 25.41700 25.93800
C  -4.11300 26.85100 28.84900
C  -6.92700 23.09600 27.80700
C  -5.34100 23.46500 23.18100
C  -3.03700 27.63100 24.15600
N  -5.55600 25.03100 28.05600
C  -5.09700 25.84300 29.03400
C  -5.91200 25.63200 30.33400
C  -6.70300 24.31100 30.02900
C  -6.35800 24.08500 28.55000
C  -6.43600 23.11600 30.93800
C  -6.75700 26.86100 30.76600
C  -6.60100 27.27700 32.24400
H  -6.04100 26.28000 33.28600
N  -6.01900 23.48900 25.48900
C  -6.82400 22.80900 26.37600
C  -7.46100 21.71300 25.62200
C  -6.96100 21.78000 24.30600
C  -6.01700 22.87200 24.31700
C  -8.50600 20.77600 26.25800
C  -7.28400 20.93100 23.10100
O  -6.82400 21.15600 22.00400
C  -8.26500 19.75200 23.26800
N  -4.30100 25.46900 23.99500
C  -4.50900 24.54500 22.98900
C  -3.86400 24.98100 21.65900
C  -3.37500 26.44700 21.96700
C  -3.66500 26.56500 23.46300
C  -2.76600 23.95900 21.12300
C  -4.05500 27.55500 21.18100
C  -5.56400 27.70300 21.42200
N  -3.85100 26.95600 26.34200
C  -3.13400 27.79700 25.50600
C  -2.45600 28.71000 26.31200
C  -2.81600 28.45100 27.61800
C  -3.68200 27.35400 27.59200
C  -1.62200 29.78500 25.79500
C  -2.63900 28.88900 28.94300
O  -1.93500 29.76700 29.48000
C  -3.45600 27.76800 29.84300
C  -2.69800 27.16300 31.02200
O  -2.02200 26.15700 30.98300
O  -2.87400 28.00800 32.13400
C  -2.23500 27.69300 33.40600
H  -7.46800 22.33500 28.37400
H  -5.52800 22.97200 22.22400
H  -2.31700 28.25400 23.62000
H  -5.07800 25.48000 31.01900
H  -7.76200 24.56100 30.10000
H  -7.32800 22.72700 31.42700
H  -5.72100 23.46600 31.68400
H  -6.01000 22.27800 30.38600
H  -7.79400 26.69800 30.47100
H  -6.28000 27.66600 30.20900
H  -7.60200 27.56800 32.56000
H  -5.80200 28.01900 32.24500
H  -8.24600 19.72900 26.10900
H  -9.52500 20.88900 25.88800
H  -8.40900 20.90400 27.33600
H  -7.80900 18.91800 23.80200
H  -8.57600 19.35800 22.30000
H  -9.21100 20.11300 23.67000
H  -4.72900 25.05500 21.00000
H  -2.31100 26.67700 21.90400
H  -3.15700 23.23500 20.40800
H  -2.46300 23.34900 21.97500
H  -1.93600 24.42700 20.59500
H  -4.00000 27.44800 20.09800
H  -3.55600 28.47600 21.48400
H  -6.15800 27.67100 20.50900
H  -5.56400 28.72400 21.80400
H  -6.04300 27.01800 22.12200
H  -0.79200 29.39200 25.20900
H  -1.22800 30.19400 26.72500
H  -2.26000 30.48500 25.25400
H  -4.22900 28.42100 30.24900
H  -1.19700 28.02400 33.43700
H  -2.29000 26.64300 33.69100
H  -2.75500 28.21200 34.21200

