158

Mg 25.68800 1.74000 29.69300
C  27.69100 1.65700 32.36500
C  22.96900 2.16900 31.83500
C  23.60900 1.40800 27.00500
C  28.31800 0.56100 27.52800
N  25.35000 1.89800 31.86700
C  26.40500 2.09300 32.71200
C  25.96200 2.43000 34.08200
C  24.40700 2.45800 33.95200
C  24.22400 2.23600 32.43400
C  23.54100 1.48500 34.86300
C  26.49600 3.78800 34.65000
C  27.31800 3.66900 35.99300
H  27.14300 4.58700 37.23400
N  23.59700 1.64500 29.51400
C  22.67900 1.86400 30.48500
C  21.36800 1.75800 29.95300
C  21.53900 1.47000 28.57900
C  22.96000 1.52200 28.31300
C  20.08800 1.83600 30.68500
C  20.56900 1.05300 27.49400
O  20.95500 0.60600 26.45700
C  19.15800 1.20400 27.79800
N  25.83100 0.84900 27.56600
C  24.86500 1.03400 26.68700
C  25.37200 0.95900 25.19700
C  26.94500 0.81100 25.40800
C  27.04000 0.69300 26.91200
C  24.71400 -0.17000 24.40300
C  27.71800 1.99500 24.78300
C  28.09900 3.20100 25.56600
N  27.56900 1.31300 29.83800
C  28.48000 0.85700 28.93300
C  29.78100 0.69800 29.67400
C  29.47300 1.06400 30.91500
C  28.13900 1.32800 31.02400
C  31.01700 0.19900 29.16700
C  30.07000 1.21400 32.26000
O  31.19600 1.07100 32.66700
C  28.89200 1.60400 33.21300
C  28.74400 0.63700 34.32600
O  27.99000 -0.33900 34.36600
O  29.43800 1.09400 35.39300
C  29.11500 0.39400 36.61900
H  22.18600 2.48400 32.52700
H  23.00600 1.49800 26.09800
H  29.17200 0.22500 26.93600
H  26.22100 1.59200 34.73000
H  24.08100 3.49600 34.01800
H  22.69800 2.06200 35.24200
H  23.99400 0.97800 35.71500
H  23.05600 0.72300 34.25300
H  25.82800 4.61500 34.88800
H  27.05900 4.22300 33.82400
H  28.38400 3.75200 35.78200
H  27.14200 2.68400 36.42700
H  20.27800 1.92700 31.75400
H  19.60100 0.86600 30.57800
H  19.50400 2.64400 30.24500
H  18.93600 0.33100 28.41200
H  18.55000 1.13500 26.89600
H  18.89900 2.08400 28.38700
H  25.02200 1.90800 24.79100
H  27.32500 -0.12900 25.00700
H  25.39700 -0.88000 23.93700
H  24.29800 0.38200 23.56000
H  23.97400 -0.75300 24.95100
H  27.08100 2.34900 23.97200
H  28.55300 1.51400 24.27300
H  27.60600 3.43600 26.51000
H  27.95900 4.07400 24.92800
H  29.13800 3.00800 25.82900
H  31.81100 0.93400 29.29300
H  30.99100 -0.09700 28.11800
H  31.26200 -0.61300 29.85100
H  29.15400 2.60400 33.55700
H  28.06200 0.56100 36.84400
H  29.66300 0.80700 37.46600
H  29.30100 -0.67600 36.52800
Mg 34.98900 3.33000 29.38500
C  33.12800 4.38600 32.14300
C  37.71900 3.04700 31.60500
C  36.96100 2.32300 26.87000
C  32.43500 4.03000 27.39500
N  35.35100 3.66300 31.64200
C  34.46700 4.08500 32.56000
C  34.97500 4.04600 33.98900
C  36.52600 3.79600 33.78500
C  36.52200 3.45000 32.25400
C  37.30400 5.10700 34.20500
C  34.32500 2.92500 34.87300
C  34.14200 3.08900 36.40500
H  34.77500 4.29000 37.06500
N  37.08000 2.83300 29.27900
C  38.06300 2.77900 30.29100
C  39.34600 2.29300 29.72600
C  39.13900 2.02900 28.31000
C  37.70800 2.45800 28.09000
C  40.55500 2.16400 30.63700
C  40.01000 1.45900 27.22100
O  39.54900 1.28400 26.07500
C  41.27600 0.93300 27.63600
N  34.77100 3.31600 27.45700
C  35.62600 2.64600 26.60900
C  35.07900 2.44900 25.17400
C  33.68500 3.05900 25.35700
C  33.56900 3.48700 26.87000
C  35.92500 3.16100 24.02700
C  32.54800 2.04900 24.93400
C  31.73600 2.64900 23.78600
N  33.16300 3.94400 29.65100
C  32.18200 4.17500 28.72200
C  30.83800 4.48800 29.38900
C  31.23300 4.63700 30.75600
C  32.64800 4.32000 30.86500
C  29.49200 4.73700 28.73800
C  30.73800 4.93000 32.05300
O  29.62100 5.20100 32.42500
C  31.92500 4.87700 32.94900
C  31.95300 6.17800 33.54800
O  32.61400 7.12600 33.21800
O  31.22100 6.17300 34.72500
C  31.34700 7.38300 35.58100
H  38.58900 3.07700 32.26500
H  37.35500 1.96500 25.91600
H  31.60100 4.05900 26.69100
H  34.73800 5.04800 34.34700
H  36.95200 2.93200 34.29700
H  38.29500 4.86600 34.58900
H  36.70900 5.54000 35.00900
H  37.46900 5.72900 33.32600
H  34.77900 1.96000 34.64600
H  33.29400 2.90700 34.52100
H  34.55100 2.24700 36.96400
H  33.07500 3.19800 36.59800
H  41.26900 1.42900 30.26700
H  40.18600 1.80100 31.59700
H  41.24600 3.00700 30.64600
H  41.80000 1.81700 27.99800
H  41.70800 0.48500 26.74100
H  41.18700 0.08800 28.31800
H  35.04200 1.37600 24.98900
H  33.69100 3.95900 24.74300
H  36.67100 2.45400 23.66300
H  36.41300 4.09500 24.30700
H  35.25900 3.37300 23.19100
H  31.80400 2.01700 25.73000
H  32.97200 1.06900 24.71600
H  31.28700 1.78700 23.29200
H  32.32800 3.20300 23.05700
H  30.93000 3.22200 24.24500
H  28.92800 3.82100 28.56400
H  29.57100 5.38200 27.86300
H  28.88500 5.27200 29.46900
H  31.82700 4.11100 33.71900
H  30.99800 8.34300 35.20000
H  32.39800 7.41400 35.87000
H  30.89300 7.17500 36.55000

