158

Mg 2.06200 -2.26400 43.92300
C  5.41000 -1.57600 43.38500
C  1.14000 0.55200 42.26700
C  -1.25000 -3.29000 43.95400
C  3.04800 -5.39300 45.20800
N  3.22600 -0.75900 42.77400
C  4.58500 -0.59600 42.81000
C  5.05000 0.75700 42.15300
C  3.63800 1.45500 41.96100
C  2.57500 0.38500 42.34200
C  3.35400 2.81900 42.67900
C  5.94500 0.44800 40.89100
C  7.05300 1.51400 40.61900
H  6.79400 2.51200 39.54800
N  0.15000 -1.46600 43.27900
C  0.05500 -0.29400 42.59700
C  -1.32000 0.04400 42.40600
C  -2.06500 -0.90900 43.07500
C  -1.07400 -2.03800 43.33100
C  -1.79300 1.33900 41.75900
C  -3.58000 -0.98400 43.42500
O  -4.32900 -0.16700 42.93700
C  -4.11100 -1.98700 44.37400
N  1.01900 -4.20600 44.35600
C  -0.32000 -4.33100 44.28600
C  -0.76100 -5.70500 44.91800
C  0.63500 -6.33400 45.33400
C  1.65400 -5.26700 44.98700
C  -1.76500 -5.55300 46.18100
C  0.99100 -7.70300 44.83000
C  1.86000 -8.68900 45.66800
N  3.85100 -3.38300 44.22400
C  4.10100 -4.60900 44.77500
C  5.54300 -4.83500 44.78200
C  6.05600 -3.65800 44.30900
C  5.00700 -2.79700 43.94800
C  6.22100 -5.97500 45.37100
C  7.32900 -2.92300 44.10500
O  8.45900 -3.24500 44.35000
C  6.88800 -1.57700 43.46700
C  7.39800 -0.32400 44.22000
O  8.25600 0.41800 43.87000
O  6.72500 -0.02500 45.38000
C  6.96800 1.28800 46.08300
H  0.88500 1.41700 41.65200
H  -2.28800 -3.62500 44.01400
H  3.25300 -6.37800 45.63200
H  5.58700 1.30600 42.92700
H  3.49300 1.60400 40.89200
H  2.45000 2.84100 43.28700
H  3.23500 3.58000 41.90800
H  4.23500 2.97300 43.30200
H  5.25700 0.42500 40.04600
H  6.41200 -0.53200 40.99300
H  7.94200 1.00900 40.24100
H  7.29900 2.01400 41.55600
H  -0.99300 2.03100 41.49700
H  -2.57600 1.83400 42.33300
H  -2.14000 0.92200 40.81300
H  -3.29400 -2.20600 45.06200
H  -4.34700 -2.93100 43.88300
H  -5.06600 -1.66100 44.78700
H  -1.27300 -6.27600 44.14300
H  0.74700 -6.25200 46.41500
H  -1.40700 -5.91700 47.14400
H  -2.73900 -6.02000 46.03400
H  -1.93300 -4.49600 46.39100
H  1.42100 -7.44500 43.86200
H  0.01700 -8.18600 44.76100
H  2.61200 -9.11700 45.00400
H  1.32000 -9.59300 45.94600
H  2.44700 -8.13800 46.40300
H  6.36400 -6.79000 44.66200
H  5.63500 -6.26500 46.24300
H  7.21800 -5.70800 45.72200
H  7.51300 -1.39300 42.59300
H  6.52200 1.45600 47.06400
H  6.57900 2.03400 45.39000
H  8.01700 1.56300 46.18600
Mg 0.66700 8.03500 24.85800
C  1.59900 9.70600 27.92600
C  0.91700 5.11800 26.59300
C  0.21200 6.50800 21.93900
C  1.07700 11.02200 23.23100
N  1.23400 7.53600 27.05500
C  1.30600 8.33600 28.13100
C  1.28600 7.58000 29.44800
C  1.35600 6.08500 28.97900
C  1.21400 6.20400 27.43600
C  2.73700 5.33800 29.37100
C  -0.02800 7.92700 30.29000
C  -0.02600 7.83800 31.78800
H  1.18600 7.07400 32.46400
N  0.53700 6.10200 24.27100
C  0.76200 4.99500 25.12900
C  0.55500 3.79300 24.41500
C  0.10400 4.16000 23.10000
C  0.22700 5.64000 23.07700
C  0.79500 2.41300 25.08000
C  -0.22900 3.27000 21.88800
O  -0.58800 3.79500 20.83100
C  -0.03200 1.86200 21.92200
N  0.67400 8.69400 22.90000
C  0.36700 7.87000 21.85300
C  0.21500 8.57200 20.45400
C  0.32000 10.08700 20.93700
C  0.79000 9.93500 22.44100
C  1.12900 8.13600 19.26800
C  -1.03800 10.89400 20.80400
C  -2.44600 10.37200 21.12000
N  1.19400 9.99800 25.40000
C  1.33600 11.10000 24.57900
C  1.65200 12.29600 25.41400
C  1.80700 11.79300 26.69500
C  1.48400 10.37700 26.68600
C  1.69500 13.71500 24.84300
C  2.11300 12.16700 28.08300
O  2.41000 13.22100 28.65900
C  1.85700 10.87500 28.90400
C  2.92600 10.71500 29.84500
O  4.01200 10.14400 29.65100
O  2.64900 11.30500 31.04600
C  3.68500 11.47600 32.07300
H  0.79200 4.17700 27.13300
H  0.14900 5.99100 20.97900
H  0.98000 11.94700 22.65900
H  2.04200 8.04200 30.08300
H  0.55400 5.55300 29.49100
H  3.18800 5.04900 28.42200
H  2.66900 4.43000 29.97100
H  3.47000 5.99700 29.83700
H  -0.83000 7.21600 30.09500
H  -0.38000 8.87300 29.87900
H  -0.95700 7.33400 32.04700
H  0.03000 8.89200 32.05900
H  0.69000 1.63000 24.33000
H  0.04900 2.31700 25.87000
H  1.81100 2.41600 25.47500
H  -0.69700 1.34600 22.61600
H  1.02200 1.59500 22.00100
H  -0.25200 1.37000 20.97500
H  -0.75700 8.34400 20.01700
H  1.06600 10.62000 20.34800
H  1.20300 8.96700 18.56700
H  0.75400 7.18300 18.89600
H  2.13700 7.91900 19.62100
H  -1.09200 11.22000 19.76600
H  -0.95100 11.77400 21.44100
H  -2.91900 9.68900 20.41500
H  -3.09900 11.20700 21.37700
H  -2.33400 9.58700 21.86800
H  1.04800 13.79800 23.97000
H  2.66500 13.94600 24.40300
H  1.48900 14.45400 25.61700
H  0.98300 11.11100 29.50900
H  3.47500 10.66000 32.76400
H  3.60700 12.40400 32.63800
H  4.72700 11.38300 31.76800

