158

Mg 48.61100 44.90300 42.95000
C  45.18900 45.15600 41.77000
C  48.42200 41.53500 42.39800
C  51.97500 44.79300 43.30500
C  48.74200 48.30400 42.99100
N  46.88300 43.46400 42.15600
C  45.63500 43.76700 41.79000
C  44.88300 42.52100 41.32300
C  45.92900 41.33600 41.68900
C  47.15700 42.15100 42.13400
C  45.49500 40.31700 42.77500
C  44.38500 42.57300 39.89800
C  45.08800 43.50300 38.80500
H  45.49700 42.77500 37.41800
N  49.99300 43.37600 42.89300
C  49.69200 42.07400 42.71000
C  50.85400 41.34000 42.80500
C  51.92600 42.19500 43.08000
C  51.36300 43.54400 43.10800
C  50.92100 39.87700 42.60900
C  53.37400 41.76300 43.24700
O  53.78400 40.60000 43.14300
C  54.42200 42.70800 43.61900
N  50.21300 46.35500 43.09700
C  51.49700 46.06700 43.27400
C  52.32100 47.38300 43.28900
C  51.23800 48.51700 43.22300
C  49.93300 47.68200 43.06600
C  53.30100 47.46100 44.41500
C  51.38300 49.51600 42.05500
C  51.02200 50.97200 42.26600
N  47.10700 46.44600 42.73100
C  47.42200 47.81300 42.73200
C  46.27800 48.55800 42.34500
C  45.32000 47.54200 41.96600
C  45.93900 46.29500 42.22500
C  46.07500 50.06300 42.21200
C  44.04400 47.27700 41.37800
O  43.18300 48.05200 40.95400
C  43.92200 45.71700 41.15100
C  42.68900 45.25700 41.80900
O  41.84200 44.56700 41.26300
O  42.53300 45.78800 43.04300
C  41.12300 45.79500 43.67200
H  48.35000 40.46500 42.19300
H  53.04500 44.62400 43.16600
H  48.76000 49.39200 43.07900
H  44.02200 42.47700 41.99000
H  46.08100 40.75900 40.77700
H  45.27700 39.35900 42.30300
H  44.56100 40.53600 43.29200
H  46.28500 40.11700 43.50000
H  43.33500 42.86600 39.88800
H  44.40800 41.55200 39.51800
H  45.90500 43.99700 39.33200
H  44.30700 44.13200 38.37900
H  51.61700 39.43200 43.32000
H  51.38400 39.66000 41.64600
H  49.98100 39.32700 42.65100
H  55.32100 42.16300 43.90700
H  54.05900 43.36100 44.41300
H  54.66900 43.37300 42.79200
H  52.92800 47.45100 42.38700
H  51.26900 49.09400 44.14700
H  53.10700 46.74700 45.21600
H  53.39000 48.48800 44.76900
H  54.26200 47.13400 44.01800
H  50.74700 49.20200 41.22800
H  52.39100 49.66600 41.66800
H  51.71800 51.60700 41.71800
H  51.03800 51.28800 43.30900
H  50.09600 51.21300 41.74400
H  46.39200 50.59800 43.10700
H  45.04600 50.42500 42.20800
H  46.65100 50.31000 41.32000
H  43.84500 45.51800 40.08300
H  40.41100 46.35700 43.06800
H  41.16500 46.37900 44.59200
H  40.80200 44.76000 43.78900
Mg 16.90300 51.49500 26.49600
C  18.84300 50.38800 29.13800
C  14.49800 52.49600 28.60500
C  15.22000 52.44700 23.78600
C  19.46800 50.22700 24.22400
N  16.81500 51.65400 28.68300
C  17.65100 51.03100 29.56800
C  17.07400 51.11000 30.97800
C  15.66100 51.68800 30.85500
C  15.59700 51.91800 29.27100
C  14.53100 50.80500 31.41700
C  18.05800 51.71800 32.00300
C  17.50400 52.52000 33.21600
H  16.51700 51.78900 34.10200
N  15.16500 52.43400 26.31500
C  14.29600 52.75200 27.30300
C  13.14300 53.45300 26.64200
C  13.41900 53.52700 25.23800
C  14.61800 52.74800 25.05700
C  12.07600 54.00500 27.50000
C  12.51500 54.16100 24.13300
O  12.71500 54.03100 22.92600
C  11.24100 54.92800 24.49200
N  17.24900 51.24800 24.24500
C  16.40500 51.81400 23.35400
C  16.83600 51.66800 21.93200
C  18.37700 51.27100 22.06800
C  18.39200 50.83200 23.57600
C  16.03700 50.58200 21.14200
C  19.42800 52.39100 21.79700
C  20.80600 51.86400 21.29500
N  18.74000 50.40700 26.59300
C  19.68500 50.06400 25.58700
C  20.79000 49.49900 26.20700
C  20.52100 49.51200 27.58400
C  19.28800 50.20400 27.80200
C  22.02400 48.93100 25.45400
C  21.03600 49.20600 28.97300
O  22.02700 48.62500 29.39500
C  19.97600 49.79400 29.99100
C  19.47100 48.62700 30.67900
O  18.60800 47.86000 30.25900
O  19.95200 48.54900 31.93200
C  19.24000 47.56900 32.70500
H  13.67500 52.81500 29.24900
H  14.77500 52.98100 22.94300
H  20.27300 49.96600 23.53400
H  16.96900 50.04500 31.18100
H  15.62300 52.70000 31.25900
H  13.93300 51.34800 32.14800
H  14.94000 49.91600 31.89700
H  13.85800 50.50900 30.61200
H  18.89200 52.25400 31.55000
H  18.52500 50.85800 32.48200
H  16.96500 53.39200 32.84600
H  18.37000 52.85800 33.78600
H  12.33200 55.04700 27.69500
H  11.77200 53.43000 28.37500
H  11.12400 54.14400 26.98900
H  10.64400 54.05300 24.74900
H  10.79500 55.57500 23.73800
H  11.39600 55.53200 25.38600
H  16.81000 52.69300 21.56200
H  18.64700 50.32900 21.59000
H  16.75900 49.87500 20.73400
H  15.53600 51.18700 20.38600
H  15.41100 50.20100 21.94900
H  19.63000 52.83500 22.77200
H  18.89500 53.08000 21.14200
H  21.04300 52.44800 20.40600
H  20.67200 50.82100 21.00900
H  21.60000 51.94500 22.03700
H  22.85200 48.78300 26.14700
H  22.27900 49.63500 24.66200
H  21.90100 47.96000 24.97600
H  20.55400 50.38100 30.70500
H  19.84800 47.46600 33.60300
H  19.22500 46.56700 32.27700
H  18.23700 47.86700 33.01200

