158

Mg 43.18000 42.10400 25.82100
C  41.90800 44.36300 28.36200
C  44.18200 40.00700 28.27000
C  44.44900 40.35300 23.36000
C  42.18200 44.61000 23.39400
N  43.17100 42.28500 28.09600
C  42.59800 43.25500 28.95300
C  42.69200 42.87300 30.44400
C  43.40300 41.47900 30.28200
C  43.67100 41.20000 28.79700
C  44.51100 41.32200 31.26900
C  41.27400 42.86300 31.15900
C  41.04000 42.04400 32.48500
H  40.33000 42.78800 33.58600
N  44.13300 40.38100 25.86200
C  44.45800 39.62600 26.97100
C  45.00800 38.34200 26.48600
C  45.17200 38.42300 25.06400
C  44.64900 39.78000 24.73300
C  45.35500 37.26100 27.39100
C  45.57000 37.36500 23.98100
O  45.58300 37.59600 22.76100
C  45.87600 36.01400 24.55600
N  43.35700 42.47600 23.67600
C  43.91200 41.55600 22.89900
C  43.70800 41.84900 21.43800
C  42.74100 43.06500 21.49100
C  42.67500 43.39300 22.95200
C  45.01900 42.00000 20.56800
C  41.32500 42.63600 21.04200
C  41.03000 42.41500 19.56400
N  42.40000 44.05400 25.82100
C  42.03400 44.96800 24.78100
C  41.41800 46.22900 25.27900
C  41.36800 45.97800 26.66000
C  41.85500 44.64300 26.91500
C  40.98700 47.40900 24.51100
C  40.93600 46.69600 27.85800
O  40.44900 47.75400 28.17800
C  41.18600 45.60800 28.98000
C  42.10600 46.11100 30.07500
O  43.32600 46.06200 30.03700
O  41.38400 46.55500 31.16300
C  42.06100 46.53900 32.47700
H  44.36900 39.37000 29.13700
H  44.76700 39.71900 22.52900
H  41.89500 45.34000 22.63400
H  43.28400 43.59500 31.00700
H  42.72200 40.65600 30.50000
H  44.44400 40.32400 31.70200
H  44.52600 41.92600 32.17700
H  45.54700 41.29900 30.93000
H  40.61000 42.43300 30.41000
H  40.95900 43.90600 31.17700
H  41.98100 41.61100 32.82400
H  40.32200 41.27400 32.20000
H  45.23100 37.51500 28.44400
H  46.36400 36.89500 27.20500
H  44.71200 36.41100 27.16200
H  46.25700 35.32700 23.80100
H  44.99700 35.56300 25.01700
H  46.66400 36.18100 25.29100
H  43.22100 40.97300 21.00900
H  43.12600 43.89600 20.90000
H  45.23500 43.06800 20.53700
H  44.96700 41.65900 19.53400
H  45.79500 41.46800 21.11800
H  40.68000 43.39900 21.47800
H  41.11200 41.69300 21.54600
H  40.79500 41.36300 19.40000
H  41.94200 42.72000 19.05000
H  40.19900 43.10700 19.42600
H  41.81400 47.69000 23.85800
H  40.57300 48.24200 25.07900
H  40.14400 47.31400 23.82700
H  40.33700 45.31500 29.59800
H  42.29300 47.60300 32.51600
H  42.96800 45.93600 32.53000
H  41.37100 46.34900 33.29900
Mg 6.57200 54.24300 41.36800
C  5.89000 50.89100 40.60200
C  9.58100 53.89800 39.79500
C  6.68700 57.65500 41.33900
C  3.24100 54.50200 42.67600
N  7.59200 52.59600 40.29300
C  7.10400 51.35800 40.04200
C  8.19900 50.61300 39.25200
C  9.50500 51.37000 39.48500
C  8.87600 52.72300 39.93000
C  10.40400 50.86300 40.68500
C  7.79900 50.59900 37.73700
C  8.09300 49.25700 37.02700
H  7.36400 49.20100 35.68900
N  8.02400 55.61100 40.83600
C  9.20600 55.22200 40.18600
C  9.95600 56.47400 40.09900
C  9.04500 57.56200 40.36200
C  7.87100 56.95400 40.87000
C  11.40600 56.49000 39.55700
C  9.40700 59.03800 40.11700
O  10.54600 59.37200 39.78900
C  8.41000 60.10900 40.17200
N  5.12000 55.85400 42.12100
C  5.46900 57.12400 41.89400
C  4.34600 58.05500 42.26400
C  3.28400 57.10500 42.81200
C  3.84700 55.73100 42.46700
C  4.83600 59.13400 43.26900
C  1.87800 57.31900 42.27300
C  0.73700 56.97600 43.18300
N  4.93500 53.01300 41.57100
C  3.69700 53.23100 42.20200
C  3.02500 51.97500 42.43200
C  3.85900 51.02800 41.74800
C  4.97100 51.65800 41.27900
C  1.84900 51.72800 43.25600
C  4.05600 49.60100 41.47200
O  3.30700 48.68100 41.78400
C  5.37800 49.43300 40.52900
C  4.90900 48.93400 39.13600
O  4.25700 49.65100 38.36800
O  5.20800 47.58800 39.03800
C  4.55600 46.98500 37.86700
H  10.60900 53.84300 39.43000
H  6.53900 58.72600 41.18700
H  2.25500 54.49700 43.14600
H  8.34000 49.57200 39.54000
H  10.10400 51.38100 38.57500
H  10.12500 49.86800 41.03200
H  10.37000 51.40300 41.63100
H  11.42700 50.89200 40.31100
H  8.42400 51.31700 37.20700
H  6.76700 50.92000 37.60000
H  7.71500 48.57000 37.78400
H  9.14000 49.07400 36.78500
H  12.05500 57.14700 40.13700
H  11.58900 56.99800 38.61000
H  11.81500 55.48000 39.56900
H  8.88000 61.05500 39.90300
H  7.98800 60.23500 41.16900
H  7.53400 59.99300 39.53400
H  3.98100 58.60800 41.39800
H  3.33200 57.22100 43.89500
H  4.25800 59.21900 44.18900
H  4.70200 60.12100 42.82700
H  5.88600 59.14000 43.55900
H  1.60600 56.72800 41.39800
H  1.81900 58.36600 41.97400
H  1.05700 56.58700 44.15000
H  0.18600 56.16900 42.70000
H  0.00500 57.77200 43.04500
H  0.95500 52.20700 42.85700
H  2.01200 52.04000 44.28800
H  1.50600 50.69500 43.31500
H  6.10600 48.71100 40.89700
H  3.60800 47.44900 37.59400
H  4.49100 45.90600 38.01200
H  5.26900 47.19300 37.06900

