158

Mg 30.97800 58.30500 40.63100
C  28.18700 56.42700 39.39000
C  33.01800 55.75800 39.48500
C  33.48400 60.44600 40.61800
C  28.65000 60.88700 41.34300
N  30.63000 56.38500 39.34700
C  29.39200 55.81400 39.05600
C  29.74200 54.47100 38.50500
C  31.11900 54.04000 39.17900
C  31.62500 55.45600 39.42600
C  31.04400 53.06600 40.44000
C  29.81300 54.56400 36.94900
C  28.56800 54.17300 36.17800
H  28.21900 54.63900 34.76500
N  33.03000 58.13500 40.28600
C  33.64800 57.04700 39.71700
C  35.04400 57.31100 39.67500
C  35.26100 58.67500 39.94700
C  33.90100 59.17500 40.34100
C  36.00700 56.24100 39.18500
C  36.50700 59.42600 39.75700
O  37.53500 58.85900 39.48200
C  36.50300 60.92800 39.85700
N  31.06400 60.35800 40.87800
C  32.24700 60.97400 40.90200
C  32.11700 62.48400 41.21600
C  30.53800 62.71400 41.32800
C  30.03900 61.20300 41.26700
C  32.96000 63.06500 42.41900
C  29.97400 63.68400 40.16800
C  29.65100 65.11600 40.67400
N  28.83900 58.64300 40.40700
C  28.05500 59.68300 40.84000
C  26.61300 59.38500 40.65500
C  26.66700 58.10100 40.18900
C  28.01300 57.67600 39.96400
C  25.38300 60.27200 40.82700
C  25.78800 56.99900 39.84300
O  24.55500 56.78700 39.93200
C  26.72900 55.87600 39.17300
C  26.58100 54.62900 39.92700
O  26.73400 54.49900 41.14600
O  26.12600 53.54000 39.08200
C  25.67700 52.31200 39.80900
H  33.58300 54.83300 39.35400
H  34.23900 61.23400 40.57500
H  27.99100 61.70300 41.64700
H  29.04100 53.68800 38.79600
H  31.76600 53.59600 38.42200
H  31.03900 53.61400 41.38200
H  31.95300 52.46500 40.40500
H  30.20500 52.37100 40.39600
H  30.70500 54.02700 36.62600
H  29.93000 55.62200 36.71500
H  27.80200 54.47500 36.89300
H  28.59200 53.08900 36.06500
H  35.68000 55.31000 39.64700
H  37.06500 56.40500 39.39300
H  35.93300 56.01300 38.12100
H  36.31800 61.18100 40.90100
H  35.71400 61.26700 39.18600
H  37.48000 61.30100 39.55000
H  32.53500 62.97500 40.33700
H  30.33400 63.06400 42.34000
H  32.35200 63.79800 42.95000
H  33.78200 63.64800 42.00400
H  33.36400 62.28800 43.06800
H  29.00600 63.40700 39.75000
H  30.70400 63.59400 39.36500
H  28.56900 65.08300 40.80500
H  29.96400 65.82600 39.90900
H  30.15500 65.34500 41.61300
H  24.58600 59.60100 41.14900
H  25.03700 60.63500 39.85900
H  25.50100 61.13300 41.48600
H  26.41600 55.75900 38.13600
H  26.54500 51.65800 39.88200
H  24.95700 51.73200 39.23200
H  25.24800 52.46500 40.79900
Mg 7.78300 52.61100 41.95500
C  7.16500 49.17100 41.48100
C  10.61800 52.26400 40.08200
C  7.91100 55.86300 41.68100
C  4.53100 52.73500 43.33700
N  8.73800 50.82500 40.89200
C  8.37800 49.58900 40.87700
C  9.51200 48.71500 40.23500
C  10.76600 49.66900 40.26800
C  10.05900 50.99600 40.42100
C  11.77600 49.44600 41.48400
C  9.05200 48.27000 38.74500
C  7.85900 49.02600 38.04400
H  7.25500 48.42300 36.81300
N  9.14100 53.92400 40.99300
C  10.27900 53.59300 40.28000
C  11.04300 54.81000 40.10000
C  10.27100 55.87400 40.53400
C  9.04000 55.23600 41.08400
C  12.49100 54.91900 39.56600
C  10.64200 57.37500 40.58400
O  11.66300 57.76700 40.06500
C  9.83900 58.39100 41.20600
N  6.39100 54.09200 42.53600
C  6.71400 55.40900 42.28100
C  5.57500 56.32500 42.72100
C  4.58900 55.33100 43.37200
C  5.21300 53.96800 43.11300
C  5.86000 57.54900 43.62700
C  3.08600 55.46700 43.03400
C  2.08600 55.69600 44.17000
N  6.15600 51.25300 42.40500
C  4.88300 51.45600 42.92100
C  4.39700 50.16700 43.33800
C  5.22400 49.20700 42.72800
C  6.21700 49.90200 42.10700
C  3.30100 49.86200 44.09200
C  5.44100 47.78200 42.48800
O  4.80400 46.85100 42.92700
C  6.69300 47.72300 41.56900
C  6.36900 46.96900 40.29500
O  5.31400 47.14300 39.67200
O  7.32000 46.04800 39.94100
C  6.96500 44.98100 38.97300
H  11.68000 52.20700 39.83400
H  7.91300 56.94900 41.56200
H  3.61500 52.89800 43.90900
H  9.62400 47.85500 40.89500
H  11.38400 49.60300 39.37200
H  11.40500 48.78600 42.26800
H  12.02900 50.39700 41.95300
H  12.68700 49.02600 41.05700
H  9.02900 47.19100 38.59100
H  9.81900 48.70300 38.10300
H  7.94500 50.11200 38.00100
H  7.10700 48.87600 38.81800
H  12.53900 55.77800 38.89700
H  12.75200 54.04100 38.97600
H  13.27000 55.02500 40.32100
H  9.68200 58.02400 42.22100
H  8.88200 58.44800 40.68700
H  10.34100 59.35800 41.23600
H  5.07900 56.69100 41.82200
H  4.64100 55.40000 44.45900
H  5.17700 57.76700 44.44800
H  6.03300 58.49600 43.11600
H  6.78200 57.34500 44.17200
H  2.72700 54.74900 42.29700
H  3.03500 56.43300 42.53200
H  2.71400 55.87700 45.04200
H  1.54100 54.80300 44.47600
H  1.43400 56.56500 44.08000
H  3.70100 49.57500 45.06400
H  2.64100 49.11900 43.64300
H  2.67800 50.74500 44.23500
H  7.51200 47.12500 41.97000
H  7.71000 44.86500 38.18600
H  6.05400 45.04000 38.37700
H  6.84100 44.05000 39.52600

