158

Mg 24.44600 -6.38200 47.07900
C  27.07400 -4.15400 46.02000
C  22.43800 -4.63300 44.76600
C  22.02900 -8.65600 47.42700
C  26.71400 -8.30300 48.77100
N  24.76800 -4.60500 45.56300
C  25.89600 -3.86200 45.31200
C  25.69300 -2.83700 44.28900
C  24.14100 -2.77800 44.29500
C  23.70700 -4.07800 44.92900
C  23.46600 -1.62800 45.04200
C  26.30400 -3.35200 42.99200
C  27.31500 -2.38800 42.23900
H  27.17300 -1.96300 40.77300
N  22.45300 -6.56900 46.21900
C  21.86600 -5.75400 45.33800
C  20.50300 -6.22300 45.09000
C  20.32900 -7.41500 45.87400
C  21.61100 -7.60300 46.56200
C  19.46900 -5.70300 44.10600
C  19.13300 -8.32000 45.85700
O  18.23300 -8.24600 45.03600
C  18.86900 -9.30000 46.99900
N  24.38000 -8.21200 47.97600
C  23.25800 -8.92000 48.08600
C  23.54700 -10.32500 48.65300
C  24.91500 -10.12700 49.23700
C  25.40200 -8.76600 48.73300
C  22.50400 -10.91800 49.63600
C  25.94000 -11.28800 48.90000
C  26.71500 -11.73900 50.11700
N  26.49600 -6.23900 47.45200
C  27.26400 -7.10100 48.25600
C  28.58500 -6.56200 48.28900
C  28.57000 -5.40600 47.47800
C  27.26300 -5.24900 46.90500
C  29.73400 -7.18200 49.05900
C  29.45100 -4.36700 46.95700
O  30.62500 -4.07400 47.12000
C  28.48700 -3.50800 45.94000
C  28.55000 -2.10900 46.38500
O  28.34200 -1.61400 47.48000
O  28.94400 -1.44000 45.26800
C  28.78300 0.03500 45.29600
H  21.72600 -4.05300 44.17600
H  21.19400 -9.30800 47.69100
H  27.41400 -8.96700 49.28200
H  26.05200 -1.86000 44.61300
H  23.72500 -2.80000 43.28800
H  24.25100 -0.96800 45.41200
H  22.77000 -1.90500 45.83400
H  22.94200 -1.05300 44.28000
H  25.52900 -3.49700 42.24000
H  26.82900 -4.29200 43.15900
H  28.14400 -3.09500 42.23800
H  27.70600 -1.62900 42.91700
H  19.63900 -4.67200 43.79700
H  18.48800 -5.68800 44.58200
H  19.48300 -6.33000 43.21500
H  17.84600 -9.65300 47.12800
H  19.08400 -8.76600 47.92500
H  19.51500 -10.14000 46.74300
H  23.60500 -10.98600 47.78800
H  24.84600 -10.01000 50.31900
H  22.11700 -11.84700 49.21700
H  21.73700 -10.18500 49.88500
H  22.99500 -11.30600 50.52800
H  26.54400 -10.99000 48.04200
H  25.40800 -12.19800 48.62200
H  27.62200 -11.18700 50.36300
H  27.07800 -12.73700 49.86900
H  26.08600 -11.88800 50.99500
H  29.39300 -7.92100 49.78400
H  30.13700 -6.36400 49.65500
H  30.52800 -7.58700 48.43100
H  28.92000 -3.63000 44.94700
H  28.93300 0.34100 44.26100
H  29.35100 0.54600 46.07200
H  27.74100 0.04100 45.61600
Mg 30.64600 57.55700 40.88000
C  28.17200 55.30900 40.03700
C  32.97400 55.17300 39.74400
C  33.12100 60.00400 40.87600
C  28.32000 60.00100 41.40000
N  30.55400 55.53600 39.77300
C  29.40000 54.78600 39.69500
C  29.73400 53.35200 39.34200
C  31.28400 53.29200 39.62200
C  31.63900 54.74800 39.70100
C  31.65100 52.60700 40.98500
C  29.26900 52.95600 37.90200
C  29.55400 54.01300 36.81400
H  28.37500 54.50100 36.01000
N  32.85800 57.52800 40.59300
C  33.51700 56.47200 39.96500
C  34.89300 56.85100 39.89900
C  34.97800 58.28100 40.20000
C  33.59300 58.64100 40.56400
C  35.92900 55.93700 39.37000
C  36.22200 59.09400 40.10200
O  37.22800 58.57200 39.70600
C  36.32400 60.53900 40.47300
N  30.69500 59.76500 40.97600
C  31.84600 60.50100 41.10600
C  31.51900 61.92300 41.32300
C  30.05900 61.83000 41.88300
C  29.64000 60.40800 41.40900
C  32.50200 62.77200 42.10100
C  29.07400 63.00800 41.47800
C  28.29800 63.82300 42.65100
N  28.64800 57.76700 40.62100
C  27.78500 58.82100 40.94000
C  26.43000 58.35100 40.77200
C  26.51900 56.97300 40.43600
C  27.88600 56.66100 40.35200
C  25.23600 59.18900 41.05100
C  25.79100 55.79700 40.26600
O  24.57500 55.55900 40.43000
C  26.81400 54.64400 39.99600
C  26.59900 53.63900 41.07300
O  27.02700 53.72700 42.21200
O  25.74300 52.65200 40.65700
C  25.13300 51.99200 41.85900
H  33.67000 54.33500 39.66400
H  33.87500 60.78900 40.79700
H  27.55900 60.64300 41.84900
H  29.34600 52.69600 40.12200
H  31.81700 52.73500 38.85100
H  30.82100 52.26500 41.60400
H  32.24200 53.31500 41.56500
H  32.27900 51.72400 40.86600
H  28.18400 52.86000 37.87500
H  29.75300 52.01200 37.65100
H  30.24400 53.55600 36.10500
H  30.08800 54.88500 37.19100
H  36.18200 56.16400 38.33400
H  35.69900 54.88400 39.52600
H  36.80300 56.17900 39.97500
H  35.95500 60.65400 41.49200
H  35.81200 61.26800 39.84500
H  37.37700 60.79300 40.34800
H  31.41300 62.41500 40.35600
H  30.10500 61.73300 42.96800
H  33.40900 62.18100 42.23000
H  32.11800 63.01200 43.09200
H  32.63500 63.71100 41.56300
H  28.39000 62.56200 40.75700
H  29.47600 63.84400 40.90500
H  28.86800 64.70700 42.93600
H  28.23300 63.21200 43.55100
H  27.28700 64.08600 42.34100
H  24.33500 58.57500 41.01700
H  24.98200 59.93300 40.29600
H  25.38300 59.78000 41.95500
H  26.62200 54.20200 39.01800
H  25.83400 51.31600 42.34900
H  24.27400 51.50100 41.40200
H  24.92300 52.73400 42.63000

