158

Mg 26.89000 50.68200 26.60800
C  24.92900 51.77900 29.23300
C  29.21500 49.56500 28.87000
C  29.08000 50.17600 24.09200
C  24.54600 51.93800 24.24200
N  26.98700 50.64200 28.83300
C  26.06800 51.11800 29.69700
C  26.44300 50.83600 31.17500
C  27.88200 50.23600 31.06600
C  28.01300 50.09700 29.49400
C  29.01400 51.26100 31.64500
C  25.43400 49.86500 31.89000
C  24.51200 50.55900 32.88200
H  24.52000 49.95200 34.25600
N  28.85700 50.03900 26.53500
C  29.58300 49.57300 27.54300
C  30.86300 49.10200 27.14000
C  30.96500 49.37200 25.74000
C  29.61100 49.89900 25.31800
C  31.92700 48.60200 28.11300
C  32.09200 49.14800 24.80800
O  31.98400 49.35800 23.59900
C  33.32600 48.58300 25.26000
N  26.79300 51.06000 24.43000
C  27.82400 50.57700 23.68000
C  27.43100 50.61000 22.12600
C  25.91300 51.15100 22.20100
C  25.69100 51.33900 23.74700
C  28.23300 51.45400 21.18100
C  24.77100 50.29600 21.60500
C  24.08200 50.91800 20.39600
N  25.10800 51.63900 26.65300
C  24.22800 52.05400 25.65700
C  23.07100 52.64700 26.28800
C  23.32500 52.62000 27.66000
C  24.52200 51.93900 27.85900
C  21.91300 53.24800 25.51900
C  22.80700 53.01400 29.00000
O  21.82500 53.53900 29.29600
C  23.90700 52.53500 29.98200
C  24.45600 53.72200 30.65000
O  25.19200 54.54700 30.16500
O  23.87800 53.81500 31.89100
C  23.92400 55.19700 32.55200
H  29.92200 49.31300 29.66300
H  29.86100 50.15200 23.32900
H  23.85200 52.12300 23.41900
H  26.40400 51.82300 31.63700
H  28.02000 49.26700 31.54600
H  28.63800 52.02300 32.32800
H  29.59500 51.68500 30.82600
H  29.68900 50.75300 32.33300
H  26.05100 49.07300 32.31400
H  24.75200 49.53300 31.10700
H  23.49800 50.45700 32.49600
H  24.75600 51.61500 33.00200
H  31.92500 49.07500 29.09500
H  32.93600 48.84000 27.77700
H  31.86900 47.51300 28.10600
H  33.95400 49.25600 25.84300
H  33.83500 48.18900 24.38100
H  33.04200 47.71900 25.86200
H  27.40800 49.59600 21.72700
H  25.72300 52.14300 21.79000
H  29.28200 51.40700 21.47400
H  27.97800 52.51200 21.12000
H  28.10100 50.92900 20.23500
H  24.02300 50.18600 22.39100
H  25.22800 49.33000 21.39000
H  22.99500 50.95700 20.47000
H  24.40100 50.27600 19.57500
H  24.35600 51.96100 20.23800
H  21.47000 52.61000 24.75400
H  22.13000 54.09700 24.87100
H  21.14000 53.44300 26.26200
H  23.54100 51.87800 30.77100
H  23.84500 55.86800 31.69700
H  24.84700 55.37400 33.10500
H  23.03700 55.20500 33.18600
Mg 17.00200 52.42300 26.49600
C  18.95700 51.23300 29.00200
C  14.75900 53.71200 28.87900
C  14.93500 53.43200 23.94300
C  19.10000 50.89700 24.09500
N  16.83100 52.37400 28.60500
C  17.74200 51.83800 29.40800
C  17.41900 52.20400 30.88500
C  15.92500 52.58300 30.87100
C  15.85000 52.97500 29.38400
C  14.95400 51.37100 31.23200
C  18.40900 53.25200 31.50600
C  18.43100 53.57500 33.03900
H  17.58700 52.65100 33.99000
N  15.06100 53.45000 26.37000
C  14.41100 53.89400 27.50900
C  13.31300 54.74100 27.01200
C  13.26000 54.67800 25.61500
C  14.40300 53.82200 25.23100
C  12.45900 55.53900 27.96800
C  12.34400 55.28800 24.66300
O  12.55500 55.16300 23.43900
C  11.22600 56.12100 25.14400
N  17.02800 52.28000 24.30500
C  16.08600 52.74100 23.52000
C  16.41400 52.40800 22.03000
C  17.90400 51.94700 22.06000
C  18.00000 51.66100 23.56100
C  15.45300 51.51100 21.23100
C  18.97200 53.00300 21.65900
C  19.95000 52.51900 20.56500
N  18.64400 51.28300 26.46100
C  19.40900 50.67100 25.41400
C  20.64900 50.09000 26.01600
C  20.42100 50.26000 27.41900
C  19.27800 50.95800 27.62600
C  21.76900 49.29400 25.28700
C  21.04300 49.99300 28.76800
O  22.03300 49.41100 29.17100
C  20.04600 50.61400 29.79100
C  19.44300 49.46500 30.50000
O  18.85000 48.53500 30.00000
O  19.68600 49.64300 31.85400
C  19.17500 48.60200 32.72400
H  14.01700 54.01500 29.62200
H  14.31200 53.84200 23.14600
H  19.80300 50.58100 23.32200
H  17.51800 51.31200 31.50400
H  15.67100 53.38900 31.55900
H  14.15300 51.37800 30.49300
H  14.41200 51.45500 32.17400
H  15.51800 50.44200 31.15800
H  18.42300 54.17100 30.92000
H  19.35600 52.73000 31.36900
H  17.93300 54.54500 33.06000
H  19.45500 53.68100 33.39500
H  12.59300 56.55300 27.59000
H  12.85500 55.49200 28.98200
H  11.42800 55.20600 27.85000
H  11.54500 57.03600 25.64400
H  10.74000 55.51500 25.90800
H  10.40800 56.34200 24.45800
H  16.32300 53.32200 21.44300
H  17.96000 51.00000 21.52300
H  15.06700 52.00200 20.33700
H  14.68600 51.23400 21.95400
H  15.88900 50.56200 20.91900
H  19.51100 53.37300 22.53100
H  18.55200 53.96300 21.36000
H  19.51600 51.82100 19.84900
H  20.79800 51.97800 20.98500
H  20.43100 53.38000 20.10200
H  22.39600 48.96900 26.11700
H  22.29300 49.89800 24.54600
H  21.26600 48.48800 24.75300
H  20.54300 51.33400 30.44100
H  19.85100 47.75100 32.79900
H  18.16300 48.29900 32.45600
H  18.92400 49.05300 33.68400

