158

Mg 0.35300 7.85300 25.23600
C  1.16700 10.04300 27.87500
C  0.36600 5.12400 27.39300
C  -0.61600 5.95100 22.77100
C  0.60900 10.66400 23.03200
N  0.90200 7.61000 27.29700
C  1.00500 8.68100 28.20200
C  1.13600 8.04600 29.62700
C  0.98200 6.57200 29.46700
C  0.68600 6.42400 27.97700
C  2.20300 5.64300 29.92300
C  0.17600 8.57600 30.69100
C  0.53400 8.68100 32.16800
H  1.74900 7.92600 32.70300
N  -0.00200 5.80700 25.03200
C  0.01700 4.81900 26.02800
C  -0.37100 3.55500 25.51100
C  -0.65000 3.72200 24.11600
C  -0.50900 5.22800 23.91600
C  -0.48300 2.34600 26.40800
C  -0.85000 2.71700 23.09000
O  -0.98800 3.03900 21.93100
C  -0.83600 1.26300 23.35300
N  -0.03400 8.33200 23.24100
C  -0.37600 7.28500 22.48100
C  -0.55500 7.74300 21.01100
C  -0.28200 9.30800 21.10400
C  0.08900 9.44700 22.54700
C  0.21100 7.01400 19.93700
C  -1.45600 10.14500 20.66500
C  -1.17000 11.14100 19.55600
N  0.83100 9.92000 25.33700
C  0.96600 10.93800 24.34200
C  1.30300 12.19200 25.05800
C  1.36000 11.93000 26.44100
C  1.11600 10.47500 26.55800
C  1.43700 13.48100 24.41600
C  1.68400 12.38900 27.74800
O  2.12200 13.55800 28.06100
C  1.46300 11.20400 28.78700
C  2.66700 11.15600 29.65500
O  3.63000 10.45300 29.41100
O  2.46500 11.91000 30.80900
C  3.69300 12.01900 31.71600
H  0.25600 4.33000 28.13500
H  -0.97000 5.37500 21.91400
H  0.60300 11.49000 22.31800
H  2.12600 8.20800 30.05400
H  0.10300 6.28400 30.04500
H  2.89300 6.21600 30.54100
H  2.73900 5.20100 29.08200
H  1.88500 4.85700 30.60800
H  -0.81700 8.15200 30.53900
H  0.00300 9.60600 30.37900
H  -0.34000 8.28800 32.68800
H  0.53900 9.72100 32.49600
H  -1.49400 1.93700 26.40800
H  -0.32500 2.58000 27.46100
H  0.28400 1.58900 26.25100
H  -1.57100 0.99700 24.11200
H  0.09300 0.89900 23.79200
H  -0.96500 0.65600 22.45600
H  -1.62700 7.58600 20.89700
H  0.61600 9.53400 20.52900
H  -0.37200 6.18300 19.53900
H  1.14400 6.61900 20.33900
H  0.38000 7.76500 19.16500
H  -1.76600 10.76600 21.50500
H  -2.28300 9.51900 20.33000
H  -0.54400 10.80000 18.73200
H  -0.57900 11.82400 20.16600
H  -2.02200 11.71900 19.19600
H  0.68200 13.44400 23.63000
H  2.36100 13.47000 23.83800
H  1.40400 14.38500 25.02400
H  0.63000 11.51100 29.42000
H  4.58000 11.82500 31.11300
H  3.69300 11.38000 32.59900
H  3.90400 13.01400 32.10900
Mg 24.23400 -6.20900 46.80900
C  26.60500 -3.77300 45.88100
C  22.02900 -4.66600 44.58600
C  22.16200 -8.81900 47.14200
C  26.83100 -8.10000 48.21500
N  24.28500 -4.35800 45.40000
C  25.39300 -3.58400 45.17300
C  25.12400 -2.58000 44.07400
C  23.56500 -2.66900 43.91600
C  23.23700 -3.96800 44.72500
C  22.75300 -1.48500 44.42800
C  26.03700 -2.82800 42.83000
C  26.70700 -1.64000 42.31400
H  25.97800 -0.87900 41.19900
N  22.32600 -6.72000 46.07600
C  21.59700 -5.91300 45.21200
C  20.33400 -6.54800 44.93400
C  20.21000 -7.71500 45.78400
C  21.57700 -7.80600 46.42400
C  19.43800 -6.12200 43.75600
C  18.99300 -8.68000 45.86100
O  18.00400 -8.43700 45.19700
C  19.03100 -9.85200 46.75200
N  24.53500 -8.22500 47.51200
C  23.43500 -9.05200 47.60900
C  23.80300 -10.38200 48.36600
C  25.38200 -10.17000 48.64600
C  25.58500 -8.72100 48.18300
C  23.01900 -10.63200 49.64400
C  26.29000 -11.19600 47.81500
C  27.38500 -11.83200 48.54000
N  26.20300 -5.96000 47.15800
C  27.21000 -6.80500 47.70600
C  28.45400 -6.08300 47.71100
C  28.22100 -4.88500 47.10400
C  26.87300 -4.84800 46.71300
C  29.74600 -6.59200 48.28200
C  28.89800 -3.65700 46.65000
O  30.03500 -3.25600 46.83500
C  27.85700 -2.91800 45.81900
C  27.55000 -1.62900 46.46800
O  26.84200 -1.47200 47.50000
O  28.05700 -0.69800 45.67800
C  27.74900 0.68100 45.97000
H  21.34100 -4.21200 43.87000
H  21.55100 -9.71400 47.27600
H  27.66600 -8.64500 48.66100
H  25.38300 -1.72800 44.70200
H  23.34700 -2.74000 42.85000
H  23.35500 -0.57700 44.45200
H  22.35100 -1.63800 45.42900
H  21.91200 -1.55100 43.73800
H  25.40300 -3.21700 42.03300
H  26.83300 -3.54600 43.02500
H  27.71900 -1.84700 41.96600
H  26.75800 -1.02100 43.21000
H  19.05100 -7.00500 43.24800
H  20.09700 -5.65200 43.02700
H  18.64800 -5.46100 44.11000
H  18.07700 -10.37900 46.77400
H  19.27700 -9.48500 47.74800
H  19.77300 -10.57800 46.41900
H  23.63400 -11.17400 47.63600
H  25.59500 -10.08000 49.71100
H  22.20600 -11.33000 49.44300
H  22.79500 -9.63500 50.02400
H  23.64400 -11.12700 50.38700
H  26.77000 -10.85600 46.89700
H  25.63300 -12.01200 47.51400
H  27.44900 -11.51700 49.58200
H  28.33700 -11.86500 48.01000
H  27.20100 -12.90400 48.61500
H  29.82500 -6.35200 49.34200
H  30.54200 -6.25200 47.62000
H  29.74700 -7.65700 48.05300
H  28.09100 -2.68700 44.77900
H  26.70400 0.80100 46.25700
H  27.75000 1.32500 45.09100
H  28.44600 1.01100 46.74100

