158

Mg -1.94400 17.49600 26.39000
C  -2.21800 15.14400 29.02100
C  -2.59700 20.03300 28.60700
C  -2.18600 19.53100 23.82000
C  -1.92400 14.67000 24.15500
N  -2.48600 17.51700 28.57200
C  -2.35400 16.43700 29.47200
C  -2.50400 17.03300 30.92100
C  -2.65500 18.60200 30.73500
C  -2.58200 18.74800 29.19300
C  -3.98300 19.14500 31.41200
C  -1.26100 16.71000 31.76100
C  -1.05500 17.50600 33.04300
H  -0.66300 16.66700 34.28600
N  -2.14600 19.49700 26.24000
C  -2.36200 20.35300 27.28500
C  -2.40100 21.77100 26.74400
C  -2.27000 21.58500 25.32900
C  -2.24500 20.16400 25.07100
C  -2.44100 22.99400 27.59200
C  -2.10400 22.60100 24.28000
O  -2.23200 22.39300 23.08200
C  -1.80800 24.00400 24.77900
N  -2.17000 17.07500 24.25300
C  -1.98700 18.19300 23.48100
C  -1.96300 17.79400 22.00300
C  -1.65300 16.27000 22.09700
C  -1.86200 15.93800 23.57400
C  -3.23400 18.25200 21.27500
C  -0.25600 15.85500 21.56200
C  -0.19200 15.18200 20.14800
N  -2.07200 15.37000 26.44900
C  -2.06200 14.37000 25.51800
C  -2.13300 13.05100 26.05200
C  -2.14000 13.20700 27.45600
C  -2.10200 14.71900 27.66000
C  -2.37600 11.82400 25.30700
C  -2.19700 12.63100 28.81000
O  -2.10600 11.47200 29.22800
C  -2.27000 13.85000 29.80100
C  -1.15000 13.58100 30.72900
O  -0.03200 13.96900 30.53200
O  -1.64100 13.05600 31.83400
C  -0.62800 12.63100 32.82100
H  -2.81700 20.83900 29.31000
H  -2.26400 20.20100 22.96200
H  -1.73800 13.88900 23.41500
H  -3.41600 16.60900 31.34200
H  -1.76800 19.13200 31.08200
H  -3.64500 19.97600 32.03000
H  -4.62100 18.36000 31.81900
H  -4.58600 19.60900 30.63100
H  -0.41700 16.79800 31.07700
H  -1.27200 15.66800 32.08100
H  -1.90000 18.14400 33.29900
H  -0.23200 18.21100 32.93400
H  -2.47600 22.77700 28.66000
H  -3.27000 23.67500 27.39900
H  -1.55800 23.58700 27.35400
H  -0.90700 23.84100 25.37100
H  -2.67700 24.42700 25.28200
H  -1.64400 24.58000 23.86900
H  -1.16200 18.39600 21.57400
H  -2.48800 15.74000 21.64000
H  -3.91700 18.83900 21.89000
H  -3.67900 17.27600 21.08200
H  -3.03900 18.85700 20.38900
H  0.15000 15.18500 22.31900
H  0.29400 16.79500 21.50700
H  0.26800 14.20100 20.26900
H  0.46700 15.79000 19.52800
H  -1.18500 15.09900 19.70700
H  -1.51500 11.25600 24.95400
H  -2.96300 12.15500 24.45000
H  -2.96600 11.27900 26.04300
H  -3.21600 13.83600 30.34100
H  0.23100 12.13600 32.36900
H  -0.93600 11.95200 33.61600
H  -0.32600 13.55400 33.31700
Mg -11.11700 16.54600 43.25900
C  -7.61000 17.47600 42.83400
C  -11.76300 19.94300 42.88200
C  -14.27500 15.70500 42.65600
C  -10.16700 13.21200 43.04400
N  -9.84800 18.41000 42.82300
C  -8.47300 18.56600 42.69200
C  -7.98500 19.94200 42.52700
C  -9.23800 20.68700 42.99700
C  -10.38300 19.64100 42.92000
C  -9.09600 21.46200 44.33700
C  -7.54400 20.24100 41.07200
C  -6.19000 20.63400 40.90100
H  -5.15800 19.72800 40.18600
N  -12.81800 17.66600 42.98400
C  -12.86000 18.99000 42.77600
C  -14.20800 19.45600 42.65100
C  -15.01300 18.24600 42.62200
C  -14.06000 17.11400 42.69400
C  -14.69000 20.80900 42.41500
C  -16.48300 18.20900 42.42800
O  -17.14800 19.23800 42.27800
C  -17.23300 16.82900 42.41000
N  -12.07400 14.73500 42.77100
C  -13.42800 14.60700 42.71300
C  -13.95500 13.12700 42.66900
C  -12.60300 12.35100 42.88900
C  -11.56400 13.45600 42.93200
C  -14.93800 12.80900 43.89700
C  -12.39600 11.26400 41.79600
C  -11.66300 11.68700 40.52600
N  -9.34100 15.51500 43.12800
C  -9.13300 14.19700 43.17200
C  -7.71000 13.89800 43.08900
C  -7.07100 15.14200 43.05500
C  -8.07400 16.12400 43.01800
C  -7.08800 12.54200 43.05400
C  -5.79300 15.83600 42.92000
O  -4.67400 15.38600 42.89800
C  -6.14600 17.40600 42.86500
C  -5.54400 18.00400 44.09500
O  -5.37600 17.39700 45.13900
O  -5.06900 19.25700 43.91000
C  -4.46600 19.86700 45.06500
H  -11.94700 21.02000 42.88600
H  -15.29700 15.32100 42.65800
H  -9.88800 12.15600 43.05700
H  -7.20600 20.14800 43.26100
H  -9.51800 21.51500 42.34500
H  -8.33100 21.14000 45.04400
H  -10.00800 21.15800 44.85000
H  -9.02300 22.54300 44.22000
H  -8.13500 21.00100 40.56200
H  -7.62800 19.31900 40.49700
H  -5.71000 20.89700 41.84300
H  -6.05400 21.57700 40.37100
H  -13.84800 21.36400 42.00000
H  -15.01900 21.26400 43.34800
H  -15.41600 20.84800 41.60300
H  -18.25800 17.14100 42.20800
H  -17.03800 16.35800 43.37300
H  -16.78200 16.23500 41.61600
H  -14.38700 12.92800 41.68800
H  -12.45300 11.95500 43.89300
H  -15.30700 13.77500 44.24300
H  -14.59400 12.20100 44.73400
H  -15.78400 12.27900 43.46000
H  -13.35300 10.78300 41.59000
H  -11.81000 10.46200 42.24500
H  -11.62000 12.77400 40.45000
H  -12.12600 11.39000 39.58500
H  -10.65500 11.28300 40.43100
H  -6.10100 12.55400 43.51600
H  -7.02100 12.14900 42.04000
H  -7.77100 11.87100 43.57700
H  -5.80500 17.86100 41.93500
H  -3.92900 20.76700 44.76500
H  -3.66500 19.22000 45.42300
H  -5.17300 20.18200 45.83300

