158

Mg 41.02800 8.09600 29.08200
C  42.64200 9.06900 32.01600
C  38.66600 6.68400 31.01000
C  39.50500 6.85400 26.21600
C  43.66900 9.30400 27.16100
N  40.69000 8.10200 31.28600
C  41.45500 8.45900 32.30400
C  40.69500 8.31700 33.67500
C  39.41600 7.53700 33.31500
C  39.60700 7.45200 31.77300
C  39.28300 6.08900 33.93300
C  40.32700 9.75300 34.21900
C  39.30400 9.93700 35.29300
H  39.75000 10.93700 36.40000
N  39.27100 6.95900 28.70500
C  38.43100 6.41400 29.67200
C  37.44200 5.67900 29.02900
C  37.57800 5.87800 27.65900
C  38.82700 6.59100 27.48700
C  36.36100 5.05800 29.79100
C  36.53500 5.59300 26.55400
O  36.74900 5.92000 25.38900
C  35.15900 4.95300 26.88700
N  41.45900 8.15800 26.89500
C  40.78400 7.52000 25.98300
C  41.50300 7.61300 24.64500
C  42.78000 8.52500 24.94400
C  42.66100 8.70000 26.44400
C  41.93400 6.20300 24.02400
C  43.01000 9.78200 24.02600
C  42.93900 11.15000 24.63200
N  42.85500 8.99300 29.42000
C  43.81500 9.44800 28.52300
C  44.94700 10.01200 29.29900
C  44.44200 9.98600 30.64900
C  43.25600 9.28400 30.67200
C  46.17500 10.75200 28.79100
C  44.79700 10.37800 32.04300
O  45.80700 10.89300 32.47600
C  43.57500 9.85500 32.96100
C  44.19000 9.06700 34.01900
O  44.95300 8.11200 33.80500
O  43.55200 9.31200 35.17700
C  43.84100 8.36800 36.30400
H  37.97400 6.14600 31.66100
H  39.14800 6.45600 25.26400
H  44.39000 9.70400 26.44500
H  41.22600 7.84700 34.50300
H  38.49100 8.08200 33.50400
H  39.54500 5.27800 33.25300
H  38.24000 5.94600 34.21400
H  39.80900 6.10300 34.88700
H  40.12600 10.41200 33.37400
H  41.26000 10.10600 34.65900
H  38.78400 9.09200 35.74400
H  38.49800 10.50500 34.82700
H  36.54700 5.09200 30.86400
H  36.27600 3.99600 29.56000
H  35.43700 5.61400 29.63200
H  35.13200 4.05300 27.50100
H  34.73700 4.56600 25.96000
H  34.49900 5.78100 27.14500
H  40.91400 8.03400 23.83100
H  43.63200 7.84500 24.92300
H  41.39800 6.05200 23.08700
H  41.74000 5.43300 24.77000
H  42.99300 6.05000 23.81500
H  42.27600 9.63300 23.23400
H  44.01700 9.73400 23.61100
H  42.53500 10.99400 25.63200
H  42.25700 11.78500 24.06700
H  43.88600 11.68900 24.61200
H  45.92900 11.45600 27.99600
H  46.79800 10.05600 28.23000
H  46.72900 11.25200 29.58600
H  43.08700 10.74800 33.35100
H  44.89600 8.43900 36.56900
H  43.59500 7.31900 36.14200
H  43.21000 8.76500 37.09900
Mg 49.29200 44.51700 43.83300
C  46.07300 45.02400 42.70300
C  49.14700 41.25900 43.22100
C  52.66400 44.51000 44.20900
C  49.46200 48.16800 44.21900
N  47.75500 43.29800 43.07600
C  46.52000 43.67400 42.68500
C  45.76300 42.45700 42.18600
C  46.60800 41.22300 42.75600
C  47.97600 41.91300 43.04200
C  46.00600 40.62500 44.11300
C  45.66200 42.36700 40.66700
C  44.34800 42.04400 39.98200
H  43.68000 42.97800 38.95500
N  50.74600 43.09400 43.56100
C  50.50400 41.76200 43.38400
C  51.72100 41.06500 43.38100
C  52.77200 42.01500 43.52500
C  52.05300 43.27400 43.87200
C  51.83000 39.57000 43.20600
C  54.33100 41.74400 43.41900
O  54.54000 40.54700 43.24800
C  55.49300 42.77200 43.36900
N  50.81700 46.12000 44.25100
C  52.14700 45.75800 44.30500
C  53.12600 46.99700 44.41000
C  52.09200 48.15300 44.42300
C  50.64800 47.47600 44.24700
C  54.16600 46.99700 45.63700
C  52.34100 49.22600 43.29500
C  52.44600 50.67700 43.81400
N  48.00700 46.23700 43.51500
C  48.20800 47.62500 43.78000
C  47.02100 48.44500 43.39700
C  46.11300 47.41100 42.92400
C  46.79300 46.07700 43.10700
C  46.98500 50.01500 43.45500
C  44.78900 47.22400 42.35800
O  43.97800 48.00700 41.95800
C  44.73100 45.62500 42.24400
C  43.61000 45.06900 43.09400
O  43.63700 45.07800 44.33600
O  42.55700 44.62900 42.30000
C  41.33100 44.44900 43.06800
H  49.02400 40.17400 43.18700
H  53.68900 44.33600 44.54100
H  49.51500 49.25700 44.28500
H  44.76500 42.61200 42.59800
H  46.65400 40.49500 41.94600
H  45.59800 41.35600 44.81100
H  46.80300 40.14600 44.68200
H  45.32000 39.82500 43.83300
H  46.36500 41.62900 40.28000
H  45.86700 43.35600 40.25800
H  43.57900 41.89000 40.74000
H  44.39000 41.09700 39.44400
H  52.54100 39.34000 42.41200
H  50.91700 39.03200 42.95000
H  52.27900 39.17800 44.11900
H  55.18500 43.63800 42.78300
H  56.31100 42.23800 42.88800
H  55.80700 42.95400 44.39700
H  53.67600 47.02900 43.47000
H  52.19800 48.67700 45.37300
H  54.36600 46.03300 46.10400
H  53.77000 47.76600 46.30000
H  55.13500 47.32200 45.25800
H  51.53000 49.23400 42.56700
H  53.28800 48.91600 42.85500
H  52.23300 50.72400 44.88200
H  51.80400 51.37700 43.27900
H  53.46700 51.00300 43.61800
H  46.93700 50.30000 44.50600
H  46.05600 50.35600 42.99700
H  47.84500 50.44600 42.94200
H  44.45400 45.39000 41.21600
H  40.63800 44.26200 42.24800
H  41.01200 45.31700 43.64500
H  41.28300 43.51400 43.62700

