158

Mg 0.07500 8.43700 26.82000
C  0.79600 10.51200 29.61100
C  0.64400 5.70300 28.83300
C  -0.13900 6.54600 24.08500
C  0.08300 11.40600 24.93500
N  0.48500 8.21900 28.95100
C  0.56200 9.10500 29.97100
C  0.65900 8.51600 31.32500
C  0.95200 6.98500 31.03700
C  0.72500 6.95100 29.50300
C  2.36300 6.49900 31.27600
C  -0.72200 8.78000 31.93200
C  -0.90900 8.59400 33.47400
H  0.16700 8.25500 34.44300
N  0.12200 6.36600 26.54500
C  0.36400 5.41800 27.45000
C  0.32700 4.09700 26.83500
C  0.07300 4.34100 25.46000
C  0.11500 5.82600 25.26100
C  0.49100 2.87200 27.64200
C  -0.11700 3.32100 24.38700
O  -0.23300 3.79800 23.23700
C  -0.21400 1.78200 24.60400
N  0.20800 8.89100 24.87800
C  -0.14300 7.94900 23.92800
C  -0.28900 8.61600 22.54700
C  -0.56400 10.09400 22.88800
C  0.02300 10.14000 24.27800
C  0.87500 8.46800 21.57100
C  -2.04400 10.59300 22.92500
C  -2.45800 11.37900 21.65100
N  0.38400 10.50600 27.17000
C  0.40800 11.60300 26.27500
C  0.72900 12.85800 26.88600
C  0.90300 12.42300 28.22400
C  0.62500 11.07400 28.34100
C  0.94300 14.28800 26.25100
C  1.31800 12.87700 29.54000
O  1.73200 14.00100 29.83100
C  1.10600 11.67500 30.52100
C  2.37900 11.52800 31.27600
O  3.45500 11.00600 30.94100
O  2.13500 12.17000 32.45300
C  3.21100 12.06400 33.53500
H  0.97200 4.91900 29.51800
H  -0.35500 5.97700 23.17800
H  -0.04300 12.23700 24.23700
H  1.46200 9.00200 31.88000
H  0.14800 6.42200 31.51100
H  2.25300 5.63300 31.93000
H  2.94400 7.32400 31.68700
H  2.85800 6.11900 30.38300
H  -1.51900 8.30200 31.36300
H  -0.85400 9.85800 31.84100
H  -1.69400 7.85600 33.63500
H  -1.27100 9.55800 33.83300
H  0.98500 3.02000 28.60200
H  1.13800 2.19600 27.08100
H  -0.48700 2.42200 27.80900
H  0.81900 1.48400 24.78500
H  -0.44600 1.38500 23.61700
H  -1.05300 1.58200 25.27100
H  -1.22200 8.27700 22.09700
H  0.06400 10.72700 22.26000
H  1.22900 7.43700 21.55000
H  1.74200 9.03300 21.91100
H  0.55100 8.70600 20.55800
H  -2.34300 11.16200 23.80600
H  -2.58800 9.65700 23.05600
H  -1.66100 11.50700 20.91900
H  -2.74200 12.35400 22.04800
H  -3.26900 10.88200 21.11800
H  1.37700 14.95200 26.99900
H  0.06000 14.76100 25.82100
H  1.74600 14.24000 25.51600
H  0.31700 12.00700 31.19500
H  3.60800 13.04900 33.78100
H  4.00600 11.38200 33.23200
H  2.69300 11.68500 34.41600
Mg 26.39400 50.11900 26.71100
C  24.36500 51.38700 29.29100
C  28.58500 48.98700 29.13500
C  28.62900 49.22600 24.21900
C  24.38900 51.55100 24.39100
N  26.40800 50.26800 29.00200
C  25.34400 50.60600 29.81300
C  25.57100 50.06400 31.23200
C  27.04200 49.50800 31.17300
C  27.38300 49.58400 29.69300
C  28.06400 50.22800 32.02900
C  24.54800 49.09600 31.68000
C  24.02900 49.29500 33.10900
H  24.94500 49.01000 34.28000
N  28.33100 49.33800 26.68600
C  29.05000 48.91900 27.77600
C  30.35800 48.44700 27.35700
C  30.39000 48.42300 25.94900
C  29.06900 48.97400 25.57900
C  31.45500 48.19100 28.32000
C  31.50700 48.00300 25.00600
O  31.49100 48.18400 23.78900
C  32.68100 47.35900 25.54700
N  26.53200 50.35400 24.61800
C  27.48100 49.92400 23.80100
C  27.12700 50.17300 22.31500
C  25.72600 50.74500 22.41200
C  25.49200 50.86100 23.91000
C  28.19100 51.04900 21.61400
C  24.58500 49.97700 21.58600
C  23.94500 50.79500 20.48400
N  24.79500 51.22400 26.76500
C  24.11200 51.83000 25.75400
C  23.04700 52.64400 26.29100
C  23.09200 52.43300 27.66300
C  24.17100 51.60200 27.93000
C  22.17000 53.43100 25.36500
C  22.44200 52.75100 28.93100
O  21.41000 53.38700 29.17600
C  23.26800 52.06200 30.05300
C  23.57300 53.16800 31.03700
O  24.60200 53.79100 31.05200
O  22.56500 53.23500 31.92300
C  22.91800 54.13500 33.04000
H  29.24900 48.50300 29.85400
H  29.22200 48.97100 23.33900
H  23.65900 52.01100 23.72200
H  25.51200 50.97400 31.82900
H  26.99400 48.48800 31.55500
H  28.85600 50.75200 31.49300
H  28.61300 49.48200 32.60400
H  27.55800 50.85900 32.76000
H  25.01300 48.11000 31.69300
H  23.63100 49.17800 31.09700
H  23.18600 48.61900 33.25200
H  23.74800 50.34800 33.14000
H  31.62300 47.11800 28.41200
H  31.18600 48.40900 29.35400
H  32.27300 48.81800 27.96600
H  33.41900 48.13800 25.73800
H  33.02100 46.65600 24.78600
H  32.32800 46.70400 26.34400
H  27.00000 49.26400 21.72700
H  25.80200 51.80600 22.17400
H  28.97100 51.16400 22.36700
H  27.84600 52.02400 21.26900
H  28.55600 50.42500 20.79800
H  23.85700 49.71200 22.35200
H  24.98600 49.11300 21.05700
H  22.91900 50.82700 20.85100
H  24.11200 50.34100 19.50700
H  24.35300 51.80500 20.44500
H  21.51400 52.74900 24.82500
H  22.66900 54.09200 24.65600
H  21.58500 54.00800 26.08200
H  22.65100 51.34800 30.59800
H  22.86600 55.16400 32.68500
H  23.92800 54.00100 33.42800
H  22.25800 53.82000 33.84900

