158

Mg 0.88600 7.44100 25.44300
C  1.76700 9.46600 28.05600
C  1.27000 4.74400 27.54700
C  0.35800 5.46400 22.89200
C  1.01800 10.23800 23.29800
N  1.56000 7.07700 27.59000
C  1.67300 8.13000 28.47200
C  1.76500 7.57400 29.90400
C  1.87100 6.00800 29.72200
C  1.44800 5.92900 28.25000
C  3.24500 5.27500 30.16300
C  0.52500 8.05400 30.80700
C  0.67800 7.76500 32.23200
H  2.01400 7.32000 32.83500
N  0.77800 5.39400 25.24900
C  0.99600 4.47200 26.25100
C  0.78500 3.11700 25.72800
C  0.49900 3.24900 24.30500
C  0.52400 4.73800 24.07200
C  0.84200 1.92600 26.58600
C  0.19100 2.20000 23.23800
O  0.19600 2.52600 22.02800
C  0.07300 0.69500 23.67000
N  0.90100 7.77000 23.36800
C  0.44900 6.85800 22.50300
C  0.15200 7.40000 21.09900
C  0.30300 8.91700 21.26700
C  0.75200 8.97100 22.76100
C  1.12000 6.76200 20.10500
C  -1.14800 9.56100 21.08600
C  -1.06500 10.86300 20.30200
N  1.34000 9.52700 25.61500
C  1.29000 10.53900 24.66900
C  1.57400 11.76800 25.35200
C  1.83600 11.39100 26.59400
C  1.63000 10.03100 26.70300
C  1.52200 13.18200 24.76200
C  2.15000 11.93600 27.93200
O  2.42300 13.10600 28.25400
C  2.09200 10.65100 28.94000
C  3.31900 10.61300 29.69200
O  4.19700 9.85000 29.52900
O  3.17600 11.48900 30.75800
C  4.23700 11.35100 31.72400
H  1.32300 3.91300 28.25400
H  0.05100 4.75500 22.12000
H  1.17600 11.09300 22.63800
H  2.70600 7.90900 30.34100
H  1.12300 5.62100 30.41500
H  3.09400 4.39400 30.78700
H  3.90000 5.95700 30.70400
H  3.73200 4.93500 29.24800
H  -0.42100 7.62900 30.47100
H  0.51000 9.14400 30.77000
H  -0.08100 7.02900 32.49600
H  0.30300 8.65600 32.73700
H  0.91700 2.08600 27.66100
H  1.53400 1.10700 26.38500
H  -0.11700 1.44500 26.39300
H  -0.73300 0.57000 24.39300
H  0.96500 0.41200 24.23000
H  -0.16300 0.00700 22.85800
H  -0.80300 7.09300 20.67200
H  1.12500 9.30300 20.66400
H  0.79700 5.77100 19.78500
H  2.12000 6.68400 20.53100
H  1.23300 7.36900 19.20600
H  -1.58100 9.81600 22.05400
H  -1.80100 8.81900 20.62700
H  -1.43000 11.68100 20.92400
H  -1.63200 10.75100 19.37800
H  -0.00500 11.02300 20.10600
H  0.57600 13.33800 24.24400
H  2.31300 13.41500 24.04800
H  1.63400 13.98400 25.49200
H  1.23300 10.84900 29.58200
H  5.09900 11.81500 31.24300
H  4.51600 10.33600 32.00800
H  3.94800 11.95600 32.58300
Mg 43.84400 3.90000 47.55800
C  41.50100 6.48500 46.90400
C  41.33400 1.56100 47.51600
C  46.28700 1.66000 47.51700
C  46.35300 6.39200 46.91300
N  41.63700 4.01800 47.10000
C  40.93300 5.14900 46.86600
C  39.44000 4.66500 46.64600
C  39.41800 3.20700 47.36400
C  40.86000 2.89200 47.31000
C  38.92900 3.24500 48.85000
C  39.12200 4.71400 45.18200
C  37.84600 5.46600 44.76700
H  37.99500 6.59400 43.66200
N  43.78700 1.92100 47.66100
C  42.70400 1.12300 47.54400
C  43.11400 -0.24200 47.53300
C  44.49400 -0.31700 47.56600
C  44.91200 1.12400 47.59000
C  42.10800 -1.38100 47.42400
C  45.36200 -1.59900 47.54400
O  44.78100 -2.69200 47.57000
C  46.83100 -1.65000 47.46800
N  45.97900 3.95000 47.23400
C  46.72900 2.92900 47.44100
C  48.21900 3.28500 47.62800
C  48.19100 4.74400 47.13700
C  46.74800 5.06600 47.12400
C  48.65400 3.01400 49.15400
C  48.88300 5.02300 45.83700
C  47.97100 4.49100 44.64800
N  43.95800 6.05900 47.16800
C  45.05300 6.87700 46.83500
C  44.61800 8.25600 46.64400
C  43.23000 8.14800 46.76700
C  42.86600 6.75700 46.92400
C  45.42500 9.46500 46.36000
C  41.95100 8.90400 46.66100
O  41.77200 10.13900 46.49800
C  40.74600 7.79400 46.79500
C  40.00100 8.10800 47.97400
O  40.26000 7.90400 49.13500
O  38.85900 8.81300 47.61200
C  38.04200 9.32900 48.71800
H  40.60900 0.74500 47.48100
H  46.96900 0.81200 47.60800
H  47.14300 7.13900 46.81800
H  38.76100 5.38700 47.10000
H  38.92000 2.37300 46.87000
H  38.35700 4.16200 48.99100
H  39.71000 3.11200 49.59900
H  38.12200 2.52800 48.99800
H  38.96900 3.66500 44.92700
H  39.95500 4.98300 44.53300
H  37.50000 6.07700 45.60000
H  37.04300 4.80700 44.43500
H  42.61100 -2.21600 46.93400
H  41.16500 -1.18700 46.91300
H  41.74300 -1.50600 48.44300
H  47.14500 -1.36000 48.47100
H  47.19100 -0.96900 46.69700
H  47.21500 -2.65600 47.30000
H  48.90000 2.77800 46.94400
H  48.64900 5.28500 47.96500
H  49.39600 2.21700 49.11300
H  47.77800 2.75900 49.75000
H  49.01000 3.90300 49.67300
H  49.79800 4.44100 45.73100
H  49.20400 6.06500 45.80600
H  47.56600 5.35500 44.12100
H  47.25000 3.69200 44.82100
H  48.62700 3.95900 43.95900
H  45.92500 9.43600 45.39100
H  46.16900 9.59800 47.14500
H  44.84500 10.38800 46.33600
H  40.05000 7.88100 45.96000
H  37.15700 9.81500 48.30700
H  38.63200 9.99600 49.34500
H  37.76800 8.49000 49.35800

