158

Mg 40.45000 9.42800 29.18200
C  42.25500 10.59200 31.81400
C  38.19600 7.91100 31.40800
C  38.76500 8.18300 26.56600
C  43.04100 10.51400 26.99500
N  40.26000 9.26100 31.30600
C  41.04300 9.88700 32.20100
C  40.50200 9.82100 33.69000
C  39.35700 8.75200 33.46400
C  39.26900 8.58300 31.94200
C  39.40700 7.44400 34.22900
C  40.14400 11.21200 34.24000
C  40.06800 11.32600 35.76100
H  40.91700 12.38400 36.42900
N  38.70500 8.15100 29.00700
C  37.93200 7.66900 30.03800
C  36.79100 6.96200 29.45600
C  36.83300 7.28600 28.05000
C  38.16300 7.90400 27.84200
C  35.79400 6.20600 30.27500
C  35.84400 7.07100 26.89700
O  36.03100 7.54700 25.79000
C  34.57100 6.33500 27.22200
N  40.88700 9.20900 27.08900
C  39.98300 8.70700 26.22500
C  40.44800 8.88600 24.83300
C  41.81800 9.58100 24.92400
C  41.96600 9.81100 26.44200
C  40.55100 7.52600 24.09400
C  41.90200 10.83900 24.07800
C  40.94200 12.01300 24.52700
N  42.31700 10.37900 29.31800
C  43.21700 10.77500 28.35900
C  44.34300 11.46100 29.00900
C  44.01000 11.39200 30.40400
C  42.75800 10.78800 30.50300
C  45.66300 12.06800 28.51100
C  44.43300 11.68100 31.77700
O  45.41300 12.20200 32.22600
C  43.30300 11.23800 32.78200
C  43.78000 10.31300 33.80000
O  44.37400 9.23900 33.59500
O  43.54700 10.71800 35.09500
C  44.03600 9.85800 36.23800
H  37.47900 7.57200 32.15900
H  38.20600 8.02100 25.64200
H  43.83900 10.76200 26.29200
H  41.17800 9.36600 34.41400
H  38.41100 9.21300 33.74900
H  38.54800 7.42700 34.89900
H  40.35400 7.31300 34.75200
H  39.43300 6.57300 33.57500
H  39.17400 11.38000 33.77400
H  40.83800 11.93500 33.81100
H  40.17400 10.30300 36.12100
H  39.02900 11.60600 35.93500
H  34.82400 6.70000 30.22500
H  36.07800 6.06100 31.31700
H  35.84600 5.32200 29.63900
H  34.11500 7.01400 27.94300
H  34.74300 5.30800 27.54300
H  33.99000 6.48100 26.31100
H  39.73200 9.52700 24.31900
H  42.56900 8.86500 24.58800
H  41.58900 7.47200 23.76500
H  39.85100 7.38700 23.27000
H  40.27800 6.70600 24.75900
H  41.53800 10.52700 23.09900
H  42.92600 11.20500 24.15800
H  40.55900 11.94000 25.54500
H  40.09600 12.09200 23.84400
H  41.49400 12.95100 24.48000
H  46.13900 12.49500 29.39300
H  45.52100 12.76000 27.68100
H  46.31800 11.31900 28.06500
H  43.01400 12.13700 33.32700
H  45.05500 9.53200 36.03100
H  43.32900 9.06000 36.46200
H  44.06000 10.44900 37.15300
Mg -1.62700 34.29800 26.00500
C  -3.34100 32.76300 28.52800
C  -0.40900 36.59000 28.23700
C  -0.21700 36.01300 23.38000
C  -3.32000 32.24500 23.60000
N  -1.98800 34.71400 28.11100
C  -2.60600 33.86500 28.96100
C  -2.34800 34.21000 30.45700
C  -1.44900 35.50600 30.35500
C  -1.29700 35.67200 28.82200
C  -1.95800 36.74400 31.05300
C  -1.85400 33.02500 31.33900
C  -2.67200 32.70100 32.59500
H  -1.97900 32.35600 34.03200
N  -0.32700 35.96900 25.83500
C  0.01700 36.78000 26.89700
C  1.03500 37.71900 26.42200
C  1.24600 37.36900 25.04500
C  0.21200 36.37500 24.66000
C  1.70500 38.77600 27.34600
C  2.31500 37.93900 24.06100
O  2.33300 37.54900 22.87800
C  3.35600 38.86600 24.55100
N  -1.97100 34.35900 23.83800
C  -1.11700 35.06100 23.04600
C  -1.52200 34.76600 21.56400
C  -2.06800 33.30700 21.68200
C  -2.48800 33.26700 23.15100
C  -2.51200 35.80200 20.93000
C  -1.13200 32.16700 21.14000
C  -0.02900 31.62600 22.10200
N  -2.92000 32.77900 25.98000
C  -3.57200 32.06900 24.98300
C  -4.52400 31.13100 25.60800
C  -4.32400 31.30100 27.03700
C  -3.44500 32.39700 27.18200
C  -5.58300 30.19600 24.97900
C  -4.74200 30.78000 28.28600
O  -5.34600 29.76800 28.58700
C  -4.15200 31.74100 29.42400
C  -5.38700 32.28000 30.10800
O  -5.95400 33.22800 29.66900
O  -5.54800 31.76100 31.32000
C  -6.62000 32.31000 32.18300
H  0.16400 37.08900 29.02200
H  0.25600 36.57800 22.57300
H  -3.65200 31.55000 22.82600
H  -3.33200 34.48000 30.84100
H  -0.43000 35.36100 30.71300
H  -1.08600 37.08800 31.60900
H  -2.70600 36.48600 31.80300
H  -2.27300 37.57300 30.41900
H  -0.80700 33.10000 31.63400
H  -1.76000 32.14000 30.71000
H  -3.26500 31.80400 32.41400
H  -3.37500 33.51400 32.77500
H  1.44100 38.79900 28.40300
H  1.45300 39.76700 26.96900
H  2.78800 38.66900 27.28400
H  2.87200 39.69500 25.06800
H  4.01800 39.29700 23.80000
H  4.01500 38.27800 25.19000
H  -0.63400 34.83400 20.93500
H  -2.98400 33.20400 21.10100
H  -3.49300 35.39300 20.68800
H  -2.13100 36.12200 19.96000
H  -2.54300 36.63000 21.63800
H  -0.53000 32.46700 20.28300
H  -1.76600 31.34200 20.81200
H  -0.15300 32.12400 23.06400
H  1.00000 31.78900 21.78200
H  -0.12600 30.55100 22.25200
H  -6.53200 30.22600 25.51400
H  -5.22700 29.22600 25.32500
H  -5.60700 30.41000 23.91000
H  -3.54700 31.10200 30.06600
H  -7.12800 31.43200 32.58200
H  -7.37100 32.85200 31.60900
H  -6.12900 32.90300 32.95500

