158

Mg 0.94900 -1.93300 44.32100
C  4.29100 -0.96700 43.91400
C  0.01800 0.89400 42.52400
C  -2.23300 -3.16200 44.15100
C  2.11600 -5.08400 45.42900
N  2.02200 -0.18800 43.31900
C  3.43500 -0.00800 43.37100
C  3.89500 1.25500 42.54500
C  2.45700 1.95600 42.39600
C  1.42000 0.82600 42.66800
C  2.19200 3.25700 43.23300
C  4.66000 0.82300 41.28300
C  6.09700 1.44700 41.02100
H  6.77600 1.45000 39.55500
N  -0.94900 -1.17900 43.52200
C  -1.04800 0.03100 42.92500
C  -2.43100 0.26800 42.72800
C  -3.14900 -0.94400 43.12100
C  -2.11900 -1.87500 43.54600
C  -3.05000 1.51900 42.11700
C  -4.62700 -1.06500 42.97700
O  -5.30100 -0.10900 42.66600
C  -5.30900 -2.31500 43.39400
N  0.19200 -3.92200 44.55700
C  -1.20400 -4.07900 44.61600
C  -1.57000 -5.37100 45.36200
C  -0.21900 -5.92900 45.71600
C  0.74600 -4.91600 45.17600
C  -2.46600 -5.19900 46.58700
C  -0.07800 -7.43100 45.23900
C  -0.88600 -8.59200 45.86400
N  2.83000 -2.85600 44.71700
C  3.12800 -4.12400 45.15100
C  4.52100 -4.31500 45.17000
C  5.08500 -2.99900 44.88000
C  3.97600 -2.21300 44.50400
C  5.17800 -5.61900 45.33000
C  6.28300 -2.28300 44.66100
O  7.46000 -2.52200 44.79300
C  5.81100 -0.86300 44.01700
C  6.17200 0.29200 44.86500
O  5.76000 0.56700 45.95000
O  7.07100 1.06700 44.12300
C  7.31700 2.43900 44.73300
H  -0.24500 1.79900 41.97300
H  -3.23200 -3.57800 44.29600
H  2.41000 -6.11200 45.65000
H  4.47300 1.83200 43.26700
H  2.40900 2.37800 41.39200
H  1.27400 3.03000 43.77600
H  2.14000 4.10500 42.55000
H  3.05900 3.46500 43.86000
H  4.07300 1.29400 40.49500
H  4.73000 -0.25700 41.15300
H  6.71200 0.81400 41.66000
H  6.08900 2.47400 41.38600
H  -3.64900 1.42500 41.21100
H  -2.31400 2.20300 41.69400
H  -3.59800 2.10700 42.85400
H  -5.02400 -3.17100 42.78200
H  -6.39000 -2.17900 43.36900
H  -5.06000 -2.54900 44.42900
H  -1.98500 -6.02000 44.59100
H  -0.13700 -6.00400 46.80000
H  -3.43900 -5.59500 46.29700
H  -2.38300 -4.16100 46.90800
H  -2.22200 -5.87700 47.40500
H  0.95200 -7.78600 45.27300
H  -0.39800 -7.53300 44.20100
H  -0.19500 -9.17900 46.46900
H  -1.36500 -9.26100 45.14900
H  -1.65500 -8.20400 46.53100
H  4.54200 -6.42600 44.96700
H  5.50400 -5.89200 46.33400
H  6.14800 -5.47900 44.85400
H  6.28300 -0.80800 43.03600
H  7.76900 2.48300 45.72400
H  6.38900 3.00700 44.66400
H  7.97900 3.00300 44.07600
Mg 44.39600 4.89800 46.77700
C  42.43600 7.65700 47.02700
C  41.50400 3.07800 46.09300
C  46.22500 2.09000 45.97700
C  47.23800 6.84600 46.54300
N  42.21700 5.38600 46.72500
C  41.71100 6.59200 46.79000
C  40.16400 6.60600 46.64400
C  39.87800 5.07700 46.25500
C  41.27400 4.43300 46.43800
C  38.72100 4.54400 47.17500
C  39.59000 7.56600 45.50400
C  40.37300 7.82500 44.17000
H  39.81000 7.14800 42.89600
N  43.95900 2.82500 46.30900
C  42.69000 2.30600 46.02500
C  42.74600 0.91000 45.63400
C  44.12700 0.56400 45.56800
C  44.87100 1.84500 45.99800
C  41.54100 0.05500 45.42200
C  44.67700 -0.82400 45.29400
O  43.88300 -1.69700 45.08500
C  46.10200 -1.23100 45.22500
N  46.44900 4.49000 46.33400
C  46.96000 3.28300 46.10800
C  48.49600 3.35500 46.10800
C  48.79500 4.82700 46.49700
C  47.43900 5.44200 46.51300
C  49.09700 2.27800 47.04400
C  49.78200 5.60900 45.48000
C  51.28800 5.16300 45.53700
N  44.87600 6.90500 46.84200
C  46.03800 7.56000 46.73700
C  45.85400 8.97400 46.90300
C  44.44100 9.11200 47.05800
C  43.91000 7.79700 47.03000
C  46.81300 10.03600 46.91200
C  43.31000 10.02000 47.30000
O  43.28700 11.23000 47.67800
C  42.01000 9.12400 47.25000
C  41.18500 9.24800 48.42600
O  41.11600 8.43800 49.37900
O  40.38000 10.35400 48.32300
C  39.47800 10.72600 49.42700
H  40.56200 2.61600 45.79100
H  46.83900 1.21500 45.75700
H  48.08500 7.51900 46.69100
H  39.69000 6.86300 47.59100
H  39.55000 5.04900 45.21600
H  38.12900 5.42200 47.43700
H  39.14800 4.10200 48.07500
H  38.21200 3.83100 46.52700
H  39.49700 8.58500 45.87800
H  38.59200 7.20800 45.25300
H  41.37600 7.42600 44.31900
H  40.35200 8.91400 44.15000
H  41.53400 -0.01000 44.33400
H  40.55400 0.40100 45.72800
H  41.67900 -0.94400 45.83600
H  46.25900 -2.27000 44.93400
H  46.51200 -1.14300 46.23100
H  46.62400 -0.57200 44.53100
H  48.80000 3.02900 45.11300
H  49.15300 4.86800 47.52600
H  50.17900 2.27700 46.91200
H  48.74300 1.30100 46.71600
H  48.75400 2.27800 48.07900
H  49.70900 6.67300 45.70600
H  49.43300 5.44800 44.46000
H  51.79000 5.08000 44.57300
H  51.49800 4.27600 46.13500
H  51.84300 5.93200 46.07500
H  46.82600 10.57100 47.86100
H  46.49900 10.78700 46.18700
H  47.87200 9.91100 46.68600
H  41.43300 9.56900 46.43900
H  40.17200 11.15100 50.15100
H  38.90800 9.84100 49.70900
H  38.90400 11.61200 49.15400

