158

Mg 45.17600 4.78100 46.87300
C  43.04300 7.46800 46.04800
C  42.50700 2.75600 46.13300
C  47.28200 2.15700 46.89400
C  47.90500 6.97900 46.52400
N  43.08800 5.11900 46.18000
C  42.41300 6.22900 45.95100
C  41.01600 6.02000 45.33700
C  40.76400 4.62000 45.89500
C  42.25300 4.08700 46.14900
C  39.82600 4.41700 47.09700
C  40.87700 6.39300 43.78700
C  39.61200 7.06200 43.29900
H  39.43500 7.64500 41.88600
N  44.87500 2.72000 46.79100
C  43.72700 2.06700 46.40300
C  44.01200 0.63400 46.36700
C  45.33100 0.43200 46.81700
C  45.88600 1.77300 46.90400
C  42.87800 -0.39600 46.02600
C  45.98800 -0.82900 47.00700
O  45.41800 -1.91900 46.75500
C  47.27800 -0.98400 47.57800
N  47.26700 4.66700 46.60500
C  47.85600 3.40400 46.68700
C  49.37500 3.59900 46.43000
C  49.63100 5.11400 46.72300
C  48.25700 5.62900 46.56800
C  50.37300 2.64200 47.27800
C  50.52600 5.83000 45.71900
C  51.39300 6.89800 46.33800
N  45.48300 6.79700 46.61200
C  46.63300 7.54500 46.48200
C  46.24200 8.94500 46.28700
C  44.87900 8.92800 46.17100
C  44.41900 7.61100 46.31000
C  47.13300 10.13800 46.14000
C  43.76100 9.81700 45.88500
O  43.60200 11.05300 45.77600
C  42.47500 8.80600 45.86600
C  41.57800 9.06500 46.98700
O  41.79100 9.01300 48.19400
O  40.27600 9.10800 46.45700
C  39.24300 9.13900 47.46000
H  41.65500 2.10600 45.92100
H  48.06200 1.39900 46.80100
H  48.79800 7.60700 46.47800
H  40.43300 6.81900 45.79400
H  40.52800 3.90700 45.10600
H  40.26200 3.76200 47.85200
H  38.83500 4.12400 46.74900
H  39.61200 5.27400 47.73600
H  40.86300 5.46000 43.22300
H  41.78600 6.92300 43.50200
H  39.38800 7.84700 44.02100
H  38.74100 6.44400 43.52200
H  43.23200 -1.03000 45.21300
H  42.00500 0.10600 45.61000
H  42.68300 -0.96500 46.93600
H  48.07900 -1.02900 46.84000
H  47.37200 -1.91400 48.13700
H  47.36500 -0.16100 48.28800
H  49.36100 3.44600 45.35100
H  49.95700 5.21100 47.75900
H  49.86700 1.76100 47.67100
H  50.64500 3.21800 48.16300
H  51.28400 2.26600 46.81300
H  49.98200 6.26300 44.88000
H  51.21900 5.09100 45.31700
H  52.39900 6.68300 45.97800
H  51.28500 6.89200 47.42300
H  51.08800 7.90700 46.06000
H  48.04100 9.89600 46.69200
H  46.62800 11.01400 46.54600
H  47.36600 10.34800 45.09600
H  41.85900 8.94700 44.97800
H  39.43900 8.42800 48.26300
H  38.27700 8.80900 47.07700
H  39.16100 10.12800 47.90900
Mg 0.84600 42.87400 25.12400
C  2.10400 43.09800 28.45000
C  -2.03100 41.69700 26.54600
C  -0.05400 42.14700 22.02200
C  4.09900 43.73800 23.92900
N  0.17100 42.44000 27.24300
C  0.81000 42.73400 28.45100
C  -0.08300 42.59400 29.69300
C  -1.29900 41.91100 29.02500
C  -1.08800 42.05000 27.50000
C  -1.48300 40.44000 29.43300
C  -0.37100 43.93600 30.42400
C  -1.56100 44.05400 31.45500
H  -2.18600 42.67400 31.80200
N  -0.97200 42.16100 24.33200
C  -2.03000 41.66600 25.06100
C  -2.91900 40.94700 24.13000
C  -2.44500 41.20600 22.79900
C  -1.12100 41.90900 23.00700
C  -4.21800 40.27200 24.53600
C  -3.03900 40.99100 21.45900
O  -2.49800 41.33100 20.43100
C  -4.36200 40.32200 21.34300
N  1.93500 42.82700 23.23900
C  1.28900 42.55200 22.14700
C  2.17700 42.53400 20.95300
C  3.34800 43.48200 21.47700
C  3.17500 43.27900 22.99400
C  2.57200 41.04600 20.51900
C  3.28800 44.89700 20.94500
C  3.03500 46.13600 21.85700
N  2.71300 43.31400 25.92500
C  3.86700 43.78800 25.30700
C  4.84700 44.08100 26.36600
C  4.23100 43.76000 27.53300
C  2.92000 43.31800 27.27800
C  6.21200 44.66900 26.14400
C  4.48000 43.72200 28.94100
O  5.47600 43.96600 29.59800
C  3.08300 43.38300 29.63600
C  3.25500 42.15200 30.42400
O  3.88000 41.14600 30.03900
O  2.60900 42.27800 31.65400
C  2.23700 41.00100 32.44900
H  -2.90000 41.30400 27.07700
H  -0.40500 41.80500 21.04600
H  5.00900 44.04400 23.40900
H  0.34400 41.80000 30.30700
H  -2.23500 42.40200 29.29000
H  -1.03900 39.89800 28.59800
H  -2.54700 40.22800 29.53400
H  -1.00900 40.16100 30.37400
H  -0.46600 44.76600 29.72400
H  0.55800 44.20200 30.92800
H  -2.41400 44.58600 31.03400
H  -1.31500 44.58400 32.37600
H  -4.83300 41.07500 24.12800
H  -4.31700 40.24400 25.62100
H  -4.43200 39.30600 24.07800
H  -5.15500 41.03500 21.56800
H  -4.42600 39.40100 21.92300
H  -4.43900 39.99200 20.30600
H  1.52200 42.82000 20.13000
H  4.33800 43.13500 21.18100
H  2.07100 40.37700 21.21900
H  3.61500 40.81100 20.73600
H  2.30800 40.86300 19.47800
H  2.49000 44.97700 20.20700
H  4.25500 45.06600 20.47200
H  2.43000 46.74700 21.18800
H  3.98800 46.64500 21.99900
H  2.65500 45.89500 22.85000
H  6.91500 43.91200 26.48900
H  6.30000 45.58300 26.73100
H  6.40000 44.82200 25.08100
H  2.82400 44.29200 30.17800
H  1.19000 41.11700 32.73000
H  2.91500 40.85300 33.29000
H  2.30600 40.11400 31.81800

