158

Mg 24.40000 -5.39800 46.08500
C  26.90200 -3.17600 44.87900
C  22.38700 -4.11700 43.71100
C  22.47100 -8.06300 46.54700
C  26.92700 -7.01000 47.98600
N  24.64900 -3.71600 44.55600
C  25.70000 -2.94900 44.27800
C  25.39900 -2.03500 43.11100
C  23.85000 -2.16400 42.93100
C  23.60800 -3.45200 43.78300
C  22.95700 -0.98200 43.39400
C  26.21700 -2.39600 41.84700
C  26.70900 -1.21900 40.97000
H  26.46000 -1.27500 39.38900
N  22.61400 -6.01000 45.37400
C  21.97700 -5.36800 44.35400
C  20.66500 -5.97600 44.17100
C  20.53200 -7.01900 45.13500
C  21.90300 -7.08300 45.77800
C  19.73300 -5.69300 43.02400
C  19.34500 -7.90800 45.41900
O  18.34600 -7.83200 44.76100
C  19.40000 -8.87100 46.52800
N  24.69800 -7.29800 47.13800
C  23.75100 -8.24500 47.08100
C  24.11000 -9.50200 47.88500
C  25.56500 -9.20900 48.33800
C  25.78700 -7.77200 47.78100
C  23.10300 -9.91100 48.97400
C  26.78000 -10.12700 47.94500
C  26.54100 -11.53300 47.32200
N  26.54700 -5.19500 46.42500
C  27.39100 -5.88400 47.23400
C  28.69200 -5.23200 47.26300
C  28.54300 -4.20000 46.31500
C  27.20500 -4.21700 45.84600
C  29.90000 -5.74700 48.01300
C  29.25100 -3.07800 45.76100
O  30.34700 -2.51500 45.99000
C  28.25900 -2.49800 44.65900
C  28.19200 -1.03900 44.68400
O  27.50000 -0.32200 45.43500
O  29.02900 -0.56900 43.66100
C  29.16200 0.90500 43.51700
H  21.80100 -3.55800 42.97900
H  21.87600 -8.95600 46.74700
H  27.84100 -7.43400 48.40700
H  25.59000 -1.04400 43.52300
H  23.67300 -2.32900 41.86800
H  22.66200 -0.47200 42.47700
H  23.47300 -0.23900 44.00300
H  22.12800 -1.35300 43.99600
H  25.60700 -3.05500 41.22900
H  27.07800 -3.01200 42.10500
H  27.78800 -1.24000 41.12300
H  26.46400 -0.25400 41.41200
H  18.93000 -5.29900 43.64700
H  19.35400 -6.60100 42.55500
H  20.11500 -4.89100 42.39200
H  19.74900 -8.29300 47.38300
H  20.11400 -9.68100 46.37400
H  18.41400 -9.22500 46.82700
H  24.19000 -10.28800 47.13300
H  25.61100 -9.17600 49.42600
H  22.59500 -10.78800 48.57200
H  22.31800 -9.20800 49.25000
H  23.65000 -10.16900 49.88100
H  27.37000 -10.22900 48.85700
H  27.38800 -9.54800 47.25000
H  25.51400 -11.85900 47.48700
H  27.25000 -12.22000 47.78500
H  26.79400 -11.48400 46.26300
H  29.52800 -5.79800 49.03600
H  30.60400 -4.92700 47.87200
H  30.10300 -6.69800 47.52000
H  28.70100 -2.95300 43.77200
H  28.66400 1.37000 44.36800
H  28.77600 1.23000 42.55100
H  30.22100 1.12900 43.65100
Mg 48.07500 15.31500 28.70400
C  46.02600 15.51000 31.46900
C  50.44700 16.97500 30.42100
C  49.75500 15.63700 25.77700
C  45.36800 13.90800 26.89100
N  48.03100 16.35000 30.55300
C  47.22100 16.10700 31.61800
C  47.86500 16.40900 33.00400
C  49.17300 17.23200 32.59600
C  49.23600 16.80800 31.09100
C  49.23100 18.77400 32.76700
C  48.10000 15.13100 33.87500
C  47.80800 15.40400 35.33700
H  47.94700 16.88900 35.83800
N  49.91500 16.06700 28.20300
C  50.75000 16.76400 29.07100
C  51.98900 17.06200 28.41400
C  51.81800 16.55200 27.06400
C  50.45900 16.07300 26.96000
C  53.20900 17.81300 29.09400
C  52.81200 16.64600 25.85800
O  52.52600 16.19600 24.73800
C  54.07700 17.37700 26.00800
N  47.57200 14.88300 26.60200
C  48.43900 15.12100 25.61500
C  47.86400 14.73600 24.32400
C  46.49600 14.01500 24.71700
C  46.48600 14.21600 26.16200
C  47.73900 15.79300 23.13200
C  46.28100 12.54200 24.17700
C  47.39000 11.54400 24.65200
N  46.16400 14.61700 29.15600
C  45.17900 14.09900 28.26100
C  43.97100 13.85300 29.09100
C  44.27500 14.48600 30.35000
C  45.64100 14.83100 30.37800
C  42.76200 13.19500 28.65700
C  43.65600 14.85400 31.67300
O  42.51500 14.65300 32.18400
C  44.83600 15.46200 32.46900
C  44.26800 16.74900 33.00500
O  43.96200 17.78700 32.44800
O  44.13300 16.56600 34.36400
C  43.80900 17.67300 35.28100
H  51.17600 17.49800 31.04200
H  50.41700 15.70900 24.91100
H  44.53900 13.45600 26.34200
H  47.14200 17.06900 33.48400
H  50.02400 16.80400 33.12600
H  48.27700 19.10500 33.17700
H  49.18000 19.25800 31.79100
H  50.05400 19.15000 33.37400
H  49.14500 14.83000 33.95600
H  47.49800 14.31800 33.46900
H  48.44500 14.82100 36.00300
H  46.75500 15.16200 35.47600
H  52.90300 18.78600 29.48100
H  54.11400 17.80500 28.48700
H  53.40500 17.35600 30.06400
H  54.61100 17.62000 25.08800
H  54.76900 16.83500 26.65200
H  53.80700 18.36900 26.37100
H  48.60500 14.03700 23.93500
H  45.69100 14.64500 24.33800
H  46.72900 15.59000 22.77400
H  48.57700 15.63400 22.45300
H  47.79800 16.79500 23.55600
H  46.19000 12.59200 23.09200
H  45.35700 12.14000 24.59400
H  47.21300 11.40500 25.71900
H  48.39900 11.87800 24.40600
H  47.17000 10.66700 24.04500
H  41.86700 13.81100 28.57500
H  42.52500 12.46500 29.43000
H  42.91100 12.88100 27.62400
H  45.03100 14.82900 33.33500
H  44.63600 18.38000 35.23400
H  43.87500 17.30100 36.30300
H  42.86300 18.19500 35.13600

