158

Mg -1.12000 17.58300 27.26200
C  -1.64000 15.17500 29.74200
C  -1.59000 20.03100 29.48800
C  -0.55900 19.87100 24.71400
C  -0.50900 14.95000 24.90900
N  -1.57900 17.60600 29.35400
C  -1.79200 16.48400 30.23500
C  -2.02100 16.98000 31.71800
C  -2.05700 18.51600 31.49700
C  -1.83700 18.75700 30.00200
C  -3.31400 19.26400 32.18600
C  -0.86700 16.50000 32.65700
C  -0.55400 17.33700 33.92200
H  -0.12600 16.45100 35.12800
N  -1.19400 19.65400 27.07300
C  -1.43200 20.50300 28.13300
C  -1.38800 21.91200 27.67300
C  -0.99500 21.80600 26.27400
C  -0.97100 20.37700 25.94700
C  -1.73700 23.08300 28.53500
C  -0.88600 22.92200 25.25900
O  -0.66900 22.81700 24.03200
C  -1.24600 24.29500 25.85100
N  -0.71700 17.43800 25.12400
C  -0.57600 18.54000 24.26500
C  -0.37400 18.03600 22.82400
C  -0.14000 16.53400 23.01300
C  -0.43100 16.28200 24.46800
C  -1.62800 18.46900 21.89400
C  1.26700 16.04100 22.58100
C  2.46300 16.20700 23.50100
N  -1.17500 15.50900 27.25400
C  -0.83600 14.55400 26.29300
C  -1.11500 13.21400 26.76600
C  -1.37800 13.36600 28.13000
C  -1.38000 14.78700 28.36200
C  -0.96800 11.92000 26.01200
C  -1.65600 12.74600 29.40900
O  -1.69500 11.55900 29.68000
C  -1.88000 13.89100 30.47000
C  -0.94600 13.42400 31.57400
O  0.26600 13.47100 31.51200
O  -1.67000 12.69700 32.50000
C  -0.82000 12.17900 33.56300
H  -1.86500 20.82200 30.18900
H  -0.47200 20.45000 23.79200
H  -0.18400 14.18400 24.20200
H  -2.96500 16.57700 32.08500
H  -1.15200 18.98600 31.88200
H  -2.98300 19.97100 32.94700
H  -3.87800 18.48800 32.70400
H  -3.99100 19.78400 31.50800
H  -0.03100 16.26700 31.99700
H  -1.25300 15.57300 33.08100
H  -1.46100 17.91300 34.10500
H  0.20900 18.08800 33.71700
H  -2.55000 23.60300 28.02900
H  -0.86400 23.71500 28.70000
H  -2.09700 22.83500 29.53300
H  -2.31500 24.34300 26.05400
H  -1.09900 25.05800 25.08600
H  -0.53600 24.45900 26.66200
H  0.50100 18.52800 22.39900
H  -0.92000 15.96000 22.51300
H  -1.81200 19.52500 22.09400
H  -2.45900 17.94800 22.36800
H  -1.50900 18.29100 20.82500
H  1.57600 16.52200 21.65300
H  1.29500 14.96300 22.42600
H  3.38500 16.39500 22.95100
H  2.54900 15.43500 24.26600
H  2.43400 17.15600 24.03700
H  -0.31600 12.11100 25.15900
H  -1.98400 11.68200 25.69800
H  -0.72400 11.06600 26.64400
H  -2.90200 13.90200 30.84900
H  -0.37800 11.21100 33.32300
H  -1.35500 12.14600 34.51200
H  0.01500 12.84600 33.77800
Mg -4.59000 25.49800 26.49200
C  -3.41100 26.82100 29.54100
C  -6.31500 23.09600 28.42000
C  -5.47400 23.86500 23.67900
C  -2.38500 27.44900 24.82700
N  -4.64500 24.90900 28.69800
C  -4.15200 25.67900 29.68600
C  -4.65800 25.13700 31.02800
C  -5.34500 23.77300 30.69700
C  -5.47800 23.92300 29.21800
C  -4.53700 22.52100 31.18600
C  -5.70200 26.15600 31.59200
C  -5.57200 26.47800 33.09100
H  -5.17200 25.40600 34.06100
N  -5.81300 23.81900 26.06800
C  -6.51800 22.99000 26.99800
C  -7.38200 22.06800 26.36700
C  -7.11100 22.22900 24.92200
C  -6.03400 23.29500 24.84000
C  -8.26900 21.09700 26.99300
C  -7.70800 21.42000 23.76900
O  -7.37300 21.61400 22.59800
C  -8.71600 20.36800 23.94600
N  -4.02200 25.64300 24.43000
C  -4.56200 24.89400 23.41200
C  -3.83200 25.24500 22.04900
C  -3.05600 26.52600 22.48000
C  -3.16700 26.60600 24.03200
C  -2.98300 24.01000 21.52400
C  -3.53800 27.85700 21.76800
C  -3.06200 28.22500 20.30400
N  -3.09100 26.86000 27.03800
C  -2.32900 27.71100 26.24200
C  -1.68000 28.74000 26.99400
C  -2.05500 28.45500 28.33500
C  -2.90100 27.32400 28.29300
C  -0.76100 29.74800 26.46200
C  -2.02700 28.88200 29.69700
O  -1.51400 29.86200 30.21400
C  -2.88700 27.87100 30.54400
C  -1.81100 27.29400 31.40700
O  -1.33600 26.21600 31.22400
O  -1.84100 27.88400 32.64600
C  -1.00600 27.15600 33.68200
H  -6.93900 22.45700 29.04800
H  -5.87600 23.37400 22.79000
H  -1.87300 28.22400 24.25200
H  -3.88300 25.04700 31.79000
H  -6.33000 23.81300 31.16100
H  -3.63300 22.95200 31.61600
H  -4.28300 21.97700 30.27600
H  -5.12000 21.99100 31.93900
H  -6.73400 25.88900 31.36700
H  -5.44400 27.12400 31.16100
H  -6.53900 26.85600 33.42200
H  -4.92500 27.33000 33.30200
H  -8.20400 21.23600 28.07200
H  -7.90200 20.09200 26.78400
H  -9.31900 21.17600 26.71300
H  -9.62500 20.76600 24.39800
H  -8.28900 19.59800 24.58900
H  -9.03400 19.97000 22.98200
H  -4.61300 25.51900 21.34000
H  -1.98400 26.40300 22.32300
H  -1.98300 24.34300 21.24600
H  -3.43200 23.57800 20.63000
H  -2.90700 23.17500 22.22100
H  -3.19000 28.59700 22.48900
H  -4.62700 27.85800 21.78400
H  -3.89600 28.39200 19.62300
H  -2.45200 27.42700 19.88000
H  -2.38400 29.07700 20.24700
H  -0.28000 29.33100 25.57700
H  -0.01000 30.11000 27.16400
H  -1.42100 30.60800 26.34900
H  -3.76600 28.30600 31.01900
H  0.02300 27.08900 33.33000
H  -1.39200 26.18000 33.97500
H  -0.94300 27.85700 34.51400

