158

Mg 16.82600 -2.34300 27.81800
C  15.75500 -0.27800 30.61300
C  18.45700 -4.31200 30.14000
C  18.04100 -4.00500 25.31600
C  15.07900 -0.18800 25.84600
N  16.99100 -2.32600 30.07500
C  16.53800 -1.39800 30.97400
C  16.99300 -1.75700 32.34800
C  18.01500 -2.91500 32.19600
C  17.90900 -3.18900 30.68400
C  19.47300 -2.56500 32.64000
C  15.84100 -2.01000 33.38600
C  16.01000 -1.32900 34.70800
H  17.40100 -1.05900 35.30600
N  18.18100 -3.86600 27.71900
C  18.63900 -4.62300 28.79000
C  19.41200 -5.69100 28.25300
C  19.33700 -5.76000 26.86600
C  18.51400 -4.53000 26.52800
C  20.25100 -6.61200 29.18300
C  19.99000 -6.71900 25.88800
O  19.77000 -6.59800 24.70400
C  20.80100 -7.83800 26.35900
N  16.61900 -2.12600 25.83000
C  17.21600 -2.94500 24.95400
C  16.96600 -2.48600 23.55500
C  15.82700 -1.47500 23.65200
C  15.86900 -1.19700 25.19300
C  18.22000 -2.03700 22.83400
C  14.43500 -1.97900 23.23500
C  14.20600 -1.96800 21.71100
N  15.63700 -0.62900 28.10800
C  14.98400 0.13700 27.20800
C  14.34400 1.31100 27.84200
C  14.58200 1.13000 29.20800
C  15.34600 -0.06300 29.30100
C  13.68000 2.43900 27.19500
C  14.37000 1.70600 30.53700
O  13.80600 2.73900 30.94000
C  15.18700 0.79300 31.47300
C  16.19400 1.63400 32.14000
O  17.16100 2.07900 31.64500
O  15.77500 1.86300 33.40400
C  16.49200 2.93200 34.08400
H  18.82300 -4.95600 30.94200
H  18.33300 -4.57000 24.42900
H  14.40200 0.33600 25.16800
H  17.50500 -0.85500 32.68300
H  17.70800 -3.79200 32.76700
H  19.63900 -2.93900 33.65000
H  19.52100 -1.47600 32.62600
H  20.20600 -2.86800 31.89100
H  15.70100 -3.08000 33.53800
H  14.90500 -1.61200 32.99400
H  15.37200 -1.90200 35.38100
H  15.49200 -0.37000 34.67000
H  19.58000 -7.44700 29.38800
H  20.60500 -6.23300 30.14200
H  21.20700 -7.01600 28.85200
H  20.27300 -8.25200 27.21900
H  21.76500 -7.45900 26.69900
H  20.92800 -8.49400 25.49800
H  16.61300 -3.36200 23.01000
H  16.13200 -0.53200 23.20000
H  18.31900 -1.06800 22.34600
H  18.59300 -2.67800 22.03500
H  19.01100 -2.08500 23.58300
H  13.68300 -1.41000 23.78200
H  14.39800 -3.04300 23.46800
H  13.81600 -0.99300 21.42000
H  13.47000 -2.72900 21.45300
H  15.17800 -2.11600 21.24100
H  12.65100 2.13900 26.99700
H  14.07400 2.76900 26.23400
H  13.69300 3.33500 27.81700
H  14.57700 0.24600 32.19100
H  16.94500 3.67900 33.43200
H  17.36200 2.49100 34.57100
H  15.82900 3.45800 34.77100
Mg -1.87200 34.17400 26.82500
C  -2.92300 32.42700 29.67000
C  -0.01200 36.17600 28.92900
C  -0.70500 35.83200 24.14900
C  -3.67500 31.93900 24.92600
N  -1.61300 34.36500 29.08700
C  -2.08300 33.45900 29.99600
C  -1.62500 33.88700 31.45500
C  -0.72800 35.12300 31.14400
C  -0.82100 35.27100 29.63900
C  -1.10900 36.47500 31.87300
C  -0.92400 32.74100 32.24500
C  -1.51400 32.56500 33.67800
H  -0.56800 32.65100 34.85500
N  -0.65900 35.95100 26.63600
C  0.06400 36.59800 27.59600
C  1.01600 37.51400 26.92900
C  0.75900 37.43400 25.53100
C  -0.28500 36.37900 25.40500
C  1.85200 38.50500 27.66900
C  1.29900 38.27000 24.45100
O  0.97000 38.27400 23.27300
C  2.46600 39.12600 24.74400
N  -2.34900 34.05300 24.84400
C  -1.64800 34.81400 23.81900
C  -2.03600 34.29300 22.43800
C  -2.87900 33.00600 22.75900
C  -2.93900 32.93500 24.26400
C  -2.68600 35.42600 21.50600
C  -2.36200 31.65900 22.02800
C  -0.91100 31.20200 22.38300
N  -3.17100 32.59800 27.17600
C  -3.80600 31.74800 26.32100
C  -4.69200 30.79400 27.10400
C  -4.24600 30.99200 28.42500
C  -3.37900 32.10300 28.42000
C  -5.55300 29.82400 26.42500
C  -4.37100 30.51300 29.83900
O  -5.07200 29.64400 30.37200
C  -3.66100 31.51700 30.59400
C  -4.63800 32.21000 31.44500
O  -5.26600 33.21600 31.15700
O  -4.61900 31.69600 32.71400
C  -5.50600 32.19800 33.76800
H  0.57200 36.85100 29.55800
H  -0.29200 36.19300 23.20400
H  -4.25200 31.23200 24.32500
H  -2.59200 34.19300 31.85500
H  0.29000 34.85400 31.42800
H  -0.24600 36.91800 32.36900
H  -1.76600 36.27100 32.71900
H  -1.63000 37.15700 31.20000
H  0.15900 32.84700 32.29600
H  -1.14700 31.81900 31.70800
H  -2.00800 31.59500 33.63600
H  -2.40800 33.17900 33.78700
H  1.59900 39.50300 27.31200
H  2.90700 38.29600 27.49100
H  1.46300 38.60500 28.68200
H  2.98800 39.40400 23.82900
H  3.16700 38.58100 25.37700
H  2.12600 40.02700 25.25400
H  -1.15500 33.90000 21.93100
H  -3.82100 33.22000 22.25400
H  -2.60200 36.44500 21.88300
H  -3.75500 35.23000 21.43000
H  -2.15000 35.18800 20.58700
H  -2.32300 31.75400 20.94300
H  -3.00400 30.83000 22.32300
H  -0.40000 31.93300 23.00900
H  -0.36800 30.94200 21.47400
H  -0.98700 30.38400 23.09900
H  -5.07000 28.91900 26.05600
H  -5.97500 30.28600 25.53300
H  -6.41300 29.54200 27.03100
H  -3.04000 31.03400 31.34800
H  -6.38000 31.56000 33.89500
H  -5.82000 33.22500 33.58000
H  -5.08700 32.16800 34.77400

