158

Mg 8.20300 3.08700 27.05800
C  9.37300 1.56800 29.96800
C  5.77100 4.65900 28.93600
C  7.03200 4.54900 24.23600
C  10.42000 1.15400 25.09200
N  7.46900 2.83800 29.19900
C  8.23600 2.32400 30.20300
C  7.73200 2.85500 31.55200
C  6.32800 3.50600 31.14700
C  6.48800 3.66500 29.67100
C  5.01900 2.78500 31.52800
C  8.82600 3.87200 32.12400
C  8.67500 4.37100 33.59400
H  9.79500 3.92400 34.53700
N  6.61600 4.40700 26.63800
C  5.78700 4.96800 27.54500
C  4.95300 6.05700 26.88100
C  5.36100 6.04000 25.52400
C  6.33800 4.92600 25.39800
C  3.99800 6.98200 27.63700
C  4.86900 6.81800 24.39100
O  5.02100 6.61900 23.19000
C  3.99500 8.08500 24.66600
N  8.60600 2.77700 24.94300
C  8.02500 3.58600 23.99800
C  8.79700 3.41400 22.62800
C  9.79900 2.33200 22.99400
C  9.67900 2.15100 24.45300
C  7.75900 3.14500 21.54100
C  11.30600 2.76100 22.68900
C  11.98100 3.69100 23.68300
N  9.58500 1.57900 27.37500
C  10.42800 0.93700 26.46100
C  11.30900 0.06700 27.22700
C  10.96700 0.34000 28.58500
C  9.85800 1.20800 28.65100
C  12.44700 -0.89300 26.62800
C  11.34200 -0.02500 29.95400
O  12.07200 -0.85400 30.45900
C  10.38500 0.90000 30.90400
C  9.76900 0.16500 32.05900
O  8.77500 -0.56700 32.07200
O  10.66600 0.25400 33.09200
C  10.14600 -0.14700 34.37900
H  5.05200 5.24100 29.51700
H  6.91000 5.21500 23.37900
H  11.06000 0.53400 24.46000
H  7.63800 1.97200 32.18500
H  6.24200 4.53500 31.49500
H  5.27300 1.82700 31.98200
H  4.36900 2.58600 30.67600
H  4.38700 3.24700 32.28600
H  8.67800 4.71800 31.45300
H  9.85000 3.60000 31.87200
H  7.66000 4.12100 33.90100
H  8.68400 5.45900 33.65800
H  4.44800 7.96500 27.77400
H  3.75200 6.47100 28.56800
H  3.10600 7.16700 27.03900
H  2.95900 7.83700 24.89700
H  4.07200 8.58700 23.70100
H  4.40500 8.56100 25.55700
H  9.33000 4.31400 22.32300
H  9.47700 1.45200 22.43600
H  8.22000 2.49200 20.80000
H  7.36800 4.09500 21.17500
H  6.93900 2.55900 21.95700
H  11.41300 3.15400 21.67900
H  11.82300 1.80500 22.60300
H  11.37200 4.06000 24.50900
H  12.15300 4.60100 23.10800
H  12.95000 3.30500 24.00100
H  13.29700 -0.88500 27.31100
H  12.73000 -0.44300 25.67600
H  12.00900 -1.86700 26.41100
H  11.10500 1.66600 31.19000
H  9.66000 -1.11200 34.23700
H  9.45800 0.60300 34.76700
H  10.94800 -0.24300 35.11200
Mg 25.74900 1.04700 28.80000
C  27.64500 0.63900 31.57000
C  23.04300 1.22200 30.83100
C  23.83900 1.12400 26.05800
C  28.61200 0.02300 26.85200
N  25.40900 0.95000 30.97300
C  26.32000 0.82300 31.96600
C  25.69400 0.80500 33.36700
C  24.11800 1.00400 33.08200
C  24.15100 1.14200 31.54000
C  23.19700 -0.11800 33.66400
C  26.27600 1.96300 34.26600
C  25.56300 2.01000 35.61300
H  26.42700 1.77900 36.83100
N  23.74800 1.10100 28.50700
C  22.77300 1.27100 29.46300
C  21.48400 1.44300 28.81100
C  21.69200 1.41600 27.38900
C  23.17300 1.27500 27.27200
C  20.18400 1.44200 29.58100
C  20.68300 1.56200 26.24300
O  20.98200 1.42200 25.05100
C  19.22800 1.93600 26.54500
N  26.13500 0.45100 26.79700
C  25.23700 0.81100 25.88300
C  25.88000 0.94100 24.50600
C  27.30700 0.55700 24.73300
C  27.38600 0.42800 26.20900
C  25.14800 0.02300 23.36700
C  28.39300 1.57200 24.11000
C  29.14300 1.16000 22.77500
N  27.74100 0.51900 29.05900
C  28.73800 0.09200 28.21100
C  29.92100 -0.19400 29.00100
C  29.50200 0.04200 30.34500
C  28.19300 0.46000 30.31700
C  31.27500 -0.58700 28.49200
C  29.99700 0.01000 31.69800
O  31.09900 -0.30900 32.12000
C  28.78300 0.33800 32.63700
C  28.45100 -0.90900 33.41200
O  27.93500 -1.97700 33.01600
O  28.94600 -0.69700 34.73000
C  28.51500 -1.57000 35.79500
H  22.16800 1.40500 31.45700
H  23.29800 1.10500 25.10900
H  29.54600 -0.27100 26.36800
H  25.92000 -0.21100 33.69200
H  23.90600 1.94200 33.59600
H  22.94100 -0.84800 32.89600
H  22.31500 0.39500 34.05000
H  23.71100 -0.66500 34.45300
H  26.06700 2.85000 33.66800
H  27.35300 1.93100 34.43000
H  24.84000 1.19400 35.65100
H  24.98000 2.92700 35.69300
H  19.38400 1.10400 28.92300
H  19.90100 2.46600 29.82500
H  20.27500 0.93400 30.54200
H  18.78100 1.04300 26.98200
H  18.68900 2.18900 25.63200
H  19.21600 2.76800 27.25000
H  25.77400 2.00700 24.30600
H  27.53600 -0.40900 24.28500
H  24.38100 -0.56200 23.87400
H  25.84000 -0.56200 22.76000
H  24.66200 0.65700 22.62600
H  29.21800 1.62700 24.82100
H  27.91000 2.52900 23.91000
H  28.48300 0.34800 22.47000
H  30.16500 0.84100 22.98100
H  29.03500 1.92300 22.00400
H  32.02900 -0.30400 29.22500
H  31.49200 -0.08100 27.55200
H  31.33700 -1.66400 28.33500
H  28.93000 1.12600 33.37600
H  28.56700 -2.59700 35.43300
H  27.46400 -1.35100 35.98200
H  29.09400 -1.45500 36.71200

