158

Mg 1.86200 -1.21000 44.27200
C  5.23400 -0.19100 43.47900
C  0.83700 1.62100 42.41400
C  -1.22500 -2.49000 44.02800
C  3.15300 -4.22300 45.22300
N  2.95800 0.43500 42.81700
C  4.27800 0.69600 42.92200
C  4.60800 2.08800 42.33300
C  3.19000 2.78200 42.21300
C  2.28200 1.61200 42.52500
C  3.01200 4.01300 43.12700
C  5.41700 2.02900 41.02100
C  6.88600 2.49800 41.07300
H  7.92300 1.60200 40.36800
N  -0.01800 -0.45400 43.45000
C  -0.21400 0.75700 42.80900
C  -1.63000 0.95200 42.62200
C  -2.27900 -0.26200 43.04600
C  -1.15400 -1.16400 43.52300
C  -2.29000 2.20500 42.05600
C  -3.73600 -0.59800 42.96600
O  -4.54100 0.25900 42.67500
C  -4.30700 -1.93100 43.33900
N  1.06500 -3.06300 44.69400
C  -0.24100 -3.38900 44.54700
C  -0.50500 -4.81400 44.93800
C  0.95300 -5.46300 45.10900
C  1.78500 -4.15300 44.99600
C  -1.49200 -5.05900 46.18500
C  1.44400 -6.53700 44.03600
C  1.66000 -7.91300 44.68200
N  3.71300 -2.08200 44.37000
C  4.08200 -3.29800 44.87600
C  5.49100 -3.38800 45.13600
C  5.93900 -2.15500 44.64400
C  4.85500 -1.45000 44.07300
C  6.26600 -4.41000 45.87900
C  7.05700 -1.28000 44.61100
O  8.18100 -1.48300 45.09000
C  6.67300 0.01000 43.73500
C  6.86400 1.12300 44.73400
O  6.09000 1.36300 45.65800
O  8.04800 1.78300 44.47100
C  8.28500 3.18000 45.07500
H  0.43200 2.53500 41.97400
H  -2.17000 -3.03200 44.10100
H  3.47200 -5.15100 45.70200
H  5.18400 2.65800 43.06100
H  3.10200 3.14100 41.18700
H  2.06500 3.90700 43.65500
H  2.92700 4.77500 42.35100
H  3.87200 4.15800 43.78100
H  4.83400 2.66600 40.35600
H  5.48700 1.00900 40.64300
H  7.24700 2.72000 42.07800
H  6.82700 3.49100 40.62700
H  -2.83300 2.07400 41.12100
H  -1.56300 2.96900 41.78100
H  -2.95100 2.65000 42.80000
H  -5.35000 -2.04100 43.04400
H  -4.17100 -2.12800 44.40200
H  -3.86900 -2.62200 42.61700
H  -1.01900 -5.27400 44.09400
H  1.05200 -5.75100 46.15600
H  -2.15200 -5.92400 46.11400
H  -2.12200 -4.19100 46.37700
H  -0.90200 -5.34300 47.05700
H  2.38300 -6.30700 43.53200
H  0.63500 -6.61000 43.30900
H  1.18900 -8.74700 44.16200
H  1.23700 -7.91800 45.68600
H  2.71000 -8.05400 44.93900
H  6.53000 -5.31100 45.32500
H  5.74400 -4.76200 46.76900
H  7.22700 -4.01300 46.20600
H  7.36200 0.17300 42.90700
H  7.59200 3.51800 45.84600
H  8.09600 3.87500 44.25700
H  9.34300 3.14400 45.33500
Mg 0.65500 43.73600 26.02200
C  2.89200 43.25400 28.53200
C  -1.92800 43.41300 28.29400
C  -1.45700 43.66900 23.39400
C  3.36300 43.69400 23.74100
N  0.49500 43.65000 28.19200
C  1.61000 43.48800 28.94900
C  1.16800 43.51900 30.49000
C  -0.40900 43.31800 30.33600
C  -0.66700 43.57700 28.86500
C  -1.12700 41.95800 30.81400
C  1.71900 44.79900 31.32200
C  1.33600 44.90300 32.82100
H  0.95400 43.61500 33.59400
N  -1.47000 43.45700 25.89100
C  -2.37500 43.38700 26.94000
C  -3.69400 43.41700 26.36800
C  -3.55100 43.48800 24.92300
C  -2.10600 43.60400 24.68000
C  -4.95000 43.56700 27.20300
C  -4.55600 43.34700 23.83000
O  -4.29300 43.31000 22.59900
C  -6.00900 43.10500 24.23000
N  0.90000 43.67000 23.89800
C  -0.12600 43.64400 23.05300
C  0.33900 43.68700 21.60100
C  1.87800 43.83500 21.68500
C  2.09700 43.66800 23.17800
C  -0.29400 42.65200 20.64100
C  2.48000 45.11700 21.07700
C  2.04500 45.47400 19.66000
N  2.71200 43.67400 26.06500
C  3.70500 43.59400 25.06800
C  4.92300 43.48700 25.70900
C  4.67200 43.24400 26.99600
C  3.32500 43.39200 27.20400
C  6.24800 43.74900 25.02500
C  5.37100 43.01700 28.25700
O  6.54100 42.99300 28.57900
C  4.20800 43.05700 29.26600
C  4.30600 41.86100 30.13200
O  3.74500 40.80700 29.94300
O  5.00600 42.18500 31.29800
C  5.14800 41.15600 32.40500
H  -2.75200 43.17900 28.97100
H  -2.13200 43.81800 22.54900
H  4.13700 43.66400 22.97200
H  1.51800 42.61100 30.98000
H  -0.92700 44.13300 30.84100
H  -0.36400 41.25500 31.14600
H  -1.69600 41.44400 30.03900
H  -1.88800 42.21200 31.55100
H  1.32400 45.63200 30.74000
H  2.79900 44.93400 31.26900
H  0.53600 45.61600 33.02000
H  2.11000 45.29800 33.47800
H  -5.74900 44.07700 26.66500
H  -4.74200 44.16100 28.09400
H  -5.39000 42.61700 27.50700
H  -6.48200 44.05400 24.48100
H  -5.85700 42.42400 25.06800
H  -6.50200 42.75200 23.32500
H  0.02800 44.68300 21.28500
H  2.28600 43.01700 21.09100
H  -0.81200 41.80000 21.08200
H  0.40600 42.21800 19.92700
H  -1.07100 43.16200 20.07300
H  3.56900 45.10600 21.13300
H  2.20100 45.92900 21.74800
H  1.42600 44.66000 19.28300
H  2.97200 45.44300 19.08800
H  1.56000 46.43500 19.49000
H  6.41500 44.81300 24.85700
H  6.40100 43.16300 24.11900
H  7.01000 43.26100 25.63300
H  4.47000 43.89700 29.91000
H  4.73300 41.60200 33.30800
H  6.19000 40.97800 32.67000
H  4.70200 40.17300 32.25300

