158

Mg 47.74100 16.81900 29.02000
C  45.85200 16.45500 31.90400
C  50.21700 18.37300 30.98000
C  49.54500 17.36700 26.25100
C  45.14800 15.56600 27.14600
N  47.98300 17.33500 31.17800
C  47.12300 17.07600 32.15300
C  47.71600 17.44000 33.53300
C  48.94200 18.43100 33.16600
C  49.06600 18.02800 31.66100
C  48.66000 19.94100 33.40500
C  48.05400 16.22200 34.43400
C  47.53000 16.28300 35.86500
H  47.48900 17.69300 36.49900
N  49.62700 17.71700 28.67300
C  50.57700 18.16800 29.57000
C  51.81400 18.58200 28.87900
C  51.42300 18.40700 27.47100
C  50.15000 17.77200 27.41600
C  53.10700 18.98200 29.61500
C  52.29400 18.82300 26.35900
O  52.00100 18.81800 25.17800
C  53.68200 19.37500 26.62600
N  47.39500 16.50900 27.06600
C  48.27000 16.80100 26.06500
C  47.73300 16.60800 24.62100
C  46.56700 15.66600 24.96800
C  46.30300 15.92400 26.47500
C  47.33900 17.91000 23.99100
C  46.74500 14.19100 24.73600
C  45.76800 13.51400 23.77100
N  45.84100 16.20100 29.42800
C  44.89000 15.69100 28.55700
C  43.69300 15.30000 29.30900
C  44.04900 15.50300 30.68700
C  45.32400 16.14800 30.65400
C  42.49300 14.75700 28.73600
C  43.60000 15.39500 32.08800
O  42.63600 14.82100 32.59800
C  44.76800 16.02000 32.88500
C  44.18900 17.00800 33.87200
O  43.81200 18.10200 33.44400
O  44.06100 16.54000 35.14400
C  43.10000 17.24600 36.05200
H  50.84500 18.93800 31.67200
H  50.04000 17.64800 25.31900
H  44.39500 15.12000 26.49200
H  47.00400 18.07100 34.06500
H  49.87600 18.09200 33.61300
H  48.60500 20.41300 32.42400
H  49.56600 20.35200 33.85000
H  47.78300 20.15700 34.01600
H  49.08300 15.86400 34.39100
H  47.52100 15.39000 33.97400
H  48.21700 15.68700 36.46500
H  46.51500 15.89000 35.79300
H  53.85600 18.23600 29.35000
H  52.95300 19.00100 30.69400
H  53.44800 19.97800 29.33200
H  53.65400 20.29700 27.20700
H  53.98000 19.70300 25.63000
H  54.43500 18.65000 26.93500
H  48.51400 16.03000 24.12700
H  45.67700 16.00300 24.43700
H  47.72700 17.94300 22.97300
H  47.83000 18.67700 24.59100
H  46.26600 18.09100 23.92000
H  46.71500 13.66300 25.68900
H  47.72500 14.07100 24.27600
H  46.31300 13.29100 22.85300
H  44.96300 14.20700 23.53000
H  45.32700 12.57500 24.10600
H  41.62100 15.21700 29.20100
H  42.56300 13.67000 28.78500
H  42.60100 15.12600 27.71700
H  45.00800 15.17500 33.53000
H  42.28100 17.70400 35.49700
H  43.72200 18.03500 36.47400
H  42.79100 16.58100 36.85800
Mg 30.18700 58.15900 39.55700
C  27.29100 56.38900 38.44500
C  32.07300 55.64100 38.25400
C  33.02800 60.17300 39.35100
C  28.23400 60.90600 40.13200
N  29.63700 56.22600 38.48200
C  28.45100 55.66500 38.22200
C  28.53700 54.24700 37.72500
C  30.09000 54.00700 37.88900
C  30.66600 55.41900 38.19900
C  30.57900 52.96300 38.96300
C  28.02900 54.15900 36.22700
C  28.32900 55.35800 35.24300
H  28.12900 55.16100 33.75200
N  32.25700 57.89300 39.03600
C  32.81400 56.77300 38.53800
C  34.24100 56.85400 38.52100
C  34.52000 58.23400 38.88400
C  33.21300 58.84900 39.09200
C  35.21200 55.72600 38.14400
C  35.90500 58.80900 38.94400
O  36.89000 58.09400 38.67200
C  36.23600 60.22400 39.21500
N  30.55600 60.26700 39.44200
C  31.77900 60.90400 39.50800
C  31.71500 62.38000 39.78600
C  30.20100 62.49500 40.32500
C  29.63800 61.13000 39.95900
C  32.79800 63.05700 40.80700
C  29.38300 63.66800 39.70600
C  28.71500 64.68600 40.50000
N  28.19400 58.62500 39.41400
C  27.49600 59.74900 39.69300
C  26.06900 59.54500 39.63400
C  25.90100 58.23300 39.10100
C  27.26100 57.73100 38.90300
C  25.04800 60.50500 40.11300
C  24.97000 57.24000 38.73100
O  23.73400 57.37100 38.78500
C  25.86800 55.96500 38.24800
C  25.51500 54.79300 39.08400
O  25.59700 54.78200 40.28900
O  24.90000 53.83600 38.26300
C  24.27800 52.76600 39.09800
H  32.57900 54.72500 37.94300
H  33.85600 60.85000 39.57200
H  27.56600 61.69600 40.48200
H  27.94200 53.61100 38.38000
H  30.47400 53.70400 36.91500
H  30.98800 52.06200 38.50500
H  29.64700 52.60800 39.40300
H  31.26600 53.43900 39.66200
H  26.97400 53.94000 36.06000
H  28.62900 53.30900 35.90100
H  29.40200 55.27400 35.41800
H  27.95500 56.25800 35.73000
H  35.93300 55.94100 37.35600
H  34.75500 54.80200 37.79000
H  35.70700 55.44500 39.07300
H  37.31200 60.32100 39.07600
H  35.91700 60.50900 40.21800
H  35.87300 60.97800 38.51700
H  31.74200 62.93500 38.84800
H  30.26200 62.69000 41.39500
H  32.30600 63.52600 41.65900
H  33.44800 63.77000 40.30000
H  33.38500 62.27700 41.29100
H  28.50500 63.29800 39.17600
H  30.00700 64.30100 39.07500
H  29.25200 65.63100 40.58900
H  28.64100 64.24000 41.49200
H  27.70500 64.79500 40.10600
H  24.18900 59.86700 40.32300
H  24.73900 61.35100 39.50000
H  25.57300 60.95100 40.95900
H  25.87200 55.80800 37.16900
H  24.98900 52.33000 39.79900
H  23.96400 51.96700 38.42700
H  23.50600 53.10400 39.78900

