158

Mg 49.50100 35.77400 27.00800
C  47.02800 34.78100 29.29100
C  50.20400 38.50800 28.66000
C  51.63200 36.54100 24.51300
C  48.14800 33.21800 24.83600
N  48.68900 36.46500 28.76300
C  47.74900 35.92400 29.62400
C  47.52400 36.87300 30.81600
C  48.35800 38.15600 30.44000
C  49.25900 37.67100 29.25500
C  47.50600 39.46900 30.27200
C  47.86500 36.30600 32.22000
C  46.66500 36.20500 33.14600
H  46.48500 37.51200 33.92800
N  50.89900 37.29900 26.75000
C  51.10200 38.26800 27.58200
C  52.22600 39.08300 27.13300
C  52.65600 38.55800 25.86900
C  51.71200 37.48700 25.62700
C  52.66100 40.30300 27.84100
C  53.80700 38.96600 25.01400
O  54.15600 38.36400 23.97200
C  54.73700 40.11600 25.49000
N  49.65800 35.06300 24.93200
C  50.72800 35.56400 24.20400
C  50.99100 34.71300 22.88900
C  50.11700 33.40400 23.26500
C  49.22600 33.92200 24.33300
C  50.71900 35.27000 21.48600
C  50.97000 32.21200 23.74900
C  51.25400 31.12800 22.75600
N  47.96600 34.16000 26.99100
C  47.51000 33.25700 26.07200
C  46.37900 32.50200 26.64900
C  46.09500 33.14900 27.85000
C  47.14200 34.11500 28.07700
C  45.73800 31.22100 26.03900
C  45.25200 33.13500 28.97500
O  44.30900 32.44800 29.25200
C  45.85200 34.15100 29.95500
C  46.05900 33.42600 31.26200
O  47.10100 32.86800 31.66600
O  44.84100 33.50700 31.95800
C  44.90200 33.00700 33.36100
H  50.40600 39.46400 29.14600
H  52.41500 36.72700 23.77400
H  47.85000 32.39400 24.18400
H  46.44000 36.98700 30.79700
H  49.04700 38.30100 31.27300
H  47.89200 39.92800 29.36200
H  47.68900 40.14800 31.10500
H  46.46100 39.21400 30.09700
H  48.63800 36.91600 32.68700
H  48.30000 35.32000 32.05100
H  46.79400 35.36200 33.82400
H  45.75300 35.97800 32.59500
H  53.72200 40.27700 28.08900
H  52.22500 40.38900 28.83600
H  52.48600 41.18400 27.22200
H  54.15200 41.03500 25.54200
H  55.59000 40.16200 24.81300
H  55.04700 39.89400 26.51100
H  52.02000 34.35200 22.86900
H  49.48300 33.03900 22.45600
H  51.57600 35.14800 20.82400
H  50.63900 36.33900 21.68200
H  49.84300 34.84400 20.99600
H  50.46100 31.64900 24.53200
H  51.97800 32.47000 24.07200
H  50.76100 31.24300 21.79100
H  50.87700 30.16300 23.09400
H  52.31000 31.07300 22.49000
H  46.45900 30.41300 26.16600
H  45.62200 31.41700 24.97300
H  44.77600 30.96400 26.48200
H  45.17200 34.98700 30.12300
H  45.86600 32.75000 33.80000
H  44.33400 32.07900 33.29100
H  44.40800 33.72100 34.02000
Mg 17.16800 52.58800 26.47700
C  19.01600 50.88800 29.08700
C  14.76300 53.20400 28.95200
C  15.46500 54.31400 24.22600
C  19.37200 51.43200 24.13300
N  16.87900 52.03100 28.77800
C  17.80300 51.46400 29.63900
C  17.35400 51.67600 31.13900
C  15.80900 52.12700 30.94700
C  15.78000 52.39100 29.45800
C  14.76600 51.19800 31.59100
C  18.17600 52.75100 31.81800
C  18.09300 52.89900 33.35900
H  17.11800 52.05800 34.17200
N  15.49400 53.83900 26.64500
C  14.63500 53.90000 27.70800
C  13.48000 54.72900 27.30600
C  13.73200 55.11700 25.93100
C  14.88000 54.40000 25.53600
C  12.30200 54.98900 28.17800
C  12.94900 56.05400 24.98800
O  13.29700 56.44100 23.88600
C  11.79800 56.83600 25.59100
N  17.29000 52.70800 24.42900
C  16.51700 53.56700 23.73600
C  16.74100 53.28100 22.17400
C  18.26500 52.86200 22.23800
C  18.34100 52.27500 23.65000
C  15.88300 52.21800 21.38700
C  19.24000 54.06600 22.12800
C  20.00900 54.16100 20.81400
N  18.80100 51.38000 26.44900
C  19.66200 51.03000 25.43900
C  20.65900 50.21300 25.98400
C  20.51000 50.14100 27.32200
C  19.33900 50.85400 27.64700
C  21.79500 49.52100 25.24500
C  21.12400 49.69100 28.65500
O  22.23000 49.17400 28.85800
C  20.15400 50.28000 29.81000
C  19.84900 49.23000 30.81900
O  19.44800 48.07900 30.58900
O  20.16400 49.64400 32.05900
C  19.75000 48.75700 33.14900
H  13.96100 53.47000 29.64400
H  14.91100 54.72800 23.38200
H  20.01700 50.98900 23.37100
H  17.48700 50.71400 31.63300
H  15.66800 53.04800 31.51400
H  15.18000 50.63300 32.42600
H  14.45700 50.42000 30.89400
H  13.85600 51.75600 31.81100
H  17.93300 53.71800 31.37800
H  19.22600 52.54300 31.61500
H  17.91400 53.94600 33.60200
H  19.05400 52.69500 33.83000
H  11.44700 55.03800 27.50400
H  12.53400 55.94800 28.64200
H  12.14300 54.18200 28.89200
H  10.91400 56.22500 25.77300
H  11.52800 57.56400 24.82600
H  12.16400 57.35400 26.47700
H  16.59200 54.22700 21.65400
H  18.50000 52.09000 21.50600
H  16.60400 51.67000 20.78000
H  15.05000 52.57800 20.78500
H  15.45600 51.49500 22.08200
H  19.90500 54.12300 22.99000
H  18.64100 54.97000 22.23700
H  19.85600 55.22800 20.65200
H  19.68500 53.51600 19.99700
H  21.05900 53.93600 20.99800
H  22.57000 50.28700 25.26200
H  21.54000 49.25800 24.21900
H  22.06100 48.59100 25.74800
H  20.70900 51.07400 30.30900
H  20.56400 48.03600 33.21800
H  18.73300 48.38200 33.03200
H  19.81900 49.42500 34.00800

