158

Mg 16.83500 -1.06200 27.68500
C  15.88700 1.09700 30.19300
C  18.59000 -2.85800 30.08900
C  18.39300 -2.78800 25.23500
C  15.46900 1.09800 25.30100
N  17.20600 -0.85600 29.89000
C  16.71500 0.11600 30.70900
C  17.08100 -0.13600 32.21100
C  18.17000 -1.25600 32.00000
C  18.00600 -1.67500 30.52500
C  19.63700 -0.84600 32.17800
C  15.80800 -0.53500 33.09100
C  16.38200 -0.83500 34.50600
H  17.58200 -0.13300 35.10200
N  18.19100 -2.71100 27.64300
C  18.68500 -3.36800 28.76700
C  19.34800 -4.55800 28.29200
C  19.24800 -4.57700 26.87700
C  18.59800 -3.36000 26.53100
C  20.02700 -5.57300 29.20800
C  19.87700 -5.56800 25.91700
O  19.83400 -5.50800 24.68600
C  20.55600 -6.79000 26.37200
N  17.03000 -0.78000 25.59800
C  17.72600 -1.66700 24.78800
C  17.63800 -1.30800 23.30300
C  16.61000 -0.12200 23.32000
C  16.37100 0.10200 24.84300
C  19.00200 -0.92300 22.70000
C  15.32300 -0.40100 22.48000
C  14.07400 -0.79400 23.30200
N  15.83000 0.73600 27.73400
C  15.29400 1.46900 26.66600
C  14.53500 2.54300 27.12100
C  14.74100 2.46200 28.54500
C  15.61300 1.40700 28.85400
C  13.84700 3.60100 26.35900
C  14.39700 3.12100 29.80700
O  13.75000 4.11500 30.06000
C  15.09900 2.20700 30.99100
C  16.00100 3.06900 31.75400
O  17.23100 3.22500 31.55800
O  15.26500 3.62300 32.82000
C  16.10000 4.44100 33.70300
H  19.22500 -3.47900 30.72500
H  18.80800 -3.36500 24.40500
H  14.98500 1.67300 24.50900
H  17.48500 0.75900 32.68400
H  18.01300 -2.11900 32.64800
H  20.07600 -1.58900 32.84400
H  19.77800 0.11000 32.68100
H  20.25700 -0.87600 31.28200
H  15.54700 -1.53200 32.73500
H  14.95300 0.13400 33.18400
H  16.40900 -1.92100 34.58700
H  15.55100 -0.49100 35.12200
H  21.09200 -5.34100 29.19400
H  19.77000 -6.59200 28.91800
H  19.63200 -5.53100 30.22300
H  20.90500 -7.37600 25.52200
H  19.79600 -7.35900 26.90900
H  21.48900 -6.61400 26.90800
H  17.39100 -2.16100 22.67000
H  17.11500 0.73900 22.88200
H  19.21500 0.14600 22.70700
H  19.17000 -1.29100 21.68800
H  19.80900 -1.29500 23.33100
H  15.30300 -1.13500 21.67400
H  15.09900 0.56000 22.01700
H  14.30500 -1.49800 24.10100
H  13.31400 -1.25000 22.66700
H  13.62300 0.10100 23.73000
H  14.46300 3.56200 25.46000
H  13.82900 4.60100 26.79200
H  12.84100 3.20900 26.21300
H  14.31100 1.80900 31.63000
H  16.56200 5.23300 33.11300
H  16.80000 3.73600 34.15100
H  15.59800 4.97800 34.50800
Mg 41.06000 8.92000 29.72000
C  42.93600 10.04900 32.38600
C  38.87500 7.41400 31.95600
C  39.42700 7.68400 27.05800
C  43.69700 9.90600 27.69000
N  41.08500 8.55200 31.98500
C  41.78000 9.32400 32.78700
C  41.18400 9.35600 34.25100
C  40.04600 8.32600 34.08400
C  39.95000 8.10800 32.59100
C  40.17000 7.01300 34.89800
C  40.69100 10.76300 34.70700
C  40.09200 10.78100 36.11700
H  40.73400 11.66500 37.19100
N  39.26700 7.77900 29.57200
C  38.57800 7.21300 30.61400
C  37.49900 6.49100 30.04000
C  37.62800 6.57900 28.64500
C  38.81200 7.37100 28.39000
C  36.45800 5.80300 30.83300
C  36.67700 6.13900 27.55700
O  36.89700 6.28700 26.38200
C  35.25200 5.58400 27.92400
N  41.59600 8.68100 27.82900
C  40.71600 8.25800 26.85800
C  41.41400 8.11500 25.44600
C  42.51400 9.23700 25.61000
C  42.60300 9.27600 27.11800
C  41.83300 6.54900 25.22300
C  42.16200 10.49300 24.80200
C  41.71400 11.65800 25.60200
N  42.95400 9.79100 29.95500
C  43.93300 10.12300 29.05000
C  45.10900 10.64900 29.69600
C  44.72100 10.76800 30.97800
C  43.43700 10.17800 31.07100
C  46.33600 11.16700 29.04000
C  45.05300 11.18600 32.30500
O  46.08500 11.68700 32.78700
C  43.86100 10.84000 33.24900
C  44.36900 10.04600 34.41900
O  44.80400 8.88500 34.45100
O  44.28200 10.74500 35.55300
C  44.93800 10.25800 36.74000
H  38.03800 7.14100 32.60200
H  38.88300 7.38800 26.15800
H  44.52000 10.25700 27.06400
H  42.02900 9.09700 34.88900
H  39.03300 8.67600 34.28600
H  40.80500 6.31400 34.35300
H  39.16500 6.63900 35.09100
H  40.59100 7.20800 35.88400
H  39.96600 11.23100 34.04000
H  41.48800 11.50600 34.73300
H  39.88500 9.77700 36.48500
H  39.15000 11.31100 35.97300
H  36.63000 5.74100 31.90700
H  36.24100 4.79200 30.48900
H  35.57100 6.41700 30.67600
H  34.73200 6.35400 28.49300
H  35.32100 4.71900 28.58400
H  34.67700 5.38700 27.01800
H  40.66700 8.26700 24.66700
H  43.46700 8.82800 25.27500
H  41.19800 5.92600 25.85300
H  42.88000 6.33600 25.43800
H  41.62900 6.22100 24.20400
H  41.31000 10.35100 24.13700
H  43.08600 10.58700 24.23100
H  42.47600 12.36400 25.93100
H  41.23400 11.33500 26.52500
H  40.94300 12.25700 25.11700
H  45.97500 11.78800 28.21900
H  46.92900 10.36200 28.60600
H  46.88800 11.63500 29.85500
H  43.37000 11.75100 33.59000
H  45.79200 10.92300 36.86700
H  45.11100 9.18800 36.85200
H  44.30400 10.49800 37.59300

