158

Mg 46.46200 15.66700 27.82400
C  44.48200 15.48300 30.76200
C  48.39900 18.09600 29.40600
C  48.32000 15.98600 25.07100
C  44.18200 13.65500 26.21700
N  46.37500 16.75100 29.80700
C  45.60800 16.33000 30.88100
C  46.04100 17.07700 32.14800
C  47.03600 18.17300 31.65300
C  47.31000 17.66800 30.19900
C  46.58900 19.63000 31.63100
C  46.66100 16.07400 33.19500
C  46.50800 16.63300 34.60900
H  47.66200 16.41800 35.53300
N  48.20000 16.76500 27.36700
C  48.80700 17.73300 28.12800
C  49.93800 18.27800 27.37800
C  49.96200 17.68800 26.13900
C  48.80400 16.75400 26.15500
C  50.71200 19.46000 27.87000
C  51.00500 17.79900 25.01100
O  50.95100 17.24500 23.93400
C  52.28500 18.62900 25.27800
N  46.25900 15.01500 25.89200
C  47.20800 15.20500 24.93600
C  46.80600 14.49500 23.63300
C  45.78900 13.49200 24.10900
C  45.31000 14.10000 25.50200
C  46.34100 15.45800 22.44600
C  46.26500 12.04200 24.22200
C  47.28200 11.71100 25.28900
N  44.66400 14.84100 28.29100
C  43.81400 14.02100 27.52300
C  42.70600 13.51300 28.30700
C  42.96100 14.02700 29.62200
C  44.15800 14.89300 29.51200
C  41.56700 12.59500 28.00700
C  42.45700 14.09200 30.94000
O  41.42700 13.59000 31.50500
C  43.45800 14.91900 31.75500
C  42.74000 15.94300 32.58800
O  42.28700 16.98500 32.10700
O  42.81100 15.56600 33.91700
C  42.22300 16.52800 34.87300
H  49.02700 18.78000 29.98000
H  48.69100 16.13000 24.05400
H  43.63300 12.82400 25.76800
H  45.20100 17.60200 32.60200
H  48.01400 18.09200 32.12600
H  47.44300 20.25000 31.90400
H  45.74700 19.79500 32.30300
H  46.30200 19.97300 30.63700
H  47.72400 16.00400 32.96200
H  46.26600 15.06200 33.29000
H  45.56200 16.35000 35.07000
H  46.56700 17.71100 34.46300
H  51.72400 19.15300 28.13400
H  50.18600 19.95800 28.68500
H  50.89000 20.25000 27.14000
H  52.00600 19.68200 25.25500
H  52.87500 18.45700 24.37800
H  52.96700 18.26700 26.04700
H  47.68500 13.96000 23.27600
H  44.94600 13.58300 23.42500
H  46.85000 15.31300 21.49300
H  46.63100 16.48400 22.67200
H  45.27200 15.43000 22.23300
H  46.60600 11.63800 23.26800
H  45.41800 11.36900 24.35000
H  48.21700 11.48900 24.77400
H  46.98200 10.83500 25.86500
H  47.52500 12.51300 25.98600
H  40.71400 13.17700 27.65800
H  41.22100 12.04800 28.88400
H  41.87300 11.92300 27.20400
H  43.89000 14.17400 32.42300
H  41.23100 16.91200 34.63300
H  42.88700 17.34300 35.16300
H  41.94500 15.87300 35.69800
Mg 15.83500 52.56100 25.59000
C  18.05200 51.65400 28.19400
C  13.32600 53.07600 28.04200
C  13.84600 53.56200 23.16300
C  18.33700 51.62700 23.30700
N  15.72600 52.46700 27.81900
C  16.83200 52.24800 28.66600
C  16.46500 52.49200 30.17100
C  14.92300 52.53900 30.09000
C  14.61600 52.78500 28.57600
C  14.20900 51.26400 30.60300
C  17.10100 53.75300 30.84600
C  17.28500 53.66900 32.34800
H  16.54600 52.55400 33.11700
N  13.91000 53.20600 25.58400
C  13.04400 53.33600 26.63900
C  11.68300 53.67600 26.11000
C  11.79000 53.66400 24.72100
C  13.20400 53.48800 24.40500
C  10.50400 53.84900 26.97800
C  10.75300 53.84700 23.64600
O  11.07100 53.81400 22.48400
C  9.41200 54.00800 24.05400
N  16.14500 52.69300 23.56800
C  15.11300 53.21700 22.74200
C  15.60600 53.42900 21.30900
C  17.14500 52.93500 21.45100
C  17.24600 52.36600 22.84100
C  14.85600 52.63200 20.21200
C  18.16700 54.09800 21.27100
C  19.21000 53.76400 20.20300
N  17.75500 51.72700 25.72400
C  18.63700 51.30600 24.67100
C  19.88800 50.79600 25.23500
C  19.60100 50.84200 26.64000
C  18.34600 51.48600 26.85800
C  21.11100 50.22100 24.46200
C  20.20200 50.60000 27.99500
O  21.33000 50.20200 28.31800
C  19.16900 51.17300 29.03500
C  18.85900 50.19600 30.12700
O  18.17000 49.20700 29.97200
O  19.44200 50.52200 31.32300
C  19.37600 49.47000 32.31300
H  12.50600 53.10000 28.76200
H  13.30800 53.93000 22.28700
H  19.12400 51.31700 22.61600
H  16.88500 51.65900 30.73400
H  14.47100 53.42300 30.53900
H  14.85900 50.49300 31.01700
H  13.49400 50.80800 29.91800
H  13.58200 51.49600 31.46300
H  16.54300 54.66400 30.63000
H  18.02800 53.89900 30.29100
H  16.93100 54.62100 32.74500
H  18.33100 53.46000 32.57200
H  9.94300 52.91600 27.04100
H  9.99100 54.75200 26.64900
H  10.77800 54.14100 27.99200
H  9.49200 54.83400 24.76100
H  9.09200 53.19700 24.70700
H  8.83100 54.08700 23.13500
H  15.45900 54.45800 20.97900
H  17.38800 52.08700 20.81100
H  13.91600 52.30600 20.65600
H  15.41100 51.78200 19.81600
H  14.47200 53.15900 19.33800
H  18.68200 54.27300 22.21500
H  17.60900 55.02900 21.17000
H  18.86000 53.01000 19.49800
H  20.14400 53.46600 20.67800
H  19.50700 54.56500 19.52500
H  21.58000 49.51100 25.14300
H  21.79900 50.94800 24.02800
H  20.78300 49.62400 23.61100
H  19.72700 52.00300 29.46800
H  18.39100 49.57000 32.76900
H  20.14300 49.43500 33.08600
H  19.52800 48.51200 31.81500

