158

Mg -1.12000 17.86500 27.16500
C  -1.82500 15.79500 29.99100
C  -1.99500 20.59900 29.12100
C  -0.71500 19.83100 24.53100
C  -1.11700 14.90700 25.18000
N  -1.87200 18.11300 29.27900
C  -1.81000 17.17300 30.29400
C  -2.02500 17.81800 31.60700
C  -2.28000 19.30300 31.25000
C  -2.08400 19.34200 29.78300
C  -3.64500 19.89600 31.59200
C  -0.80400 17.62600 32.53500
C  -1.18300 17.18400 33.90100
H  -0.14000 17.02900 34.98600
N  -1.14300 19.94500 26.87900
C  -1.46400 20.94200 27.82700
C  -1.23600 22.23700 27.25200
C  -0.79200 21.94400 25.90100
C  -0.84400 20.54000 25.72000
C  -1.55500 23.51100 28.01800
C  -0.40900 22.97900 24.79900
O  -0.04000 22.66200 23.72200
C  -0.76700 24.48200 25.07900
N  -0.97200 17.43900 25.19700
C  -0.77100 18.44800 24.30000
C  -0.75300 17.79800 22.90900
C  -0.66800 16.26200 23.11200
C  -0.88900 16.22200 24.64100
C  -1.89000 18.28900 22.01700
C  0.80900 15.84300 22.70400
C  1.95000 16.40500 23.58300
N  -1.32900 15.74400 27.47600
C  -1.33700 14.68800 26.58500
C  -1.65500 13.45100 27.28600
C  -1.77400 13.83000 28.62400
C  -1.60600 15.21900 28.67200
C  -1.96200 12.13700 26.84300
C  -1.95300 13.34700 29.97800
O  -2.04000 12.23200 30.42500
C  -1.87000 14.60400 30.93100
C  -0.65000 14.36100 31.77000
O  0.52000 14.52400 31.37300
O  -0.98100 13.90200 32.98900
C  0.17400 13.30600 33.71300
H  -2.21000 21.45100 29.77000
H  -0.69300 20.42200 23.61300
H  -1.03300 14.06200 24.49400
H  -2.80700 17.27400 32.13800
H  -1.55200 19.96600 31.71700
H  -4.33900 19.19700 32.05900
H  -4.18200 20.23100 30.70400
H  -3.58300 20.85700 32.10300
H  -0.35800 18.61200 32.66000
H  0.05000 17.10000 32.10700
H  -1.70700 16.23100 33.83600
H  -1.81000 17.94500 34.36600
H  -0.65000 24.11700 28.03600
H  -1.71800 23.30400 29.07600
H  -2.37600 23.98800 27.48200
H  -1.83800 24.65200 25.18700
H  -0.42300 24.95200 24.15800
H  -0.24200 24.76400 25.99200
H  0.13900 18.29600 22.52900
H  -1.31300 15.60000 22.53500
H  -2.43700 18.84200 22.78000
H  -2.67600 17.58600 21.74100
H  -1.52400 18.96100 21.24000
H  1.04000 16.11500 21.67400
H  0.87100 14.75500 22.71900
H  1.54500 17.01900 24.38800
H  2.69700 17.01900 23.08100
H  2.50200 15.54600 23.96300
H  -2.21100 12.15900 25.78200
H  -2.81700 11.68200 27.34100
H  -1.10300 11.49800 27.04600
H  -2.79200 14.63800 31.51200
H  -0.24300 13.14400 34.70700
H  1.11900 13.83500 33.58800
H  0.21800 12.32400 33.24300
Mg 36.04300 2.31000 30.77800
C  33.32500 3.06900 33.03300
C  38.08800 2.19000 33.27000
C  38.30500 1.69000 28.45800
C  33.55800 2.35600 28.16600
N  35.69800 2.63900 32.88900
C  34.56300 2.87700 33.64700
C  34.95900 2.96300 35.12500
C  36.49200 2.88500 35.16100
C  36.79500 2.49300 33.65300
C  37.25200 4.21200 35.48500
C  34.20800 1.81000 36.02000
C  33.75300 2.17000 37.45500
H  34.57600 3.18000 38.20400
N  37.93500 1.89100 30.84400
C  38.64800 1.89900 32.01600
C  39.98800 1.33800 31.79000
C  40.02100 1.17200 30.38800
C  38.74600 1.66200 29.83200
C  41.01600 1.05400 32.89700
C  41.14300 0.61800 29.51100
O  40.90500 0.39200 28.36900
C  42.54600 0.35500 30.09100
N  35.91900 1.92300 28.58500
C  37.01000 1.81500 27.88300
C  36.69600 1.48100 26.45500
C  35.13300 1.49400 26.38000
C  34.77100 1.87600 27.79400
C  37.34700 2.20600 25.29000
C  34.57500 0.05200 26.10700
C  34.50000 -0.29000 24.61500
N  33.95400 2.80800 30.53700
C  33.11400 2.73800 29.44800
C  31.78900 3.02500 29.87200
C  31.88400 3.23400 31.26800
C  33.19000 3.02000 31.59100
C  30.57600 2.96300 28.97900
C  31.08800 3.50300 32.46800
O  29.92200 3.75200 32.63800
C  32.08300 3.37900 33.65100
C  32.10800 4.72000 34.32500
O  32.54000 5.76600 33.81400
O  31.52200 4.62400 35.55800
C  31.43300 5.81300 36.44600
H  38.82100 2.16400 34.07900
H  39.00800 1.42600 27.66500
H  32.93700 2.31300 27.27000
H  34.59800 3.93500 35.46300
H  36.97000 2.12900 35.78300
H  37.76100 4.66600 34.63500
H  37.99600 4.06700 36.26800
H  36.59100 5.02700 35.77900
H  34.86900 0.94400 36.04600
H  33.38900 1.46800 35.38700
H  33.78300 1.18000 37.91000
H  32.72900 2.53900 37.38900
H  41.98800 1.43900 32.58900
H  41.00300 -0.02400 33.05400
H  40.73800 1.37000 33.90300
H  43.16800 -0.06300 29.29900
H  42.39800 -0.29400 30.95400
H  43.04400 1.26600 30.42400
H  37.01500 0.45600 26.26600
H  34.77500 2.29200 25.73100
H  36.63200 2.08800 24.47600
H  38.18100 1.59800 24.94000
H  37.60200 3.26400 25.35200
H  33.61200 -0.04700 26.60900
H  35.28500 -0.64800 26.54700
H  33.66600 -0.95400 24.38600
H  35.42000 -0.71600 24.21500
H  34.35500 0.62700 24.04300
H  29.69500 2.95500 29.62100
H  30.67100 2.03300 28.41800
H  30.50800 3.79800 28.28300
H  31.75400 2.60400 34.34200
H  31.47300 5.63400 37.52100
H  30.49600 6.33300 36.24500
H  32.24100 6.51900 36.25400

