158

Mg 8.59800 3.89000 27.73500
C  9.90900 2.22100 30.53700
C  6.91400 5.98100 29.78100
C  7.08900 5.04300 25.09400
C  10.24800 1.44800 25.77300
N  8.30900 4.02500 29.88700
C  9.06000 3.31000 30.82800
C  8.76300 3.76500 32.29500
C  7.70500 4.90600 32.08500
C  7.54400 4.94400 30.54700
C  6.35200 4.90500 32.84100
C  10.06000 4.05800 33.20400
C  9.85700 5.15900 34.30300
H  10.19200 4.78800 35.74500
N  7.20700 5.31400 27.46300
C  6.62900 6.11600 28.43500
C  5.58200 6.95600 27.82200
C  5.60700 6.68800 26.43400
C  6.64100 5.63600 26.28000
C  4.84900 7.95500 28.58100
C  4.74300 7.23200 25.37200
O  4.60800 6.77400 24.24100
C  3.90300 8.39900 25.60400
N  8.75800 3.29300 25.68400
C  8.05200 4.06200 24.76200
C  8.36700 3.59600 23.30900
C  9.23800 2.20700 23.60200
C  9.45700 2.34400 25.10300
C  7.17400 3.38500 22.37200
C  10.55800 2.10500 22.81300
C  10.73800 0.66200 22.16800
N  9.82000 2.10700 28.07500
C  10.47900 1.31600 27.16700
C  11.36700 0.43700 27.93000
C  11.07700 0.68900 29.26400
C  10.23300 1.80400 29.28100
C  12.32400 -0.56500 27.36600
C  11.38000 0.31700 30.62900
O  12.17700 -0.44700 31.08700
C  10.59400 1.30300 31.57100
C  9.74900 0.38100 32.34500
O  9.02400 -0.50800 31.83800
O  9.81300 0.60900 33.69600
C  8.85100 -0.27300 34.49100
H  6.46900 6.69800 30.47400
H  6.55800 5.44900 24.23000
H  10.91400 0.78600 25.21700
H  8.23100 2.95600 32.79700
H  8.19600 5.86300 32.26000
H  6.29200 5.84600 33.38900
H  6.19600 4.08000 33.53600
H  5.61400 5.05800 32.05400
H  10.84500 4.44900 32.55700
H  10.45700 3.18600 33.72400
H  8.78500 5.35500 34.30500
H  10.42900 6.02900 33.98100
H  4.80000 7.59400 29.60800
H  3.82000 7.80900 28.25200
H  5.27300 8.95700 28.52200
H  4.40700 8.89700 26.43200
H  2.90400 8.03600 25.84700
H  3.87600 9.00200 24.69600
H  8.98600 4.35000 22.82400
H  8.57400 1.36500 23.40900
H  6.22600 3.44100 22.90800
H  7.24900 2.40300 21.90500
H  7.23900 4.09700 21.54900
H  11.37000 2.23200 23.52900
H  10.58400 2.89400 22.06300
H  11.16800 0.70500 21.16800
H  9.75500 0.19700 22.09100
H  11.37600 0.20400 22.92400
H  11.88500 -1.53500 27.13300
H  13.14300 -0.71200 28.07000
H  12.68100 -0.12200 26.43700
H  11.33700 1.88100 32.11900
H  8.88400 -1.29500 34.11200
H  7.84700 0.14300 34.41000
H  9.20900 -0.18100 35.51600
Mg 48.25800 15.67100 28.55900
C  46.06200 15.47900 31.21400
C  50.62400 16.93300 30.78100
C  50.30300 16.04500 25.90700
C  45.75000 14.49500 26.49800
N  48.29400 16.31000 30.79000
C  47.29600 16.00800 31.63900
C  47.73100 16.36000 33.05700
C  49.08700 17.13100 32.85800
C  49.37000 16.86000 31.37400
C  49.03700 18.65700 33.18100
C  47.94100 15.08600 33.94700
C  47.48300 15.12400 35.40400
H  47.33700 16.45300 36.14600
N  50.18900 16.39600 28.37900
C  50.97100 16.86900 29.35800
C  52.27200 17.22900 28.78500
C  52.35400 16.80500 27.40600
C  50.90100 16.35300 27.16400
C  53.43500 17.78200 29.72500
C  53.46100 16.87200 26.42800
O  53.32000 16.46800 25.27100
C  54.82400 17.46300 26.81700
N  48.02900 15.37400 26.50300
C  48.99000 15.66300 25.59200
C  48.46400 15.43400 24.17800
C  47.14100 14.68100 24.38500
C  46.95000 14.79800 25.89000
C  48.33800 16.71500 23.37300
C  47.16200 13.23400 23.68300
C  47.53300 11.99500 24.57100
N  46.32000 14.95600 28.75000
C  45.40500 14.49300 27.84700
C  44.21800 14.09400 28.55700
C  44.46000 14.36100 29.90200
C  45.78100 14.91300 29.93500
C  43.06300 13.48100 27.95400
C  43.90500 14.33200 31.26400
O  42.86400 13.83400 31.66700
C  45.02700 15.00100 32.13700
C  44.51600 16.08100 33.12600
O  44.47800 17.31600 32.90400
O  44.09100 15.39500 34.28100
C  43.49200 16.24500 35.30100
H  51.43500 17.38300 31.35800
H  50.99200 16.15900 25.06700
H  45.00200 14.17900 25.76700
H  47.08100 17.07900 33.55600
H  49.82200 16.69600 33.53500
H  49.23400 19.18400 32.24700
H  49.78700 18.91900 33.92800
H  48.01000 18.91400 33.44100
H  48.97200 14.73500 33.91300
H  47.55800 14.19100 33.45800
H  48.28300 14.67000 35.98900
H  46.52800 14.62800 35.57500
H  53.47900 17.40300 30.74600
H  53.37500 18.87000 29.69100
H  54.45800 17.54300 29.43600
H  54.78300 18.45400 27.26800
H  55.27600 17.74600 25.86600
H  55.50000 16.84100 27.40400
H  49.15800 14.78100 23.64900
H  46.31300 15.18800 23.89100
H  47.42300 16.83500 22.79300
H  49.17200 16.80300 22.67800
H  48.41900 17.54700 24.07200
H  47.82600 13.14900 22.82300
H  46.17300 13.05400 23.26100
H  48.12900 11.29300 23.98800
H  46.68000 11.44600 24.97100
H  48.05300 12.36500 25.45500
H  43.35700 12.55800 27.45400
H  42.68600 14.28300 27.31900
H  42.36300 13.23700 28.75300
H  45.51000 14.30400 32.82100
H  44.11000 17.12200 35.49500
H  43.28200 15.70700 36.22500
H  42.57300 16.71900 34.95500

