158

Mg 17.18900 51.96700 25.96600
C  18.55100 50.73700 28.79900
C  14.36300 53.03400 27.85300
C  15.62500 53.10600 23.25300
C  19.63300 50.54400 23.97900
N  16.48000 51.81400 28.04700
C  17.29200 51.36200 29.06300
C  16.60400 51.55600 30.51300
C  15.29900 52.28500 30.10000
C  15.40400 52.43800 28.55900
C  13.97800 51.48200 30.57000
C  17.51300 52.44400 31.50300
C  17.76700 51.73300 32.80500
H  17.08100 52.41900 33.99000
N  15.24200 53.10200 25.67300
C  14.25300 53.43900 26.51500
C  13.21500 54.13700 25.82100
C  13.62000 54.22200 24.43300
C  14.85700 53.45200 24.43500
C  11.99900 54.66200 26.52500
C  12.99100 54.94000 23.28600
O  13.44100 54.92100 22.17100
C  11.83500 55.84800 23.48400
N  17.53100 51.72800 23.95200
C  16.77500 52.37500 23.00800
C  17.37500 52.30700 21.56400
C  18.82700 51.73400 21.82400
C  18.64800 51.29300 23.31600
C  16.57500 51.38900 20.54600
C  19.93700 52.70400 21.64400
C  19.77700 54.21600 21.97000
N  18.73300 50.78800 26.27600
C  19.68400 50.26600 25.40800
C  20.64000 49.48200 26.14900
C  20.30000 49.69300 27.46600
C  19.07700 50.42600 27.46800
C  21.76900 48.72900 25.63300
C  20.66100 49.38700 28.85700
O  21.61500 48.67300 29.28800
C  19.47000 50.01800 29.74400
C  18.81300 48.98700 30.59800
O  17.92300 48.18600 30.32600
O  19.45900 49.08600 31.80400
C  18.92000 48.33600 32.91500
H  13.59500 53.42000 28.52700
H  15.37900 53.72000 22.38400
H  20.50600 50.14300 23.46000
H  16.30300 50.58900 30.91500
H  15.25500 53.28000 30.54200
H  13.60800 50.83500 29.77400
H  13.29400 52.22200 30.98400
H  14.17400 50.87600 31.45400
H  17.02400 53.40200 31.68100
H  18.45800 52.60200 30.98300
H  18.84200 51.63300 32.95700
H  17.30600 50.74600 32.79900
H  11.94900 55.73400 26.71400
H  11.75700 54.22500 27.49400
H  11.22500 54.43200 25.79200
H  11.97500 56.48500 24.35700
H  10.95900 55.20200 23.54800
H  11.58100 56.39500 22.57600
H  17.41800 53.24100 21.00300
H  19.01900 50.94000 21.10200
H  17.00800 50.41400 20.31900
H  16.25000 51.84600 19.61100
H  15.63000 51.04400 20.96600
H  20.31100 52.70400 20.62000
H  20.78700 52.36800 22.23800
H  19.80500 54.79300 21.04600
H  20.65200 54.55100 22.52900
H  18.85400 54.46400 22.49400
H  22.30700 49.40000 24.96400
H  21.61500 47.88700 24.95800
H  22.43900 48.33300 26.39600
H  19.95200 50.78900 30.34600
H  19.80500 47.76400 33.19100
H  18.14600 47.57400 32.82400
H  18.72900 49.09700 33.67200
Mg 9.58800 47.85800 24.76400
C  7.61400 48.17200 27.63200
C  12.11500 49.44500 26.45900
C  11.46600 47.89700 21.99300
C  6.71000 47.12500 22.92700
N  9.78300 48.76100 26.82100
C  8.88000 48.66100 27.86800
C  9.51800 49.02000 29.24700
C  10.85900 49.78600 28.64600
C  10.96800 49.27800 27.24700
C  10.73900 51.31900 28.58900
C  9.84100 47.78300 30.18000
C  9.22500 47.83000 31.62400
H  9.31700 46.58300 32.53900
N  11.57000 48.39100 24.36400
C  12.48900 48.95100 25.21900
C  13.74200 48.96800 24.55800
C  13.60900 48.34900 23.27500
C  12.14800 48.14600 23.16900
C  14.96800 49.49800 25.24600
C  14.60300 48.11000 22.18100
O  14.32900 47.69900 21.03000
C  16.07800 48.29100 22.47700
N  9.14500 47.67400 22.74500
C  10.10700 47.65600 21.76500
C  9.60800 47.12900 20.42200
C  8.06900 46.80500 20.72100
C  7.92000 47.24600 22.22500
C  9.77100 48.14000 19.18700
C  7.70600 45.32400 20.47700
C  7.93400 44.35400 21.67200
N  7.54500 47.64500 25.12900
C  6.41400 47.36400 24.32100
C  5.21800 47.36700 25.09500
C  5.64300 47.55500 26.39300
C  7.02300 47.77500 26.35800
C  3.93600 46.95800 24.58400
C  5.19700 47.61000 27.76100
O  4.08300 47.41800 28.21200
C  6.45500 47.99100 28.57200
C  6.60300 46.88000 29.60500
O  7.24600 45.83100 29.39200
O  6.04100 47.18600 30.81200
C  5.84700 46.09100 31.77800
H  12.81000 49.98400 27.10700
H  12.09900 47.79200 21.11000
H  5.74200 46.90400 22.47200
H  8.88400 49.67400 29.84400
H  11.70800 49.49900 29.26500
H  10.73500 51.62400 29.63600
H  9.73500 51.62600 28.29700
H  11.54500 51.77400 28.01300
H  10.90500 47.89500 30.38700
H  9.64800 46.86400 29.62600
H  8.15700 47.86500 31.41000
H  9.47900 48.77300 32.10900
H  15.24000 50.37800 24.66300
H  15.68300 48.67700 25.29900
H  14.87700 50.03700 26.18900
H  16.73900 47.84300 21.73500
H  16.37200 47.89300 23.44800
H  16.21900 49.35800 22.65100
H  10.27400 46.30000 20.18000
H  7.39400 47.41300 20.11900
H  8.87200 48.18500 18.57300
H  10.68000 48.01100 18.60000
H  9.78300 49.15700 19.57800
H  8.21300 44.92400 19.59800
H  6.63600 45.42500 20.29300
H  8.72700 44.65700 22.35500
H  8.20200 43.36300 21.30700
H  6.98700 44.27000 22.20600
H  3.71900 47.70700 23.82200
H  3.19200 47.06600 25.37300
H  3.96500 45.92200 24.24800
H  6.20900 48.90400 29.11400
H  6.48400 46.21700 32.65300
H  6.14300 45.14600 31.32200
H  4.81100 45.95400 32.08700

