158

Mg 44.15900 4.74300 47.82900
C  41.81800 7.23900 47.46300
C  41.58000 2.46800 47.67700
C  46.44100 2.45700 48.38300
C  46.69500 7.19600 47.32200
N  41.93100 4.86500 47.52300
C  41.19300 6.00200 47.52100
C  39.64100 5.72400 47.57000
C  39.63500 4.16400 47.60000
C  41.18100 3.84300 47.66500
C  38.85400 3.53100 48.83000
C  38.62500 6.33600 46.53100
C  39.20000 6.77400 45.17300
H  38.62400 6.05500 43.97200
N  44.11600 2.68800 47.71600
C  42.92600 1.93100 47.72900
C  43.26600 0.55300 47.79100
C  44.64100 0.55100 47.98500
C  45.14200 1.92000 48.04300
C  42.26200 -0.57200 47.58000
C  45.41900 -0.74400 48.15000
O  44.84600 -1.85800 48.36200
C  46.91000 -0.71100 47.90400
N  46.25800 4.74000 47.53600
C  46.91500 3.74600 48.23400
C  48.38500 4.10600 48.44100
C  48.48400 5.54800 47.87400
C  47.08600 5.84900 47.51100
C  48.96800 4.01000 49.80400
C  49.50000 5.66300 46.71000
C  50.96200 5.88200 47.10100
N  44.27400 6.76700 47.46900
C  45.39300 7.61600 47.34200
C  44.97500 8.92900 47.23000
C  43.54200 8.86000 47.27800
C  43.16700 7.53500 47.38800
C  45.78200 10.19800 46.99600
C  42.28500 9.73700 47.24700
O  42.12200 10.93300 47.21600
C  41.12700 8.61500 47.35700
C  40.36400 8.85600 48.68000
O  40.48700 8.29900 49.74600
O  39.39300 9.77000 48.37900
C  38.41100 10.02800 49.44400
H  40.76400 1.74300 47.73200
H  47.20600 1.82000 48.83100
H  47.34100 8.07500 47.29000
H  39.37300 6.06300 48.57000
H  39.21400 3.71800 46.69900
H  38.31200 2.60700 48.63100
H  38.13000 4.25500 49.20500
H  39.60300 3.30800 49.59000
H  38.20800 7.21200 47.02800
H  37.81900 5.62600 46.34600
H  40.25400 6.50200 45.11800
H  39.12600 7.84600 44.98800
H  41.27700 -0.10800 47.61400
H  42.46600 -1.37700 48.28700
H  42.34600 -1.03900 46.59900
H  47.16200 0.23500 47.42400
H  47.25200 -1.58100 47.34400
H  47.41000 -0.73800 48.87200
H  48.87500 3.42400 47.74600
H  48.79400 6.32200 48.57600
H  48.27300 3.62700 50.55200
H  49.29400 4.97400 50.19300
H  49.81100 3.32200 49.87100
H  49.23000 6.49400 46.05900
H  49.50100 4.74100 46.12900
H  51.24600 6.93400 47.06400
H  51.57900 5.29300 46.42300
H  51.02900 5.43100 48.09100
H  46.42000 10.43000 47.84900
H  45.12400 11.05800 46.87000
H  46.41300 10.12800 46.11000
H  40.39900 8.52600 46.55100
H  37.69800 9.20900 49.53700
H  37.91100 10.99300 49.36100
H  38.93700 10.03800 50.39900
Mg 30.12700 58.90300 38.56300
C  27.24100 57.05100 37.76800
C  32.05000 56.28700 37.64800
C  32.88700 60.95100 38.52100
C  28.01900 61.76600 38.85100
N  29.63100 57.04400 37.64500
C  28.41000 56.37000 37.47400
C  28.52400 54.96000 37.04300
C  30.09000 54.68300 37.36700
C  30.65700 56.11000 37.60100
C  30.39900 53.77000 38.56500
C  28.24200 54.78700 35.49800
C  26.87500 54.17900 35.05400
H  26.18100 55.06100 33.94200
N  32.21000 58.59900 38.30700
C  32.78000 57.46800 37.93400
C  34.24500 57.63300 37.88000
C  34.46000 58.97100 38.24700
C  33.16000 59.54700 38.39400
C  35.19900 56.55400 37.50000
C  35.81300 59.62100 38.50100
O  36.91900 59.08200 38.24400
C  35.92400 60.86800 39.22900
N  30.40600 61.01400 38.63800
C  31.63700 61.60900 38.56500
C  31.45700 63.11800 38.67300
C  29.93500 63.37900 38.87100
C  29.40600 61.95200 38.68800
C  32.44300 63.95500 39.59000
C  29.40200 64.42900 37.81600
C  28.45000 65.49400 38.32900
N  28.09000 59.39200 38.36900
C  27.38700 60.55600 38.66400
C  25.93700 60.35800 38.53700
C  25.83100 59.00600 38.18400
C  27.14200 58.46300 38.14300
C  24.86300 61.42700 38.75200
C  24.94200 57.90400 37.97500
O  23.69800 57.86300 38.06800
C  25.75000 56.64300 37.57700
C  25.30100 55.61000 38.44400
O  25.76100 55.44000 39.56900
O  24.33500 54.80300 37.87600
C  23.66300 53.85900 38.73500
H  32.66400 55.38500 37.60200
H  33.68800 61.65900 38.30000
H  27.35300 62.58100 39.14100
H  27.92700 54.35300 37.72400
H  30.55500 54.19600 36.51000
H  31.09400 52.94400 38.40900
H  29.52900 53.13800 38.74600
H  30.62800 54.17000 39.55200
H  29.02200 54.24700 34.96100
H  28.47000 55.79400 35.14700
H  26.34200 53.90600 35.96500
H  27.15200 53.20800 34.64200
H  35.97000 56.59400 38.27000
H  35.69000 56.90100 36.59000
H  34.75000 55.56600 37.40000
H  36.92700 61.13400 39.56400
H  35.17100 60.99300 40.00700
H  35.63400 61.60000 38.47500
H  31.78300 63.42700 37.67900
H  29.68000 63.69200 39.88400
H  31.83300 64.24500 40.44600
H  32.92400 64.82000 39.13300
H  33.19200 63.21800 39.87900
H  28.88300 64.05100 36.93600
H  30.30400 64.96800 37.52600
H  28.90600 66.42600 38.66300
H  27.85900 65.18400 39.19100
H  27.65700 65.83300 37.66300
H  23.95900 61.04900 38.27500
H  25.06800 62.44700 38.42700
H  24.80100 61.41400 39.84000
H  25.62400 56.37700 36.52800
H  23.27000 54.40000 39.59600
H  24.30700 53.08700 39.15600
H  22.96800 53.26500 38.14200

