158

Mg 45.10500 4.11000 48.78700
C  43.54700 7.05200 47.89900
C  42.32000 2.36500 48.13500
C  46.97500 1.40900 48.65500
C  48.25400 6.10400 48.97400
N  43.11900 4.71400 48.26800
C  42.68600 5.96200 47.88000
C  41.18300 5.96200 47.69600
C  40.78400 4.48300 47.71800
C  42.13100 3.79600 48.07200
C  39.56700 4.07800 48.59500
C  40.61000 6.84000 46.59300
C  39.23700 6.59500 46.01400
H  38.97200 6.49900 44.45300
N  44.71200 2.10100 48.62400
C  43.44500 1.57100 48.29400
C  43.56800 0.15700 48.02300
C  44.94700 -0.19300 48.07300
C  45.59600 1.15300 48.44300
C  42.32700 -0.65300 47.69300
C  45.52200 -1.51800 47.84300
O  44.82300 -2.45900 47.53500
C  46.93800 -1.84000 48.05300
N  47.28300 3.87000 48.94500
C  47.76200 2.53400 48.89800
C  49.28200 2.48300 49.10900
C  49.68300 4.02200 49.26300
C  48.33300 4.73000 49.02700
C  49.75400 1.45400 50.21100
C  50.99700 4.52100 48.54900
C  51.93400 5.39200 49.45800
N  45.77400 6.18400 48.59000
C  47.06500 6.82200 48.69300
C  46.88100 8.22400 48.46200
C  45.53800 8.36500 48.19400
C  44.90300 7.04300 48.22900
C  48.00200 9.25700 48.50900
C  44.54200 9.25800 47.85500
O  44.53800 10.47700 47.72400
C  43.25000 8.46300 47.71000
C  42.17900 8.96100 48.71400
O  41.76100 8.34600 49.70100
O  41.59800 10.04400 48.12500
C  40.30600 10.40100 48.74300
H  41.39000 1.87400 47.84300
H  47.58600 0.50400 48.67500
H  49.17900 6.67400 48.86200
H  40.73800 6.31600 48.62500
H  40.53000 4.09700 46.73100
H  38.79000 3.58800 48.00900
H  38.95800 4.93500 48.88100
H  39.92300 3.59600 49.50600
H  41.33900 6.65700 45.80400
H  40.61300 7.91600 46.76400
H  38.70800 7.50400 46.29900
H  38.82700 5.75000 46.56900
H  42.54200 -1.23800 46.79800
H  41.38200 -0.13200 47.54000
H  42.14200 -1.40000 48.46500
H  47.22000 -1.65200 49.08900
H  47.51100 -1.45500 47.20900
H  46.99800 -2.91900 47.91300
H  49.77300 2.14000 48.19800
H  49.77800 4.24200 50.32600
H  50.17500 2.02200 51.04100
H  50.66800 0.92500 49.94300
H  48.89900 0.92400 50.63100
H  50.68000 5.21800 47.77300
H  51.55400 3.68700 48.12200
H  51.98400 6.36000 48.95700
H  52.89800 4.88900 49.53400
H  51.56300 5.58400 50.46500
H  48.38400 9.51100 47.52100
H  48.73900 8.82200 49.18400
H  47.55700 10.08800 49.05700
H  42.91500 8.72600 46.70700
H  39.79700 10.96300 47.96000
H  40.36000 10.94400 49.68700
H  39.68500 9.52400 48.92300
Mg 35.79200 2.66300 30.66300
C  33.20700 3.70300 32.67100
C  37.91100 2.65000 33.46600
C  38.39200 1.68200 28.66800
C  33.68000 2.55900 28.04400
N  35.51900 3.10700 32.79300
C  34.41800 3.59600 33.37100
C  34.74100 3.61700 34.95600
C  36.26400 3.74600 35.03200
C  36.62700 3.07300 33.66300
C  36.74200 5.20700 35.16300
C  34.00100 2.36800 35.53100
C  33.95100 2.27600 37.09400
H  34.07400 3.55400 37.86000
N  37.89200 2.21400 31.03400
C  38.53600 2.24800 32.22300
C  39.92500 1.80700 32.06300
C  40.08500 1.62800 30.64800
C  38.78600 1.79800 30.04300
C  40.89800 1.64400 33.20000
C  41.32400 1.24800 29.87600
O  41.33100 1.16100 28.64200
C  42.68800 1.03700 30.50500
N  36.10000 2.41200 28.63100
C  37.20100 1.91400 28.01400
C  36.92100 1.69800 26.46800
C  35.38900 1.67300 26.39000
C  35.00000 2.24500 27.79200
C  37.56400 2.86900 25.66300
C  34.62900 0.31700 26.03700
C  33.53900 0.54200 24.94000
N  33.80900 3.22200 30.32100
C  33.10700 3.13100 29.18900
C  31.68600 3.51600 29.39800
C  31.64300 3.72100 30.79300
C  32.97000 3.50200 31.27900
C  30.66100 3.62700 28.29400
C  30.83400 4.03400 31.94400
O  29.68000 4.27100 32.08200
C  31.85700 3.96800 33.20500
C  31.76600 5.22200 33.98100
O  31.90800 6.35400 33.54000
O  31.53000 4.93700 35.35700
C  31.33400 6.19200 36.13200
H  38.43500 2.67600 34.42400
H  39.05600 1.22500 27.93200
H  33.03400 2.70600 27.17600
H  34.24500 4.48400 35.39300
H  36.65400 3.20100 35.89200
H  37.32000 5.41800 34.26300
H  37.37100 5.27400 36.05000
H  35.96600 5.96900 35.24600
H  34.64300 1.52200 35.28700
H  33.00900 2.26600 35.09200
H  34.58300 1.55900 37.61800
H  32.96100 1.88200 37.32400
H  41.49600 0.73300 33.15800
H  40.40800 1.64800 34.17400
H  41.58500 2.48800 33.13000
H  43.47200 1.15300 29.75600
H  42.62100 0.00800 30.85800
H  42.81400 1.73700 31.33100
H  37.41400 0.78400 26.13600
H  35.06700 2.48800 25.74200
H  36.92000 3.22100 24.85700
H  38.50900 2.47700 25.28600
H  37.92200 3.61800 26.36900
H  34.16300 -0.14800 26.90500
H  35.34400 -0.41400 25.65800
H  33.76500 0.03400 24.00200
H  33.37100 1.59600 24.71800
H  32.61900 0.08100 25.29900
H  29.88400 2.89100 28.49900
H  31.12100 3.66200 27.30600
H  30.07600 4.54700 28.30200
H  31.60500 3.14500 33.87400
H  32.23200 6.79100 36.28200
H  30.93600 5.85900 37.09100
H  30.53700 6.83100 35.75300

