158

Mg -12.12000 38.56600 41.82600
C  -9.75400 36.05800 40.97900
C  -10.14300 40.79700 40.09400
C  -14.71200 40.70800 41.89700
C  -14.13400 36.02800 43.15400
N  -10.27100 38.41300 40.43700
C  -9.52900 37.24200 40.30500
C  -8.24200 37.47300 39.57200
C  -8.27700 39.07500 39.45500
C  -9.60100 39.49600 40.02800
C  -7.12600 39.76300 40.17800
C  -8.02100 36.68200 38.24000
C  -6.70600 35.89900 38.09500
H  -6.05300 36.14100 36.73300
N  -12.42500 40.44800 41.12000
C  -11.46600 41.15800 40.48200
C  -12.01700 42.48800 40.14500
C  -13.35700 42.50600 40.61600
C  -13.55900 41.18600 41.25700
C  -11.20700 43.57700 39.36600
C  -14.34300 43.74500 40.45400
O  -14.00100 44.74900 39.89500
C  -15.81100 43.70200 40.95600
N  -14.08500 38.42200 42.54000
C  -14.91200 39.44600 42.54100
C  -16.32100 38.96600 43.10500
C  -16.10400 37.52800 43.52700
C  -14.69000 37.26000 43.02700
C  -16.95800 39.94600 44.13600
C  -17.08000 36.43200 42.98600
C  -17.74800 35.53700 44.04700
N  -11.99000 36.43300 42.05200
C  -12.87000 35.53400 42.66100
C  -12.22100 34.21200 42.75800
C  -10.99000 34.37300 42.17200
C  -10.87100 35.71800 41.74200
C  -12.82000 33.06600 43.48300
C  -9.72700 33.70300 41.76700
O  -9.35900 32.56000 41.95800
C  -8.89900 34.80800 41.02300
C  -7.66300 34.90900 41.79200
O  -6.60700 34.32800 41.53900
O  -7.74200 35.84600 42.77900
C  -6.51700 36.21300 43.52100
H  -9.52000 41.61900 39.73600
H  -15.66700 41.23700 41.90700
H  -14.74000 35.29700 43.69500
H  -7.53700 37.12800 40.32800
H  -8.06500 39.34100 38.41900
H  -7.46400 40.58200 40.81200
H  -6.37500 40.06200 39.44700
H  -6.58400 39.07000 40.82100
H  -8.09100 37.38200 37.40800
H  -8.85400 36.00100 38.06300
H  -6.88800 34.85900 38.36500
H  -6.11100 36.23800 38.94400
H  -10.60200 43.06000 38.62100
H  -10.68200 44.26700 40.02700
H  -11.89700 44.17700 38.77300
H  -15.94300 43.54800 42.02700
H  -16.34400 42.89100 40.45800
H  -16.30500 44.63000 40.66800
H  -16.93000 39.04100 42.20400
H  -16.23100 37.51000 44.60900
H  -16.90400 39.56700 45.15600
H  -18.01000 40.17200 43.96200
H  -16.26500 40.78700 44.14200
H  -16.59300 35.83400 42.21500
H  -17.90400 36.85500 42.41100
H  -17.52800 35.82600 45.07500
H  -17.51600 34.48400 43.88500
H  -18.82700 35.54100 43.89200
H  -12.69500 32.18400 42.85600
H  -13.88200 33.27300 43.61300
H  -12.28900 32.73400 44.37500
H  -8.68100 34.45000 40.01700
H  -6.89600 36.70500 44.41600
H  -5.88500 36.89000 42.94500
H  -5.91900 35.35400 43.82700
Mg -2.02100 34.81800 27.12000
C  -3.81100 33.48800 29.83900
C  -0.27500 36.84100 29.18300
C  -1.35300 36.83500 24.51200
C  -3.92200 32.72900 24.95600
N  -1.96500 34.98300 29.25900
C  -2.84800 34.44100 30.22100
C  -2.49100 34.97600 31.63200
C  -1.33600 35.98300 31.40300
C  -1.13100 35.91800 29.86800
C  -1.62400 37.46200 31.91900
C  -2.23400 33.93900 32.69000
C  -2.99500 34.16400 33.96300
H  -2.34100 33.83400 35.30600
N  -0.72400 36.43600 26.77400
C  -0.04000 37.05600 27.77000
C  0.69200 38.19300 27.25200
C  0.32600 38.23200 25.88300
C  -0.62000 37.13600 25.64200
C  1.55800 39.12300 28.06400
C  0.83000 39.18100 24.77400
O  0.57200 39.02700 23.61800
C  1.68400 40.31600 25.11700
N  -2.58200 34.77500 25.07900
C  -2.07600 35.68100 24.18400
C  -2.55100 35.34200 22.70100
C  -2.82700 33.79800 22.86800
C  -3.12400 33.74600 24.39100
C  -3.88500 36.17800 22.37400
C  -1.71300 32.90800 22.43900
C  -1.50500 32.36800 20.96700
N  -3.58200 33.39300 27.33500
C  -4.21300 32.66100 26.33300
C  -5.11400 31.70600 26.95000
C  -5.03400 31.96900 28.38700
C  -4.08800 33.03000 28.53300
C  -5.86100 30.57700 26.17800
C  -5.49500 31.62300 29.67400
O  -6.32400 30.81100 30.09000
C  -4.79500 32.62000 30.61300
C  -5.79500 33.43500 31.34500
O  -6.17100 34.53500 31.04700
O  -6.22300 32.75900 32.44400
C  -7.20800 33.39800 33.28000
H  0.22800 37.54900 29.84600
H  -1.07000 37.41200 23.62800
H  -4.39300 32.03800 24.25400
H  -3.39400 35.55100 31.83700
H  -0.43500 35.64900 31.91800
H  -1.80500 38.20300 31.14000
H  -0.81500 37.94300 32.46700
H  -2.53000 37.40200 32.52200
H  -1.19700 33.69600 32.92400
H  -2.59000 32.99800 32.27200
H  -3.87400 33.52600 33.86500
H  -3.37800 35.17600 34.09200
H  1.13700 40.10900 27.86600
H  2.58700 39.24100 27.72400
H  1.40700 39.01700 29.13900
H  2.52700 40.05800 25.75800
H  1.01800 41.08100 25.51600
H  2.11200 40.66500 24.17700
H  -1.82700 35.57200 21.92000
H  -3.66500 33.47500 22.25000
H  -3.67000 36.79500 21.50100
H  -4.14600 36.94900 23.09900
H  -4.77300 35.56300 22.22700
H  -1.86800 32.00800 23.03300
H  -0.73300 33.31300 22.69300
H  -1.89800 31.35200 20.92400
H  -0.44500 32.35700 20.71300
H  -2.01400 32.98400 20.22600
H  -6.86900 30.54100 26.59000
H  -5.44200 29.57800 26.30400
H  -5.82200 30.77100 25.10600
H  -4.19100 32.05500 31.32200
H  -8.19900 33.25300 32.84800
H  -7.09700 34.48200 33.25800
H  -7.23600 32.96600 34.28100

