158

Mg 53.87100 23.45400 45.15600
C  51.57700 26.06400 44.30100
C  51.54100 21.25300 43.94400
C  56.32100 21.21000 45.14900
C  56.26300 25.96200 46.15700
N  51.72400 23.69300 44.25600
C  51.02200 24.83600 44.00700
C  49.60800 24.52200 43.50200
C  49.57900 22.90100 43.67500
C  51.04300 22.55700 44.04900
C  48.44100 22.39700 44.64800
C  49.39000 25.04500 42.06000
C  47.90200 25.18500 41.66400
H  47.50100 24.36200 40.39000
N  53.90100 21.48400 44.59800
C  52.87600 20.74700 44.05600
C  53.29700 19.36500 43.99400
C  54.72000 19.31600 44.30700
C  55.05800 20.68600 44.70200
C  52.43700 18.23500 43.40300
C  55.56000 18.04600 44.34900
O  55.15700 16.96700 43.87600
C  56.88500 17.94100 45.05000
N  56.02500 23.62700 45.33000
C  56.77900 22.50900 45.38400
C  58.22500 22.74400 45.76100
C  58.22000 24.24200 45.98300
C  56.77800 24.69400 45.75300
C  58.78700 21.95900 46.91900
C  59.17600 24.99800 44.98800
C  59.82600 26.34000 45.53900
N  53.96400 25.55300 45.30300
C  54.92300 26.37600 45.75500
C  54.37500 27.75100 45.78700
C  53.11000 27.65900 45.15600
C  52.92600 26.31900 44.84200
C  55.16500 28.95600 46.18900
C  51.95300 28.44500 44.79200
O  51.70100 29.69600 44.93500
C  51.07500 27.44000 44.05900
C  51.21500 27.79300 42.61900
O  51.92600 27.26300 41.77500
O  50.44100 28.89100 42.32400
C  50.16500 29.19500 40.98300
H  50.82800 20.45400 43.73100
H  57.10800 20.45400 45.17100
H  56.91700 26.74700 46.54300
H  48.92200 25.10900 44.11300
H  49.39100 22.43100 42.71000
H  47.98500 21.46200 44.32200
H  47.62400 23.11700 44.69300
H  48.73500 22.29100 45.69200
H  49.80500 24.25600 41.43400
H  49.82900 26.00500 41.78700
H  47.70500 26.23200 41.43300
H  47.27400 24.87400 42.49900
H  51.36800 18.42200 43.29500
H  52.48900 17.46200 44.17000
H  52.89600 17.88400 42.47900
H  57.65000 18.40900 44.43000
H  57.08600 16.87300 45.12600
H  56.92700 18.37700 46.04800
H  58.78500 22.39900 44.89200
H  58.53400 24.39600 47.01500
H  59.71900 22.37500 47.30000
H  58.87900 20.91700 46.61400
H  58.08300 21.84500 47.74400
H  58.64000 25.37100 44.11500
H  59.92800 24.26600 44.69500
H  60.88200 26.09000 45.64000
H  59.37700 26.66400 46.47700
H  59.73200 27.10400 44.76800
H  56.24500 28.80800 46.22400
H  54.71100 29.24800 47.13600
H  55.00400 29.68600 45.39500
H  50.00800 27.44200 44.28100
H  49.15500 29.60500 40.95300
H  50.32600 28.40000 40.25600
H  50.72400 30.10200 40.75100
Mg 26.92100 50.48400 25.59000
C  25.13400 51.70100 28.30200
C  29.69100 49.93400 27.62900
C  28.80700 49.75000 22.87300
C  24.51700 51.87100 23.46100
N  27.32200 50.50100 27.82100
C  26.37800 51.11800 28.71000
C  26.89300 51.04600 30.14500
C  28.42400 50.56400 29.85100
C  28.51700 50.40900 28.35800
C  29.42400 51.57300 30.51000
C  26.00400 50.08900 31.02200
C  25.35800 50.75800 32.22700
H  26.23700 50.88500 33.46700
N  28.85600 49.72600 25.30500
C  29.89200 49.58000 26.29800
C  31.04900 48.86500 25.66300
C  30.65800 48.75000 24.27400
C  29.44700 49.41900 24.06200
C  32.35300 48.57100 26.40900
C  31.30900 48.01500 23.21500
O  30.92400 47.96100 22.01700
C  32.63700 47.32200 23.53400
N  26.58900 50.56700 23.51800
C  27.58400 50.35100 22.63100
C  27.14700 50.68900 21.12900
C  25.63800 51.19500 21.38700
C  25.56700 51.14700 22.88200
C  28.12300 51.66900 20.44600
C  24.52100 50.36400 20.67100
C  23.73500 51.14200 19.58200
N  25.16900 51.47000 25.81100
C  24.26000 51.94100 24.90500
C  23.09900 52.56600 25.57500
C  23.43900 52.47300 26.90800
C  24.61700 51.74800 26.98900
C  22.06700 53.31200 24.87400
C  22.93600 52.77000 28.14900
O  21.91600 53.37100 28.54100
C  24.02400 52.31600 29.15300
C  24.47000 53.52100 29.92900
O  25.49300 54.21600 29.68400
O  23.53400 53.70300 30.91300
C  24.01200 54.63200 31.97400
H  30.49900 49.68300 28.31900
H  29.41900 49.60400 21.98000
H  23.91900 52.44800 22.75300
H  26.73300 52.06600 30.49600
H  28.56900 49.60700 30.35200
H  28.85200 52.15900 31.22800
H  30.07900 52.13400 29.84300
H  30.11600 50.96700 31.09500
H  26.62500 49.27900 31.40300
H  25.19200 49.58800 30.49600
H  24.59300 50.09400 32.62800
H  24.85500 51.71400 32.08600
H  32.47000 47.52100 26.67700
H  32.15800 49.09600 27.34400
H  33.26600 49.04500 26.04900
H  32.55200 46.79900 24.48700
H  33.37400 48.11000 23.68400
H  33.12700 46.74700 22.74900
H  27.12700 49.75900 20.56100
H  25.55100 52.24800 21.11600
H  28.87400 52.02800 21.15100
H  27.51800 52.46500 20.01000
H  28.60600 51.01400 19.72200
H  23.77100 50.11500 21.42200
H  24.89200 49.43100 20.24500
H  23.47900 50.39800 18.82800
H  24.20400 52.03500 19.16600
H  22.72900 51.45000 19.86500
H  21.53300 52.69600 24.15100
H  22.56100 54.07800 24.27600
H  21.43500 53.76600 25.63700
H  23.68600 51.54800 29.84800
H  24.55600 55.51700 31.64200
H  24.43600 54.16300 32.86200
H  23.10900 55.11200 32.35000

