158

Mg -0.41900 7.28900 26.30100
C  0.56000 9.29000 29.01600
C  -0.90600 4.72100 28.62900
C  -0.75100 5.22400 23.77500
C  0.38000 9.93600 24.21500
N  -0.08800 7.06100 28.55000
C  0.25700 8.01300 29.53300
C  0.19300 7.46600 31.00900
C  -0.09000 5.92400 30.68200
C  -0.45700 5.90600 29.15600
C  1.02600 4.95300 31.07800
C  -0.80900 8.16600 31.92600
C  -0.42000 8.07400 33.45900
H  0.73700 7.32200 33.99300
N  -0.76100 5.24400 26.19800
C  -1.05500 4.37700 27.25300
C  -1.56600 3.17500 26.72500
C  -1.49300 3.28700 25.29900
C  -1.00800 4.61700 25.01100
C  -1.97700 1.96200 27.66100
C  -1.72800 2.18500 24.27200
O  -1.43200 2.43200 23.11200
C  -2.38500 0.87800 24.63000
N  -0.17400 7.44200 24.30700
C  -0.37300 6.52700 23.37000
C  -0.42200 7.09900 21.95500
C  -0.44000 8.65900 22.24100
C  0.01500 8.71400 23.71000
C  0.79300 6.52500 21.05300
C  -1.87500 9.20500 21.86500
C  -1.88800 10.65800 21.19900
N  0.32200 9.20000 26.48600
C  0.60400 10.16700 25.59900
C  1.09400 11.38100 26.22000
C  1.07900 11.08700 27.53800
C  0.53300 9.75200 27.66800
C  1.48500 12.62400 25.59500
C  1.27400 11.64800 28.84900
O  1.60900 12.81900 29.11200
C  0.90700 10.51300 29.80300
C  2.01300 10.28400 30.81500
O  2.96500 9.59200 30.52600
O  1.69500 10.93600 31.97000
C  2.73900 10.90900 33.01400
H  -1.19300 3.93800 29.33400
H  -1.12200 4.65900 22.91800
H  0.69000 10.78900 23.60700
H  1.19200 7.47200 31.44500
H  -0.99200 5.60200 31.20400
H  0.55600 4.06500 31.50200
H  1.58400 5.42200 31.88900
H  1.65700 4.69300 30.22900
H  -1.74400 7.67000 31.66600
H  -0.94200 9.22900 31.72300
H  -1.34000 7.58800 33.78000
H  -0.44300 9.00600 34.02500
H  -1.97200 2.12500 28.73900
H  -1.40600 1.07100 27.40200
H  -2.97400 1.72000 27.29100
H  -3.39200 1.11600 24.97100
H  -1.83400 0.29000 25.36400
H  -2.45000 0.34000 23.68400
H  -1.35000 6.60500 21.66500
H  0.30600 9.23500 21.69400
H  1.35100 7.35200 20.61500
H  0.46100 5.73300 20.38100
H  1.49600 6.12700 21.78500
H  -2.47300 9.34000 22.76600
H  -2.47500 8.42000 21.40500
H  -2.35900 10.71200 20.21800
H  -0.85900 10.98300 21.04000
H  -2.46300 11.32800 21.83600
H  0.51000 13.09800 25.48500
H  1.87200 12.41300 24.59800
H  2.09300 13.22500 26.27100
H  0.01100 10.76300 30.37100
H  3.27200 9.95900 33.06300
H  2.25800 11.02700 33.98500
H  3.53200 11.57400 32.67400
Mg 36.32900 49.30200 26.43900
C  36.34700 46.94700 29.03800
C  35.47300 51.74300 28.62900
C  35.98300 51.34500 23.84600
C  36.85900 46.62800 24.19700
N  36.07600 49.37900 28.62400
C  36.12800 48.30300 29.47300
C  35.88000 48.73400 30.87700
C  35.48500 50.18600 30.63000
C  35.60100 50.49000 29.20300
C  34.17800 50.51700 31.26300
C  37.09700 48.61100 31.88800
C  36.63000 48.26400 33.33700
H  36.64100 49.39600 34.39700
N  35.77100 51.25000 26.29900
C  35.45600 52.13600 27.29000
C  35.35600 53.47000 26.75300
C  35.63100 53.46000 25.35500
C  35.83600 51.96900 25.14000
C  35.14500 54.56300 27.72300
C  35.60200 54.62200 24.38100
O  36.03800 54.39300 23.25100
C  35.37900 56.10400 24.76500
N  36.31600 48.95800 24.29000
C  36.08600 50.01700 23.45800
C  36.34300 49.64900 21.92400
C  37.03700 48.22600 22.16500
C  36.71800 47.91300 23.62500
C  35.16400 49.59200 20.91000
C  38.57300 48.09700 21.71000
C  38.90800 47.37800 20.39900
N  36.58500 47.22100 26.50500
C  36.85700 46.25900 25.53000
C  37.23600 45.09000 26.21600
C  36.98000 45.26400 27.57600
C  36.55600 46.59900 27.72100
C  37.85900 43.90700 25.54400
C  36.98900 44.61800 28.88100
O  37.38100 43.48300 29.17200
C  36.50600 45.64500 29.92700
C  35.23500 45.25100 30.65800
O  34.21900 44.85500 30.10400
O  35.40300 45.60400 31.96500
C  34.36900 45.09300 32.82400
H  35.18100 52.59200 29.25000
H  35.91300 52.03800 23.00500
H  37.11000 45.79100 23.54200
H  34.98800 48.22900 31.24800
H  36.24700 50.89300 30.95800
H  33.30200 50.20600 30.69300
H  33.96900 51.58700 31.28800
H  34.24500 50.25700 32.31900
H  37.55300 49.58300 32.07600
H  37.87900 47.89000 31.65000
H  37.14700 47.35400 33.64200
H  35.56500 48.03200 33.33600
H  36.07800 54.74400 28.25800
H  34.43300 54.22400 28.47600
H  34.78800 55.51600 27.33400
H  36.22000 56.66000 25.18100
H  34.53500 56.12100 25.45500
H  34.93200 56.57300 23.88900
H  37.08000 50.30100 21.45700
H  36.48600 47.44900 21.63500
H  35.07200 48.68600 20.31200
H  35.21500 50.39800 20.17800
H  34.30200 49.65100 21.57500
H  39.15500 47.69200 22.53700
H  39.01300 49.09000 21.61200
H  38.06200 47.43200 19.71400
H  39.11100 46.33300 20.63300
H  39.79900 47.91300 20.07000
H  38.86200 44.30700 25.39200
H  37.41900 43.62200 24.58900
H  37.85200 43.00500 26.15600
H  37.27300 45.87600 30.66600
H  34.61600 44.04400 32.98900
H  33.43500 45.23100 32.28000
H  34.37800 45.63000 33.77300

