158

Mg 35.39900 2.89900 29.87000
C  33.19400 3.50300 32.52200
C  38.05800 3.03100 32.18400
C  37.37200 2.28900 27.44100
C  32.68800 3.25200 27.63300
N  35.56900 3.44100 31.98300
C  34.56300 3.47600 32.91100
C  35.04100 3.50200 34.38500
C  36.56100 3.83400 34.10600
C  36.82300 3.42300 32.66300
C  37.05200 5.24700 34.59800
C  34.79700 2.19000 35.18500
C  34.01400 2.34000 36.45400
H  34.41800 3.51100 37.38000
N  37.44300 2.58700 29.80800
C  38.35200 2.59600 30.86200
C  39.62000 2.17600 30.34800
C  39.52700 2.05400 28.93200
C  38.08500 2.26800 28.65400
C  40.83500 2.01600 31.24300
C  40.64000 1.81700 27.87100
O  40.37900 1.90500 26.67800
C  42.04700 1.55600 28.39900
N  35.06400 2.92800 27.87200
C  36.04700 2.53200 27.09800
C  35.71200 2.60900 25.59600
C  34.20800 2.89500 25.58900
C  33.95600 3.03200 27.17600
C  36.58800 3.67400 24.82300
C  33.28900 1.92300 24.76200
C  32.79100 0.64800 25.56200
N  33.36600 3.33200 30.03600
C  32.39700 3.40300 29.03900
C  31.13900 3.67400 29.60300
C  31.35600 3.69500 31.03100
C  32.74700 3.49100 31.24400
C  29.84300 3.87300 29.00200
C  30.77400 3.84700 32.38100
O  29.64400 4.07500 32.72600
C  31.95700 3.74300 33.38400
C  31.86300 5.04000 34.18700
O  32.42000 6.08100 33.92700
O  31.12000 4.85800 35.30000
C  31.10700 5.92500 36.35300
H  38.85900 3.04300 32.92500
H  37.96900 2.16400 26.53500
H  31.83300 3.19400 26.95600
H  34.58400 4.37900 34.84400
H  37.14100 3.23500 34.80800
H  36.27100 5.71600 35.19600
H  37.20700 5.83300 33.69200
H  38.00200 5.06400 35.10100
H  35.69800 1.65200 35.47800
H  34.24800 1.54300 34.50100
H  34.01900 1.47300 37.11500
H  32.94700 2.49100 36.28600
H  40.55400 1.95900 32.29500
H  41.61500 2.77200 31.15200
H  41.35800 1.06000 31.19700
H  42.03000 0.54900 28.81500
H  42.47400 2.21200 29.15800
H  42.72100 1.64500 27.54700
H  35.83400 1.59700 25.21200
H  34.16500 3.85400 25.07200
H  37.57000 3.26900 24.58100
H  36.65800 4.58400 25.41700
H  36.06300 3.88800 23.89100
H  33.85100 1.51400 23.92200
H  32.50600 2.49900 24.26800
H  33.27800 -0.22100 25.11900
H  31.70900 0.69700 25.43600
H  33.06200 0.51500 26.60900
H  29.65400 3.15600 28.20200
H  29.71900 4.91200 28.69800
H  29.02500 3.67600 29.69400
H  31.88300 2.99300 34.17300
H  31.96400 6.59200 36.44900
H  30.89000 5.40800 37.28800
H  30.38800 6.69100 36.06500
Mg 36.15600 50.21500 25.11400
C  36.53300 48.46200 28.08700
C  34.55800 52.74700 26.79200
C  35.82100 51.87100 22.14300
C  37.65000 47.58500 23.46200
N  35.65200 50.57900 27.17900
C  35.96600 49.73100 28.24100
C  35.62900 50.35400 29.60000
C  34.81100 51.65400 29.14900
C  35.01400 51.72400 27.61400
C  33.28200 51.67600 29.52400
C  36.92300 50.58900 30.50900
C  36.81700 50.24900 31.96700
H  35.42200 50.00200 32.53800
N  35.46800 52.16700 24.56000
C  34.70800 52.95900 25.35600
C  34.18900 54.07900 24.51300
C  34.66900 53.93800 23.21800
C  35.42900 52.62400 23.24000
C  33.31400 55.12600 25.21300
C  34.40900 54.81200 21.95600
O  34.83400 54.57700 20.80100
C  33.65700 56.07700 22.20300
N  36.73200 49.77400 23.06500
C  36.47800 50.65200 22.03400
C  36.74000 49.88800 20.67000
C  37.52200 48.63300 21.14500
C  37.28800 48.60800 22.63700
C  35.34300 49.50600 20.06400
C  38.95400 48.49400 20.57500
C  40.11000 48.38200 21.63800
N  36.85900 48.32800 25.58400
C  37.44900 47.33300 24.82700
C  37.69500 46.12400 25.59900
C  37.43100 46.55500 26.91700
C  36.98400 47.86600 26.88000
C  38.31600 44.84600 25.17800
C  37.46600 46.18100 28.29900
O  37.76500 45.06700 28.75300
C  37.00200 47.45400 29.13700
C  35.96600 46.90700 30.06000
O  34.78600 46.87800 29.82100
O  36.52100 46.33900 31.19700
C  35.55300 45.62700 32.04000
H  34.05200 53.55200 27.33100
H  35.67600 52.39000 21.19400
H  38.20200 46.86600 22.85200
H  35.03100 49.64100 30.16700
H  35.26200 52.52600 29.62200
H  32.84600 50.68100 29.61500
H  32.70200 52.17200 28.74600
H  33.06600 52.22000 30.44300
H  37.13900 51.65200 30.40100
H  37.77000 50.14800 29.98400
H  37.22900 51.00700 32.63300
H  37.40400 49.36700 32.22500
H  33.95500 55.95000 25.52300
H  32.76600 54.63600 26.01800
H  32.55400 55.64700 24.63000
H  32.58000 55.96500 22.33200
H  33.78000 56.74000 21.34600
H  34.09100 56.61500 23.04600
H  37.34900 50.40600 19.93000
H  36.90300 47.83500 20.73500
H  34.50500 50.12000 20.39400
H  35.14900 48.46900 20.33900
H  35.44800 49.65400 18.99000
H  39.18200 49.40400 20.02000
H  39.05500 47.64900 19.89400
H  39.86400 48.80400 22.61200
H  40.89800 49.07800 21.35000
H  40.46600 47.35600 21.72900
H  38.24000 44.77100 24.09300
H  37.93500 43.90800 25.58200
H  39.36700 44.87800 25.46500
H  37.77600 47.78000 29.83200
H  35.28900 44.68900 31.55200
H  34.66300 46.17900 32.34300
H  36.05300 45.31600 32.95700

