158

Mg -0.59400 7.24700 25.79800
C  0.18700 9.19400 28.66500
C  -0.62700 4.52600 27.87000
C  -0.77600 5.34200 23.07300
C  0.13000 10.06800 23.81700
N  -0.29300 6.94600 28.01600
C  -0.09300 7.85100 28.98400
C  -0.26700 7.26000 30.33500
C  -0.10100 5.77300 30.11100
C  -0.39000 5.73700 28.58800
C  1.26000 5.23800 30.43500
C  -1.69900 7.57700 30.95600
C  -1.67800 8.24400 32.35500
H  -0.62800 7.96800 33.46800
N  -0.73900 5.19600 25.57000
C  -0.81000 4.25000 26.48100
C  -1.08100 3.01200 25.86500
C  -1.15600 3.18900 24.46500
C  -0.82800 4.63100 24.29300
C  -1.19700 1.71500 26.66300
C  -1.43000 2.14100 23.37300
O  -1.35800 2.33200 22.12600
C  -1.80600 0.69300 23.71100
N  -0.45400 7.66200 23.75600
C  -0.66500 6.76400 22.86600
C  -0.58800 7.33800 21.45400
C  -0.59100 8.83200 21.75700
C  -0.19200 8.85300 23.17600
C  0.78200 6.86100 20.73100
C  -2.01600 9.46300 21.34000
C  -2.13900 10.13900 20.03800
N  -0.01700 9.24300 26.10600
C  0.27200 10.24200 25.22500
C  0.55300 11.44300 25.89600
C  0.58700 11.12300 27.28800
C  0.19200 9.78300 27.37000
C  0.68200 12.78100 25.41100
C  0.77600 11.61400 28.64900
O  1.14600 12.73200 28.99100
C  0.46600 10.38000 29.54800
C  1.61000 10.23000 30.56600
O  2.59000 9.49100 30.42300
O  1.36000 11.05600 31.66700
C  2.33900 10.82400 32.71900
H  -0.63800 3.58900 28.43000
H  -0.80800 4.91100 22.07100
H  0.22800 10.96400 23.20000
H  0.60100 7.54800 30.92900
H  -0.84400 5.23400 30.69900
H  1.78500 6.00700 31.00000
H  1.84700 5.02700 29.54100
H  1.18500 4.31800 31.01500
H  -2.20300 6.62700 31.13200
H  -2.13800 8.23100 30.20300
H  -2.59800 7.81300 32.75000
H  -1.84500 9.30800 32.18700
H  -2.20900 1.49400 27.00200
H  -0.59500 1.71900 27.57100
H  -0.81200 0.89800 26.05200
H  -0.99800 0.12000 24.16500
H  -2.13000 0.22000 22.78400
H  -2.71800 0.63700 24.30600
H  -1.45600 7.12200 20.83200
H  0.21200 9.31500 21.20000
H  0.88600 5.81300 21.01300
H  1.63900 7.46300 21.03000
H  0.61900 6.89000 19.65300
H  -2.26800 10.25500 22.04400
H  -2.82800 8.74900 21.47900
H  -3.05200 9.74900 19.58900
H  -1.29500 9.88600 19.39600
H  -2.21900 11.21400 20.19600
H  -0.12400 12.95200 24.69700
H  1.59200 13.04300 24.87100
H  0.66900 13.51100 26.22100
H  -0.45600 10.62700 30.07500
H  3.29300 10.38800 32.42200
H  1.81300 10.35300 33.54900
H  2.57900 11.85100 32.99400
Mg -5.94100 24.92000 25.84500
C  -4.67700 26.14700 28.97600
C  -8.15300 22.94300 27.80500
C  -7.04400 23.48500 23.10400
C  -3.36500 26.56600 24.16300
N  -6.20600 24.56000 28.17000
C  -5.66400 25.20300 29.23500
C  -6.31600 24.88500 30.56100
C  -7.37000 23.76300 30.10400
C  -7.23500 23.73500 28.57700
C  -7.32800 22.28800 30.80600
C  -6.99000 26.10700 31.35100
C  -6.57900 26.37600 32.83800
H  -6.01600 25.15500 33.68700
N  -7.33000 23.43900 25.51300
C  -8.18200 22.84700 26.43400
C  -9.11000 21.94300 25.73100
C  -8.66800 21.93300 24.35900
C  -7.67400 23.00700 24.27900
C  -10.09500 21.11200 26.46300
C  -9.22000 20.97900 23.23200
O  -8.76800 21.09500 22.10100
C  -10.24200 19.89300 23.46100
N  -5.24100 25.02900 23.94200
C  -5.94200 24.35400 22.94800
C  -5.29500 24.64300 21.59500
C  -4.09100 25.46200 21.97000
C  -4.17900 25.72500 23.43500
C  -4.88900 23.31700 20.86300
C  -4.01300 26.85300 21.19600
C  -2.64300 27.29900 20.77300
N  -4.43800 26.31900 26.38700
C  -3.42400 26.83000 25.58900
C  -2.60100 27.67800 26.35000
C  -3.06800 27.50500 27.70900
C  -4.15200 26.57500 27.70500
C  -1.45900 28.62900 26.00800
C  -2.82400 27.93600 29.01500
O  -1.98000 28.73900 29.39600
C  -3.82200 26.98800 29.96900
C  -2.84100 26.18100 30.70600
O  -2.35500 25.08100 30.30900
O  -2.60900 26.82000 31.91000
C  -1.45100 26.27700 32.64700
H  -8.91800 22.50000 28.44600
H  -7.40300 22.96300 22.21400
H  -2.51000 26.99100 23.63300
H  -5.50000 24.45500 31.14200
H  -8.36300 24.13400 30.35800
H  -6.38900 22.15400 31.34400
H  -7.20800 21.54400 30.01900
H  -8.18800 22.14800 31.46100
H  -8.07800 26.06000 31.30700
H  -6.66600 27.04600 30.90200
H  -7.51000 26.68500 33.31300
H  -5.86400 27.19600 32.89000
H  -11.07900 21.17700 26.00000
H  -10.30000 21.38700 27.49800
H  -9.74000 20.08300 26.39800
H  -10.18600 19.11700 22.69700
H  -11.27400 20.23100 23.55100
H  -9.98600 19.42100 24.41000
H  -5.93700 25.20200 20.91300
H  -3.16100 24.91000 21.83800
H  -3.84000 23.41700 20.58200
H  -5.49200 23.07600 19.98800
H  -4.94800 22.48000 21.55900
H  -4.50800 27.61500 21.79900
H  -4.71800 26.83500 20.36500
H  -2.50300 28.24700 21.29300
H  -2.54900 27.39700 19.69200
H  -1.92400 26.60900 21.21500
H  -1.84000 29.38700 25.32500
H  -0.59700 28.09000 25.61400
H  -1.10500 29.14300 26.90200
H  -4.39600 27.62900 30.63800
H  -1.15600 26.93100 33.46700
H  -0.59400 26.13600 31.98900
H  -1.65200 25.27600 33.02800

