158

Mg 7.94300 3.31200 27.49000
C  9.25900 1.84900 30.42700
C  6.00100 5.45200 29.44500
C  6.71600 4.71500 24.67500
C  9.50700 0.76700 25.51900
N  7.62700 3.48700 29.68500
C  8.46700 2.94200 30.66200
C  8.30300 3.75000 31.99700
C  7.09500 4.68000 31.68700
C  6.89300 4.55500 30.16200
C  5.81100 4.31900 32.36900
C  9.58200 4.42400 32.61000
C  9.47100 5.03100 34.04500
H  10.30000 4.53300 35.16900
N  6.49400 4.72800 27.12000
C  5.85000 5.51900 28.00600
C  4.94500 6.45900 27.26600
C  5.21400 6.35400 25.88300
C  6.26000 5.28100 25.84900
C  3.96500 7.37600 28.02100
C  4.75500 7.20100 24.69100
O  5.07400 7.01400 23.54000
C  3.99800 8.49900 24.95900
N  8.04800 2.85400 25.38200
C  7.47800 3.56400 24.41800
C  7.57300 3.04300 22.95300
C  8.54000 1.80400 23.31900
C  8.77300 1.79500 24.83700
C  6.12900 2.75700 22.38100
C  9.81300 1.73000 22.43500
C  10.10800 0.52500 21.50600
N  9.14700 1.68200 27.81500
C  9.60000 0.71100 26.90300
C  10.34900 -0.29400 27.70200
C  10.23300 0.10800 29.02300
C  9.47700 1.33300 29.09400
C  11.04200 -1.44300 27.14600
C  10.65300 -0.22900 30.41500
O  11.30700 -1.15300 30.90600
C  10.07700 0.96600 31.32400
C  9.15700 0.27600 32.28400
O  8.00600 0.02400 32.12800
O  9.77500 0.09300 33.42000
C  8.98200 -0.09500 34.66900
H  5.58000 6.25400 30.05500
H  6.41300 5.23100 23.76200
H  9.83300 -0.05900 24.88300
H  8.08600 3.03000 32.78500
H  7.42900 5.69500 31.90600
H  5.11900 5.14200 32.55100
H  6.06000 3.94300 33.36200
H  5.36200 3.49100 31.82000
H  10.03800 5.11800 31.90400
H  10.35400 3.65900 32.68800
H  8.44300 4.99500 34.40800
H  9.81200 6.04800 33.85100
H  3.54700 6.68100 28.74900
H  3.13800 7.77300 27.43200
H  4.45800 8.21200 28.51700
H  4.54700 9.18000 25.60800
H  3.07100 8.09600 25.36800
H  3.79600 8.96100 23.99300
H  8.02500 3.80400 22.31600
H  7.90300 0.97600 23.00800
H  5.30400 3.06200 23.02400
H  6.09300 1.70800 22.08800
H  5.90700 3.31200 21.46900
H  10.55800 1.64600 23.22700
H  10.00100 2.52300 21.71200
H  10.75400 0.69600 20.64500
H  9.18000 0.02600 21.22700
H  10.62900 -0.22300 22.10300
H  11.87300 -1.10000 26.53000
H  10.40600 -2.04800 26.50000
H  11.47200 -2.08700 27.91300
H  10.94000 1.45000 31.78200
H  9.67100 0.05300 35.50100
H  8.54300 -1.09200 34.63100
H  8.17200 0.63400 34.65000
Mg 34.68600 2.81700 29.84900
C  32.20700 3.78000 32.18400
C  36.95800 2.59900 32.46000
C  37.07400 1.98400 27.62500
C  32.36300 3.29600 27.28400
N  34.59000 3.30300 32.01600
C  33.46300 3.53500 32.80700
C  33.78600 3.55500 34.31100
C  35.31400 3.32700 34.32600
C  35.61600 2.98700 32.83300
C  36.20500 4.35600 35.03400
C  33.05700 2.49800 35.10900
C  33.00100 2.52700 36.64200
H  33.86700 3.48400 37.39100
N  36.68000 2.42700 30.00300
C  37.46000 2.36600 31.22100
C  38.82600 1.98000 30.82400
C  38.92500 1.74200 29.47400
C  37.54000 2.07100 28.95000
C  39.94700 1.82800 31.79000
C  40.04200 1.37200 28.61300
O  39.81200 1.06200 27.46800
C  41.50300 1.32000 29.15000
N  34.71200 2.81200 27.74800
C  35.78500 2.28400 27.07500
C  35.34400 1.99200 25.55100
C  33.94700 2.59200 25.44500
C  33.65200 2.95600 26.90400
C  36.36300 2.57800 24.45600
C  32.98200 1.68900 24.55000
C  32.04600 0.78900 25.31100
N  32.65100 3.38700 29.69700
C  31.86500 3.52500 28.59000
C  30.56200 3.99700 29.02700
C  30.62400 4.16500 30.42000
C  31.96200 3.79000 30.77500
C  29.27900 4.02200 28.20000
C  29.92700 4.52900 31.60200
O  28.80000 5.03500 31.75800
C  30.86500 4.19200 32.85800
C  31.02000 5.47300 33.59100
O  31.44900 6.56100 33.09900
O  30.77900 5.21900 34.89000
C  31.06600 6.25100 35.90700
H  37.64800 2.51200 33.30300
H  37.79500 1.65600 26.87400
H  31.68500 3.52300 26.45800
H  33.51900 4.51600 34.75100
H  35.52700 2.45600 34.94500
H  36.79900 4.91200 34.30900
H  36.84300 3.86900 35.77200
H  35.67300 5.01200 35.72300
H  33.63400 1.62700 34.79700
H  32.05500 2.44300 34.68400
H  33.02200 1.52900 37.08100
H  31.99200 2.83400 36.91500
H  40.31300 0.80100 31.77800
H  39.62300 2.11300 32.79000
H  40.74600 2.52400 31.53600
H  41.69200 2.33400 29.50400
H  42.21900 1.04200 28.37600
H  41.64000 0.65300 30.00000
H  35.28400 0.90400 25.54700
H  34.06300 3.60100 25.05100
H  36.95000 3.47000 24.67800
H  35.84800 2.83000 23.52900
H  37.07900 1.77600 24.27700
H  33.46200 1.00600 23.85000
H  32.45200 2.41700 23.93600
H  31.06400 1.12600 24.97900
H  32.20900 0.80600 26.38900
H  32.05600 -0.22800 24.91900
H  29.59000 3.52700 27.28000
H  28.97800 5.06800 28.14400
H  28.55600 3.43900 28.77000
H  30.43700 3.46500 33.54800
H  31.98900 5.95700 36.40600
H  30.35600 6.27800 36.73400
H  31.21500 7.23600 35.46500

