158

Mg -2.96400 16.50400 26.85700
C  -3.47400 14.65100 29.83100
C  -3.78800 19.26200 28.64700
C  -3.25500 18.10000 23.93500
C  -2.93900 13.45300 25.12100
N  -3.55100 16.87100 29.16100
C  -3.63500 15.99900 30.17400
C  -4.03300 16.66500 31.49200
C  -4.18000 18.14700 31.04300
C  -3.86600 18.10300 29.49500
C  -5.48400 18.88100 31.34400
C  -3.14300 16.53700 32.75500
C  -3.87300 16.33500 34.01700
H  -2.96900 16.22000 35.29100
N  -3.33700 18.42200 26.39800
C  -3.53300 19.42300 27.25400
C  -3.58100 20.68300 26.50400
C  -3.28600 20.40300 25.12100
C  -3.33100 18.88900 25.07600
C  -3.68900 22.05500 27.20900
C  -3.16400 21.34100 23.94100
O  -3.14000 21.03200 22.74300
C  -3.21500 22.82600 24.21700
N  -3.07600 15.82400 24.86500
C  -3.21600 16.73400 23.75500
C  -3.11800 15.98400 22.42700
C  -2.60700 14.61500 22.89100
C  -2.86100 14.58600 24.40400
C  -4.34300 15.91900 21.49900
C  -1.11000 14.32800 22.63200
C  -0.05600 15.26200 23.17700
N  -3.17800 14.49200 27.33300
C  -3.25100 13.40700 26.47400
C  -3.60000 12.16800 27.30900
C  -3.60400 12.62500 28.65500
C  -3.33700 14.01500 28.57600
C  -3.80700 10.77900 26.77000
C  -3.82100 12.23400 30.03500
O  -4.19000 11.20200 30.53600
C  -3.76600 13.54500 30.89200
C  -2.72800 13.48000 31.83700
O  -1.58700 13.73800 31.61000
O  -3.19100 12.88800 33.01500
C  -2.22300 12.65400 34.07200
H  -3.88000 20.16200 29.25800
H  -2.95700 18.62200 23.02400
H  -2.75600 12.59700 24.46900
H  -5.00800 16.29400 31.80700
H  -3.39900 18.76400 31.48700
H  -5.91200 19.43700 30.50900
H  -5.14900 19.67100 32.01600
H  -6.10100 18.06800 31.72400
H  -2.62100 17.47000 32.97000
H  -2.37900 15.77000 32.62700
H  -4.28300 15.34300 33.82700
H  -4.74700 16.94900 34.23600
H  -2.71500 22.53700 27.29000
H  -3.96800 22.06400 28.26300
H  -4.55700 22.60500 26.84600
H  -2.51400 22.99300 25.03500
H  -4.13500 23.30500 24.55000
H  -2.70300 23.41700 23.45700
H  -2.32600 16.44000 21.83300
H  -3.17000 13.79000 22.45300
H  -4.94100 16.80700 21.70500
H  -4.93000 15.00400 21.56900
H  -3.94000 16.10200 20.50300
H  -1.04500 14.31800 21.54400
H  -0.77700 13.29700 22.75400
H  0.15500 16.07600 22.48300
H  0.90400 14.75400 23.07800
H  -0.24000 15.72800 24.14400
H  -2.83400 10.34600 26.53900
H  -4.43900 10.73200 25.88300
H  -4.24100 10.28500 27.63900
H  -4.65600 13.75400 31.48600
H  -1.56700 13.52100 34.14400
H  -1.66100 11.75800 33.80500
H  -2.67100 12.70500 35.06400
Mg 47.68300 25.11000 28.47900
C  48.68000 27.30700 31.20800
C  46.49900 22.92700 30.90700
C  47.33600 23.03000 26.10700
C  49.13900 27.52800 26.25600
N  47.60700 25.12300 30.78100
C  48.05500 26.11000 31.60500
C  47.64600 25.80000 33.10300
C  47.16700 24.27500 32.98500
C  47.15900 24.03000 31.45800
C  48.06900 23.32500 33.70800
C  46.64100 26.78800 33.70400
C  47.05200 27.56900 34.98200
H  45.97700 27.84500 35.97800
N  46.88400 23.29300 28.49000
C  46.44900 22.58200 29.55500
C  45.84100 21.41000 28.98600
C  46.03600 21.37000 27.56400
C  46.87400 22.56100 27.36500
C  45.06500 20.35500 29.84700
C  45.49300 20.45400 26.45600
O  45.62000 20.60000 25.27000
C  44.58300 19.28400 26.95500
N  48.05500 25.35000 26.46200
C  47.85100 24.26000 25.68800
C  48.40500 24.40400 24.24200
C  48.82800 25.93900 24.22700
C  48.70000 26.35400 25.72800
C  49.64300 23.45900 23.96400
C  47.95200 26.74800 23.29200
C  46.71100 27.44000 23.85500
N  48.71200 26.98600 28.61200
C  49.16800 27.86100 27.64800
C  49.83700 28.99800 28.22100
C  49.64300 28.81400 29.63100
C  48.92600 27.58700 29.81200
C  50.62000 30.15500 27.66500
C  49.96400 29.39300 30.92900
O  50.60500 30.37800 31.30900
C  49.22900 28.49100 31.94900
C  50.26900 28.09000 32.91500
O  51.20000 27.30500 32.68700
O  50.14100 28.71700 34.15600
C  51.17800 28.47100 35.12100
H  46.09000 22.19200 31.60300
H  47.34400 22.33900 25.26100
H  49.51800 28.22900 25.51000
H  48.53300 25.89100 33.72900
H  46.17400 24.12700 33.40900
H  48.79000 22.94300 32.98600
H  47.50900 22.47200 34.09100
H  48.55600 23.80500 34.55600
H  45.78600 26.19200 34.02100
H  46.37400 27.57800 33.00200
H  47.35900 28.57200 34.68800
H  47.88200 27.08800 35.50000
H  44.00500 20.38200 29.59600
H  45.21100 20.59100 30.90100
H  45.41400 19.32400 29.77500
H  44.84900 18.65900 27.80800
H  44.57200 18.62600 26.08700
H  43.56300 19.64700 27.08400
H  47.58600 24.03900 23.62200
H  49.87500 26.05100 23.94500
H  50.02900 23.07100 24.90600
H  50.49100 23.85600 23.40600
H  49.22100 22.56500 23.50400
H  47.67800 26.24500 22.36400
H  48.58100 27.53500 22.87600
H  46.61300 27.60700 24.92800
H  45.78600 26.96700 23.52500
H  46.64700 28.49800 23.60200
H  50.84300 30.01100 26.60800
H  51.55400 30.12100 28.22600
H  50.20400 31.13200 27.91100
H  48.42500 29.06400 32.41200
H  50.93800 27.49500 35.54500
H  51.12700 29.34500 35.76900
H  52.15800 28.42200 34.64600

