158

Mg 41.11300 7.61900 29.03700
C  42.68800 9.24200 31.84300
C  38.76100 6.55600 31.38100
C  39.70100 6.29700 26.53300
C  43.83900 8.66400 27.05000
N  40.80600 7.84100 31.42300
C  41.55000 8.62100 32.25100
C  40.92900 8.59000 33.68500
C  39.66900 7.66800 33.46600
C  39.75600 7.24600 31.99000
C  39.42900 6.58800 34.63500
C  40.60600 9.96600 34.30900
C  39.55600 10.11500 35.49000
H  39.99900 10.81800 36.83800
N  39.45100 6.61800 28.90700
C  38.56400 6.27500 29.95200
C  37.32500 5.70300 29.37900
C  37.53100 5.72700 27.97300
C  38.91900 6.22100 27.72300
C  36.19100 5.11500 30.23700
C  36.50300 5.41500 26.81100
O  36.89300 5.56600 25.67300
C  35.04800 4.97800 27.09700
N  41.81100 7.42200 27.00200
C  40.94900 6.82300 26.11600
C  41.51500 6.79800 24.66100
C  42.65700 7.87400 24.84200
C  42.77600 7.99500 26.38700
C  41.88600 5.40600 24.02800
C  42.47300 9.24800 24.20400
C  43.70000 9.97400 23.78900
N  42.85300 8.69200 29.35000
C  43.81800 9.03600 28.42600
C  44.76600 9.91800 29.04700
C  44.35400 9.95900 30.36800
C  43.16700 9.15800 30.55100
C  45.89000 10.71600 28.46900
C  44.71500 10.54800 31.59500
O  45.66500 11.18300 31.92800
C  43.59100 10.21600 32.55400
C  44.15100 9.58600 33.77200
O  44.32900 8.39300 33.98600
O  44.42800 10.57500 34.73300
C  44.65500 10.03300 36.06500
H  38.06300 6.24800 32.16200
H  39.14400 5.95500 25.65800
H  44.69300 8.95500 26.43500
H  41.80900 8.16100 34.16500
H  38.76600 8.27700 33.50900
H  38.39500 6.81200 34.89400
H  40.07300 6.82300 35.48300
H  39.52300 5.55300 34.30700
H  40.28700 10.51700 33.42400
H  41.55900 10.38800 34.62900
H  39.29300 9.10500 35.80600
H  38.63400 10.58300 35.14600
H  35.43100 5.89500 30.18400
H  36.34200 4.96300 31.30600
H  35.87800 4.21600 29.70700
H  35.14600 4.03200 27.62900
H  34.54500 4.75400 26.15600
H  34.59700 5.82500 27.61400
H  40.75600 7.18300 23.98000
H  43.59800 7.51900 24.42200
H  42.94200 5.19200 23.85900
H  41.18500 5.07800 23.26200
H  41.54500 4.81000 24.87500
H  42.06100 9.78300 25.05900
H  41.71300 9.39100 23.43500
H  43.50900 10.15500 22.73100
H  44.62700 9.40300 23.83100
H  43.75000 10.86700 24.41200
H  45.81200 10.77600 27.38300
H  46.74500 10.09600 28.73700
H  45.88300 11.71200 28.91100
H  43.02900 11.13600 32.70900
H  43.75700 9.45100 36.27600
H  44.83800 10.85300 36.76000
H  45.54000 9.40800 35.94600
Mg 16.21100 51.29400 24.40400
C  18.04800 50.71000 27.26800
C  13.57300 52.21400 26.32400
C  14.43700 51.60600 21.59100
C  18.99200 50.04800 22.55200
N  15.85500 51.47300 26.55800
C  16.78700 51.17100 27.55400
C  16.19500 51.59000 28.91600
C  14.66400 51.91100 28.67500
C  14.66400 51.76800 27.11300
C  13.66900 50.93600 29.33700
C  16.86900 52.81900 29.55900
C  17.05100 52.82800 31.10800
H  16.25500 51.77200 31.94300
N  14.23300 51.73800 23.96700
C  13.34800 52.23300 24.93400
C  12.19200 52.63700 24.21800
C  12.31700 52.39500 22.81800
C  13.75000 51.94000 22.72900
C  10.96900 53.18400 24.88200
C  11.39300 52.55900 21.62100
O  11.70800 52.17900 20.50500
C  10.11500 53.13900 21.79300
N  16.68900 51.03100 22.39400
C  15.79500 51.13900 21.35700
C  16.31900 50.95100 19.96800
C  17.79400 50.64500 20.33000
C  17.82000 50.52700 21.81900
C  15.65400 49.69600 19.39400
C  18.97300 51.49500 19.66700
C  20.09100 50.55100 19.10400
N  18.23400 50.59200 24.76000
C  19.21900 50.13000 23.92600
C  20.33400 49.72800 24.64200
C  19.99300 50.01800 26.02300
C  18.62400 50.44800 26.02300
C  21.62800 49.29500 24.06900
C  20.47000 49.96900 27.40200
O  21.48900 49.53300 27.88300
C  19.27200 50.44900 28.29200
C  18.96700 49.34700 29.26200
O  18.38500 48.30000 28.96300
O  19.44600 49.57400 30.53400
C  19.19500 48.58500 31.52200
H  12.82800 52.57700 27.03600
H  13.95400 51.78600 20.62900
H  19.75000 49.54400 21.94900
H  16.38900 50.69600 29.50800
H  14.34800 52.91700 28.95100
H  14.08400 50.07200 29.85700
H  13.07600 50.51200 28.52600
H  12.99700 51.43100 30.03800
H  16.41600 53.79500 29.38500
H  17.84500 52.94900 29.09000
H  16.85500 53.81800 31.52000
H  18.11300 52.61100 31.22100
H  11.30300 53.70400 25.78000
H  10.26700 52.40900 25.18900
H  10.35800 53.89800 24.32900
H  9.65900 52.37600 22.42300
H  9.62000 53.22700 20.82600
H  10.05400 54.11200 22.28100
H  16.12900 51.72700 19.22600
H  18.01700 49.60600 20.08700
H  16.22000 49.18000 18.61900
H  14.65300 49.92700 19.03100
H  15.45300 48.98800 20.19800
H  19.39700 51.97400 20.54900
H  18.53800 52.10800 18.87800
H  19.75700 49.52300 18.95800
H  20.86900 50.61100 19.86600
H  20.38800 50.87400 18.10600
H  22.16800 49.13500 25.00200
H  21.96500 50.20800 23.57700
H  21.70100 48.38100 23.48000
H  19.55300 51.39000 28.76500
H  18.13300 48.58500 31.76900
H  19.83400 48.91200 32.34200
H  19.46100 47.57400 31.21400

