158

Mg 1.85600 -1.12800 44.22500
C  5.28100 -0.46100 43.40000
C  1.08700 1.75200 42.41300
C  -1.24100 -2.07600 44.25100
C  2.92700 -4.28900 45.44900
N  3.05100 0.32400 42.84600
C  4.42700 0.45200 42.77400
C  4.88100 1.76700 42.07700
C  3.49800 2.55100 41.93900
C  2.42800 1.47000 42.37400
C  3.39700 3.82200 42.81400
C  5.57600 1.55200 40.70400
C  6.51900 2.70600 40.36900
H  7.01600 2.75800 38.86200
N  0.19700 -0.29500 43.45200
C  0.04500 0.90700 42.86600
C  -1.38700 1.21300 42.56200
C  -2.16000 0.14800 43.12100
C  -1.08200 -0.82300 43.64100
C  -1.97800 2.51700 41.89600
C  -3.67100 0.03800 43.19600
O  -4.36300 0.83700 42.58700
C  -4.32300 -1.02200 43.92100
N  1.01900 -2.92700 44.72100
C  -0.38800 -3.05700 44.71900
C  -0.86900 -4.36800 45.33200
C  0.45700 -5.01700 45.78000
C  1.58300 -4.05300 45.25000
C  -1.97700 -4.35100 46.49600
C  0.53900 -6.54800 45.38100
C  1.23000 -7.57800 46.24600
N  3.70900 -2.18900 44.56900
C  4.01000 -3.40800 45.17500
C  5.45400 -3.61500 45.32600
C  5.94000 -2.53100 44.65400
C  4.87600 -1.64500 44.17000
C  6.14300 -4.80500 45.93600
C  7.23800 -1.79200 44.34100
O  8.41700 -2.21900 44.53500
C  6.84100 -0.47100 43.55000
C  7.47700 0.61800 44.32800
O  7.60000 0.79800 45.52700
O  8.02100 1.53900 43.42600
C  8.89800 2.51300 44.02300
H  0.67800 2.66400 41.97300
H  -2.24500 -2.44800 44.46600
H  3.25900 -5.21700 45.91800
H  5.56400 2.27600 42.75700
H  3.36400 2.81800 40.89000
H  2.55200 4.35600 42.37900
H  4.33900 4.34800 42.96700
H  3.13000 3.41500 43.78900
H  4.84400 1.48600 39.89900
H  5.87400 0.50400 40.67000
H  7.35900 2.50900 41.03600
H  5.98200 3.63300 40.56800
H  -2.78700 2.10600 41.29200
H  -1.21200 2.97800 41.27200
H  -2.49000 3.13200 42.63600
H  -3.80400 -1.01900 44.88000
H  -4.10800 -1.95400 43.39900
H  -5.37900 -0.81000 44.08900
H  -1.24100 -4.94600 44.48600
H  0.49000 -4.93600 46.86700
H  -1.64100 -4.95200 47.34100
H  -2.92200 -4.63900 46.03500
H  -2.10400 -3.31400 46.80600
H  1.08800 -6.60100 44.44000
H  -0.43300 -7.03600 45.30700
H  0.71600 -7.70200 47.20000
H  2.20000 -7.12800 46.45400
H  1.37100 -8.45300 45.61100
H  6.00600 -5.55300 45.15600
H  5.59200 -5.13600 46.81600
H  7.17800 -4.59300 46.20500
H  7.42500 -0.43100 42.63100
H  9.18700 3.25400 43.27800
H  9.84900 2.01000 44.19900
H  8.49200 3.10800 44.84100
Mg -11.39100 38.36900 41.89700
C  -9.27400 35.69000 40.63400
C  -9.37300 40.47000 40.03000
C  -13.92000 40.50500 41.70200
C  -13.62200 35.77100 43.08600
N  -9.55200 38.07700 40.49900
C  -8.86800 36.98000 40.17300
C  -7.61500 37.32400 39.35100
C  -7.48100 38.85300 39.55700
C  -8.92400 39.18900 40.04900
C  -6.35600 39.32400 40.51800
C  -7.78600 36.85100 37.79000
C  -6.88100 35.70000 37.38500
H  -5.59600 36.01000 36.68600
N  -11.49100 40.30700 41.31800
C  -10.52900 41.00200 40.66000
C  -10.85000 42.43000 40.76800
C  -12.21300 42.44600 41.09400
C  -12.64900 41.03500 41.38200
C  -9.87800 43.44800 40.24900
C  -13.07300 43.77400 41.13200
O  -12.53700 44.86200 40.95400
C  -14.54800 43.73800 41.44100
N  -13.48200 38.21400 42.36700
C  -14.36500 39.25700 42.28700
C  -15.73600 38.93500 42.99900
C  -15.56500 37.42200 43.33400
C  -14.07600 37.06100 42.90700
C  -15.98800 39.78500 44.21300
C  -16.73800 36.43000 42.81300
C  -17.28500 35.44900 43.85900
N  -11.46400 36.21000 41.96200
C  -12.40600 35.29200 42.54700
C  -11.87000 33.96800 42.46900
C  -10.66800 34.08000 41.74400
C  -10.47200 35.43000 41.43100
C  -12.55300 32.78400 43.12500
C  -9.60200 33.30500 41.06800
O  -9.35700 32.12700 41.12800
C  -8.68200 34.32200 40.37600
C  -7.21100 34.25900 40.77700
O  -6.73500 34.90800 41.69900
O  -6.52800 33.27800 40.06400
C  -5.09800 33.08200 40.50100
H  -8.67600 41.14100 39.52300
H  -14.80000 41.15100 41.71700
H  -14.32600 35.07500 43.54700
H  -6.77100 36.80200 39.80300
H  -7.31000 39.16900 38.52800
H  -6.63800 40.28800 40.94300
H  -5.39000 39.38800 40.01700
H  -6.29800 38.59500 41.32600
H  -7.64700 37.66000 37.07400
H  -8.82500 36.56300 37.62500
H  -7.38300 34.99600 36.72200
H  -6.66700 35.11300 38.27800
H  -10.20800 44.37500 40.71900
H  -9.90900 43.47300 39.16000
H  -8.91300 43.16200 40.66600
H  -15.02200 43.09300 40.70000
H  -15.03800 44.70200 41.30300
H  -14.82000 43.25400 42.37900
H  -16.58900 39.01400 42.32500
H  -15.54100 37.23600 44.40800
H  -15.06300 39.98900 44.75200
H  -16.66700 39.33600 44.93700
H  -16.54200 40.70700 44.04000
H  -16.21600 35.86000 42.04500
H  -17.51300 37.02500 42.33000
H  -18.37000 35.54300 43.91000
H  -16.75500 35.66600 44.78700
H  -17.13700 34.43500 43.48800
H  -13.48600 32.47800 42.65200
H  -12.76500 32.90200 44.18800
H  -11.90200 31.92400 42.96900
H  -8.79200 34.20600 39.29800
H  -4.61700 32.24600 39.99300
H  -5.11400 33.06500 41.59100
H  -4.52800 33.93500 40.13200

