158

Mg 17.42700 -1.41000 27.74100
C  16.36500 0.46200 30.41300
C  19.46600 -3.29100 29.96700
C  18.68300 -3.15800 25.15900
C  15.76000 0.57900 25.60000
N  17.78200 -1.46700 29.92700
C  17.15300 -0.61600 30.84200
C  17.61200 -0.91200 32.23800
C  18.69000 -2.03600 32.07500
C  18.67800 -2.25600 30.52000
C  20.16300 -1.65600 32.51000
C  16.42400 -1.17300 33.31800
C  16.56500 -0.43300 34.69700
H  17.75000 -0.82700 35.55900
N  18.73000 -3.06000 27.60100
C  19.45000 -3.71200 28.62100
C  20.00100 -4.98800 28.12200
C  19.81600 -4.91800 26.73500
C  19.03800 -3.68900 26.45900
C  20.64000 -6.12100 28.95600
C  20.37100 -5.79600 25.69700
O  20.28700 -5.61700 24.49800
C  21.10300 -7.09500 26.08600
N  17.32300 -1.18600 25.66900
C  17.92400 -2.04500 24.78500
C  17.73500 -1.63300 23.29600
C  16.60100 -0.55100 23.54300
C  16.56000 -0.37900 25.02500
C  19.07500 -1.07000 22.64500
C  15.25100 -0.78000 22.95400
C  14.62100 0.36500 22.12700
N  16.28100 0.23200 27.89900
C  15.63600 0.93800 26.93600
C  14.86100 2.03300 27.59200
C  15.13900 1.87200 29.02000
C  16.02100 0.81700 29.11700
C  13.98300 3.01100 26.97800
C  14.85600 2.40400 30.28200
O  14.18100 3.40200 30.60700
C  15.67500 1.51200 31.25000
C  16.69400 2.36300 31.82600
O  17.80700 2.54300 31.41900
O  16.23000 2.96500 32.94200
C  17.26500 3.60500 33.84400
H  20.05100 -3.94700 30.61500
H  19.00700 -3.80400 24.34100
H  15.31400 1.21000 24.82900
H  18.20600 -0.06900 32.59100
H  18.31200 -2.97700 32.47400
H  20.07800 -0.66600 32.95800
H  20.89900 -1.63500 31.70600
H  20.57200 -2.39800 33.19500
H  16.36200 -2.23400 33.56300
H  15.48100 -0.96400 32.81300
H  15.61100 -0.57500 35.20700
H  16.50100 0.62700 34.45300
H  20.08200 -7.03500 28.75200
H  20.69000 -5.90400 30.02300
H  21.65500 -6.19700 28.56600
H  22.04600 -6.83900 26.56900
H  21.44700 -7.70800 25.25300
H  20.49500 -7.66700 26.78700
H  17.22100 -2.36000 22.66800
H  16.99500 0.37900 23.13300
H  19.90200 -0.99700 23.35100
H  18.97200 -0.04000 22.30200
H  19.40300 -1.71800 21.83200
H  14.56200 -1.13400 23.72100
H  15.29600 -1.60100 22.23900
H  13.74400 0.82100 22.58500
H  14.32500 0.04500 21.12800
H  15.29900 1.20800 21.99200
H  14.54900 3.92200 26.78200
H  13.22500 3.21400 27.73500
H  13.49100 2.62400 26.08600
H  15.12700 1.13700 32.11400
H  16.94300 4.52300 34.33600
H  18.20600 3.90100 33.38100
H  17.41100 2.82200 34.58800
Mg -11.55400 38.12700 41.73900
C  -9.42000 35.56300 40.78900
C  -9.42800 40.50600 40.32700
C  -14.05100 40.42400 41.89400
C  -13.92300 35.55900 42.78200
N  -9.74100 38.07400 40.48500
C  -8.97900 36.88500 40.39100
C  -7.56300 37.22700 39.79900
C  -7.49300 38.76800 39.90600
C  -8.91300 39.19200 40.25600
C  -6.41600 39.32500 40.82200
C  -7.40200 36.59100 38.44400
C  -6.28400 35.58800 38.19400
H  -5.23800 35.98000 37.24000
N  -11.72100 40.16000 41.18000
C  -10.75400 40.96500 40.69200
C  -11.24200 42.36700 40.69800
C  -12.62400 42.37900 40.94400
C  -12.90700 40.88500 41.29600
C  -10.44600 43.66200 40.38500
C  -13.65600 43.54400 40.79100
O  -13.17600 44.66600 40.73000
C  -15.13200 43.33500 40.63500
N  -13.76200 37.95100 42.16900
C  -14.44900 39.08100 42.36100
C  -15.83200 38.87700 42.98200
C  -15.86200 37.31200 43.09400
C  -14.50300 36.83500 42.57200
C  -15.92900 39.55400 44.35800
C  -17.05700 36.56200 42.30400
C  -18.32300 36.10700 43.12600
N  -11.69800 36.02300 41.84500
C  -12.62200 35.12400 42.36000
C  -12.00300 33.81300 42.42100
C  -10.85800 33.94600 41.73500
C  -10.63500 35.32900 41.43300
C  -12.71100 32.62600 42.99000
C  -9.66000 33.15600 41.34400
O  -9.47400 31.95800 41.46600
C  -8.74700 34.23300 40.64400
C  -7.42100 34.19400 41.32400
O  -7.08600 34.89300 42.20600
O  -6.53400 33.41800 40.62000
C  -5.15100 33.37800 41.08400
H  -8.72400 41.28000 40.01400
H  -14.81200 41.20500 41.96700
H  -14.53500 34.79400 43.26500
H  -6.77700 36.79000 40.41500
H  -7.29900 39.22600 38.93600
H  -5.92100 38.48300 41.30600
H  -6.82000 40.03000 41.54800
H  -5.67200 39.77700 40.16700
H  -7.38200 37.45800 37.78400
H  -8.27300 35.96100 38.26200
H  -6.75500 34.67500 37.82900
H  -5.74200 35.59000 39.14000
H  -10.32400 44.24500 41.29900
H  -10.99300 44.30800 39.69700
H  -9.47000 43.34100 40.02400
H  -15.43000 42.36800 40.23000
H  -15.35200 44.21400 40.02900
H  -15.60900 43.50900 41.60000
H  -16.53000 39.21100 42.21500
H  -15.86700 37.05400 44.15300
H  -16.70700 40.30600 44.22600
H  -15.01700 40.05100 44.68900
H  -16.24500 38.79800 45.07700
H  -16.77100 35.67100 41.74400
H  -17.47400 37.23500 41.55500
H  -18.40300 35.02100 43.07600
H  -19.25900 36.55700 42.79400
H  -18.32000 36.25300 44.20600
H  -13.58500 32.35400 42.39800
H  -12.98800 32.78400 44.03200
H  -12.10100 31.72300 42.98400
H  -8.72500 33.89300 39.60900
H  -4.90800 34.34900 41.51600
H  -4.40500 33.22100 40.30500
H  -5.11200 32.66100 41.90400

