158

Mg 47.46600 26.07000 28.17800
C  48.59000 27.93800 30.89900
C  46.51800 23.63400 30.42100
C  46.74500 24.10100 25.57100
C  48.81700 28.55200 26.08000
N  47.43300 25.92600 30.40000
C  47.88300 26.84300 31.28200
C  47.67400 26.34800 32.74800
C  47.27800 24.90600 32.57500
C  47.11600 24.76800 31.02500
C  48.33500 23.88400 33.11500
C  46.58800 27.15000 33.50800
C  47.03800 27.70400 34.88900
H  46.05500 27.76200 36.08700
N  46.70700 24.15600 28.00800
C  46.35100 23.32700 29.01100
C  45.90900 22.08800 28.46500
C  45.84300 22.30300 27.06800
C  46.43800 23.57200 26.79600
C  45.62000 20.84600 29.31000
C  45.37500 21.38100 25.98000
O  45.57200 21.52300 24.78400
C  44.49100 20.26100 26.34300
N  47.92500 26.18300 26.17200
C  47.39700 25.28400 25.26500
C  47.52500 25.83200 23.83200
C  47.98400 27.33500 24.06100
C  48.21700 27.39200 25.58400
C  48.41200 24.89500 22.96400
C  47.04300 28.55100 23.55600
C  47.57000 29.68800 22.66100
N  48.50200 27.86600 28.39600
C  49.03800 28.70100 27.45600
C  49.77000 29.75600 28.05900
C  49.57300 29.49600 29.43000
C  48.84200 28.31700 29.59700
C  50.54600 30.87100 27.37500
C  49.85600 30.06800 30.73700
O  50.33900 31.17900 31.05200
C  49.18800 29.18400 31.79200
C  50.31500 28.77800 32.73900
O  51.17600 27.98600 32.49400
O  50.15000 29.41700 33.92800
C  51.29400 29.29500 34.87200
H  46.20400 22.93100 31.19500
H  46.32600 23.75700 24.62300
H  49.24400 29.32700 25.44000
H  48.59800 26.34200 33.32700
H  46.39400 24.63600 33.15300
H  47.84500 23.27200 33.87200
H  49.26600 24.37200 33.40500
H  48.57800 23.20600 32.29700
H  45.61900 26.66300 33.61500
H  46.28800 27.95500 32.83700
H  47.45100 28.70900 34.80600
H  47.82400 27.02200 35.21200
H  46.31000 20.09600 28.92600
H  44.59700 20.56200 29.06300
H  45.65600 20.88900 30.39900
H  44.22500 19.64000 25.48700
H  43.61600 20.63900 26.87200
H  45.10000 19.68400 27.04000
H  46.51300 25.94000 23.44000
H  49.00200 27.41600 23.68200
H  48.70700 24.11400 23.66500
H  49.32600 25.41400 22.67600
H  47.90700 24.56700 22.05600
H  46.60700 28.91400 24.48600
H  46.14900 28.18200 23.05300
H  48.57300 29.56300 22.25400
H  47.52500 30.52800 23.35400
H  46.95200 29.78600 21.76800
H  50.55500 31.77200 27.98800
H  50.01900 31.17500 26.47000
H  51.52300 30.46200 27.12000
H  48.30600 29.53000 32.33200
H  51.19900 28.36100 35.42700
H  51.30300 30.07800 35.63000
H  52.25600 29.17500 34.37500
Mg 26.79000 49.93300 26.67600
C  24.77700 51.27800 29.23800
C  29.08700 48.87700 29.04000
C  28.86900 49.24800 24.15000
C  24.46900 51.55600 24.37800
N  26.99600 50.15700 28.82100
C  25.95900 50.55100 29.64600
C  26.24600 50.21200 31.12800
C  27.64800 49.60900 31.08600
C  27.96600 49.46600 29.59200
C  28.78200 50.37700 31.90000
C  25.14800 49.28100 31.78100
C  24.39300 49.78800 33.01600
H  24.98600 49.55200 34.38100
N  28.70900 49.07000 26.64400
C  29.46300 48.71600 27.73200
C  30.71700 48.11000 27.23200
C  30.76100 48.33500 25.77500
C  29.39100 48.91800 25.47100
C  31.82100 47.49700 28.02800
C  31.82100 47.92100 24.76800
O  31.61300 48.02800 23.57100
C  33.12200 47.46400 25.25500
N  26.63400 50.29200 24.65300
C  27.64900 49.88200 23.75500
C  27.23200 50.18900 22.20800
C  25.84200 50.93500 22.41700
C  25.62500 50.93000 23.90900
C  28.23100 50.92800 21.34000
C  24.66300 50.27700 21.54100
C  24.29100 48.86700 22.00300
N  25.03300 51.21900 26.71400
C  24.12800 51.64700 25.71100
C  23.01400 52.33100 26.27000
C  23.23100 52.12700 27.67200
C  24.45700 51.50100 27.88900
C  21.87000 53.00500 25.58600
C  22.66300 52.36800 28.97900
O  21.58100 52.97100 29.20500
C  23.62300 51.85800 30.02200
C  24.10200 52.95700 30.93900
O  25.04000 53.80200 30.87700
O  23.31500 52.76500 32.03500
C  23.41800 53.68200 33.13800
H  29.77100 48.30900 29.67400
H  29.53800 49.22800 23.28700
H  23.80400 51.99900 23.63400
H  26.16000 51.16900 31.64300
H  27.69200 48.59600 31.48600
H  28.38400 51.24700 32.42200
H  29.63800 50.65300 31.28400
H  29.23600 49.83600 32.73100
H  25.56700 48.34800 32.15900
H  24.48600 48.98500 30.96700
H  23.31800 49.65100 32.90400
H  24.48500 50.87400 33.01400
H  31.54700 47.43700 29.08100
H  32.84100 47.88000 28.06100
H  31.93000 46.50600 27.59000
H  33.47100 48.25100 25.92400
H  33.71100 47.29100 24.35400
H  33.08900 46.50000 25.76200
H  27.05400 49.25700 21.67200
H  25.83300 51.93700 21.99000
H  29.18300 50.87600 21.86900
H  27.90400 51.91900 21.02600
H  28.26900 50.34000 20.42300
H  25.10300 50.13700 20.55300
H  23.85800 51.01000 21.49500
H  23.25900 48.71000 22.31700
H  24.89000 48.46800 22.82200
H  24.41000 48.11600 21.22200
H  22.18200 53.51500 24.67500
H  21.41500 53.76600 26.22100
H  21.14000 52.26200 25.26400
H  23.09500 51.14500 30.65500
H  24.13100 53.33900 33.88800
H  22.41400 53.71200 33.56300
H  23.60400 54.73200 32.91400

