158

Mg 8.63700 3.49400 27.78700
C  10.18500 2.06200 30.68800
C  6.83500 5.52000 29.75500
C  6.92200 4.52100 25.02000
C  10.02400 0.92600 25.82300
N  8.53300 3.65700 30.04000
C  9.22100 3.02100 31.00100
C  8.92300 3.64100 32.38700
C  7.84100 4.73600 32.02200
C  7.72700 4.62800 30.51800
C  6.46900 4.67400 32.78300
C  10.21900 4.22900 33.12000
C  9.98000 4.90600 34.51500
H  10.91400 4.48700 35.59800
N  7.14700 4.77500 27.44700
C  6.59400 5.60600 28.41500
C  5.64300 6.53300 27.81600
C  5.75900 6.33300 26.42500
C  6.59300 5.17400 26.19800
C  4.65800 7.38900 28.60500
C  5.02400 7.03700 25.25900
O  5.16000 6.74100 24.10100
C  4.08100 8.25200 25.41700
N  8.54200 2.86600 25.68600
C  7.84400 3.47700 24.73000
C  7.90500 2.68200 23.37100
C  9.11000 1.72100 23.56700
C  9.30600 1.87500 25.05600
C  6.61400 2.10400 22.99700
C  10.38500 2.16700 22.71200
C  11.34300 1.10800 22.17200
N  9.77200 1.76300 28.13000
C  10.27200 0.87900 27.25500
C  11.10800 -0.06700 27.93600
C  11.13800 0.41000 29.26000
C  10.33800 1.51000 29.35500
C  11.78600 -1.29400 27.30900
C  11.68600 0.18500 30.63300
O  12.42600 -0.69000 31.01900
C  11.05500 1.21700 31.57700
C  10.22500 0.41700 32.52600
O  9.38600 -0.47500 32.34300
O  10.63100 0.84000 33.83400
C  10.01000 0.03600 34.86700
H  6.28500 6.27800 30.31700
H  6.42500 4.83000 24.09800
H  10.47000 0.08800 25.28400
H  8.37500 2.85800 32.91200
H  8.12400 5.77700 32.18300
H  6.16800 5.67500 33.09200
H  6.67300 4.05600 33.65800
H  5.68000 4.26300 32.15400
H  10.71900 4.92000 32.44100
H  10.99800 3.46900 33.18700
H  8.93300 4.79600 34.80000
H  10.08900 5.97400 34.32500
H  3.71800 7.39800 28.05400
H  4.95200 8.43600 28.68600
H  4.40600 7.05500 29.61100
H  4.66200 8.99000 25.97000
H  3.24200 7.96400 26.05000
H  3.82500 8.78300 24.49900
H  8.20400 3.40300 22.61000
H  8.76900 0.73400 23.25500
H  5.79600 2.37900 23.66200
H  6.65400 1.01700 23.06800
H  6.28300 2.41900 22.00700
H  10.95200 2.90000 23.28500
H  9.96900 2.63000 21.81700
H  10.92700 0.16400 22.52400
H  12.29700 1.32200 22.65500
H  11.35600 0.99800 21.08800
H  11.00100 -2.00100 27.03900
H  12.56200 -1.78800 27.89300
H  12.14700 -0.88300 26.36700
H  11.84700 1.86500 31.95200
H  9.22400 0.75000 35.11300
H  10.72500 -0.21300 35.65100
H  9.54500 -0.90800 34.58100
Mg 17.07300 -1.55900 28.11900
C  15.75800 0.48900 30.62800
C  19.06100 -3.01900 30.48400
C  18.34300 -3.27800 25.48000
C  15.30300 0.35600 25.74000
N  17.41700 -1.25500 30.33400
C  16.73700 -0.39200 31.17600
C  17.17000 -0.65500 32.63800
C  18.39600 -1.53400 32.51600
C  18.34000 -1.95000 31.04700
C  19.70000 -0.72100 32.91400
C  16.14300 -1.39200 33.57300
C  16.00100 -0.80800 34.96200
H  17.28100 -0.18600 35.60900
N  18.43100 -3.01600 28.01300
C  19.14900 -3.52100 29.10200
C  19.93600 -4.58200 28.49600
C  19.67000 -4.73700 27.10000
C  18.78500 -3.59700 26.79700
C  20.79400 -5.57700 29.39600
C  20.18400 -5.76900 26.09100
O  20.01900 -5.74700 24.89700
C  21.05800 -6.85600 26.58200
N  16.74800 -1.60200 25.89000
C  17.49200 -2.29200 25.02900
C  17.42300 -1.90700 23.63500
C  16.30400 -0.83000 23.78700
C  16.13500 -0.61900 25.20200
C  18.82000 -1.36100 23.05300
C  14.89300 -1.22900 23.08800
C  13.67900 -1.73300 23.93500
N  15.95400 0.10600 28.11900
C  15.24900 0.73100 27.08600
C  14.39800 1.79600 27.60400
C  14.60300 1.76000 29.01800
C  15.54400 0.74500 29.23900
C  13.52800 2.67600 26.70700
C  14.25200 2.32900 30.32100
O  13.43700 3.18800 30.56400
C  14.98100 1.48700 31.43200
C  15.68300 2.63400 32.21300
O  16.72400 3.24200 31.90200
O  15.02200 2.83500 33.38500
C  15.72500 3.77600 34.32300
H  19.55900 -3.58600 31.27400
H  18.74400 -3.84600 24.63700
H  14.70800 0.86800 24.98100
H  17.43500 0.31200 33.06600
H  18.25500 -2.44200 33.10100
H  19.98000 -1.29200 33.79900
H  19.67000 0.33300 33.19100
H  20.47700 -0.93600 32.18100
H  16.04900 -2.47400 33.48300
H  15.16400 -1.12400 33.17400
H  15.67800 -1.62500 35.60800
H  15.20200 -0.08200 34.81400
H  21.22800 -4.96400 30.18600
H  21.68400 -5.94600 28.88600
H  20.24900 -6.37900 29.89500
H  22.01600 -6.51000 26.97000
H  21.19600 -7.44900 25.67900
H  20.45000 -7.40400 27.30200
H  17.15500 -2.80300 23.07500
H  16.73100 0.09400 23.39800
H  19.52900 -1.18100 23.86000
H  18.71800 -0.50000 22.39200
H  19.32500 -2.15500 22.50300
H  15.10500 -1.95600 22.30400
H  14.52200 -0.38600 22.50500
H  12.85400 -1.05700 23.70900
H  13.82800 -1.85000 25.00900
H  13.21200 -2.68000 23.66500
H  13.04500 3.44500 27.31100
H  12.81700 2.17900 26.04800
H  14.25900 3.07500 26.00400
H  14.16700 1.05300 32.01200
H  16.78100 3.86400 34.06500
H  15.64200 3.53500 35.38300
H  15.32400 4.78800 34.27200

