158

Mg 8.59300 3.81300 27.64000
C  10.07300 2.52300 30.47900
C  6.66000 5.89100 29.49900
C  7.29600 5.03700 24.65600
C  10.29300 1.32200 25.81200
N  8.36600 4.12600 29.74400
C  9.20200 3.54300 30.77300
C  8.62900 3.95700 32.14000
C  7.35900 4.77100 31.79100
C  7.40700 4.98100 30.24600
C  5.98600 4.13600 32.22400
C  9.69000 4.69100 33.02400
C  9.31700 5.23100 34.41000
H  9.84300 4.56300 35.69400
N  7.19100 5.28400 27.14500
C  6.52900 6.03300 28.09200
C  5.62500 6.91400 27.41200
C  5.83100 6.74700 25.98400
C  6.84400 5.71100 25.80100
C  4.67100 7.77500 28.15900
C  5.07600 7.48900 24.86700
O  5.28500 7.16800 23.73200
C  4.14300 8.55400 25.21700
N  8.80100 3.31700 25.49500
C  8.19200 3.97900 24.50100
C  8.65700 3.41200 23.11900
C  9.42000 2.13600 23.50400
C  9.54100 2.24400 25.01900
C  7.48700 3.32500 22.06100
C  10.72100 1.86100 22.73100
C  10.66500 0.42600 22.06900
N  9.88900 2.25100 28.01100
C  10.51200 1.33400 27.19300
C  11.43300 0.50200 27.88800
C  11.33600 0.93200 29.18800
C  10.33700 1.95500 29.24800
C  12.31500 -0.68800 27.36300
C  11.80200 0.77300 30.62800
O  12.66200 0.02300 31.06700
C  10.95100 1.76400 31.49200
C  10.08900 1.02300 32.59200
O  9.00000 0.62700 32.44500
O  10.79600 1.06100 33.81800
C  10.16900 0.23400 34.91800
H  6.16500 6.46300 30.28600
H  6.93000 5.37400 23.68400
H  10.96100 0.64700 25.27200
H  8.31800 3.06500 32.68400
H  7.48800 5.73400 32.28400
H  6.09100 3.10800 32.57300
H  5.34600 4.07000 31.34400
H  5.51800 4.77300 32.97500
H  10.01800 5.61900 32.55600
H  10.48100 3.95700 33.18500
H  8.22900 5.28600 34.42900
H  9.69200 6.25400 34.43300
H  3.71000 7.35800 27.85800
H  4.75100 8.83600 27.92300
H  4.57200 7.75700 29.24500
H  3.84100 9.07100 24.30600
H  4.53900 9.27400 25.93200
H  3.28600 8.11700 25.73100
H  9.36500 4.16100 22.76500
H  8.69700 1.34200 23.31600
H  6.54500 3.58400 22.54600
H  7.60200 2.26900 21.81600
H  7.49400 3.88900 21.12800
H  11.50000 1.98400 23.48400
H  10.75800 2.66500 21.99500
H  11.29400 0.43100 21.17900
H  9.70000 0.09500 21.68500
H  11.00800 -0.31600 22.79000
H  12.32400 -0.84500 26.28500
H  11.74000 -1.56400 27.66500
H  13.30500 -0.57800 27.80500
H  11.62200 2.45800 31.99900
H  9.93500 -0.72900 34.46400
H  9.30400 0.73600 35.35200
H  10.96000 -0.04600 35.61400
Mg 42.64100 41.13500 25.32100
C  41.66600 43.58400 27.81800
C  43.72300 39.09900 27.86300
C  43.70300 39.07300 22.98600
C  41.77500 43.47400 22.87900
N  42.74900 41.45900 27.62700
C  42.16700 42.43300 28.41500
C  42.14000 42.01100 29.84400
C  42.67400 40.51100 29.77100
C  43.13100 40.33500 28.34900
C  43.79700 40.22100 30.81900
C  40.68200 42.01800 30.48200
C  40.48800 41.32000 31.82200
H  39.78600 42.08400 32.96500
N  43.54100 39.35400 25.43100
C  43.95200 38.67200 26.54000
C  44.67400 37.47500 26.18800
C  44.60200 37.36500 24.76700
C  43.90300 38.61000 24.34800
C  45.21900 36.49400 27.15400
C  45.11800 36.28000 23.79600
O  45.01500 36.24800 22.57100
C  45.62000 35.00800 24.48500
N  42.69100 41.17800 23.31000
C  43.13800 40.23600 22.51900
C  42.97600 40.49400 21.02000
C  42.37500 41.95900 20.97300
C  42.19800 42.21400 22.44700
C  44.32200 40.35600 20.26400
C  41.10100 42.24300 20.17800
C  41.09000 43.39300 19.17000
N  41.86100 43.08700 25.26200
C  41.49800 43.88300 24.23400
C  41.11100 45.19700 24.70000
C  41.05700 45.13600 26.06800
C  41.54800 43.82100 26.38100
C  40.77600 46.42900 23.84400
C  40.73200 45.84900 27.32000
O  40.33700 46.97200 27.50600
C  40.99800 44.76400 28.44400
C  41.85300 45.44400 29.46700
O  43.05600 45.65000 29.30100
O  41.04400 45.83600 30.53000
C  41.82600 46.11900 31.74500
H  43.86300 38.42700 28.71200
H  44.09700 38.43500 22.19200
H  41.54000 44.18800 22.08700
H  42.83800 42.60100 30.43900
H  41.87800 39.78400 29.93200
H  43.60000 40.85500 31.68300
H  44.72700 40.38100 30.27200
H  43.64300 39.14900 30.94200
H  40.00000 41.52700 29.78700
H  40.33400 43.05100 30.46200
H  41.47500 41.07900 32.21700
H  39.95400 40.38100 31.67800
H  45.02400 36.82400 28.17500
H  46.29500 36.44000 26.99000
H  44.82100 35.50200 26.94400
H  44.74800 34.59300 24.98900
H  46.41800 35.15500 25.21300
H  45.94700 34.33000 23.69600
H  42.28900 39.83400 20.49000
H  43.06700 42.71100 20.59500
H  45.15900 40.16500 20.93500
H  44.51900 41.27000 19.70300
H  44.22500 39.47700 19.62800
H  40.35300 42.48300 20.93500
H  40.84900 41.30900 19.67600
H  42.12500 43.71800 19.05900
H  40.51800 44.22700 19.57700
H  40.72600 42.95000 18.24400
H  40.52000 46.19400 22.81100
H  41.58700 47.15400 23.78000
H  39.97200 46.94700 24.36700
H  40.01500 44.47300 28.81400
H  41.31800 45.64800 32.58700
H  41.83200 47.17500 32.01600
H  42.86700 45.80100 31.79100

