158

Mg 42.50000 41.94600 26.21900
C  41.50300 44.27400 28.70000
C  43.41900 39.77400 28.80000
C  43.50900 39.63300 23.93000
C  41.88700 44.21000 23.80000
N  42.33900 41.98500 28.51900
C  41.91900 43.07300 29.25700
C  41.89600 42.64700 30.76200
C  42.66800 41.22400 30.79500
C  42.75500 40.93600 29.26500
C  43.86600 41.02400 31.69200
C  40.47100 42.57700 31.40900
C  40.33700 43.23600 32.75000
H  41.34600 42.97800 33.84600
N  43.37500 40.07000 26.32600
C  43.66500 39.42000 27.48300
C  44.11300 38.07400 27.12900
C  43.97200 37.91800 25.72600
C  43.67400 39.21000 25.21900
C  44.51000 36.91900 28.17400
C  44.16600 36.70500 24.87400
O  44.04500 36.66800 23.66900
C  44.48100 35.35300 25.50800
N  42.75900 41.89600 24.21400
C  43.26200 40.89700 23.43200
C  43.34400 41.28700 21.92900
C  42.69800 42.71800 21.90200
C  42.39700 42.94100 23.43200
C  44.73000 41.14600 21.15600
C  41.40600 42.69000 21.10700
C  40.18600 42.06400 21.81900
N  41.75000 43.82100 26.20600
C  41.58300 44.66000 25.12200
C  41.18700 46.01900 25.59400
C  41.12700 45.86700 27.00900
C  41.45200 44.51900 27.32200
C  40.93200 47.21100 24.79700
C  40.75100 46.53700 28.23600
O  40.52900 47.76300 28.34600
C  41.01400 45.54200 29.42500
C  42.02300 46.10200 30.24500
O  43.01100 46.59700 29.74200
O  41.79200 45.82100 31.56800
C  42.85200 46.28600 32.43300
H  43.50000 38.99300 29.55900
H  43.87500 38.97000 23.14300
H  41.68700 45.01200 23.08700
H  42.47700 43.35200 31.35500
H  42.10400 40.35400 31.13300
H  44.56000 40.41900 31.10900
H  43.66500 40.58000 32.66800
H  44.44900 41.93000 31.85500
H  40.05800 41.57000 31.37400
H  39.92200 43.16200 30.67100
H  39.40000 42.84800 33.14800
H  40.20500 44.31000 32.61500
H  45.45000 36.44100 27.89900
H  43.68500 36.22200 28.31700
H  44.67600 37.40400 29.13600
H  43.86000 35.21900 26.39400
H  45.56300 35.38400 25.63700
H  44.29400 34.46000 24.91100
H  42.73500 40.57300 21.37300
H  43.38800 43.44500 21.47400
H  45.38200 41.96400 21.46100
H  44.56300 41.24500 20.08300
H  45.09800 40.14400 21.37900
H  41.58000 42.06400 20.23200
H  41.19800 43.73400 20.87300
H  39.83500 41.17400 21.29700
H  39.51900 42.92700 21.83700
H  40.36100 41.69700 22.83000
H  41.40500 46.94300 23.85300
H  41.57600 47.92000 25.31900
H  39.90600 47.52800 24.61100
H  40.14800 45.23300 30.01000
H  43.26000 47.25100 32.13300
H  43.71500 45.62800 32.33900
H  42.51500 46.31600 33.46900
Mg -12.36900 16.57400 41.05300
C  -9.70600 14.27800 40.73100
C  -10.40900 18.96500 39.60400
C  -15.09300 18.41900 40.90900
C  -14.36600 13.91700 42.20800
N  -10.27200 16.61600 40.25600
C  -9.36100 15.55100 40.20800
C  -7.99700 16.03900 39.72800
C  -8.16300 17.54600 39.45000
C  -9.70900 17.77100 39.81300
C  -7.19700 18.48300 40.11100
C  -7.60700 15.21500 38.48400
C  -6.29600 14.39900 38.61500
H  -5.14200 14.92700 37.79400
N  -12.69000 18.46900 40.41300
C  -11.79600 19.32600 39.84100
C  -12.44100 20.61100 39.54300
C  -13.75200 20.54400 40.10600
C  -13.90300 19.08000 40.44700
C  -11.79200 21.72800 38.87400
C  -14.73800 21.67600 40.23400
O  -14.38300 22.79200 39.82700
C  -16.06700 21.61100 40.88100
N  -14.54500 16.19900 41.36500
C  -15.38900 17.16800 41.44600
C  -16.74900 16.78100 41.94400
C  -16.49600 15.31200 42.30400
C  -15.03300 15.11200 42.00400
C  -17.30000 17.68300 43.09000
C  -17.25200 14.26100 41.51700
C  -17.90300 13.19600 42.38800
N  -12.13000 14.48500 41.37700
C  -13.03000 13.58600 41.88600
C  -12.33300 12.34100 42.06900
C  -11.01900 12.52000 41.67700
C  -10.94900 13.86800 41.21100
C  -13.00800 11.06900 42.49000
C  -9.78900 11.90500 41.49500
O  -9.46200 10.74900 41.78100
C  -8.92100 12.92200 40.82900
C  -7.63300 13.01700 41.53300
O  -7.43700 13.60800 42.50500
O  -6.78200 12.16700 40.89500
C  -5.50300 11.98500 41.53200
H  -9.69800 19.73600 39.30300
H  -15.98200 19.04300 40.79900
H  -14.73500 13.18100 42.92600
H  -7.24000 15.95400 40.50700
H  -8.16100 17.76700 38.38300
H  -6.34400 17.86400 40.38800
H  -7.67600 18.95700 40.96700
H  -6.88100 19.21900 39.37100
H  -7.65900 15.72700 37.52300
H  -8.36900 14.44300 38.37800
H  -6.57600 13.39500 38.29600
H  -5.99600 14.29500 39.65800
H  -10.79500 21.45600 38.52900
H  -11.79600 22.66200 39.43500
H  -12.48100 21.85000 38.03800
H  -16.02500 20.94800 41.74500
H  -16.85400 21.15800 40.27700
H  -16.39200 22.61500 41.15300
H  -17.30400 16.85000 41.00900
H  -16.63100 15.17600 43.37700
H  -16.35200 18.08100 43.45000
H  -17.78800 17.13800 43.89900
H  -17.98300 18.43600 42.69400
H  -16.61600 13.79000 40.76800
H  -18.03800 14.69800 40.90000
H  -18.99300 13.15500 42.37900
H  -17.58700 13.16700 43.43100
H  -17.58500 12.25600 41.93700
H  -13.58200 11.28400 43.39200
H  -12.41500 10.19600 42.76100
H  -13.67300 10.77800 41.67600
H  -8.65900 12.52000 39.85100
H  -4.75500 12.71900 41.23000
H  -5.17800 11.01600 41.15600
H  -5.51200 11.84300 42.61200

