158

Mg 45.13100 3.70800 47.27800
C  43.15000 6.79500 46.89900
C  42.22100 2.06000 46.92400
C  47.02700 1.04900 47.10900
C  48.01300 5.86700 47.07800
N  42.92600 4.34700 46.69600
C  42.38200 5.61100 46.85500
C  40.82600 5.51100 46.92000
C  40.55900 3.97700 47.02300
C  42.00700 3.40100 46.86100
C  39.87400 3.46100 48.37500
C  40.06800 6.30000 45.80600
C  40.81900 6.57600 44.42800
H  40.07000 6.05400 43.16900
N  44.69400 1.77700 47.08100
C  43.44900 1.23700 46.96300
C  43.57000 -0.15500 46.78700
C  44.93000 -0.49000 46.92500
C  45.62200 0.75700 47.07200
C  42.40200 -1.03600 46.46700
C  45.48700 -1.93900 46.87000
O  44.68600 -2.89100 46.72400
C  46.90000 -2.27200 46.86600
N  47.16500 3.54800 46.94300
C  47.67900 2.31000 47.07900
C  49.22900 2.38900 47.11100
C  49.60700 3.90300 47.09100
C  48.16800 4.53300 46.90700
C  49.94700 1.58800 48.18200
C  50.45800 4.38400 45.89200
C  51.81800 5.12200 46.37600
N  45.53900 5.84900 47.08400
C  46.77100 6.54200 47.00500
C  46.51700 8.04600 47.05200
C  45.12900 8.07700 47.15400
C  44.54500 6.79500 47.02900
C  47.57800 9.04000 46.81700
C  43.95600 8.98000 47.25600
O  44.00800 10.24600 47.41700
C  42.63600 8.24900 47.05000
C  41.76400 8.47500 48.24200
O  41.78600 7.75000 49.26000
O  40.90100 9.48300 47.95100
C  40.03600 9.96500 49.01300
H  41.32000 1.44600 46.86100
H  47.72200 0.24400 47.35700
H  48.93800 6.42200 47.24500
H  40.57600 6.00600 47.85900
H  39.93500 3.61100 46.20800
H  39.01700 2.83600 48.12600
H  39.57800 4.33900 48.94900
H  40.59100 2.82700 48.89700
H  39.85800 7.22900 46.33600
H  39.14000 5.76700 45.59900
H  41.76000 6.02700 44.47300
H  40.91700 7.66100 44.41200
H  41.61900 -0.43000 46.01200
H  41.98600 -1.52100 47.35000
H  42.62200 -1.87000 45.80000
H  46.91300 -3.35400 46.73400
H  47.48600 -1.89200 47.70200
H  47.39100 -1.79800 46.01600
H  49.56700 1.95600 46.16900
H  49.95000 4.25100 48.06600
H  50.47800 0.73200 47.76600
H  49.14200 1.20700 48.81100
H  50.69100 2.09300 48.79700
H  49.93800 5.12700 45.28700
H  50.77400 3.57000 45.23900
H  52.72000 4.56100 46.13000
H  51.69700 5.46000 47.40500
H  51.92200 6.05700 45.82600
H  48.34200 9.01200 47.59400
H  47.18800 10.05700 46.78300
H  48.04000 8.81200 45.85600
H  42.19500 8.65900 46.14200
H  40.40700 9.57100 49.95900
H  38.99600 9.69600 48.82800
H  40.09200 11.05100 49.09400
Mg 48.16200 46.01800 44.10800
C  44.96000 46.64900 42.91600
C  48.15900 42.94200 42.53900
C  51.46400 45.87900 44.68100
C  48.13000 49.40700 45.40900
N  46.65100 45.00800 42.84300
C  45.46800 45.41000 42.46600
C  44.83200 44.36400 41.57100
C  45.65800 43.04500 41.90000
C  46.94300 43.70100 42.44700
C  45.01100 42.23100 43.09700
C  44.78900 44.70800 40.02700
C  43.76300 44.05100 39.16800
H  44.18500 43.26700 37.92100
N  49.62000 44.50900 43.70400
C  49.39200 43.36500 43.04200
C  50.61700 42.67800 42.96300
C  51.67400 43.47600 43.58400
C  50.96600 44.69600 43.96000
C  50.68600 41.32100 42.31200
C  53.08100 42.94600 43.82700
O  53.44500 41.88300 43.35800
C  54.18300 43.72700 44.54200
N  49.57800 47.44300 44.89600
C  50.91400 47.11000 45.08100
C  51.67300 48.23500 45.80300
C  50.64200 49.38600 45.84600
C  49.32000 48.74900 45.44800
C  52.29600 47.94400 47.24000
C  51.02300 50.62100 44.92600
C  51.95100 51.66100 45.50600
N  46.86400 47.67700 44.17400
C  47.00700 48.97100 44.75600
C  45.78300 49.67400 44.62100
C  44.94700 48.80000 43.99000
C  45.64600 47.61300 43.72800
C  45.42600 51.02200 45.12100
C  43.67100 48.62900 43.39200
O  42.73600 49.40700 43.38100
C  43.57500 47.23300 42.72600
C  42.52800 46.38700 43.43000
O  42.75700 45.59900 44.31200
O  41.42400 46.38200 42.64300
C  40.50700 45.36300 43.06800
H  48.08200 41.89200 42.25000
H  52.54500 45.74900 44.77300
H  47.99200 50.36500 45.91600
H  43.79600 44.25100 41.88800
H  45.90800 42.40200 41.05600
H  43.96500 42.53400 43.14100
H  45.52500 42.42500 44.03800
H  45.08300 41.14900 42.99500
H  45.73000 44.51200 39.51400
H  44.70100 45.79400 39.99100
H  42.95300 44.69500 38.82500
H  43.30700 43.29300 39.80600
H  49.84600 41.06400 41.66700
H  50.66700 40.52900 43.06000
H  51.61000 41.31100 41.73300
H  53.73600 44.05300 45.48100
H  54.31100 44.59400 43.89400
H  55.16000 43.25000 44.62300
H  52.49400 48.49300 45.13400
H  50.59600 49.67700 46.89500
H  51.56700 47.82600 48.04200
H  53.07300 48.68200 47.43800
H  52.64900 46.93300 47.03800
H  50.09800 51.07700 44.57500
H  51.55400 50.30800 44.02700
H  51.48700 52.64600 45.44700
H  52.90600 51.60600 44.98400
H  52.23600 51.54300 46.55100
H  44.64800 51.43300 44.47900
H  46.30600 51.66500 45.09900
H  45.02800 50.94500 46.13300
H  43.25400 47.39500 41.69700
H  40.88500 44.34100 43.04800
H  39.60800 45.47900 42.46300
H  40.22900 45.45300 44.11800

