158

Mg 24.83600 -5.77500 46.75900
C  26.96400 -3.41900 45.23600
C  22.21200 -4.40700 44.81400
C  22.93600 -8.58900 47.31700
C  27.44000 -7.11600 48.36300
N  24.65500 -4.29700 44.93300
C  25.65700 -3.37200 44.65700
C  25.12300 -2.31900 43.66700
C  23.57600 -2.37500 43.98700
C  23.44200 -3.74000 44.62100
C  23.13400 -1.25400 44.99800
C  25.51900 -2.86800 42.18100
C  26.34000 -1.94300 41.27900
H  26.18300 -2.05600 39.72900
N  22.81000 -6.41800 46.17900
C  21.94000 -5.75100 45.33500
C  20.69300 -6.39300 45.28100
C  20.79300 -7.69000 45.97800
C  22.25200 -7.61500 46.52400
C  19.62200 -5.88600 44.42700
C  19.82000 -8.83000 46.11700
O  18.71800 -8.68400 45.58800
C  20.10600 -10.05700 46.96200
N  25.08100 -7.60200 47.82600
C  24.22200 -8.67100 47.92100
C  24.88900 -9.79900 48.71600
C  26.31500 -9.20800 49.26100
C  26.27400 -7.88000 48.46200
C  24.10900 -10.31500 49.94800
C  27.69100 -10.07900 49.07500
C  28.55400 -10.10900 50.35200
N  26.75500 -5.33800 46.84600
C  27.76900 -5.98100 47.58800
C  29.06700 -5.27100 47.43600
C  28.74400 -4.29100 46.48000
C  27.39000 -4.39600 46.13800
C  30.28800 -5.64700 48.06800
C  29.31200 -3.18100 45.71200
O  30.44400 -2.73000 45.64700
C  28.17400 -2.60400 44.79700
C  28.02300 -1.12100 45.14400
O  28.68200 -0.22300 44.69700
O  27.02100 -0.91000 46.08200
C  26.98000 0.45100 46.64400
H  21.47600 -3.76000 44.33400
H  22.48500 -9.54100 47.60400
H  28.34800 -7.43900 48.87600
H  25.58200 -1.36200 43.91500
H  23.03600 -2.16600 43.06300
H  23.99100 -0.69400 45.37200
H  22.49900 -1.50300 45.84800
H  22.51800 -0.62500 44.35400
H  24.61400 -3.22700 41.69200
H  26.01700 -3.83100 42.29600
H  27.42000 -1.95000 41.42900
H  25.85000 -0.98800 41.46900
H  19.77100 -6.24000 43.40700
H  19.53100 -4.80000 44.42300
H  18.65200 -6.24700 44.76700
H  20.96600 -10.57400 46.53500
H  19.30000 -10.78300 47.07600
H  20.31300 -9.76000 47.99000
H  25.01900 -10.64300 48.03900
H  26.19000 -8.77200 50.25200
H  23.69200 -11.31200 49.81000
H  23.35500 -9.60400 50.28600
H  24.76300 -10.27200 50.81900
H  28.28600 -9.63200 48.27900
H  27.48200 -11.08200 48.70500
H  29.38900 -9.47900 50.04700
H  29.00600 -11.10000 50.36900
H  28.20300 -9.83700 51.34800
H  30.74700 -4.77200 48.52900
H  30.92100 -5.93400 47.22800
H  30.12400 -6.38700 48.85100
H  28.40400 -2.65000 43.73300
H  26.57700 0.57000 47.65000
H  26.32500 0.98900 45.95800
H  27.89700 1.03700 46.70400
Mg 35.84300 0.54900 29.37500
C  33.85200 2.07200 31.99300
C  38.10500 -0.18200 31.70700
C  37.69700 -0.45300 26.78000
C  33.23100 1.34300 27.17800
N  35.92700 0.91200 31.68400
C  35.05600 1.52700 32.52100
C  35.53700 1.50000 33.97200
C  36.96100 0.76000 33.84500
C  37.03600 0.52400 32.29800
C  38.11100 1.63600 34.44600
C  34.49800 0.77800 34.93800
C  34.07200 1.57500 36.17400
H  35.08300 2.60800 36.81400
N  37.68200 -0.20700 29.31300
C  38.47500 -0.45500 30.34100
C  39.75900 -0.97600 29.88700
C  39.66400 -1.03700 28.44600
C  38.26100 -0.63200 28.12000
C  40.93400 -1.47400 30.84800
C  40.74100 -1.56000 27.39600
O  40.54500 -1.67100 26.16800
C  42.13600 -1.97800 27.95300
N  35.40100 0.13600 27.34600
C  36.37800 -0.09900 26.44700
C  35.79800 -0.04300 24.99700
C  34.29400 0.24600 25.19200
C  34.34600 0.65200 26.65000
C  36.59900 0.79100 23.96700
C  33.34500 -0.95700 24.85200
C  32.66800 -1.00000 23.43700
N  33.91200 1.42700 29.51200
C  33.02100 1.74500 28.48700
C  31.90000 2.55500 29.06400
C  32.15900 2.62600 30.40400
C  33.38600 1.95600 30.62500
C  30.66700 3.15300 28.30400
C  31.64200 3.22700 31.62300
O  30.65700 3.88900 31.82800
C  32.70200 2.88000 32.70300
C  33.08100 4.20700 33.23800
O  34.09100 4.83400 32.99700
O  32.23000 4.63100 34.25500
C  32.71300 5.76300 35.12200
H  38.79700 -0.41100 32.52100
H  38.42300 -0.69900 26.00300
H  32.56800 1.82200 26.45400
H  35.71700 2.53000 34.27900
H  36.96100 -0.19600 34.36800
H  37.76600 2.44100 35.09500
H  38.73400 1.95800 33.61200
H  38.64200 0.97900 35.13600
H  34.88300 -0.18500 35.27300
H  33.59300 0.63200 34.34700
H  33.74200 0.88700 36.95200
H  33.26000 2.21000 35.82000
H  40.62000 -1.46700 31.89200
H  41.72700 -0.72800 30.78900
H  41.33500 -2.46000 30.61400
H  42.80000 -2.08100 27.09500
H  41.94100 -2.82900 28.60600
H  42.52300 -1.23800 28.65300
H  35.97800 -1.04600 24.61200
H  33.84000 1.04900 24.61100
H  37.46800 1.17600 24.50100
H  36.12500 1.72100 23.65400
H  36.91000 0.19900 23.10600
H  32.62800 -1.01700 25.67100
H  34.01000 -1.81300 24.97300
H  32.87000 -1.93700 22.91900
H  33.03700 -0.15900 22.85100
H  31.58900 -0.97600 23.58700
H  29.75800 2.68400 28.68000
H  30.81100 3.10800 27.22400
H  30.60700 4.21900 28.52400
H  32.15900 2.47500 33.55700
H  33.70100 5.40300 35.40800
H  32.12700 5.96300 36.01900
H  32.77500 6.74100 34.64600

