158

Mg 45.02100 3.82100 47.89200
C  42.63800 6.50000 47.20600
C  42.34900 1.69600 47.80200
C  47.22100 1.39500 48.14300
C  47.49700 6.17100 47.50400
N  42.78200 4.01000 47.26100
C  42.04400 5.20800 47.15700
C  40.56400 4.94800 47.00700
C  40.42000 3.45500 47.42700
C  41.93200 3.04000 47.53300
C  39.53800 3.15700 48.73000
C  39.96700 5.29900 45.64200
C  38.59700 6.01800 45.55200
H  37.92200 6.05200 44.13300
N  44.81800 1.79700 47.80700
C  43.60600 1.08200 47.82200
C  43.93200 -0.34500 47.93700
C  45.31600 -0.44300 48.10500
C  45.85400 0.94600 48.03100
C  42.89700 -1.45000 48.10500
C  45.97200 -1.70400 48.26200
O  45.32200 -2.75500 48.14800
C  47.50300 -1.85900 48.58600
N  47.08200 3.74600 47.70300
C  47.82700 2.62500 47.97900
C  49.32600 2.89600 48.15700
C  49.34200 4.46300 47.80100
C  47.90800 4.85800 47.61600
C  49.92000 2.46000 49.56900
C  50.08500 4.80900 46.59600
C  51.21200 5.88200 46.84900
N  45.09300 5.90100 47.48700
C  46.17000 6.70500 47.41800
C  45.77400 8.07000 47.24600
C  44.42200 8.06300 47.13000
C  44.02200 6.67900 47.26600
C  46.74900 9.21000 47.16200
C  43.24000 8.89400 46.97700
O  43.13300 10.13900 46.83900
C  42.01300 7.86700 47.07000
C  41.19000 8.31700 48.26500
O  41.35200 7.95100 49.38800
O  40.19900 9.14000 47.77300
C  39.27400 9.77100 48.79000
H  41.53100 1.01700 48.05400
H  47.94900 0.59300 48.27700
H  48.32300 6.88600 47.49300
H  40.00900 5.53400 47.73900
H  39.90500 2.93100 46.62100
H  39.03200 4.09100 48.97600
H  40.08100 2.83000 49.61700
H  38.89500 2.34600 48.38600
H  39.86900 4.44100 44.97800
H  40.58100 5.99300 45.06800
H  38.50400 7.00000 46.01500
H  37.92100 5.44300 46.18600
H  42.90300 -2.17100 47.28800
H  41.92400 -0.98000 48.24800
H  43.00700 -1.99100 49.04500
H  48.00000 -1.47500 47.69500
H  47.79200 -2.90900 48.62800
H  47.79800 -1.31100 49.48100
H  49.95400 2.28000 47.51300
H  49.75700 5.04200 48.62600
H  49.05700 2.41400 50.23300
H  50.55300 3.25400 49.96600
H  50.43000 1.50700 49.42600
H  49.50800 5.27500 45.79700
H  50.61500 3.93300 46.22300
H  52.20600 5.53500 46.56700
H  51.28600 6.22400 47.88100
H  50.86600 6.70700 46.22500
H  46.86300 9.40000 46.09500
H  47.68500 8.86700 47.60300
H  46.45800 10.14600 47.63800
H  41.42200 7.98200 46.16100
H  39.43400 9.48200 49.82900
H  38.28100 9.54600 48.40200
H  39.51700 10.83300 48.83500
Mg 36.13500 49.37400 26.22100
C  36.07200 47.65300 29.45300
C  35.04200 52.11200 27.92700
C  36.11700 50.75100 23.48300
C  36.88600 46.27600 24.83000
N  35.56300 49.82000 28.50700
C  35.60000 48.99900 29.57700
C  35.21900 49.76200 30.88200
C  34.87300 51.22700 30.28100
C  35.11700 51.04900 28.82600
C  33.45000 51.76000 30.52400
C  36.29300 49.74200 31.99700
C  35.89300 49.34200 33.43400
H  35.79800 50.50400 34.49200
N  35.53000 51.16400 25.69200
C  35.19400 52.18700 26.53400
C  35.06500 53.39800 25.78600
C  35.32800 53.04000 24.39900
C  35.66600 51.61900 24.47400
C  34.84500 54.77400 26.35000
C  35.40700 53.95200 23.18900
O  35.75000 53.52400 22.07900
C  34.92000 55.26700 23.25800
N  36.43800 48.60100 24.43600
C  36.38700 49.35000 23.43000
C  36.45300 48.66100 22.08100
C  36.71600 47.21600 22.52000
C  36.69100 47.36700 24.03700
C  35.18100 48.90800 21.28300
C  37.97600 46.58700 21.91100
C  37.68900 46.26000 20.35300
N  36.44500 47.34600 26.97100
C  36.80500 46.18100 26.21200
C  36.98900 45.01400 27.14600
C  36.83700 45.59500 28.44000
C  36.50500 46.99600 28.27900
C  37.35200 43.58500 26.75800
C  36.86400 45.27500 29.78900
O  37.08200 44.19900 30.40600
C  36.40200 46.60500 30.53100
C  35.21700 46.34200 31.34200
O  34.12500 45.94000 30.90600
O  35.54800 46.32000 32.67400
C  34.48000 45.79000 33.54100
H  34.60400 53.02500 28.33600
H  35.95100 51.21600 22.50900
H  36.98300 45.27400 24.40600
H  34.28900 49.28700 31.19500
H  35.59500 51.98400 30.58800
H  32.91500 51.27900 31.34300
H  32.82600 51.53900 29.65800
H  33.49100 52.81500 30.79500
H  36.61100 50.77600 32.13100
H  37.13800 49.08700 31.78700
H  36.74200 48.77300 33.81200
H  34.97300 48.75700 33.42900
H  34.11700 55.29400 25.72800
H  35.81400 55.27300 26.32100
H  34.51800 54.77700 27.39000
H  34.99600 55.72800 22.27300
H  35.56100 55.80800 23.95500
H  33.85500 55.31800 23.48300
H  37.22200 49.07100 21.42600
H  35.81600 46.61800 22.37800
H  34.42200 49.23000 21.99600
H  34.88500 47.95100 20.85400
H  35.28800 49.65900 20.50000
H  38.24000 45.66000 22.42100
H  38.76500 47.33500 21.83900
H  38.49800 46.84500 19.91500
H  36.72900 46.69900 20.08300
H  37.76500 45.20600 20.08500
H  37.71300 43.54000 25.73100
H  36.46200 42.99800 26.98500
H  38.16600 43.19300 27.36700
H  37.26500 46.95300 31.09800
H  34.08600 46.62900 34.11500
H  35.04800 45.20200 34.26200
H  33.59300 45.26100 33.19300

