158

Mg 1.62600 8.12500 24.72500
C  2.44000 9.71500 27.71000
C  2.38500 5.06100 26.24200
C  0.88100 6.58200 21.83700
C  1.31600 11.24400 23.20600
N  2.49600 7.48300 26.70900
C  2.47500 8.33100 27.85900
C  2.62600 7.51700 29.12600
C  2.81800 6.11200 28.62200
C  2.49700 6.18500 27.11500
C  4.23300 5.51200 28.88800
C  1.25200 7.71900 29.84600
C  1.24000 7.61100 31.35600
H  2.46700 6.90800 32.04700
N  1.51000 6.06700 24.19000
C  1.86300 4.96800 24.98100
C  1.63000 3.76700 24.24200
C  1.15600 4.20900 22.95000
C  1.17200 5.67800 22.91700
C  1.79900 2.37400 24.93800
C  0.54500 3.23100 21.90100
O  0.09200 3.62000 20.82500
C  0.52400 1.66500 22.21100
N  1.34900 8.81300 22.71000
C  0.97500 7.96400 21.75300
C  0.27500 8.72200 20.56700
C  0.24700 10.19000 21.08100
C  1.06000 10.12400 22.39600
C  1.08400 8.51500 19.26700
C  -1.15700 10.88600 21.11000
C  -1.90000 10.99300 19.72900
N  1.83500 10.21600 25.30900
C  1.70700 11.33600 24.56800
C  2.10300 12.49000 25.47700
C  2.28800 11.86900 26.74400
C  2.17800 10.51700 26.54100
C  2.28300 13.99100 25.05900
C  2.71700 12.14600 28.12300
O  3.10300 13.19600 28.61900
C  2.62400 10.74100 28.81300
C  3.79500 10.57800 29.70100
O  4.85900 10.10100 29.39800
O  3.52100 11.05300 30.95000
C  4.58700 10.84700 32.00700
H  2.76900 4.17700 26.75500
H  0.53800 6.12600 20.90500
H  1.07500 12.15300 22.65100
H  3.42900 7.82900 29.79400
H  2.12000 5.43600 29.11700
H  4.80300 5.70000 27.97800
H  4.21900 4.44700 29.12000
H  4.65000 6.05000 29.74000
H  0.50700 6.96600 29.58800
H  0.77200 8.66300 29.59100
H  0.33000 7.07900 31.63400
H  1.36600 8.61600 31.75800
H  2.44800 1.67500 24.41000
H  0.82000 1.90000 25.01800
H  2.07300 2.46000 25.99000
H  1.51100 1.20400 22.23500
H  -0.14900 1.22000 21.47800
H  -0.01100 1.51100 23.14900
H  -0.72600 8.29700 20.50000
H  0.91200 10.76500 20.43600
H  2.14400 8.36400 19.47100
H  0.85100 9.37000 18.63100
H  0.73600 7.61100 18.76600
H  -1.02900 11.87900 21.54000
H  -1.76500 10.35500 21.84200
H  -1.18400 10.73900 18.94700
H  -2.26900 12.01700 19.67500
H  -2.72900 10.28900 19.80200
H  1.31100 14.26000 24.64600
H  3.05600 13.95800 24.29100
H  2.65700 14.62700 25.86000
H  1.70100 10.85600 29.38100
H  4.29400 10.02300 32.65700
H  4.67000 11.83500 32.46100
H  5.57700 10.60300 31.62300
Mg 47.83500 34.50500 26.83500
C  46.11000 33.26800 29.70800
C  48.25100 37.46600 28.38200
C  49.12000 35.58300 24.06100
C  46.96700 31.38900 25.22500
N  47.28900 35.18300 28.85600
C  46.63600 34.56600 29.85800
C  46.59100 35.46300 31.11200
C  47.07800 36.86200 30.53900
C  47.55200 36.50800 29.14100
C  45.94700 37.90100 30.44400
C  47.53000 34.99800 32.34100
C  46.86000 35.15800 33.76900
H  47.84800 35.56400 34.81700
N  48.71000 36.23400 26.31400
C  48.79100 37.36100 27.08800
C  49.69500 38.24900 26.47400
C  49.89900 37.77200 25.10300
C  49.21200 36.49200 25.11900
C  50.31500 39.46100 27.19300
C  50.72900 38.41300 23.93500
O  50.79200 37.88600 22.82400
C  51.60300 39.62400 24.28000
N  48.05500 33.49700 24.91300
C  48.60400 34.24100 23.94800
C  48.81900 33.37700 22.64200
C  48.19300 31.96800 23.05900
C  47.63300 32.33300 24.43200
C  48.27400 34.00700 21.30100
C  49.18900 30.74000 23.07200
C  50.19900 30.65200 24.17000
N  46.83000 32.61100 27.35400
C  46.52500 31.50800 26.56600
C  45.82200 30.52700 27.43200
C  45.54700 31.16900 28.63800
C  46.20800 32.44000 28.54700
C  45.24700 29.23500 26.92300
C  44.80500 31.20800 29.82500
O  43.96300 30.43800 30.30200
C  45.01600 32.60100 30.54500
C  45.22300 32.35800 31.97000
O  46.23600 31.95900 32.50500
O  43.94600 32.47100 32.55300
C  43.93400 32.00000 33.95600
H  48.45700 38.41700 28.87900
H  49.58700 35.96400 23.15000
H  46.69200 30.43300 24.77500
H  45.54300 35.41200 31.40600
H  47.81000 37.27600 31.23300
H  46.39500 38.89200 30.50500
H  45.25700 37.85800 31.28600
H  45.42100 37.76500 29.49900
H  48.47200 35.54700 32.34800
H  47.87200 33.98300 32.14200
H  46.39900 34.22000 34.07800
H  46.08800 35.92600 33.72600
H  49.99500 40.38200 26.70600
H  51.40500 39.45600 27.19000
H  49.97500 39.56800 28.22300
H  50.97400 40.36700 24.77300
H  51.87900 39.99900 23.29500
H  52.40800 39.17900 24.86500
H  49.89600 33.26700 22.52000
H  47.27800 31.85900 22.47600
H  49.10700 34.49000 20.79100
H  47.46500 34.73400 21.35400
H  47.87100 33.22700 20.65600
H  49.62300 30.72500 22.07200
H  48.55400 29.85400 23.07100
H  51.15100 30.49800 23.66100
H  49.88800 29.75400 24.70300
H  50.26500 31.47900 24.87700
H  44.21400 29.31100 26.58100
H  45.26200 28.55100 27.77200
H  45.88800 28.81700 26.14700
H  44.04200 33.06700 30.39300
H  44.46600 32.71300 34.58600
H  44.34800 30.99600 34.04600
H  42.89000 32.07000 34.26300

