158

Mg 47.54500 16.26200 29.46800
C  45.61900 16.04200 32.22500
C  49.97900 18.01900 31.37700
C  49.43700 16.75500 26.59000
C  45.02200 14.91300 27.47700
N  47.73300 17.02600 31.55500
C  46.83300 16.68900 32.50000
C  47.24800 17.35400 33.89700
C  48.52600 18.19200 33.58900
C  48.73900 17.80600 32.05700
C  48.43200 19.69200 33.87400
C  47.52600 16.18700 34.91500
C  48.12500 16.62000 36.24300
H  48.09700 18.04200 36.90100
N  49.43500 17.19500 29.03400
C  50.31100 17.68700 29.98000
C  51.64300 17.90200 29.33800
C  51.52900 17.58900 27.95000
C  50.05800 17.18900 27.78000
C  52.85500 18.35300 30.07000
C  52.51900 17.60200 26.71200
O  52.22800 17.20600 25.60700
C  53.98300 18.15300 27.00700
N  47.17200 16.02700 27.25400
C  48.15700 16.23000 26.32500
C  47.56600 16.03100 24.95800
C  46.24500 15.20800 25.14800
C  46.13200 15.33100 26.70800
C  47.54000 17.32000 24.03800
C  46.26400 13.71700 24.62700
C  44.92900 13.38200 23.90400
N  45.78600 15.47700 29.74000
C  44.82300 14.97600 28.84700
C  43.69800 14.50200 29.67400
C  43.98300 14.96900 30.98300
C  45.25000 15.49800 30.95900
C  42.50500 13.78900 29.13300
C  43.33300 15.11100 32.27100
O  42.26600 14.70000 32.66800
C  44.47000 15.79800 33.17800
C  43.97100 17.07500 33.83000
O  43.79400 18.15600 33.26300
O  44.02400 16.92900 35.19900
C  43.80200 18.10400 36.03300
H  50.81700 18.47100 31.91200
H  49.94500 16.88000 25.63200
H  44.22400 14.37900 26.95600
H  46.44600 18.01700 34.22200
H  49.45500 17.85800 34.05000
H  48.50200 20.20000 32.91300
H  49.27500 20.08800 34.44100
H  47.50800 19.99200 34.36800
H  48.22100 15.52700 34.39600
H  46.58700 15.66000 35.08400
H  49.21200 16.55300 36.21000
H  47.67500 15.93900 36.96600
H  52.61900 18.94000 30.95700
H  53.46100 19.07800 29.52600
H  53.49400 17.50100 30.30000
H  54.64900 18.24900 26.14900
H  54.50200 17.59900 27.78900
H  53.92500 19.11000 27.52600
H  48.32300 15.41700 24.47100
H  45.40800 15.77700 24.74300
H  47.66900 18.20900 24.65500
H  46.58000 17.31500 23.52200
H  48.34300 17.26700 23.30200
H  46.35100 13.15000 25.55400
H  47.11100 13.54400 23.96400
H  44.85400 13.94700 22.97500
H  44.03800 13.65200 24.47100
H  44.86300 12.31100 23.71400
H  42.58600 12.82800 29.64100
H  42.42500 13.62000 28.06000
H  41.56400 14.23200 29.45800
H  44.69200 15.00000 33.88700
H  44.77600 18.50000 36.32300
H  43.19000 17.77000 36.87200
H  43.21200 18.88400 35.55400
Mg -13.31800 16.41800 41.61700
C  -10.20900 14.84600 40.95600
C  -12.11300 19.22600 40.31200
C  -16.47900 17.64900 41.78500
C  -14.75600 13.22800 42.06600
N  -11.30600 16.96200 40.83900
C  -10.18700 16.22900 40.59800
C  -8.98900 17.07800 40.20500
C  -9.67800 18.54100 40.30500
C  -11.13400 18.22700 40.44000
C  -9.08000 19.41800 41.49600
C  -8.41000 16.62400 38.85100
C  -6.91000 16.37800 38.75200
H  -6.24400 17.31800 37.79300
N  -14.19400 18.18400 41.19100
C  -13.49800 19.21500 40.56100
C  -14.38900 20.35800 40.32200
C  -15.70200 20.00700 40.87600
C  -15.51000 18.54700 41.30200
C  -13.99400 21.62600 39.61600
C  -16.81800 20.94400 40.97100
O  -16.76300 22.12500 40.57400
C  -18.17300 20.54600 41.50900
N  -15.40900 15.47300 41.85100
C  -16.45000 16.27800 42.08600
C  -17.73600 15.43600 42.36500
C  -17.18100 13.98700 42.23200
C  -15.71400 14.21800 42.04400
C  -18.36300 15.79300 43.77500
C  -17.77300 13.22000 41.02800
C  -18.04000 11.71500 41.26400
N  -12.66000 14.38800 41.59300
C  -13.34900 13.22600 41.76000
C  -12.33200 12.14800 41.91000
C  -11.08700 12.75500 41.61400
C  -11.37200 14.12500 41.32200
C  -12.65600 10.66300 42.22500
C  -9.64800 12.55200 41.51900
O  -9.00800 11.49900 41.67400
C  -9.04000 13.88400 40.99000
C  -7.99000 14.33000 41.98300
O  -8.23200 14.55900 43.19200
O  -6.71300 14.28500 41.43300
C  -5.66300 14.78000 42.39200
H  -11.60000 20.11800 39.94600
H  -17.49800 18.03500 41.86200
H  -15.01100 12.19400 42.30700
H  -8.26400 17.00500 41.01500
H  -9.57300 19.14700 39.40600
H  -9.70400 20.27100 41.76400
H  -8.03400 19.71200 41.41300
H  -9.17300 18.72600 42.33200
H  -8.56100 17.47800 38.19100
H  -8.93000 15.78800 38.38300
H  -6.51600 15.38300 38.54400
H  -6.49400 16.66200 39.71900
H  -13.16400 21.56800 38.91300
H  -13.59000 22.26900 40.39800
H  -14.69800 22.17800 38.99400
H  -18.63200 19.78800 40.87300
H  -18.96300 21.29000 41.60200
H  -17.88500 20.07800 42.45000
H  -18.40500 15.65100 41.53200
H  -17.39500 13.37600 43.10900
H  -18.59100 14.82200 44.21500
H  -19.33100 16.25100 43.57200
H  -17.80800 16.45300 44.44100
H  -17.04300 13.34100 40.22800
H  -18.67300 13.73100 40.68500
H  -17.81700 11.50400 42.31000
H  -17.33500 11.15800 40.64800
H  -19.10500 11.55400 41.09200
H  -12.73600 10.14600 41.26900
H  -13.51500 10.59100 42.89200
H  -11.74700 10.27400 42.68200
H  -8.57500 13.64500 40.03400
H  -4.76200 15.20100 41.94400
H  -5.36800 13.95200 43.03700
H  -6.06000 15.58600 43.00900

