158

Mg 44.80400 5.37300 46.94800
C  42.96900 8.31000 46.89100
C  41.92100 3.62500 46.02500
C  46.67500 2.66700 46.49000
C  47.77900 7.38500 47.18200
N  42.72300 5.93600 46.40500
C  42.18600 7.17600 46.53700
C  40.72600 7.28400 46.13800
C  40.45900 5.76300 45.83400
C  41.72500 5.05300 46.25400
C  39.12700 5.09200 46.43800
C  40.15200 8.37900 45.15700
C  40.74100 8.29600 43.69400
H  39.93600 7.78000 42.45700
N  44.36000 3.40400 46.48900
C  43.13700 2.86500 46.17400
C  43.31300 1.40700 45.91400
C  44.64800 1.12000 46.07000
C  45.31100 2.44900 46.38700
C  42.25300 0.51400 45.47600
C  45.31200 -0.25200 45.93300
O  44.65800 -1.26700 45.69600
C  46.80600 -0.53400 45.83700
N  46.93900 5.10200 46.64600
C  47.39900 3.82400 46.54400
C  48.92200 3.95400 46.51800
C  49.38000 5.47000 46.64200
C  47.93900 5.99700 46.84500
C  49.71000 2.97700 47.37700
C  50.01000 6.06900 45.35600
C  51.23700 5.35000 44.77100
N  45.32000 7.38100 47.12600
C  46.54500 8.08300 47.22300
C  46.26400 9.51300 47.43300
C  44.89100 9.67800 47.27200
C  44.35200 8.36100 47.07400
C  47.28300 10.55300 47.62700
C  43.78600 10.57200 47.34400
O  43.82200 11.78800 47.60300
C  42.48700 9.73000 46.98000
C  41.56600 9.95300 48.09500
O  41.75600 9.63800 49.27600
O  40.43800 10.51800 47.59800
C  39.26300 10.68100 48.54600
H  41.02900 3.11200 45.66000
H  47.40300 1.85500 46.54300
H  48.69800 7.95200 47.35000
H  40.26600 7.63300 47.06300
H  40.46400 5.59000 44.75800
H  39.49600 4.71500 47.39200
H  38.58200 4.24900 46.01300
H  38.52300 5.97900 46.62800
H  40.13300 9.40900 45.51200
H  39.09300 8.21800 44.95100
H  41.55000 7.57700 43.82500
H  41.17200 9.28900 43.57400
H  42.55400 0.12400 44.50400
H  41.25500 0.93300 45.34400
H  42.06400 -0.35800 46.10100
H  47.00400 -1.55100 45.49600
H  47.12700 -0.41100 46.87100
H  47.21100 0.24400 45.19000
H  49.09700 3.65400 45.48500
H  49.98000 5.74800 47.50900
H  50.23100 2.25800 46.74400
H  49.02900 2.44600 48.04300
H  50.50400 3.46100 47.94400
H  50.37700 7.06800 45.59300
H  49.25400 6.19100 44.58100
H  51.01200 5.05500 43.74600
H  51.51700 4.52100 45.42200
H  52.07100 6.05200 44.78100
H  47.68300 10.71400 48.62800
H  46.94500 11.51800 47.24900
H  48.16900 10.31100 47.03900
H  42.03400 10.13200 46.07400
H  38.48900 10.03000 48.14100
H  38.95000 11.72100 48.44900
H  39.44000 10.49600 49.60600
Mg 17.51600 52.36300 26.77100
C  19.40800 50.82800 29.45900
C  15.04000 53.01700 29.02900
C  15.62900 53.49100 24.21500
C  19.86100 51.20100 24.56600
N  17.20300 51.74400 28.99600
C  18.16000 51.36200 29.88100
C  17.62400 51.57900 31.30600
C  16.13100 52.01500 31.08000
C  16.12800 52.33100 29.58300
C  15.06100 51.00100 31.58900
C  18.47900 52.70400 31.90600
C  18.80700 52.55500 33.39200
H  17.75400 53.10800 34.38000
N  15.61700 53.16600 26.66200
C  14.75700 53.45500 27.71900
C  13.64600 54.28100 27.30600
C  13.75400 54.38000 25.86900
C  15.03600 53.68900 25.48500
C  12.54900 54.70500 28.28000
C  12.77100 54.91800 24.89700
O  13.09600 55.05300 23.76100
C  11.42400 55.39500 25.45700
N  17.75300 52.41600 24.65000
C  16.75100 52.79800 23.84300
C  17.14400 52.66200 22.36800
C  18.63400 52.12300 22.51000
C  18.78500 51.83900 24.00600
C  16.13900 51.70300 21.63300
C  19.70200 53.17100 22.13300
C  21.06500 52.64200 21.72300
N  19.33000 51.27500 26.97000
C  20.16900 50.93800 25.96200
C  21.40300 50.32400 26.55000
C  21.12600 50.20700 27.92500
C  19.88300 50.80500 28.11600
C  22.52300 49.72800 25.74700
C  21.62500 49.74400 29.17800
O  22.62600 49.14100 29.48300
C  20.53000 50.21100 30.27400
C  20.05000 49.00300 31.02700
O  19.66600 47.94400 30.53500
O  20.12900 49.30100 32.32600
C  19.69900 48.30100 33.36900
H  14.30200 53.38200 29.74600
H  15.01100 53.91100 23.41900
H  20.62200 50.82200 23.88100
H  17.72300 50.56600 31.69500
H  15.96900 52.95800 31.60200
H  15.60100 50.31000 32.23600
H  14.73900 50.51000 30.67000
H  14.24500 51.47400 32.13500
H  17.97400 53.64300 31.68100
H  19.39000 52.90100 31.34200
H  19.77600 53.03800 33.51700
H  19.02800 51.51600 33.63500
H  11.83200 53.88600 28.22200
H  12.21900 55.70100 27.98600
H  12.91300 54.70400 29.30800
H  10.68500 55.71600 24.72300
H  11.84100 56.28300 25.93300
H  11.00900 54.73000 26.21300
H  17.05000 53.61600 21.85000
H  18.84800 51.21600 21.94400
H  15.28600 51.56600 22.29700
H  16.52100 50.68900 21.51700
H  15.82800 51.95400 20.61900
H  19.89100 53.66900 23.08400
H  19.30800 53.77300 21.31500
H  21.86800 52.94600 22.39500
H  21.28700 52.89600 20.68700
H  21.09300 51.56600 21.54700
H  23.44000 49.70500 26.33600
H  22.61000 50.38100 24.87800
H  22.35700 48.72200 25.36100
H  20.95900 50.94400 30.95700
H  20.48600 47.54900 33.42800
H  18.80400 47.80800 32.99100
H  19.41400 48.73600 34.32600

