158

Mg 42.25700 41.11700 25.84200
C  41.42800 43.45900 28.44300
C  43.65200 39.17900 28.38800
C  43.41000 39.15400 23.49600
C  41.85300 43.70700 23.62700
N  42.48500 41.37100 28.09700
C  42.00700 42.33300 28.93800
C  42.07300 41.95700 30.45700
C  42.95200 40.62600 30.40100
C  43.06700 40.34000 28.83800
C  44.30700 40.62700 31.16300
C  40.62100 41.75300 31.12800
C  40.22900 42.85000 32.15900
H  39.56300 42.30700 33.41300
N  43.31800 39.41300 25.92700
C  43.71000 38.65600 27.02100
C  44.26000 37.41600 26.58800
C  44.13100 37.36800 25.12500
C  43.53500 38.69300 24.78100
C  44.89100 36.41800 27.53200
C  44.60200 36.27900 24.21100
O  44.41400 36.23800 23.02800
C  45.34300 35.16000 24.72800
N  42.57900 41.42200 23.87800
C  42.95200 40.40200 23.03100
C  42.79400 40.70700 21.53200
C  42.60200 42.28000 21.64000
C  42.39700 42.53900 23.14500
C  43.98600 40.33800 20.71100
C  41.43400 42.71600 20.71400
C  41.65000 44.13500 20.03100
N  41.57900 43.14500 25.94500
C  41.52600 44.06100 24.91300
C  41.16600 45.38400 25.47300
C  41.09400 45.10500 26.83300
C  41.41400 43.78500 27.07300
C  40.88400 46.69000 24.77300
C  40.71400 45.80100 28.08700
O  40.24400 46.95500 28.30400
C  40.88100 44.66500 29.18100
C  41.87200 45.23600 30.13100
O  43.05000 45.37800 29.87200
O  41.29200 45.70700 31.23500
C  42.02900 46.40700 32.24700
H  44.15400 38.66900 29.21300
H  43.60000 38.44000 22.69200
H  41.72000 44.48900 22.87600
H  42.63800 42.70000 31.02000
H  42.36100 39.79300 30.78000
H  45.16900 40.57800 30.49800
H  44.33000 39.76800 31.83400
H  44.46400 41.49400 31.80500
H  40.64500 40.84500 31.73100
H  39.78800 41.66200 30.43100
H  39.52400 43.60300 31.80800
H  41.11500 43.43300 32.41300
H  44.43300 35.42900 27.54900
H  44.93800 36.78300 28.55800
H  45.89900 36.29500 27.13700
H  46.32000 35.52900 25.04000
H  45.50600 34.30400 24.07400
H  44.97000 34.72900 25.65700
H  41.90900 40.20900 21.13500
H  43.53600 42.81500 21.47000
H  43.73500 39.46100 20.11400
H  44.87900 40.22900 21.32700
H  44.24500 41.09300 19.96900
H  40.60200 42.89300 21.39500
H  41.36700 41.94400 19.94600
H  40.68000 44.25400 19.54800
H  42.40600 44.11000 19.24700
H  41.72900 44.97500 20.72100
H  41.66600 47.19700 24.20800
H  40.75800 47.38600 25.60200
H  39.98700 46.65300 24.15500
H  39.90600 44.60300 29.66500
H  42.42500 45.67100 32.94700
H  41.42600 47.12400 32.80500
H  42.88300 46.95800 31.85200
Mg -4.99600 25.23700 26.13100
C  -3.36800 26.51200 28.91600
C  -6.69000 23.03300 28.37800
C  -6.14000 23.63700 23.49600
C  -2.80800 27.10800 24.14100
N  -4.98100 24.80200 28.27500
C  -4.35200 25.58800 29.21800
C  -4.72700 25.36000 30.64700
C  -5.50400 23.98700 30.46500
C  -5.74600 23.93700 28.93900
C  -4.80800 22.75500 31.00000
C  -5.58600 26.52400 31.37500
C  -6.04900 26.20900 32.81000
H  -5.24000 25.26500 33.63200
N  -6.32500 23.59700 25.95000
C  -7.01100 22.95600 26.99500
C  -8.03400 22.07400 26.30700
C  -7.91800 22.24100 24.84800
C  -6.79000 23.18300 24.71100
C  -8.91000 21.22900 27.21900
C  -8.72100 21.67000 23.68200
O  -8.44200 21.85100 22.49500
C  -9.91000 20.83700 24.01900
N  -4.57100 25.38700 24.14600
C  -5.09400 24.57600 23.24600
C  -4.43500 24.73900 21.86000
C  -3.70500 26.13700 22.00700
C  -3.67900 26.19900 23.52000
C  -3.58000 23.50000 21.28700
C  -4.33800 27.50700 21.40600
C  -3.43300 28.44800 20.57000
N  -3.42600 26.63100 26.41700
C  -2.60100 27.31900 25.53100
C  -1.60900 28.10100 26.26000
C  -1.96200 27.79500 27.64000
C  -3.01500 26.92400 27.64900
C  -0.54600 28.91200 25.76700
C  -1.45000 28.04100 28.99300
O  -0.59800 28.84700 29.43200
C  -2.47700 27.28700 29.90000
C  -1.68700 26.49700 30.81500
O  -0.95000 25.52400 30.56200
O  -1.73200 27.09300 32.08900
C  -0.66200 26.68800 33.01200
H  -7.31400 22.49500 29.09400
H  -6.45500 23.15000 22.57100
H  -2.21500 27.64800 23.39900
H  -3.95800 25.21800 31.40600
H  -6.45900 24.00800 30.99200
H  -4.41800 22.19300 30.15100
H  -5.60300 22.23800 31.53800
H  -4.01000 23.04600 31.68300
H  -6.56900 26.51200 30.90600
H  -5.21900 27.53900 31.22400
H  -7.08500 25.89000 32.69800
H  -6.07000 27.18700 33.29100
H  -8.66100 20.89200 28.22500
H  -9.23300 20.35900 26.64700
H  -9.74100 21.90800 27.41200
H  -9.67000 19.98000 24.64900
H  -10.34500 20.54700 23.06300
H  -10.52600 21.61600 24.46800
H  -5.37200 24.84300 21.31400
H  -2.65000 26.10600 21.73600
H  -3.83000 23.23400 20.25900
H  -3.57400 22.62900 21.94100
H  -2.53500 23.80800 21.28600
H  -4.67400 28.15500 22.21600
H  -5.24700 27.20500 20.88600
H  -2.83500 27.88400 19.85300
H  -3.02700 29.19800 21.24800
H  -4.15300 28.90200 19.88900
H  -0.95600 29.50200 24.94700
H  0.23200 28.27500 25.34700
H  -0.16400 29.59900 26.52100
H  -3.00400 28.09600 30.40500
H  -0.57000 27.52700 33.70200
H  0.30200 26.61700 32.50800
H  -0.79300 25.69400 33.44000

