158

Mg -2.03300 16.91100 26.45400
C  -2.37000 14.56000 29.07300
C  -2.96800 19.31700 28.74000
C  -2.34200 19.05900 23.87700
C  -1.92900 14.25700 24.16900
N  -2.71900 16.90600 28.73400
C  -2.56700 15.86200 29.59000
C  -2.73400 16.24300 31.06300
C  -2.86300 17.80500 30.91200
C  -2.96300 18.03600 29.37600
C  -4.08600 18.42900 31.73600
C  -1.73900 15.74200 32.23700
C  -1.67000 16.59100 33.47800
H  -1.24900 15.98500 34.76400
N  -2.32000 18.90600 26.36400
C  -2.72000 19.72400 27.40400
C  -2.71400 21.06400 26.88600
C  -2.61500 21.02800 25.53500
C  -2.35700 19.64500 25.17800
C  -2.98700 22.26600 27.78900
C  -2.84600 22.20300 24.54400
O  -2.98000 22.03500 23.34800
C  -3.13800 23.64600 24.94900
N  -2.26800 16.67000 24.33100
C  -2.32300 17.73900 23.53400
C  -2.30700 17.27700 22.06000
C  -1.78700 15.84300 22.16900
C  -1.95900 15.55800 23.63100
C  -3.68100 17.45900 21.33700
C  -0.36800 15.57400 21.75700
C  0.87600 16.08800 22.50100
N  -2.15500 14.82500 26.49100
C  -2.03000 13.85700 25.48000
C  -2.10800 12.53800 26.03800
C  -2.18500 12.75400 27.40200
C  -2.23700 14.13700 27.65000
C  -2.11500 11.27000 25.15700
C  -2.34200 12.08600 28.68800
O  -2.41400 10.90200 28.98000
C  -2.49000 13.26700 29.79900
C  -1.39500 12.97200 30.80200
O  -0.24500 13.44200 30.81000
O  -1.87800 12.05300 31.72400
C  -1.10900 11.57000 32.85600
H  -3.12800 20.13600 29.44400
H  -2.35600 19.69400 22.98900
H  -1.69900 13.54400 23.37500
H  -3.68700 15.89800 31.46500
H  -1.94700 18.33400 31.17300
H  -4.46300 17.69200 32.44500
H  -4.89900 18.66500 31.04900
H  -3.76100 19.31600 32.27900
H  -0.71700 15.67200 31.86400
H  -2.15000 14.77400 32.52300
H  -2.69700 16.90700 33.65800
H  -1.03400 17.46300 33.32600
H  -2.74400 22.15200 28.84600
H  -4.03600 22.55700 27.73000
H  -2.33700 23.09800 27.51900
H  -2.41300 23.91900 25.71700
H  -4.08500 23.54000 25.47800
H  -3.17600 24.32300 24.09600
H  -1.52900 17.89000 21.60600
H  -2.37300 15.06600 21.68000
H  -4.20800 18.14100 22.00400
H  -4.32500 16.58200 21.39200
H  -3.61500 17.78100 20.29700
H  -0.15200 15.69700 20.69600
H  -0.23900 14.49200 21.77000
H  1.44200 16.73500 21.83100
H  1.59000 15.30100 22.74700
H  0.57300 16.58000 23.42400
H  -1.43400 11.34100 24.30800
H  -3.12700 10.91400 24.96200
H  -1.62400 10.49100 25.74000
H  -3.51300 13.17000 30.16300
H  -0.14800 12.05500 33.02400
H  -0.84200 10.52300 32.71300
H  -1.68600 11.66200 33.77600
Mg 46.89700 16.24900 27.89000
C  44.77100 16.24200 30.69400
C  49.01200 18.37700 29.71200
C  48.39400 17.40100 24.98800
C  44.35100 15.04000 25.99600
N  46.81000 17.33900 29.87000
C  45.98300 17.02700 30.89100
C  46.44500 17.56800 32.21700
C  47.71900 18.39700 31.87800
C  47.88900 18.01800 30.40300
C  47.68100 19.87100 32.19400
C  46.87300 16.40600 33.16200
C  46.64700 16.57500 34.67400
H  46.29500 17.97200 35.19300
N  48.56300 17.61300 27.38900
C  49.33000 18.26600 28.34700
C  50.52600 18.71700 27.69800
C  50.42100 18.43200 26.28200
C  49.03500 17.84900 26.15900
C  51.66300 19.27300 28.43600
C  51.39000 18.77700 25.10400
O  51.20000 18.49700 23.92000
C  52.77400 19.33200 25.38900
N  46.50500 16.26200 25.78600
C  47.23600 16.68200 24.81600
C  46.84700 16.14500 23.43600
C  45.57800 15.34300 23.77700
C  45.42300 15.62100 25.32100
C  46.62700 17.29700 22.43500
C  45.70600 13.73600 23.43800
C  44.71600 13.21600 22.34700
N  44.99900 15.56500 28.24800
C  44.15000 14.98400 27.37000
C  42.92800 14.66100 28.09900
C  43.11800 15.09200 29.39900
C  44.36700 15.69100 29.45500
C  41.59800 14.08200 27.60100
C  42.55400 15.19200 30.82300
O  41.45800 14.84600 31.17400
C  43.63300 15.98100 31.68300
C  42.97900 17.17400 32.32700
O  42.73200 18.18800 31.69600
O  42.57500 17.00000 33.63200
C  41.97600 18.04900 34.42000
H  49.71900 18.91300 30.34800
H  48.90400 17.65200 24.05500
H  43.55300 14.61900 25.38000
H  45.70100 18.26700 32.59900
H  48.64400 18.03300 32.32600
H  47.83000 20.49400 31.31200
H  48.48900 20.15600 32.86700
H  46.69600 20.10700 32.59500
H  47.91900 16.14600 33.00200
H  46.31300 15.54300 32.80200
H  47.61300 16.27700 35.08300
H  45.93500 15.85200 35.07200
H  51.62100 19.57900 29.48100
H  51.82200 20.19400 27.87400
H  52.52000 18.64800 28.18400
H  53.32600 19.23800 24.45400
H  53.30400 18.78200 26.16600
H  52.71900 20.40200 25.59400
H  47.64400 15.47300 23.11700
H  44.69800 15.72400 23.25900
H  46.72300 18.20400 23.03200
H  45.65100 17.27600 21.95100
H  47.35000 17.32900 21.62000
H  45.38700 13.26700 24.36900
H  46.77200 13.52400 23.35200
H  45.08600 12.24500 22.01900
H  44.66800 13.90300 21.50200
H  43.71900 13.01400 22.73700
H  41.29200 14.83300 26.87200
H  40.98900 13.89300 28.48500
H  41.81700 13.11100 27.15700
H  43.96800 15.33300 32.49400
H  42.03600 17.88400 35.49500
H  40.91000 18.16600 34.22500
H  42.52900 18.97100 34.23900

