158

Mg 25.79600 -8.03000 47.56100
C  27.66600 -5.51600 46.41200
C  23.36100 -7.19700 45.18100
C  24.02300 -10.84100 48.40000
C  28.27500 -8.92400 49.94800
N  25.65000 -6.57100 45.86600
C  26.53000 -5.59800 45.67800
C  26.11800 -4.65500 44.50500
C  24.62600 -5.16800 44.11900
C  24.46100 -6.33700 45.17300
C  23.53300 -4.08100 44.19700
C  27.14000 -4.73500 43.37800
C  27.62000 -3.35100 42.81100
H  27.21600 -3.02200 41.38400
N  23.86400 -8.86900 46.93700
C  23.03100 -8.29300 46.01300
C  21.75500 -9.04100 46.05100
C  21.98800 -10.13700 46.96100
C  23.31600 -10.02000 47.50700
C  20.58500 -8.62900 45.11300
C  20.89100 -11.16400 47.18300
O  19.76900 -10.94300 46.80000
C  21.10400 -12.40200 48.03700
N  26.16900 -9.63500 48.87300
C  25.24000 -10.62700 49.09700
C  25.53900 -11.45900 50.29700
C  27.00500 -11.08000 50.63000
C  27.18200 -9.83600 49.74500
C  24.49400 -11.14900 51.47500
C  28.03400 -12.13400 50.15200
C  28.28900 -13.23500 51.17500
N  27.72600 -7.48900 48.05800
C  28.50900 -7.77600 49.13400
C  29.65200 -6.78800 49.11900
C  29.29500 -5.85800 48.08500
C  28.18300 -6.35900 47.47400
C  30.75000 -6.72100 50.11100
C  29.81300 -4.70700 47.42300
O  30.80700 -4.05500 47.57400
C  28.74100 -4.34700 46.35600
C  28.12300 -3.03000 46.64500
O  27.35300 -2.81800 47.59900
O  28.34100 -2.22000 45.58000
C  27.68000 -0.93800 45.72400
H  22.58800 -6.87000 44.48200
H  23.51900 -11.71500 48.81700
H  28.91100 -9.15000 50.80600
H  26.17500 -3.59300 44.74700
H  24.52300 -5.72000 43.18500
H  22.95300 -4.16700 43.27900
H  24.05900 -3.12800 44.13500
H  22.87200 -4.20600 45.05500
H  26.60700 -5.33100 42.63700
H  28.02000 -5.26200 43.74700
H  28.68300 -3.24500 43.03000
H  27.12900 -2.52700 43.32800
H  20.05800 -9.53000 44.80000
H  20.89800 -8.03000 44.25800
H  19.85400 -8.02500 45.65100
H  21.89800 -13.10900 47.79800
H  20.15200 -12.88600 47.81900
H  21.06100 -12.23100 49.11300
H  25.50900 -12.46200 49.87100
H  27.07300 -10.81900 51.68600
H  23.96600 -12.08600 51.65300
H  23.74600 -10.43400 51.13200
H  25.00800 -10.86700 52.39400
H  28.97300 -11.60800 49.98400
H  27.77000 -12.59500 49.19900
H  29.28700 -13.12200 51.59700
H  28.32500 -14.24100 50.75700
H  27.64200 -13.14200 52.04700
H  30.39000 -7.06500 51.08100
H  31.12400 -5.69900 50.04500
H  31.56800 -7.37100 49.80200
H  29.32100 -4.30700 45.43400
H  26.61400 -1.16100 45.67800
H  28.04900 -0.20200 45.01000
H  28.01300 -0.51800 46.67300
Mg -11.31600 16.01100 43.37100
C  -7.93400 17.13800 43.42300
C  -12.19100 19.23100 42.53800
C  -14.44300 14.97000 43.28300
C  -10.13700 12.71400 43.57100
N  -10.16800 17.95700 42.92100
C  -8.83700 18.14700 43.01600
C  -8.45600 19.53400 42.62800
C  -9.84800 20.25700 42.49700
C  -10.81800 19.06800 42.63700
C  -10.12100 21.49500 43.41500
C  -7.67800 19.42100 41.23900
C  -6.38800 20.16400 41.22600
H  -5.38600 19.72900 40.12800
N  -13.09200 17.03000 43.13700
C  -13.23500 18.34000 42.86800
C  -14.63300 18.68100 42.81900
C  -15.40000 17.45500 43.02800
C  -14.32700 16.41700 43.17200
C  -15.08300 20.13000 42.46000
C  -16.84400 17.31300 43.16900
O  -17.53700 18.26900 42.81500
C  -17.49400 16.15600 43.73900
N  -12.17200 14.08200 43.21100
C  -13.50100 13.98400 43.29100
C  -13.84400 12.52300 43.46000
C  -12.47000 11.73100 43.43400
C  -11.49300 12.88800 43.43900
C  -14.76000 12.18800 44.66100
C  -12.24300 10.82400 42.13400
C  -12.31600 9.29500 42.26700
N  -9.45100 15.07700 43.40200
C  -9.13500 13.72800 43.51700
C  -7.76300 13.54900 43.69500
C  -7.23700 14.88400 43.69800
C  -8.29400 15.77700 43.60700
C  -7.00600 12.27900 43.79900
C  -6.04600 15.69700 43.76200
O  -4.87700 15.36700 43.84200
C  -6.40900 17.25700 43.69700
C  -6.14800 17.92700 44.87400
O  -6.14900 17.44300 45.97000
O  -5.87900 19.28100 44.60800
C  -5.76700 20.15600 45.74700
H  -12.36800 20.28800 42.32800
H  -15.44200 14.54300 43.39800
H  -9.80200 11.67800 43.65700
H  -7.98900 19.96900 43.51000
H  -9.99700 20.66000 41.49500
H  -10.44000 22.42500 42.94400
H  -9.16500 21.72900 43.88300
H  -10.77700 21.14400 44.21200
H  -8.16900 19.88900 40.38600
H  -7.58100 18.36000 41.01000
H  -5.93900 20.03200 42.21100
H  -6.60700 21.23100 41.20800
H  -16.13800 20.04300 42.20000
H  -14.48600 20.70000 41.74800
H  -15.01600 20.59400 43.44400
H  -18.45200 16.46800 44.15300
H  -16.82900 15.86300 44.55100
H  -17.74400 15.42900 42.96600
H  -14.42300 12.16300 42.60900
H  -12.31700 11.14300 44.33900
H  -14.71700 12.92600 45.46300
H  -14.68400 11.19000 45.09200
H  -15.80000 12.22900 44.33900
H  -11.29300 11.15900 41.71600
H  -13.06800 11.17000 41.51100
H  -13.23200 8.89100 41.83700
H  -12.08800 8.99700 43.29100
H  -11.52300 8.80700 41.70000
H  -7.01700 11.82900 42.80700
H  -7.35400 11.66500 44.63000
H  -5.98600 12.59000 44.02800
H  -5.87400 17.79100 42.91100
H  -6.75600 20.50700 46.04200
H  -5.28000 21.10700 45.53500
H  -5.25900 19.70000 46.59700

