158

Mg 47.30600 24.73400 27.71600
C  48.18000 27.10900 30.24100
C  46.21500 22.65100 30.15900
C  46.81300 22.42100 25.31600
C  48.82200 26.86800 25.38400
N  47.15900 25.00600 29.94700
C  47.51500 26.01200 30.73200
C  47.23100 25.75900 32.26900
C  46.76800 24.25600 32.24500
C  46.69300 23.91800 30.65300
C  47.65100 23.27500 33.08400
C  46.18100 26.67800 32.86800
C  45.50500 26.12600 34.19000
H  45.56200 26.96600 35.47700
N  46.54700 22.72400 27.72500
C  46.15600 22.08900 28.85900
C  45.75200 20.73800 28.45000
C  45.80300 20.64500 27.00900
C  46.38800 21.98400 26.61000
C  45.49800 19.64400 29.46000
C  45.52400 19.55800 26.03000
O  45.66300 19.66200 24.83100
C  45.16100 18.26000 26.67300
N  47.89200 24.62700 25.74900
C  47.49200 23.60400 24.94500
C  47.94000 23.79200 23.52700
C  48.31300 25.26500 23.49900
C  48.44900 25.61000 24.98800
C  49.16200 22.83500 23.09200
C  47.30200 26.13200 22.74400
C  47.81100 26.97400 21.51100
N  48.36500 26.64300 27.70500
C  48.90500 27.29800 26.64000
C  49.38100 28.54100 27.21400
C  49.12200 28.54400 28.61900
C  48.60900 27.23600 28.86400
C  50.06600 29.66200 26.37000
C  49.38200 29.26900 29.82100
O  50.02800 30.26500 30.09800
C  48.73700 28.28300 30.90800
C  49.64300 28.03400 32.08000
O  50.66600 27.40700 32.07900
O  49.26500 28.88600 33.06900
C  49.95400 28.86900 34.36700
H  45.84800 21.89000 30.85200
H  46.60700 21.71700 24.50700
H  49.29500 27.51000 24.63800
H  48.17500 25.85800 32.80500
H  45.72900 24.07600 32.52300
H  48.48200 23.00100 32.43400
H  47.01500 22.45600 33.42200
H  48.08400 23.89900 33.86500
H  45.52600 27.14200 32.13100
H  46.72200 27.54900 33.23900
H  45.96800 25.16400 34.41300
H  44.43900 25.97600 34.01900
H  44.47700 19.35400 29.21100
H  45.31800 20.04000 30.46000
H  46.26100 18.87300 29.35600
H  44.10900 18.18400 26.94600
H  45.84700 17.98700 27.47500
H  45.35800 17.63100 25.80500
H  47.08800 23.61400 22.87100
H  49.32900 25.47900 23.16500
H  49.44000 22.18100 23.91900
H  49.96700 23.26900 22.50000
H  48.72500 22.08000 22.43900
H  46.91000 26.89600 23.41600
H  46.36800 25.59200 22.59200
H  47.69800 28.04700 21.66200
H  47.35900 26.73600 20.54800
H  48.89000 26.93500 21.35800
H  50.09700 30.55000 27.00200
H  49.42000 29.87500 25.51800
H  51.02700 29.30600 26.00100
H  47.93000 28.86900 31.34900
H  49.24700 28.70200 35.18000
H  50.25600 29.90000 34.55000
H  50.81100 28.19500 34.35700
Mg 30.43700 57.47400 40.94600
C  27.46900 55.57500 39.84000
C  32.34500 54.90400 39.90000
C  32.87000 59.50800 41.37600
C  28.02500 59.94800 41.73600
N  29.91400 55.52100 39.97900
C  28.71100 54.91000 39.62500
C  28.93000 53.45700 39.12500
C  30.47300 53.28100 39.32300
C  30.96400 54.60100 39.80700
C  30.91600 52.15300 40.25200
C  28.47100 53.13600 37.65300
C  28.88700 54.30100 36.68500
H  27.88000 55.30900 36.10500
N  32.41200 57.21800 40.69800
C  33.01900 56.08900 40.25600
C  34.43000 56.28600 40.46100
C  34.60600 57.64500 40.81700
C  33.25500 58.19800 41.01100
C  35.47100 55.12600 40.30000
C  35.91800 58.36100 41.16900
O  37.00700 57.78400 41.00500
C  36.02400 59.71400 41.83500
N  30.42100 59.42400 41.26800
C  31.65800 60.02200 41.50000
C  31.40100 61.54600 41.82300
C  29.88800 61.58600 42.26900
C  29.40800 60.23800 41.71900
C  32.30700 62.26800 42.87000
C  29.05000 62.81200 41.97100
C  28.02700 63.25700 43.06200
N  28.13100 57.71900 40.98800
C  27.35700 58.82700 41.28200
C  25.95400 58.59100 41.10800
C  25.98400 57.32800 40.54900
C  27.29200 56.83700 40.43800
C  24.81500 59.45200 41.51200
C  25.13200 56.25100 39.99700
O  23.91200 56.23000 39.89600
C  26.05200 55.06300 39.62000
C  25.67900 53.90300 40.42600
O  25.54800 53.88100 41.58500
O  25.58100 52.74200 39.64900
C  25.19500 51.56200 40.44800
H  32.94800 54.00800 39.73800
H  33.71600 60.17100 41.57100
H  27.36000 60.75500 42.05000
H  28.42200 52.85300 39.87600
H  30.91500 53.07200 38.34800
H  30.23200 51.33200 40.47100
H  31.06500 52.57400 41.24600
H  31.91500 51.84500 39.94200
H  27.43000 52.82200 37.72500
H  29.05200 52.25300 37.38700
H  29.32400 53.75800 35.84700
H  29.68600 54.93100 37.07600
H  36.47100 55.55700 40.24300
H  35.33600 54.72600 39.29500
H  35.31700 54.25700 40.93900
H  35.73900 60.54400 41.18900
H  37.06100 59.79500 42.16200
H  35.42700 59.60500 42.74000
H  31.50700 62.05400 40.86400
H  29.80100 61.41500 43.34200
H  33.27700 61.82400 43.09500
H  31.70700 62.33000 43.77700
H  32.55100 63.30600 42.64300
H  28.46700 62.65300 41.06400
H  29.68600 63.67100 41.75800
H  28.33700 64.14200 43.61700
H  27.82600 62.56400 43.88000
H  27.04700 63.40000 42.60700
H  24.37300 59.95400 40.65200
H  25.14500 60.34100 42.05100
H  24.07200 58.90300 42.09000
H  25.89900 54.82700 38.56700
H  24.87700 50.86300 39.67500
H  24.35600 51.76300 41.11300
H  26.13600 51.31900 40.94200

