158

Mg 54.36200 24.23100 45.37400
C  51.86100 26.20900 44.32800
C  52.50200 21.39800 44.37200
C  57.12200 22.21000 45.82500
C  56.03200 27.00100 46.67800
N  52.56000 23.92200 44.27200
C  51.64600 24.89000 43.94700
C  50.35700 24.34700 43.32700
C  50.36400 22.85900 43.95000
C  51.89100 22.67500 44.25000
C  49.46000 22.49200 45.16500
C  50.41600 24.48300 41.76800
C  49.18300 23.98300 41.07500
H  48.94900 24.20700 39.62100
N  54.80200 22.14200 45.06400
C  53.88900 21.17400 44.64100
C  54.58700 19.87900 44.55200
C  55.99100 20.08200 44.92400
C  56.02000 21.49700 45.26800
C  53.82800 18.61700 44.18600
C  57.05000 19.00000 44.91200
O  56.83900 17.88100 44.47400
C  58.38300 19.31200 45.46200
N  56.33500 24.50500 45.86800
C  57.23600 23.53800 46.10800
C  58.58800 24.23000 46.61800
C  58.10900 25.73700 47.03800
C  56.71800 25.79800 46.47300
C  59.40300 23.64000 47.78200
C  59.04200 26.88200 46.41200
C  58.88600 27.15200 44.93200
N  54.07600 26.25800 45.55800
C  54.77400 27.32200 46.14300
C  54.01200 28.53400 46.05800
C  52.84900 28.09800 45.38300
C  52.96400 26.73100 45.02800
C  54.31900 29.88700 46.48300
C  51.55500 28.55400 44.96500
O  51.06600 29.64100 45.15400
C  50.87800 27.36300 44.26600
C  50.53700 27.84500 42.91100
O  51.35200 28.36200 42.19500
O  49.23400 27.56900 42.57100
C  48.72000 28.04600 41.35900
H  51.93400 20.46600 44.33300
H  58.07200 21.69800 45.99100
H  56.50500 27.72900 47.34000
H  49.52100 24.83300 43.82900
H  50.09800 22.18400 43.13700
H  50.03400 21.93400 45.90400
H  48.66800 21.87800 44.73600
H  49.05000 23.40900 45.58800
H  51.23900 23.87800 41.38800
H  50.49900 25.54100 41.52000
H  48.26100 24.33600 41.53800
H  49.21500 22.90300 41.21200
H  53.51000 18.63800 43.14300
H  52.95900 18.51900 44.83700
H  54.23600 17.62000 44.35200
H  59.00900 18.42300 45.38400
H  58.46200 19.37300 46.54700
H  58.89600 20.03300 44.82600
H  59.27900 24.09500 45.78600
H  58.03600 25.77600 48.12500
H  60.38200 23.29600 47.45000
H  58.87500 22.75300 48.13300
H  59.61000 24.25900 48.65500
H  60.00300 26.39200 46.56800
H  59.06200 27.70500 47.12600
H  57.86500 27.35200 44.60900
H  59.23500 26.27700 44.38400
H  59.45200 28.03000 44.62100
H  53.47800 30.42900 46.91700
H  54.58900 30.52400 45.64100
H  54.94600 29.90400 47.37500
H  49.93100 27.03600 44.69600
H  48.78600 27.35200 40.52100
H  49.19800 28.97500 41.05000
H  47.73100 28.38000 41.67200
Mg 48.13900 34.74200 27.26200
C  46.35900 33.19100 29.80200
C  48.40500 37.58100 29.21000
C  49.53700 36.40500 24.55600
C  47.52700 32.05900 25.08200
N  47.57800 35.23200 29.26400
C  46.92500 34.38400 30.16500
C  47.02500 34.95200 31.57100
C  47.24500 36.53100 31.33600
C  47.74100 36.48700 29.82100
C  45.98100 37.37800 31.50200
C  48.21400 34.24000 32.34200
C  48.07400 34.06800 33.91100
H  48.82000 35.09700 34.76300
N  48.75600 36.77500 26.87600
C  48.77400 37.76500 27.83200
C  49.39800 39.02700 27.24600
C  49.92600 38.57100 25.99300
C  49.41100 37.20000 25.73100
C  49.52000 40.26900 28.12000
C  50.81300 39.35700 25.01400
O  51.30500 38.91300 23.96700
C  51.06300 40.84300 25.30700
N  48.58800 34.19000 25.09900
C  49.11200 35.09400 24.23200
C  49.16900 34.51600 22.83600
C  48.58800 33.08400 23.13800
C  48.15000 33.09100 24.50500
C  48.28200 35.40200 21.85400
C  49.41500 31.91900 22.63300
C  49.68700 31.87300 21.10500
N  47.10000 32.91300 27.36500
C  46.98100 31.96500 26.39500
C  46.17800 30.91200 26.94200
C  45.85700 31.30800 28.27400
C  46.50800 32.52600 28.50500
C  45.73100 29.69900 26.22500
C  45.14400 31.01500 29.56500
O  44.61500 29.95900 29.92700
C  45.29800 32.28500 30.48100
C  45.43100 31.95900 31.90100
O  46.32100 31.29900 32.44400
O  44.35900 32.48900 32.53100
C  44.31600 32.32900 33.99800
H  48.51600 38.40500 29.91800
H  49.98700 36.88300 23.68400
H  47.27200 31.22300 24.42700
H  46.06300 34.79700 32.05900
H  48.00600 36.73600 32.08900
H  46.12700 37.99800 32.38700
H  45.08500 36.75900 31.51400
H  45.90000 38.02600 30.62900
H  49.09200 34.81100 32.04100
H  48.38300 33.23500 31.95700
H  48.49000 33.14500 34.31300
H  47.01100 34.15600 34.13600
H  49.52000 41.16700 27.50200
H  50.48000 40.23300 28.63500
H  48.66000 40.34900 28.78500
H  51.57900 41.23400 24.43000
H  51.64900 40.87600 26.22500
H  50.13700 41.37600 25.52100
H  50.18000 34.53300 22.42900
H  47.67100 33.09600 22.54800
H  47.38400 34.83200 21.61700
H  48.82400 35.55000 20.92000
H  48.06700 36.33100 22.38300
H  48.94500 30.99800 22.97800
H  50.35900 31.96200 23.17600
H  49.29100 32.75600 20.60300
H  49.38900 30.93400 20.63700
H  50.77100 31.94600 21.01700
H  45.38100 29.00500 26.98900
H  46.54500 29.16400 25.73600
H  44.95400 29.91000 25.49100
H  44.32000 32.76300 30.41700
H  43.38700 32.74600 34.38500
H  45.05000 32.91700 34.54900
H  44.42700 31.27400 34.25000

