158

Mg 47.95600 15.82000 28.56500
C  45.96400 15.40400 31.57500
C  50.05000 17.67500 30.43000
C  49.23900 16.78400 25.74800
C  45.40300 13.96700 26.90400
N  48.08700 16.28900 30.81400
C  47.22800 15.91900 31.82200
C  47.79300 16.51800 33.15900
C  49.12200 17.24100 32.75000
C  49.13500 16.98200 31.26200
C  49.43200 18.66700 33.37700
C  48.13400 15.45200 34.29300
C  47.68900 15.64700 35.77900
H  47.82800 17.09500 36.48700
N  49.44200 16.98300 28.12600
C  50.21600 17.66500 29.05000
C  51.20200 18.43700 28.31700
C  50.96300 18.24500 26.93900
C  49.84700 17.29900 26.89100
C  52.33900 19.16500 28.96000
C  51.75700 18.68900 25.67800
O  51.67800 18.25400 24.51200
C  52.82000 19.71100 25.89100
N  47.45000 15.38100 26.64600
C  48.17800 15.91900 25.60300
C  47.86000 15.31200 24.22800
C  46.63000 14.33400 24.66100
C  46.47100 14.53400 26.17000
C  47.52900 16.38600 23.11500
C  46.98200 12.89100 24.33800
C  45.92100 12.19800 23.48100
N  46.10000 14.87200 29.04700
C  45.23100 14.12400 28.28800
C  44.01700 13.69500 29.10800
C  44.33000 14.16900 30.34000
C  45.56700 14.86900 30.30600
C  42.81500 12.94900 28.79900
C  43.84200 14.18700 31.71900
O  42.82100 13.64200 32.20400
C  44.91700 14.97000 32.57200
C  44.17300 16.06800 33.26300
O  43.82100 17.06200 32.63600
O  44.06800 15.76200 34.61300
C  43.55700 16.81000 35.37700
H  50.80400 18.23700 30.98600
H  49.77900 17.05000 24.83700
H  44.63000 13.44400 26.33600
H  47.07600 17.23500 33.55900
H  49.94800 16.63300 33.11900
H  49.14200 19.39200 32.61700
H  50.51000 18.75400 33.50800
H  48.95400 18.89100 34.33100
H  49.20300 15.24600 34.34900
H  47.60700 14.54000 34.01200
H  48.24000 15.07600 36.52600
H  46.67400 15.32200 36.00800
H  53.07300 18.36200 28.90000
H  52.20000 19.36800 30.02200
H  52.64200 20.13000 28.55500
H  52.29600 20.52500 26.39200
H  53.25200 20.00700 24.93500
H  53.54100 19.26600 26.57700
H  48.68400 14.71400 23.83900
H  45.74100 14.72300 24.16400
H  47.57400 15.87200 22.15500
H  48.17900 17.25900 23.05300
H  46.48700 16.69300 23.20400
H  47.10200 12.25300 25.21400
H  47.91100 12.78600 23.77900
H  45.29300 11.61100 24.15200
H  46.50900 11.53700 22.84400
H  45.24800 12.86800 22.94600
H  42.91200 12.49500 27.81300
H  42.02900 13.70300 28.75300
H  42.69500 12.24700 29.62400
H  45.39400 14.29600 33.28400
H  42.53900 17.06300 35.08300
H  44.30100 17.60400 35.30100
H  43.44900 16.43300 36.39400
Mg -9.56300 17.67400 41.62300
C  -5.98700 17.53800 41.52200
C  -9.18400 21.05400 40.59900
C  -12.73000 17.71800 40.99900
C  -9.61300 14.26100 42.45700
N  -7.78000 19.08000 40.96100
C  -6.43600 18.77100 40.98800
C  -5.60000 19.90800 40.50000
C  -6.65500 21.12300 40.66500
C  -7.96700 20.40000 40.68300
C  -6.35800 21.97400 41.94700
C  -5.18800 19.64100 39.05600
C  -3.77400 19.12600 38.93200
H  -3.50300 17.62500 38.51900
N  -10.80000 19.17100 41.00400
C  -10.47700 20.52700 40.60900
C  -11.68000 21.21500 40.29900
C  -12.72900 20.32800 40.47100
C  -12.11900 18.99200 40.74300
C  -11.58300 22.74700 39.85700
C  -14.15900 20.64700 40.08400
O  -14.55200 21.73800 39.87400
C  -15.15800 19.59100 39.85900
N  -10.90300 16.15400 41.51700
C  -12.18500 16.45600 41.35900
C  -13.01000 15.20200 41.46100
C  -12.08400 14.15000 42.06200
C  -10.78300 14.83600 41.86500
C  -14.32200 15.40600 42.31900
C  -12.18800 12.72500 41.38100
C  -12.40900 11.50500 42.25800
N  -8.15200 16.20200 42.01300
C  -8.31800 14.87900 42.46300
C  -7.03600 14.32200 42.77500
C  -6.10200 15.40100 42.43100
C  -6.83800 16.45300 41.98900
C  -6.81200 13.01500 43.25300
C  -4.71900 15.73100 42.36600
O  -3.73400 15.04800 42.60600
C  -4.56400 17.21300 41.91300
C  -4.07400 18.07100 43.05100
O  -4.87600 18.74100 43.70000
O  -2.73100 18.00600 43.22700
C  -2.08700 18.82500 44.21800
H  -9.02100 22.13200 40.66000
H  -13.80100 17.67500 40.78800
H  -9.81700 13.22500 42.73500
H  -4.71300 20.08500 41.10800
H  -6.74600 21.81800 39.83000
H  -6.73400 21.63600 42.91300
H  -6.76100 22.95900 41.71000
H  -5.27100 22.00800 42.01800
H  -5.25800 20.57700 38.50100
H  -5.89200 18.90800 38.66300
H  -3.19400 19.26600 39.84500
H  -3.28900 19.86300 38.29200
H  -12.32100 22.81200 39.05700
H  -10.61000 22.96500 39.41700
H  -11.94600 23.38800 40.66100
H  -16.04300 19.97000 39.34800
H  -15.51600 19.28500 40.84200
H  -14.83700 18.74700 39.24800
H  -13.34100 14.90600 40.46600
H  -12.27800 14.21900 43.13200
H  -14.04300 16.12100 43.09200
H  -14.43200 14.43600 42.80500
H  -15.07800 15.67800 41.58200
H  -11.18700 12.62600 40.96300
H  -12.83100 12.75700 40.50100
H  -11.49400 10.92800 42.39000
H  -13.15100 10.90500 41.73200
H  -12.65900 11.70600 43.30000
H  -6.51500 12.43700 42.37800
H  -7.70200 12.65100 43.76600
H  -5.95800 13.04300 43.93000
H  -3.91200 17.26300 41.04100
H  -1.53600 18.23800 44.95300
H  -2.76300 19.50600 44.73600
H  -1.49800 19.57900 43.69500

