158

Mg 8.97400 4.02600 27.07000
C  10.41900 2.58600 30.02100
C  6.85000 5.76100 29.27800
C  7.35100 5.16300 24.47000
C  10.62100 1.52300 25.17100
N  8.80300 4.23800 29.37300
C  9.52800 3.62100 30.33000
C  9.19400 4.12600 31.73200
C  7.98600 4.99500 31.51900
C  7.83100 4.96500 29.94500
C  6.67700 4.54600 32.29400
C  10.34800 4.89600 32.50000
C  10.54200 4.28300 33.93400
H  11.25000 5.09800 35.06100
N  7.45300 5.41800 26.89900
C  6.70700 5.98400 27.87800
C  5.70100 6.76400 27.28400
C  5.88000 6.71500 25.88200
C  6.94700 5.74600 25.67500
C  4.77600 7.55700 28.07000
C  5.07300 7.34000 24.79600
O  5.43000 7.22500 23.59700
C  3.80100 8.07000 25.11000
N  8.89300 3.28700 25.09200
C  8.31100 4.16000 24.15700
C  8.61000 3.64400 22.72200
C  9.70500 2.56600 22.94700
C  9.76600 2.39000 24.43800
C  7.33700 3.03000 22.11800
C  11.09700 2.81900 22.26500
C  11.51400 1.75600 21.20400
N  10.17000 2.39200 27.43400
C  10.82800 1.48700 26.55100
C  11.59600 0.59000 27.34200
C  11.45500 1.00000 28.62800
C  10.62300 2.09700 28.71300
C  12.37800 -0.49600 26.70900
C  11.95400 0.69800 29.89200
O  12.76800 -0.16300 30.27800
C  11.21300 1.68100 30.84100
C  10.41100 0.90700 31.79200
O  9.27000 0.50300 31.64800
O  11.14800 0.77900 32.89000
C  10.47400 0.40900 34.14100
H  6.13900 6.12600 30.02200
H  6.95000 5.53800 23.52700
H  11.25200 0.85000 24.58600
H  8.89700 3.19600 32.21600
H  8.15000 6.04400 31.76900
H  6.20900 5.44200 32.70200
H  6.83000 3.87100 33.13600
H  6.01300 4.15900 31.52100
H  10.09200 5.93600 32.70300
H  11.26000 4.70100 31.93600
H  11.22400 3.43900 33.83000
H  9.58100 3.84300 34.19900
H  5.22800 8.50900 28.35000
H  4.55300 6.98700 28.97200
H  3.79700 7.70000 27.61200
H  3.96300 9.10400 25.41700
H  3.10800 7.50400 25.73200
H  3.30500 8.24700 24.15600
H  8.97400 4.40000 22.02500
H  9.42200 1.59100 22.54900
H  6.64700 2.85400 22.94300
H  7.44300 2.02000 21.72200
H  6.81800 3.57800 21.33100
H  11.82400 2.71400 23.07000
H  11.20900 3.75200 21.71200
H  10.67400 1.11100 20.94800
H  12.28900 1.09700 21.59700
H  11.98100 2.16800 20.30900
H  11.95300 -0.84700 25.76800
H  12.26800 -1.39600 27.31400
H  13.43400 -0.22800 26.68900
H  11.97600 2.14400 31.46800
H  9.84300 -0.48000 34.17200
H  9.92700 1.30700 34.42900
H  11.24600 0.22800 34.88900
Mg 35.94100 48.99600 24.81900
C  36.23300 47.31400 27.95200
C  34.98700 51.81000 26.58900
C  35.33100 50.54600 21.96300
C  37.18600 46.20600 23.31000
N  35.50900 49.40100 27.03000
C  35.73400 48.60700 28.12900
C  35.42000 49.34200 29.41100
C  35.29100 50.75000 28.92700
C  35.23000 50.68900 27.39400
C  34.01000 51.53500 29.52400
C  36.46600 49.03700 30.49400
C  36.54800 49.94000 31.72200
H  35.25900 50.13800 32.56200
N  35.15200 50.91600 24.35300
C  34.86700 51.90800 25.15500
C  34.56300 53.12800 24.44200
C  34.52500 52.74000 23.08400
C  35.01500 51.35600 23.04800
C  34.39200 54.52100 25.06600
C  34.07400 53.55800 21.85100
O  34.03900 53.08100 20.72400
C  33.67700 54.99600 21.86100
N  36.14800 48.42600 22.89400
C  35.78600 49.24700 21.81400
C  36.24300 48.59400 20.49200
C  36.86100 47.23400 20.94600
C  36.74800 47.26300 22.44000
C  35.27000 48.49400 19.35200
C  38.27700 47.00600 20.23400
C  39.47900 47.41300 21.14900
N  36.66200 47.16000 25.44600
C  37.05800 46.12100 24.69800
C  37.47500 44.98600 25.51000
C  37.07100 45.40100 26.77500
C  36.65600 46.74500 26.70800
C  37.88500 43.66300 25.07700
C  36.97300 44.98900 28.15800
O  37.21400 43.93800 28.65800
C  36.45400 46.19200 28.96400
C  35.17400 45.83900 29.63500
O  34.08400 45.66200 29.10400
O  35.35300 45.62000 31.00300
C  34.18100 45.41200 31.86400
H  35.05500 52.77500 27.09600
H  35.42200 51.10300 21.02800
H  37.52100 45.31800 22.77000
H  34.49500 49.00200 29.87700
H  36.11200 51.38700 29.25700
H  34.20400 52.58900 29.72700
H  33.61200 51.01600 30.39600
H  33.18400 51.65400 28.82300
H  37.45100 48.74500 30.13000
H  36.16100 48.12300 31.00300
H  36.92200 50.92200 31.43300
H  37.29900 49.42300 32.31900
H  34.94000 55.32000 24.56700
H  34.65600 54.45300 26.12100
H  33.35200 54.84100 25.01100
H  33.15300 55.25400 22.78100
H  33.19200 55.22800 20.91300
H  34.68200 55.40400 21.75400
H  36.97900 49.29900 20.10700
H  36.16500 46.45800 20.62700
H  34.31500 48.90300 19.68200
H  35.10500 47.45200 19.07900
H  35.64200 48.94300 18.43200
H  38.41200 47.53200 19.28900
H  38.40700 45.94100 20.04000
H  40.26300 48.04600 20.73400
H  39.97600 46.50800 21.49700
H  39.08500 47.96500 22.00200
H  36.97200 43.08300 24.94400
H  38.51300 43.27900 25.88100
H  38.44000 43.73700 24.14200
H  37.13000 46.44900 29.77900
H  34.37900 44.49800 32.42200
H  33.23500 45.19900 31.36600
H  34.04200 46.28600 32.50100

