158

Mg 25.41100 1.40700 30.20700
C  27.71800 0.94300 32.92200
C  22.87600 1.72300 32.51300
C  23.27600 1.53700 27.65700
C  28.02600 0.55400 28.07100
N  25.33500 1.28700 32.51100
C  26.40400 1.26300 33.37500
C  25.92900 1.57300 34.84900
C  24.39700 1.70500 34.68100
C  24.14500 1.59000 33.14300
C  23.79600 0.48500 35.41100
C  26.68300 2.87100 35.49000
C  27.10300 2.85700 36.98700
H  26.39500 3.93300 37.88300
N  23.37200 1.59900 30.11500
C  22.52400 1.76600 31.18700
C  21.15200 1.93900 30.65000
C  21.23400 1.69000 29.27900
C  22.65900 1.54700 28.95500
C  19.86700 2.27600 31.37800
C  20.20000 1.66000 28.23900
O  20.45700 1.28900 27.13800
C  18.77100 1.91900 28.62600
N  25.49000 0.85800 28.12200
C  24.55600 1.30700 27.24400
C  25.11200 1.20600 25.77200
C  26.67000 1.06100 25.93900
C  26.78300 0.86400 27.47700
C  24.50200 0.22600 24.72900
C  27.52400 2.14600 25.31300
C  27.59400 3.59100 26.02700
N  27.43100 0.88300 30.38200
C  28.41700 0.56000 29.40900
C  29.72600 0.35100 29.99200
C  29.44500 0.51100 31.37400
C  28.11600 0.80800 31.52700
C  31.07400 -0.00200 29.31200
C  30.12600 0.46500 32.63600
O  31.29700 0.34800 32.92800
C  29.03800 0.91400 33.68200
C  28.89100 -0.14600 34.88100
O  28.10300 -1.06300 34.90500
O  29.64000 0.22800 35.96300
C  29.22300 -0.49900 37.18300
H  21.97900 1.88400 33.11400
H  22.61500 1.83000 26.83800
H  28.90100 0.49600 27.42000
H  26.14700 0.69000 35.45000
H  23.84300 2.51200 35.16200
H  24.36400 0.36900 36.33400
H  23.80900 -0.30700 34.66200
H  22.77100 0.67100 35.73400
H  25.98800 3.71000 35.51100
H  27.60300 3.21900 35.02000
H  28.14200 3.17800 37.05000
H  26.95600 1.89800 37.48500
H  19.29600 1.35100 31.29200
H  19.40000 3.17100 30.96800
H  19.93000 2.38200 32.46100
H  18.22300 1.85800 27.68500
H  18.74300 2.90400 29.09100
H  18.35600 1.14900 29.27600
H  24.94600 2.20800 25.37600
H  27.21700 0.21400 25.52300
H  24.00800 0.67800 23.86900
H  23.73700 -0.44800 25.11400
H  25.22000 -0.51200 24.37100
H  27.26800 2.32000 24.26700
H  28.57500 1.85600 25.32300
H  26.94800 3.55400 26.90400
H  27.19100 4.25400 25.26100
H  28.61900 3.86100 26.27900
H  31.00400 -0.46700 28.32800
H  31.50700 -0.71200 30.01700
H  31.74600 0.84300 29.16300
H  29.32400 1.90100 34.04300
H  29.68300 -1.47900 37.31400
H  28.14900 -0.63700 37.30400
H  29.56200 0.09400 38.03200
Mg 35.39900 2.89900 29.87000
C  33.19400 3.50300 32.52200
C  38.05800 3.03100 32.18400
C  37.37200 2.28900 27.44100
C  32.68800 3.25200 27.63300
N  35.56900 3.44100 31.98300
C  34.56300 3.47600 32.91100
C  35.04100 3.50200 34.38500
C  36.56100 3.83400 34.10600
C  36.82300 3.42300 32.66300
C  37.05200 5.24700 34.59800
C  34.79700 2.19000 35.18500
C  34.01400 2.34000 36.45400
H  34.41800 3.51100 37.38000
N  37.44300 2.58700 29.80800
C  38.35200 2.59600 30.86200
C  39.62000 2.17600 30.34800
C  39.52700 2.05400 28.93200
C  38.08500 2.26800 28.65400
C  40.83500 2.01600 31.24300
C  40.64000 1.81700 27.87100
O  40.37900 1.90500 26.67800
C  42.04700 1.55600 28.39900
N  35.06400 2.92800 27.87200
C  36.04700 2.53200 27.09800
C  35.71200 2.60900 25.59600
C  34.20800 2.89500 25.58900
C  33.95600 3.03200 27.17600
C  36.58800 3.67400 24.82300
C  33.28900 1.92300 24.76200
C  32.79100 0.64800 25.56200
N  33.36600 3.33200 30.03600
C  32.39700 3.40300 29.03900
C  31.13900 3.67400 29.60300
C  31.35600 3.69500 31.03100
C  32.74700 3.49100 31.24400
C  29.84300 3.87300 29.00200
C  30.77400 3.84700 32.38100
O  29.64400 4.07500 32.72600
C  31.95700 3.74300 33.38400
C  31.86300 5.04000 34.18700
O  32.42000 6.08100 33.92700
O  31.12000 4.85800 35.30000
C  31.10700 5.92500 36.35300
H  38.85900 3.04300 32.92500
H  37.96900 2.16400 26.53500
H  31.83300 3.19400 26.95600
H  34.58400 4.37900 34.84400
H  37.14100 3.23500 34.80800
H  36.27100 5.71600 35.19600
H  37.20700 5.83300 33.69200
H  38.00200 5.06400 35.10100
H  35.69800 1.65200 35.47800
H  34.24800 1.54300 34.50100
H  34.01900 1.47300 37.11500
H  32.94700 2.49100 36.28600
H  40.55400 1.95900 32.29500
H  41.61500 2.77200 31.15200
H  41.35800 1.06000 31.19700
H  42.03000 0.54900 28.81500
H  42.47400 2.21200 29.15800
H  42.72100 1.64500 27.54700
H  35.83400 1.59700 25.21200
H  34.16500 3.85400 25.07200
H  37.57000 3.26900 24.58100
H  36.65800 4.58400 25.41700
H  36.06300 3.88800 23.89100
H  33.85100 1.51400 23.92200
H  32.50600 2.49900 24.26800
H  33.27800 -0.22100 25.11900
H  31.70900 0.69700 25.43600
H  33.06200 0.51500 26.60900
H  29.65400 3.15600 28.20200
H  29.71900 4.91200 28.69800
H  29.02500 3.67600 29.69400
H  31.88300 2.99300 34.17300
H  31.96400 6.59200 36.44900
H  30.89000 5.40800 37.28800
H  30.38800 6.69100 36.06500

