158

Mg 47.76300 25.56400 28.41300
C  48.95000 27.78900 30.85400
C  46.63800 23.46500 30.82800
C  46.92900 23.50800 25.92600
C  49.63200 27.62900 26.01400
N  47.79500 25.64800 30.57300
C  48.34100 26.60000 31.38700
C  47.95000 26.28400 32.86100
C  47.44500 24.75700 32.80900
C  47.28300 24.57500 31.31100
C  48.38100 23.76500 33.46600
C  47.04100 27.42300 33.36500
C  47.69900 27.95400 34.74900
H  46.68400 28.29200 35.87600
N  46.75800 23.70500 28.36000
C  46.43400 23.01900 29.49800
C  45.84800 21.78700 29.05200
C  45.96800 21.74000 27.61600
C  46.59100 23.03800 27.22200
C  45.12800 20.81500 30.01700
C  45.66100 20.64400 26.62700
O  45.70500 20.78300 25.37900
C  45.09500 19.39900 27.10500
N  48.43300 25.50800 26.29500
C  47.77100 24.55400 25.51500
C  48.06300 24.83100 24.04800
C  48.85100 26.19500 24.01400
C  48.99200 26.49200 25.49500
C  48.87400 23.59100 23.29600
C  48.24600 27.38600 23.25100
C  49.24200 28.08200 22.30300
N  49.09800 27.29500 28.41700
C  49.72000 27.97600 27.39000
C  50.40600 29.14400 27.95300
C  50.12800 29.08600 29.32300
C  49.26900 28.00900 29.54300
C  51.31800 30.01700 27.24100
C  50.35300 29.70900 30.58500
O  51.08800 30.65400 30.81900
C  49.65600 28.85300 31.65400
C  50.55200 28.31300 32.68500
O  51.23700 27.30700 32.56100
O  50.50700 29.12700 33.83200
C  51.28500 28.70100 35.05200
H  46.30300 22.65700 31.48200
H  46.56800 22.88000 25.10800
H  50.18900 28.13600 25.22300
H  48.93700 26.32400 33.32300
H  46.47100 24.76400 33.29700
H  47.86200 23.21000 34.24700
H  49.28500 24.26100 33.81900
H  48.74400 22.96200 32.82500
H  45.99900 27.15700 33.54300
H  47.05200 28.18700 32.58800
H  48.22200 28.90500 34.64700
H  48.39500 27.25100 35.20600
H  44.12400 20.69500 29.61100
H  44.92200 21.20000 31.01600
H  45.77200 19.94000 30.10600
H  44.84900 18.68100 26.32300
H  44.18300 19.52100 27.68800
H  45.82400 18.87300 27.72200
H  47.07400 24.94700 23.60400
H  49.88000 26.05800 23.68100
H  49.11500 22.69400 23.86700
H  49.73200 24.10900 22.86800
H  48.16100 23.17600 22.58300
H  47.71000 28.10400 23.87200
H  47.52000 26.82200 22.66700
H  50.29000 27.81600 22.43900
H  49.09800 29.16300 22.29500
H  49.07700 27.85300 21.25000
H  50.69700 30.90600 27.12700
H  51.67900 29.55800 26.32000
H  52.17800 30.32100 27.83800
H  48.97000 29.54600 32.14000
H  52.26100 28.29300 34.78900
H  50.71100 27.86500 35.45100
H  51.25500 29.50900 35.78400
Mg 50.35500 35.53800 27.21300
C  47.94200 34.29600 29.51600
C  50.69300 38.34400 29.17700
C  52.17800 36.78200 24.78300
C  49.09900 33.24900 24.95400
N  49.46600 36.21400 29.09800
C  48.68500 35.38200 29.95800
C  48.69200 36.00700 31.36600
C  49.12400 37.48400 31.05000
C  49.84300 37.33600 29.71100
C  47.94300 38.52000 31.11600
C  49.70000 35.27500 32.30000
C  49.26900 35.23100 33.81100
H  48.24500 36.27600 34.34500
N  51.46900 37.24100 27.07600
C  51.53100 38.31700 28.00000
C  52.42000 39.38100 27.47500
C  52.86600 38.93400 26.20000
C  52.18000 37.60600 25.99400
C  52.79000 40.56400 28.32800
C  53.85400 39.54100 25.29600
O  54.11200 39.07600 24.22700
C  54.55700 40.81100 25.69400
N  50.73600 34.98100 25.22100
C  51.61600 35.62800 24.39400
C  51.73200 34.99400 23.06300
C  50.94500 33.69200 23.27500
C  50.15700 33.93600 24.58000
C  51.22400 35.96800 21.95100
C  51.87700 32.46000 23.32500
C  51.32200 31.20300 22.50700
N  48.81600 34.06500 27.15200
C  48.41700 33.23900 26.19200
C  47.34400 32.39000 26.61300
C  47.15800 32.75100 27.92700
C  48.01900 33.80200 28.17600
C  46.73000 31.28100 25.90500
C  46.38100 32.53200 29.14900
O  45.52100 31.71900 29.42100
C  46.85300 33.57800 30.21100
C  47.31400 32.72000 31.39000
O  48.39900 32.12500 31.43100
O  46.38000 32.67400 32.46600
C  46.72800 31.89600 33.59400
H  50.71300 39.22800 29.81700
H  52.66800 37.30600 23.96000
H  48.59200 32.50200 24.34000
H  47.68000 36.01900 31.76900
H  49.73600 37.77200 31.90400
H  47.96400 39.04700 30.16200
H  48.06500 39.26500 31.90100
H  46.99500 37.98300 31.14100
H  50.64100 35.82400 32.28000
H  49.94200 34.31200 31.85200
H  50.13100 35.34500 34.46800
H  48.94300 34.19900 33.94700
H  53.86800 40.55800 28.49000
H  52.27400 40.58000 29.28800
H  52.37000 41.42700 27.81300
H  53.82400 41.59700 25.87100
H  55.15200 41.25000 24.89300
H  55.27000 40.66700 26.50600
H  52.78000 34.84400 22.80600
H  50.25500 33.49900 22.45400
H  50.39100 35.35500 21.60800
H  51.97900 36.18100 21.19400
H  50.88800 36.89100 22.42500
H  51.86300 32.03400 24.32800
H  52.90700 32.66600 23.03400
H  52.21900 30.69000 22.16100
H  50.75700 31.40900 21.59800
H  50.72800 30.60200 23.19600
H  47.53900 30.70000 25.46300
H  46.01700 31.71100 25.20200
H  46.14500 30.59700 26.52000
H  46.01200 34.22900 30.45100
H  47.80100 31.80700 33.76200
H  46.21000 30.94500 33.46900
H  46.23500 32.40300 34.42400

