158

Mg 47.79800 24.52200 27.41200
C  48.94300 26.69200 29.82800
C  47.63000 22.06800 29.93400
C  47.02100 22.19600 25.08600
C  49.05700 26.57100 24.96700
N  48.07600 24.51500 29.69000
C  48.52000 25.52000 30.46800
C  48.38600 25.14600 31.98200
C  48.11600 23.61100 31.94000
C  47.92900 23.35200 30.47400
C  49.19500 22.70300 32.50900
C  47.27900 25.95400 32.72600
C  47.70700 26.56900 34.14200
H  46.68100 26.33800 35.37500
N  47.26200 22.47600 27.54500
C  47.25300 21.62600 28.63300
C  46.80900 20.32200 28.28600
C  46.36300 20.39600 26.91200
C  46.83600 21.73800 26.43400
C  46.96100 19.20700 29.30000
C  45.68200 19.39000 26.06000
O  45.46500 19.67500 24.86700
C  45.17600 18.00300 26.56100
N  48.27100 24.24600 25.22400
C  47.54700 23.31300 24.52100
C  47.76800 23.51500 23.00700
C  48.25300 25.01900 23.00000
C  48.58900 25.31000 24.45700
C  48.77000 22.47600 22.45000
C  47.20700 26.09700 22.48100
C  47.49800 26.49200 21.07500
N  48.58700 26.36800 27.30600
C  49.01100 27.07100 26.24600
C  49.62500 28.34500 26.72500
C  49.46800 28.26600 28.14500
C  48.92500 27.00300 28.42400
C  50.16100 29.40500 25.82700
C  49.62800 28.92200 29.38900
O  50.11000 29.99400 29.68300
C  49.22200 27.99700 30.53100
C  50.26300 27.92800 31.59900
O  51.34300 27.41500 31.57300
O  49.91400 28.82500 32.57700
C  50.70800 28.90400 33.82400
H  47.41600 21.49400 30.83800
H  46.80400 21.40100 24.36900
H  49.37400 27.28500 24.20400
H  49.36600 25.35900 32.40700
H  47.23600 23.35000 32.52900
H  49.83200 22.35300 31.69700
H  48.64100 21.91200 33.01400
H  49.77400 23.15900 33.31300
H  46.40400 25.33100 32.91400
H  46.95300 26.78500 32.10200
H  47.68600 27.65000 34.00700
H  48.72400 26.31800 34.44400
H  46.01200 18.99100 29.79200
H  47.71100 19.52000 30.02600
H  47.38300 18.33600 28.79800
H  45.93300 17.23000 26.69200
H  44.55500 17.65500 25.73600
H  44.58700 18.33100 27.41700
H  46.79800 23.39900 22.52300
H  49.19800 25.11800 22.46500
H  48.54100 22.39400 21.38700
H  48.70000 21.52200 22.97200
H  49.77500 22.78500 22.73600
H  47.26700 26.98600 23.10900
H  46.17300 25.75600 22.53800
H  48.31600 26.04100 20.51300
H  47.57800 27.57800 21.01400
H  46.64700 26.15400 20.48300
H  49.46400 29.67000 25.03200
H  51.05200 29.06400 25.30100
H  50.38800 30.22200 26.51200
H  48.32100 28.42000 30.97600
H  50.02100 29.01300 34.66300
H  51.08000 29.92800 33.81500
H  51.51500 28.20200 34.03500
Mg 26.91700 50.70100 27.16200
C  24.68800 51.78300 29.74800
C  28.96600 49.48200 29.77800
C  28.93000 49.52100 24.81100
C  24.90700 52.05600 24.75700
N  26.88800 50.77500 29.58700
C  25.78800 51.13400 30.30900
C  25.96300 50.65400 31.85000
C  27.38200 49.96400 31.76500
C  27.79300 50.09000 30.27600
C  28.54400 50.69400 32.56100
C  24.80000 49.69000 32.37900
C  24.27200 50.11200 33.78400
H  25.22900 50.43800 34.96100
N  28.63800 49.73700 27.24600
C  29.35000 49.36400 28.38800
C  30.64600 48.83400 27.95100
C  30.65600 48.83500 26.58200
C  29.36700 49.37500 26.16700
C  31.68400 48.49600 28.95400
C  31.84000 48.34700 25.61900
O  31.70900 48.48400 24.39900
C  32.97800 47.62100 26.15500
N  26.96200 50.85800 25.05200
C  27.82500 50.16300 24.29400
C  27.54300 50.34800 22.81000
C  26.20100 51.03600 22.78800
C  25.97000 51.36100 24.25400
C  28.66300 51.09900 22.11800
C  25.03400 50.21400 22.22600
C  24.79300 48.79300 22.77900
N  25.19300 51.73000 27.23600
C  24.48300 52.16000 26.14900
C  23.25100 52.79700 26.63100
C  23.27400 52.57900 28.02500
C  24.51500 52.04000 28.34600
C  22.08700 53.34700 25.78400
C  22.51700 52.84300 29.27700
O  21.42500 53.36100 29.54100
C  23.41900 52.26400 30.40300
C  23.64400 53.38100 31.31100
O  24.27900 54.37500 30.94000
O  23.03700 53.14400 32.54400
C  23.08600 54.17900 33.58600
H  29.67300 49.12700 30.53000
H  29.57400 48.96700 24.12300
H  24.25700 52.56400 24.04100
H  26.12400 51.55700 32.43900
H  27.34400 48.91000 32.03800
H  28.76200 50.15500 33.48300
H  28.24200 51.71900 32.78000
H  29.49600 50.80800 32.04300
H  25.08600 48.64700 32.51400
H  23.86700 49.59900 31.82200
H  23.63500 49.28400 34.09700
H  23.51000 50.88300 33.67400
H  31.51500 48.54100 30.03000
H  32.51000 49.17600 28.74400
H  32.03400 47.46500 28.92400
H  33.58600 48.22300 26.83000
H  33.50900 47.47400 25.21400
H  32.75100 46.71500 26.71600
H  27.51000 49.33200 22.41500
H  26.25400 51.97400 22.23700
H  28.85500 50.49800 21.22900
H  29.53300 51.16700 22.77100
H  28.37000 52.05500 21.68500
H  25.03400 50.15100 21.13800
H  24.05500 50.56900 22.54900
H  25.04200 48.69300 23.83600
H  25.49200 48.17600 22.21400
H  23.80900 48.37200 22.57000
H  21.80500 52.43400 25.25900
H  22.40300 54.18200 25.15900
H  21.25900 53.64700 26.42500
H  22.87700 51.44300 30.87300
H  24.13200 54.25700 33.88200
H  22.43800 53.91700 34.42200
H  22.67900 55.14300 33.27900

