158

Mg 2.23900 -3.04800 44.95900
C  5.36100 -1.82100 44.00600
C  0.76800 -0.73300 42.81300
C  -0.76700 -4.54700 45.64000
C  3.86000 -5.75900 46.49200
N  3.08400 -1.56700 43.31200
C  4.37600 -1.15400 43.33600
C  4.53800 0.02100 42.25700
C  3.10600 0.42100 42.11000
C  2.24600 -0.70000 42.75300
C  2.87400 1.72200 42.85400
C  5.33100 -0.56800 40.97600
C  6.69000 -0.03100 40.58700
H  7.08400 0.23000 39.15900
N  0.27300 -2.64100 44.35600
C  -0.12600 -1.71100 43.39500
C  -1.58600 -1.65500 43.50100
C  -2.05700 -2.76500 44.22000
C  -0.84500 -3.38300 44.84500
C  -2.36400 -0.63700 42.64700
C  -3.48500 -3.12700 44.51200
O  -4.43100 -2.57900 43.92100
C  -3.86000 -4.19400 45.56800
N  1.59300 -4.88500 46.01100
C  0.34600 -5.32000 46.07500
C  0.24800 -6.70600 46.61100
C  1.69800 -7.08400 46.79000
C  2.47000 -5.81300 46.47000
C  -0.75500 -6.89100 47.78200
C  2.17500 -8.20200 45.77200
C  3.19300 -9.19000 46.37100
N  4.12900 -3.68000 45.27000
C  4.64000 -4.75600 45.95700
C  6.08300 -4.69100 46.03800
C  6.43400 -3.52200 45.37400
C  5.19700 -3.02700 44.79400
C  7.00300 -5.56100 46.80800
C  7.55000 -2.65900 44.94800
O  8.78700 -2.77800 45.05500
C  6.87600 -1.49100 44.08900
C  7.11700 -0.25300 44.93200
O  6.33400 0.21400 45.72500
O  8.35300 0.26800 44.69400
C  8.67800 1.60300 45.22400
H  0.29300 0.17300 42.43000
H  -1.57600 -5.24600 45.86100
H  4.42900 -6.61400 46.86500
H  5.14000 0.78000 42.75600
H  2.83600 0.49000 41.05600
H  3.20200 1.66800 43.89200
H  1.80300 1.85500 42.69900
H  3.41600 2.53800 42.37800
H  4.69300 -0.33500 40.12400
H  5.51800 -1.64200 40.98900
H  7.40600 -0.75500 40.97600
H  6.97300 0.78100 41.25800
H  -2.81400 0.06300 43.35100
H  -3.17700 -1.12700 42.11200
H  -1.73800 -0.05900 41.96700
H  -3.70400 -5.15400 45.07600
H  -4.90900 -3.93100 45.70200
H  -3.28400 -3.98900 46.47000
H  -0.20300 -7.21200 45.75800
H  1.90300 -7.34400 47.82800
H  -1.27300 -5.96900 48.04500
H  -0.19800 -7.18600 48.67100
H  -1.44700 -7.63100 47.38100
H  2.68500 -7.89600 44.85800
H  1.36600 -8.85900 45.45100
H  2.77700 -10.16700 46.61700
H  3.68100 -8.77800 47.25500
H  3.89900 -9.31300 45.55000
H  7.66800 -6.10200 46.13400
H  6.57900 -6.22000 47.56700
H  7.63300 -4.87100 47.36900
H  7.41100 -1.38200 43.14600
H  7.82100 2.20300 45.53200
H  9.30500 2.16200 44.52900
H  9.30000 1.36800 46.08700
Mg 49.58500 47.68900 42.79900
C  46.33300 48.34200 41.40100
C  49.60000 44.77300 40.84500
C  52.82000 47.32600 43.52300
C  49.70900 51.06700 43.74900
N  48.15300 46.76300 41.25200
C  46.82800 47.12900 40.93700
C  46.17400 46.11000 39.95800
C  47.21500 44.95400 39.88700
C  48.41400 45.49900 40.71500
C  46.73100 43.50300 40.29600
C  45.64100 46.74500 38.59800
C  44.11000 46.48700 38.32000
H  43.50900 45.95500 37.02000
N  51.07000 46.28600 42.22300
C  50.88200 45.12000 41.50600
C  52.11600 44.41300 41.47500
C  53.04100 45.08100 42.32000
C  52.30800 46.26800 42.73500
C  52.32300 43.12600 40.72700
C  54.43300 44.62600 42.71800
O  54.92500 43.56800 42.21600
C  55.52700 45.35100 43.60800
N  51.08500 49.08600 43.50700
C  52.29800 48.55900 43.92000
C  52.99800 49.54100 44.85900
C  52.15300 50.88300 44.80700
C  50.91600 50.41200 43.94300
C  53.35800 49.05100 46.28800
C  52.88600 52.08100 44.03700
C  52.50500 53.53800 44.45500
N  48.25100 49.34700 42.73700
C  48.51700 50.63700 43.10800
C  47.33000 51.43500 42.84200
C  46.37500 50.54700 42.17600
C  47.02700 49.31500 42.13800
C  47.14000 52.88200 43.06200
C  45.04300 50.40600 41.57400
O  44.08700 51.18400 41.54600
C  44.93400 48.89400 41.29100
C  43.99000 48.18500 42.26600
O  44.17500 48.09600 43.46600
O  42.87900 47.82700 41.59100
C  41.93500 46.87500 42.09600
H  49.53800 43.78800 40.37700
H  53.80600 47.22600 43.98200
H  49.70400 52.05200 44.22100
H  45.29500 45.82500 40.53500
H  47.59300 44.96100 38.86500
H  45.65100 43.64900 40.25700
H  47.21900 43.25600 41.23800
H  47.12300 42.81800 39.54400
H  46.07900 46.22500 37.74600
H  45.85600 47.81400 38.57700
H  43.82500 47.53700 38.25500
H  43.64600 46.10800 39.23100
H  52.88200 43.42000 39.83900
H  51.36600 42.69800 40.43000
H  52.99800 42.43600 41.23300
H  55.60000 46.39500 43.30300
H  56.49700 44.89200 43.42000
H  55.34100 45.17000 44.66700
H  54.01100 49.62100 44.46300
H  51.79200 51.25900 45.76500
H  54.23700 49.57300 46.66600
H  53.49500 47.97100 46.22500
H  52.57600 49.22100 47.02700
H  52.60500 52.04900 42.98400
H  53.97000 51.96300 44.01000
H  51.96800 54.13100 43.71600
H  53.31800 54.10200 44.91400
H  51.84400 53.43400 45.31600
H  48.07600 53.38100 42.81300
H  46.84700 52.98200 44.10700
H  46.35300 53.37400 42.49100
H  44.61300 48.71000 40.26500
H  42.02400 46.53600 43.12800
H  41.74100 46.09900 41.35600
H  41.12700 47.60300 42.17000

