158

Mg 49.54700 34.74100 26.80900
C  47.44200 33.28200 29.28900
C  49.29500 37.65400 28.52300
C  51.05500 36.10800 24.28700
C  48.97600 31.86200 24.81400
N  48.60300 35.31400 28.86200
C  47.75400 34.55900 29.58800
C  47.25300 35.36300 30.85600
C  47.77400 36.86600 30.48100
C  48.60900 36.59900 29.22500
C  46.67800 37.89000 30.22000
C  47.76900 34.89700 32.24900
C  46.74100 34.98300 33.45300
H  47.26000 35.78500 34.63700
N  50.29700 36.46900 26.55900
C  50.10300 37.60000 27.34400
C  50.82700 38.77600 26.77900
C  51.49300 38.27200 25.59100
C  50.96700 36.89500 25.45900
C  50.91000 40.10900 27.45000
C  52.43900 38.98700 24.65600
O  52.69000 38.41500 23.60100
C  53.24100 40.25600 24.97300
N  49.98000 34.05500 24.86300
C  50.67300 34.80300 24.04000
C  50.98700 34.13500 22.68000
C  50.31100 32.75600 22.81800
C  49.68200 32.89200 24.22900
C  50.44800 35.03000 21.50600
C  51.20000 31.50900 22.50800
C  51.58200 31.27300 21.04500
N  48.57900 32.83000 26.97000
C  48.36800 31.76200 26.05200
C  47.61700 30.70200 26.66900
C  47.22500 31.28200 27.89700
C  47.80100 32.58300 28.04700
C  47.07800 29.31700 26.11600
C  46.32900 31.05200 29.04700
O  45.55600 30.13800 29.32000
C  46.46400 32.35700 29.99000
C  46.93500 31.81300 31.31800
O  48.07700 31.40900 31.53600
O  45.89000 31.74300 32.23100
C  46.22500 31.15700 33.58400
H  49.14000 38.66500 28.90600
H  51.63000 36.53900 23.46600
H  48.75000 30.98300 24.20600
H  46.16400 35.35300 30.81900
H  48.41600 37.30700 31.24300
H  46.87300 38.83800 30.72300
H  45.70000 37.68700 30.65600
H  46.60900 38.05900 29.14600
H  48.45400 35.61600 32.69800
H  48.17200 33.88500 32.21100
H  46.50800 34.03600 33.94000
H  45.80400 35.44500 33.14100
H  51.47300 40.02000 28.37900
H  49.89300 40.48800 27.54500
H  51.46000 40.85300 26.87300
H  52.76100 41.18300 24.65800
H  54.27000 40.22800 24.61600
H  53.36600 40.17100 26.05300
H  52.05900 33.94100 22.71900
H  49.49800 32.74000 22.09200
H  49.79000 34.44100 20.86600
H  51.23100 35.44600 20.87200
H  49.88600 35.80100 22.03300
H  50.66700 30.64900 22.91300
H  52.08800 31.68400 23.11600
H  51.04300 31.94600 20.37800
H  51.46800 30.25100 20.68500
H  52.63800 31.51400 20.92600
H  46.83600 28.63200 26.92900
H  47.97100 28.81600 25.74500
H  46.36400 29.39400 25.29600
H  45.50900 32.85900 30.14500
H  45.45600 31.04400 34.34900
H  46.90200 31.92500 33.95800
H  46.70100 30.19100 33.41900
Mg -11.06000 39.24900 41.14600
C  -9.65200 36.15100 40.33600
C  -8.45000 40.83500 39.48400
C  -12.88100 42.14400 41.15400
C  -13.80300 37.46000 42.22800
N  -9.28200 38.54000 40.12900
C  -9.00000 37.23900 39.74600
C  -7.76100 37.25900 38.80500
C  -7.15800 38.70700 39.07000
C  -8.40700 39.43100 39.59900
C  -6.03900 38.53000 40.12000
C  -8.18200 37.05700 37.40300
C  -7.23100 36.15400 36.56500
H  -7.02600 36.51600 35.10900
N  -10.71000 41.23800 40.51200
C  -9.57700 41.65200 39.84100
C  -9.64300 43.13800 39.71600
C  -10.83500 43.56500 40.30700
C  -11.55500 42.28100 40.62500
C  -8.55400 43.82300 39.02700
C  -11.19900 45.06600 40.50200
O  -10.35700 45.94800 40.23400
C  -12.45300 45.45800 41.15100
N  -13.06200 39.70600 41.41200
C  -13.56300 40.96900 41.43700
C  -14.99200 40.97500 41.84000
C  -15.33800 39.44900 42.04300
C  -14.03000 38.80200 41.79700
C  -15.31300 41.92200 43.10500
C  -16.45600 38.86700 41.13300
C  -17.87000 38.58500 41.75100
N  -11.60400 37.19500 41.40000
C  -12.70700 36.65700 41.92400
C  -12.56100 35.22800 42.03700
C  -11.31600 34.99600 41.42300
C  -10.82300 36.20800 40.99600
C  -13.51800 34.25700 42.66600
C  -10.36900 33.96900 41.13500
O  -10.32300 32.74300 41.37300
C  -9.25500 34.70900 40.25100
C  -7.94800 34.44900 40.97500
O  -7.38700 35.11900 41.83700
O  -7.39400 33.30600 40.39400
C  -6.23000 32.86800 41.11200
H  -7.56400 41.28900 39.03600
H  -13.38100 43.07100 41.44600
H  -14.69200 36.92700 42.57100
H  -7.09400 36.46500 39.14000
H  -6.92400 39.29900 38.18500
H  -6.17000 37.74000 40.86000
H  -5.89700 39.38600 40.78000
H  -5.15700 38.39300 39.49400
H  -8.14900 37.97900 36.82200
H  -9.18900 36.64300 37.36300
H  -7.47900 35.09300 36.61300
H  -6.26100 36.31300 37.03600
H  -8.57400 43.61000 37.95900
H  -7.59800 43.53800 39.46500
H  -8.70800 44.90100 39.09200
H  -12.44300 44.97000 42.12600
H  -13.31900 45.03700 40.64100
H  -12.57100 46.54100 41.19900
H  -15.63800 41.32700 41.03600
H  -15.74400 39.39300 43.05300
H  -14.55300 42.59800 43.49600
H  -15.59200 41.37000 44.00200
H  -16.21700 42.45200 42.80300
H  -16.23800 37.87100 40.74800
H  -16.66900 39.44400 40.23300
H  -17.74800 37.91100 42.59900
H  -18.60400 38.36800 40.97500
H  -18.10700 39.57500 42.14000
H  -13.54800 34.48100 43.73200
H  -13.29900 33.20500 42.48300
H  -14.57500 34.43200 42.46600
H  -9.17100 34.47000 39.19100
H  -6.04800 31.88800 40.67100
H  -6.42200 32.67800 42.16800
H  -5.45900 33.59500 40.85600

