158

Mg 0.55900 7.66800 26.17700
C  1.24900 9.92700 28.79700
C  1.17300 5.11200 28.31500
C  0.17200 5.59200 23.61400
C  0.66400 10.39100 24.02300
N  1.01900 7.57900 28.34700
C  1.15300 8.62500 29.23900
C  1.37300 8.06100 30.59300
C  1.58800 6.54300 30.40100
C  1.32500 6.36700 28.89100
C  2.97500 6.00000 30.80300
C  0.20200 8.48400 31.60800
C  0.29500 7.71700 32.93200
H  1.65600 7.48300 33.63500
N  0.58900 5.63000 25.96800
C  0.64200 4.73300 27.02100
C  0.19700 3.43900 26.56700
C  -0.15600 3.61300 25.19500
C  0.18400 4.98200 24.85100
C  0.08400 2.18100 27.46500
C  -0.72000 2.67100 24.15600
O  -0.83800 2.94300 22.95300
C  -0.87600 1.24800 24.48400
N  0.43300 7.99500 24.16800
C  0.35900 6.91500 23.28100
C  0.46800 7.41600 21.81500
C  0.13600 8.94100 22.02200
C  0.36700 9.13100 23.49700
C  1.74600 7.11000 21.04400
C  -1.25900 9.42400 21.58300
C  -1.16500 10.66600 20.66900
N  0.88900 9.75700 26.33500
C  0.84000 10.74700 25.38100
C  1.10500 12.07500 25.93900
C  1.22600 11.74500 27.30200
C  1.06600 10.36100 27.49700
C  1.17900 13.36700 25.26000
C  1.57600 12.35900 28.54700
O  1.92200 13.48800 28.82400
C  1.48600 11.17500 29.58300
C  2.73600 11.01600 30.43600
O  3.78800 10.43000 30.13300
O  2.59200 11.64100 31.62500
C  3.77200 11.65200 32.52400
H  1.38400 4.31500 29.03200
H  -0.10100 5.02200 22.72300
H  0.50100 11.21400 23.32400
H  2.27400 8.58700 30.91000
H  0.95500 5.88800 30.99900
H  3.70500 6.77900 31.02500
H  3.41300 5.47000 29.95700
H  2.87400 5.24500 31.58200
H  -0.72100 8.22400 31.09000
H  0.25400 9.56200 31.75900
H  -0.24500 6.79000 32.73800
H  -0.31300 8.28900 33.63300
H  0.61300 1.30100 27.09800
H  -0.94000 2.07200 27.82100
H  0.73000 2.38900 28.31800
H  0.06500 0.72800 24.66300
H  -1.35000 0.58300 23.76200
H  -1.44800 1.16100 25.40800
H  -0.33800 7.05800 21.17500
H  0.92500 9.48100 21.49800
H  1.52800 6.41500 20.23400
H  2.37400 6.51000 21.70300
H  2.36100 7.96800 20.77200
H  -1.88800 9.76000 22.40800
H  -1.82800 8.63900 21.08500
H  -1.66700 10.36700 19.74900
H  -0.11300 10.85100 20.45100
H  -1.66100 11.58400 20.98500
H  0.18100 13.80500 25.24400
H  1.57900 13.17900 24.26300
H  1.88200 13.91400 25.88900
H  0.61100 11.34600 30.21000
H  4.53500 12.31300 32.11100
H  4.07200 10.61600 32.68100
H  3.43900 12.16000 33.42900
Mg 47.77800 14.34700 27.38400
C  45.69200 14.39600 30.25300
C  50.03700 16.10000 28.97100
C  49.58300 14.41100 24.50600
C  45.03300 13.04200 25.58600
N  47.81800 15.24000 29.42100
C  46.89600 15.09500 30.47300
C  47.37500 15.70400 31.82700
C  48.67800 16.41400 31.27900
C  48.87800 15.89500 29.81600
C  48.55100 17.95400 31.33100
C  47.64500 14.63000 32.91400
C  47.51700 15.13800 34.35600
H  48.75600 14.96400 35.25800
N  49.66600 14.96800 26.89100
C  50.47200 15.64900 27.71300
C  51.79600 15.77800 27.12400
C  51.66600 15.18700 25.77700
C  50.27300 14.87400 25.65300
C  52.98000 16.25400 27.87000
C  52.71400 15.07000 24.69300
O  52.48200 14.59400 23.54400
C  54.02500 15.53400 24.89800
N  47.39200 13.76100 25.30000
C  48.28400 13.95000 24.33200
C  47.75900 13.26200 22.98000
C  46.39200 12.73000 23.39100
C  46.21900 13.21500 24.86200
C  47.81800 14.18000 21.78700
C  46.18200 11.15500 23.20100
C  46.97200 10.38500 24.28500
N  45.80900 13.78300 27.82600
C  44.74500 13.31200 26.94800
C  43.49300 13.13500 27.73100
C  43.89200 13.46900 29.00300
C  45.24000 13.94800 29.03200
C  42.23000 12.36500 27.27300
C  43.39100 13.58300 30.33600
O  42.29500 13.37900 30.76400
C  44.53600 14.23600 31.18800
C  43.99000 15.51800 31.81800
O  43.61000 16.48000 31.18200
O  44.05700 15.46800 33.18800
C  43.71100 16.72700 33.91600
H  50.88500 16.56300 29.48000
H  50.17500 14.35300 23.59000
H  44.21500 12.53800 25.06600
H  46.56800 16.39000 32.08700
H  49.52000 16.11200 31.90300
H  48.67700 18.28400 30.30000
H  49.30700 18.46900 31.92400
H  47.50700 18.20500 31.51400
H  48.67500 14.29000 32.80400
H  47.03200 13.74100 32.76500
H  46.86100 14.46400 34.90600
H  47.04900 16.12100 34.39500
H  53.61300 15.37300 27.97700
H  52.75100 16.37800 28.92900
H  53.42500 17.12400 27.38700
H  54.38800 15.10100 25.83000
H  54.07700 16.61700 25.00500
H  54.72800 15.25900 24.11100
H  48.47400 12.47700 22.73500
H  45.55500 13.02100 22.75700
H  48.33800 15.10900 22.01900
H  46.80300 14.47900 21.52800
H  48.34400 13.69800 20.96200
H  46.71100 11.02300 22.25700
H  45.16800 10.77900 23.06500
H  47.72500 9.79600 23.76100
H  46.34900 9.65100 24.79600
H  47.49400 11.03600 24.98600
H  41.86900 11.81900 28.14500
H  42.62000 11.58100 26.62500
H  41.48600 12.96400 26.74800
H  44.64900 13.54100 32.02100
H  43.08600 17.42900 33.36400
H  44.70500 17.09500 34.17100
H  43.18900 16.58000 34.86100

