158

Mg 31.11900 58.27300 39.65500
C  28.02400 56.41800 39.09300
C  32.80800 55.35400 38.83200
C  33.80900 60.06000 39.22100
C  29.13400 61.18400 39.80200
N  30.41400 56.15000 38.91400
C  29.15000 55.67500 38.85200
C  29.26300 54.28700 38.27000
C  30.70500 53.79900 38.81300
C  31.40400 55.20700 38.70300
C  30.70300 53.30800 40.33600
C  29.22100 54.44900 36.67100
C  28.11000 53.66200 35.92900
H  27.37200 54.28600 34.73900
N  33.13200 57.76400 39.16600
C  33.63100 56.53700 38.85900
C  34.94400 56.68500 38.44000
C  35.31200 58.04800 38.57900
C  34.05900 58.70300 39.04900
C  35.78700 55.56700 37.92200
C  36.69200 58.70100 38.27100
O  37.70100 58.02800 38.13800
C  36.86300 60.21600 38.13700
N  31.41700 60.28200 39.57700
C  32.67100 60.73800 39.55500
C  32.66000 62.21000 39.78100
C  31.11300 62.61200 40.09800
C  30.53100 61.22600 39.80800
C  33.63600 62.69700 40.83400
C  30.60000 63.77500 39.19800
C  29.73900 64.78800 39.89600
N  29.01800 58.69300 39.52700
C  28.38200 59.92800 39.72400
C  26.92300 59.67300 39.85700
C  26.77100 58.31000 39.59300
C  28.02300 57.83000 39.32800
C  25.84400 60.73800 39.97900
C  25.71700 57.29700 39.53600
O  24.51400 57.40700 39.74800
C  26.46100 56.07200 39.06800
C  26.10100 54.91200 39.93400
O  26.57600 54.69800 41.06900
O  25.20400 54.08700 39.30300
C  24.88600 52.87400 40.06000
H  33.32300 54.40100 38.69700
H  34.67600 60.72000 39.29500
H  28.53200 62.07700 39.98300
H  28.50900 53.61500 38.67900
H  31.13300 53.06700 38.12800
H  31.20000 53.92700 41.08300
H  31.17900 52.32800 40.30000
H  29.63500 53.25500 40.55000
H  30.16900 54.31500 36.15000
H  29.00700 55.50100 36.48700
H  27.33500 53.44100 36.66200
H  28.64300 52.78000 35.57400
H  35.17400 54.67800 37.77800
H  36.49500 55.47100 38.74500
H  36.17700 56.02300 37.01100
H  36.85700 60.53400 39.18000
H  36.11000 60.61500 37.45800
H  37.80800 60.49100 37.66900
H  32.86600 62.62000 38.79200
H  31.11600 62.93500 41.13900
H  34.55800 63.08600 40.40100
H  33.91600 61.84200 41.45000
H  33.20300 63.49400 41.43800
H  30.10500 63.37900 38.31200
H  31.35500 64.41100 38.73600
H  30.31500 65.62400 40.29500
H  29.14800 64.22900 40.62200
H  28.99600 65.23100 39.23300
H  26.13700 61.52600 39.28500
H  25.91000 61.12600 40.99500
H  24.82800 60.41300 39.75700
H  26.11800 55.78300 38.07500
H  24.48600 53.10600 41.04700
H  25.79800 52.27900 40.11800
H  24.26800 52.23500 39.42900
Mg -12.11700 38.41300 42.80600
C  -10.28500 35.68100 41.44400
C  -9.74100 40.57900 41.34000
C  -14.23000 40.96100 43.35200
C  -14.71200 36.13900 43.44700
N  -10.40500 38.15300 41.33900
C  -9.78700 36.95000 41.06200
C  -8.33300 37.14100 40.47400
C  -8.12100 38.70400 40.60800
C  -9.45500 39.16900 41.20000
C  -6.95800 39.09700 41.46100
C  -8.11400 36.48200 39.04500
C  -6.80500 35.66300 38.91400
H  -5.85700 36.21200 37.88400
N  -11.96500 40.48900 42.59000
C  -10.92100 41.17100 41.93700
C  -11.19600 42.60300 41.91400
C  -12.47000 42.75000 42.54600
C  -12.93800 41.39100 42.92400
C  -10.30400 43.68200 41.38600
C  -13.25900 44.05500 42.80500
O  -12.85700 45.11900 42.31900
C  -14.46000 44.06100 43.69800
N  -14.21400 38.56800 43.27800
C  -14.82500 39.69900 43.50700
C  -16.34800 39.52000 43.85400
C  -16.44800 37.95800 43.83300
C  -14.99900 37.52400 43.61100
C  -16.92900 40.13000 45.10000
C  -17.47700 37.44700 42.78900
C  -17.08500 37.26600 41.30300
N  -12.51100 36.28000 42.61700
C  -13.49900 35.50900 43.03300
C  -13.21200 34.10000 42.73000
C  -11.93900 34.09600 42.19400
C  -11.51800 35.46600 42.09400
C  -14.10900 32.90200 42.99000
C  -10.85800 33.28600 41.67000
O  -10.82700 32.09900 41.39300
C  -9.63100 34.31400 41.37000
C  -8.54000 34.19900 42.41100
O  -8.77700 34.24900 43.64100
O  -7.33400 34.12900 41.90200
C  -6.29200 33.89100 42.85700
H  -8.95400 41.32000 41.18600
H  -15.03000 41.69400 43.23000
H  -15.54900 35.47200 43.66800
H  -7.69600 36.64700 41.20700
H  -7.92700 39.06900 39.59900
H  -6.72300 38.40000 42.26500
H  -7.07400 40.07500 41.92800
H  -6.08600 38.99900 40.81500
H  -7.91500 37.33000 38.39000
H  -8.98400 36.07000 38.53500
H  -7.07200 34.61700 38.76200
H  -6.38600 35.77700 39.91400
H  -10.71700 44.65800 41.64200
H  -10.34800 43.71300 40.29800
H  -9.32700 43.65100 41.86900
H  -15.37500 43.77700 43.17900
H  -14.54300 45.08200 44.07200
H  -14.21800 43.52400 44.61500
H  -16.86000 39.86300 42.95500
H  -16.77300 37.58100 44.80200
H  -17.79000 40.77100 44.91400
H  -16.22400 40.66300 45.73800
H  -17.34000 39.35900 45.75200
H  -18.35000 38.08600 42.92900
H  -17.61200 36.43900 43.18000
H  -17.82400 37.67000 40.61000
H  -16.88400 36.21200 41.11100
H  -16.20300 37.88600 41.13700
H  -14.73300 32.72400 42.11500
H  -14.80600 33.17100 43.78400
H  -13.66500 31.92400 43.17800
H  -9.23300 34.06700 40.38600
H  -5.42000 34.45900 42.53300
H  -5.99500 32.84200 42.83000
H  -6.40600 34.11100 43.91900

