158

Mg 17.26000 52.12400 26.33700
C  19.17200 50.77300 28.99000
C  14.84500 52.82800 28.70700
C  15.11500 52.92700 23.83900
C  19.42100 50.75000 24.07500
N  17.09800 51.80200 28.59200
C  17.97900 51.34500 29.45100
C  17.52000 51.56600 30.97200
C  16.07400 51.98500 30.75200
C  16.00400 52.28900 29.22600
C  15.04600 50.92700 31.19400
C  18.45900 52.56200 31.78500
C  18.72900 52.23800 33.31200
H  17.62300 51.63300 34.03600
N  15.33000 52.94100 26.30700
C  14.49300 53.14400 27.34000
C  13.28800 53.73700 26.85300
C  13.33500 53.80400 25.43100
C  14.63800 53.18900 25.13400
C  12.18600 54.11600 27.86100
C  12.34000 54.35200 24.44100
O  12.53200 54.51800 23.20900
C  10.99800 54.89200 24.90900
N  17.26700 52.02200 24.27800
C  16.26900 52.26000 23.42800
C  16.61000 51.88400 21.99500
C  18.08700 51.45400 22.09600
C  18.30600 51.44800 23.56700
C  15.77800 50.99000 21.11700
C  18.94200 52.48800 21.36400
C  19.24000 53.91000 21.91500
N  19.01100 51.14700 26.43200
C  19.81300 50.62200 25.40700
C  20.91300 49.92800 25.90800
C  20.73200 49.96800 27.32000
C  19.56100 50.74400 27.60800
C  22.09600 49.39800 25.09800
C  21.31000 49.54800 28.55000
O  22.26900 48.87200 28.81800
C  20.41700 50.18600 29.68000
C  20.12300 49.04200 30.76700
O  19.51000 48.00300 30.64300
O  20.56900 49.43300 31.96800
C  20.51100 48.49500 33.06900
H  14.09700 53.00200 29.48300
H  14.55900 53.29000 22.97300
H  20.07000 50.35800 23.28900
H  17.48400 50.60500 31.48700
H  15.83200 52.90700 31.28000
H  15.52100 50.13500 31.77300
H  14.66300 50.38000 30.33300
H  14.23600 51.34800 31.78900
H  18.06200 53.57100 31.67400
H  19.40800 52.51000 31.25100
H  18.99200 53.22600 33.69000
H  19.55200 51.54400 33.48000
H  12.37300 55.18300 27.97900
H  12.32700 53.51200 28.75800
H  11.17200 53.93500 27.50700
H  11.14300 55.70200 25.62400
H  10.48400 54.03400 25.34300
H  10.45200 55.35800 24.09000
H  16.60700 52.88200 21.55800
H  18.33300 50.47200 21.69200
H  16.22400 50.10300 20.66600
H  15.26500 51.61500 20.38600
H  14.99300 50.59100 21.75900
H  18.46900 52.65500 20.39600
H  19.92600 52.03300 21.24900
H  20.23800 54.08900 22.31500
H  18.43600 54.29100 22.54500
H  19.13100 54.58800 21.06900
H  22.10500 49.99400 24.18600
H  21.79600 48.35900 24.96200
H  23.02700 49.37900 25.66500
H  21.07100 50.96400 30.07200
H  21.22700 48.91300 33.77700
H  20.66300 47.41700 33.03300
H  19.55300 48.46300 33.58700
Mg -5.60600 24.88700 26.95000
C  -4.59000 26.76900 29.75100
C  -7.37500 23.05300 29.16600
C  -6.87500 23.24300 24.33300
C  -3.79500 26.96400 24.96800
N  -5.86800 24.93800 29.21800
C  -5.45600 25.81900 30.12900
C  -6.07400 25.55700 31.52000
C  -6.76100 24.16300 31.31600
C  -6.67800 24.00600 29.79800
C  -6.13700 22.87900 32.06300
C  -7.00800 26.70900 31.98000
C  -7.06100 27.19600 33.53900
H  -6.52000 26.23100 34.61200
N  -6.98800 23.38000 26.72100
C  -7.69100 22.79700 27.79000
C  -8.63400 21.82100 27.21300
C  -8.48000 21.80700 25.76600
C  -7.44500 22.89200 25.56500
C  -9.56100 20.95900 28.09500
C  -9.10300 20.95000 24.73200
O  -9.06600 21.27100 23.53000
C  -10.07500 19.90200 25.14200
N  -5.26800 25.00500 24.95300
C  -5.92300 24.19100 24.07200
C  -5.36800 24.44400 22.61600
C  -4.45300 25.68900 22.84700
C  -4.50000 25.87700 24.37000
C  -4.56200 23.25600 22.02600
C  -4.92600 27.01600 22.00500
C  -4.10000 27.22100 20.70900
N  -4.35100 26.46600 27.23600
C  -3.69100 27.25300 26.27400
C  -2.96200 28.25000 26.92900
C  -3.23500 28.08200 28.31700
C  -4.16400 27.07800 28.45300
C  -2.02600 29.20300 26.28900
C  -3.00200 28.63600 29.61500
O  -2.34000 29.57200 30.03400
C  -3.94300 27.87600 30.62600
C  -3.16700 27.38600 31.80300
O  -2.44100 26.41500 31.84900
O  -3.21200 28.28800 32.88300
C  -2.25800 28.20900 34.02700
H  -7.79100 22.32400 29.86400
H  -7.12000 22.55100 23.52500
H  -3.25400 27.60500 24.26900
H  -5.32700 25.35500 32.28800
H  -7.79800 24.08900 31.64300
H  -5.35400 23.31400 32.68500
H  -5.77000 22.14300 31.34800
H  -6.91800 22.50700 32.72600
H  -8.01900 26.51000 31.62400
H  -6.57300 27.56000 31.45400
H  -8.05600 27.52200 33.84200
H  -6.54300 28.14500 33.68000
H  -9.44400 19.93300 27.74900
H  -10.57800 21.33900 28.00500
H  -9.36900 21.00700 29.16700
H  -9.81300 19.22200 25.95200
H  -10.45900 19.26700 24.34300
H  -10.98100 20.37200 25.52500
H  -6.24300 24.62400 21.99300
H  -3.40000 25.47000 22.67500
H  -4.32100 22.44800 22.71700
H  -3.61100 23.58600 21.60800
H  -5.22900 22.87600 21.25200
H  -4.93700 27.93000 22.59900
H  -5.93300 26.89600 21.60500
H  -3.35900 26.46100 20.46000
H  -3.52100 28.14300 20.75700
H  -4.72700 27.30800 19.82200
H  -1.43500 29.64200 27.09400
H  -2.38100 29.93400 25.56300
H  -1.26900 28.62500 25.76000
H  -4.72300 28.56400 30.95400
H  -1.29400 27.78200 33.75000
H  -2.61000 27.75300 34.95200
H  -1.99300 29.21300 34.35900

