158

Mg 25.36900 50.44800 26.87900
C  23.11100 51.15900 29.58900
C  27.64800 49.35700 29.05700
C  27.57700 50.50400 24.32400
C  23.03200 52.04400 24.73300
N  25.34900 50.35400 29.03900
C  24.38100 50.70000 29.98100
C  24.95100 50.48100 31.39300
C  26.28000 49.77800 31.17000
C  26.50700 49.92100 29.66100
C  27.40900 50.25000 31.98900
C  23.95200 49.69600 32.35900
C  24.43800 49.37700 33.81300
H  24.13000 50.28600 34.99500
N  27.27400 50.00600 26.72200
C  28.11200 49.50000 27.73400
C  29.35900 49.11000 27.19200
C  29.35100 49.56900 25.84300
C  28.00900 50.09900 25.62100
C  30.35100 48.25700 28.00300
C  30.52300 49.53200 24.85900
O  30.49500 49.93200 23.70000
C  31.81900 49.05500 25.40200
N  25.24500 51.01500 24.74800
C  26.34200 50.95900 23.90600
C  26.11100 51.79100 22.59900
C  24.56600 51.93900 22.62400
C  24.21400 51.58600 24.06900
C  26.92600 53.05600 22.41200
C  23.77000 51.08100 21.67100
C  23.43500 49.64600 22.15100
N  23.43100 51.34600 27.06200
C  22.62000 51.89700 26.08200
C  21.32500 52.26400 26.65500
C  21.53300 52.09400 27.98500
C  22.77100 51.46000 28.24800
C  20.20000 52.79900 25.89000
C  20.85300 52.33700 29.23000
O  19.79000 52.88800 29.53600
C  21.86900 51.70100 30.31800
C  22.22300 52.78400 31.23200
O  23.12600 53.58200 31.19600
O  21.30300 52.77200 32.27100
C  21.46600 53.95900 33.12000
H  28.28100 48.90400 29.82300
H  28.40600 50.57500 23.61700
H  22.32100 52.50800 24.04600
H  25.24100 51.44100 31.82100
H  26.19800 48.69700 31.28500
H  28.09000 49.47500 32.34100
H  26.99600 50.86500 32.78900
H  28.01700 50.98600 31.46400
H  23.36200 48.96400 31.80700
H  23.22900 50.46200 32.63900
H  25.47200 49.03600 33.85200
H  23.87300 48.50200 34.13500
H  30.36300 47.22500 27.65300
H  30.12400 48.28100 29.06900
H  31.36600 48.65400 27.98500
H  31.87300 48.04500 25.80800
H  31.95400 49.73500 26.24400
H  32.63400 49.16800 24.68800
H  26.34400 51.10600 21.78300
H  24.11100 52.91400 22.45100
H  27.43900 53.22000 23.35900
H  26.39500 53.96900 22.14400
H  27.69600 53.01400 21.64100
H  24.20300 50.99000 20.67500
H  22.80800 51.59300 21.70200
H  24.00300 49.30700 23.01700
H  23.53400 49.01900 21.26500
H  22.37400 49.56900 22.39100
H  20.22200 52.43500 24.86200
H  20.32800 53.87700 25.98600
H  19.35700 52.55200 26.53500
H  21.43000 50.90500 30.92000
H  22.38100 53.87600 33.70700
H  20.61200 53.98600 33.79600
H  21.40400 54.91700 32.60400
Mg 5.57000 56.72500 42.98700
C  5.03100 53.16300 42.83200
C  8.50600 56.17500 41.38400
C  5.77300 60.05100 42.46400
C  2.30000 57.02100 44.10500
N  6.45400 54.86200 42.00800
C  6.15400 53.52600 42.15300
C  7.10800 52.62300 41.38400
C  8.42600 53.57500 41.47200
C  7.77300 54.96600 41.55300
C  9.33500 53.35900 42.81000
C  6.66100 52.33800 39.81700
C  7.08600 51.04100 39.24800
H  6.12000 50.33400 38.29800
N  7.02800 57.93100 42.13400
C  8.19100 57.53000 41.55900
C  8.91400 58.62300 40.94100
C  8.08900 59.79200 41.16100
C  6.86900 59.28800 41.90900
C  10.36000 58.49200 40.31900
C  8.40800 61.21700 40.69600
O  9.52000 61.41200 40.17000
C  7.45700 62.33600 40.81300
N  4.20500 58.23000 43.08200
C  4.57600 59.57200 42.99700
C  3.57600 60.45000 43.73200
C  2.37600 59.49600 44.16900
C  3.03500 58.14500 43.75100
C  4.22900 61.35300 44.77300
C  0.98100 59.84300 43.56800
C  -0.14500 60.21300 44.65300
N  3.94000 55.42900 43.41400
C  2.68700 55.70900 43.92800
C  1.97200 54.49700 44.16500
C  2.87000 53.50500 43.84000
C  4.06000 54.06700 43.35700
C  0.64300 54.33800 44.69800
C  3.13500 52.06000 43.93300
O  2.45100 51.18100 44.41000
C  4.57300 51.77000 43.32800
C  4.52200 50.70600 42.30300
O  3.77900 50.62300 41.32700
O  5.31900 49.59300 42.67900
C  5.23100 48.36200 41.92200
H  9.55400 55.99900 41.13000
H  5.96300 61.12300 42.54400
H  1.31700 57.23300 44.53000
H  7.24300 51.71000 41.96400
H  9.01700 53.44800 40.56600
H  10.38900 53.40700 42.53700
H  9.10400 52.31200 43.00800
H  9.10400 54.03300 43.63500
H  7.17200 53.08000 39.20400
H  5.58100 52.46700 39.74300
H  7.44400 50.23500 39.88800
H  8.04500 51.31400 38.80600
H  10.21200 58.85900 39.30400
H  10.60800 57.44000 40.17800
H  11.12200 58.91600 40.97300
H  6.58500 61.82200 40.41000
H  7.81000 63.16300 40.19600
H  7.24200 62.80200 41.77400
H  3.18100 61.09200 42.94500
H  2.30200 59.44100 45.25500
H  5.31800 61.36000 44.73500
H  3.82300 61.12100 45.75700
H  3.98100 62.34100 44.38500
H  0.68000 58.94500 43.02900
H  0.88700 60.73500 42.94800
H  0.21300 60.21200 45.68200
H  -0.75800 59.31400 44.71900
H  -0.78100 61.09300 44.55400
H  -0.06200 54.40000 43.86900
H  0.53900 55.09800 45.47200
H  0.68500 53.35100 45.15900
H  5.19200 51.44800 44.16500
H  4.31800 48.13600 41.37100
H  5.37400 47.53600 42.61900
H  6.03900 48.34700 41.19100

