158

Mg 48.47600 15.64700 29.34700
C  46.32800 15.29300 32.13700
C  50.61100 17.37600 31.33300
C  50.33500 15.99900 26.63700
C  45.77700 14.38200 27.29700
N  48.53300 16.12800 31.43100
C  47.60500 15.83900 32.43100
C  48.04400 16.19300 33.84600
C  49.29700 17.10800 33.58600
C  49.49500 16.94700 32.04500
C  49.15700 18.59700 33.95500
C  48.34900 14.89800 34.52800
C  48.04700 14.93100 36.05700
H  47.85200 16.22500 36.83000
N  50.28100 16.45500 29.04300
C  51.06400 17.10500 30.03700
C  52.27200 17.46600 29.44500
C  52.30200 16.98400 28.08200
C  50.92300 16.43600 27.85200
C  53.44300 18.08100 30.19500
C  53.44400 17.00100 27.01200
O  53.26400 16.55700 25.85900
C  54.79100 17.48800 27.45200
N  48.11600 15.19700 27.28100
C  49.10900 15.37100 26.41400
C  48.59600 14.87400 25.00000
C  47.25900 14.16100 25.29000
C  47.00300 14.60900 26.71200
C  48.48100 16.10400 24.06000
C  47.22500 12.62500 25.12400
C  46.41600 12.12200 23.95900
N  46.46700 15.04100 29.59600
C  45.48000 14.66600 28.67900
C  44.24000 14.30500 29.35000
C  44.59200 14.48800 30.71800
C  45.93700 14.97200 30.78800
C  43.01500 13.70000 28.73100
C  44.04800 14.50400 32.03200
O  42.93100 14.26600 32.44900
C  45.19600 14.92000 33.03200
C  44.60900 16.11300 33.76500
O  44.51500 17.24400 33.22600
O  44.13300 15.87000 35.03200
C  43.57200 16.95500 35.78900
H  51.23900 18.01800 31.95400
H  50.95800 16.16900 25.75700
H  44.91000 14.08000 26.70600
H  47.23100 16.78900 34.26200
H  50.08400 16.57900 34.12300
H  48.16200 18.79800 34.35300
H  49.32100 19.25800 33.10400
H  49.87800 18.84900 34.73300
H  49.35200 14.52600 34.31800
H  47.65900 14.12100 34.19900
H  48.89700 14.40800 36.49600
H  47.19600 14.28500 36.27200
H  53.78000 18.97200 29.66300
H  54.24400 17.35300 30.07000
H  53.37300 18.27100 31.26600
H  55.23700 16.76700 28.13800
H  54.76700 18.54500 27.71600
H  55.38300 17.45000 26.53700
H  49.21800 14.08200 24.58400
H  46.51600 14.48900 24.56300
H  49.09400 16.93600 24.40800
H  47.49300 16.55500 23.97100
H  48.81600 15.80000 23.06800
H  46.84300 12.22700 26.06400
H  48.24800 12.25800 25.04000
H  46.92900 11.41400 23.30900
H  45.95800 12.92900 23.38700
H  45.52700 11.61000 24.32800
H  42.34900 14.52800 28.97300
H  42.67400 12.77100 29.18900
H  43.05500 13.65900 27.64300
H  45.44900 14.23900 33.84400
H  42.52800 16.95500 35.47400
H  43.97500 17.91700 35.47200
H  43.71700 16.71200 36.84100
Mg 26.92400 49.92300 26.23100
C  25.02500 51.08200 29.04900
C  29.43400 49.07900 28.41000
C  28.57800 48.82800 23.69400
C  24.40500 51.19700 24.17300
N  27.28100 50.38500 28.55100
C  26.23600 50.48700 29.46000
C  26.57500 49.88200 30.81400
C  28.02200 49.44800 30.66700
C  28.31100 49.62900 29.12000
C  29.13100 50.06500 31.50300
C  25.54500 48.79600 31.25300
C  25.02500 48.96000 32.66900
H  25.79200 49.83700 33.65600
N  28.79900 49.23700 26.02500
C  29.68900 48.91000 27.02600
C  30.85800 48.32000 26.43500
C  30.67700 48.34800 25.01400
C  29.28500 48.84100 24.88300
C  32.13100 47.79700 27.24200
C  31.69300 47.97400 23.94200
O  31.46400 48.14600 22.74900
C  33.03000 47.39600 24.30400
N  26.68900 50.26400 24.13600
C  27.43700 49.45800 23.26800
C  26.70200 49.36000 21.94500
C  25.44800 50.14500 22.03800
C  25.49000 50.50600 23.52400
C  27.65100 49.61500 20.68800
C  24.11400 49.51500 21.51200
C  23.36900 50.39000 20.43500
N  25.14700 50.97400 26.45400
C  24.18500 51.38900 25.58200
C  23.12500 52.11800 26.28900
C  23.42900 51.99700 27.64100
C  24.65100 51.29900 27.71100
C  22.02700 52.81500 25.65500
C  22.86400 52.30000 28.87600
O  21.90500 52.95400 29.18300
C  23.88100 51.70800 29.91100
C  24.40300 52.86300 30.72000
O  25.13800 53.74600 30.31800
O  23.69300 52.87500 31.92000
C  24.12200 54.03000 32.75000
H  30.20700 48.68600 29.07400
H  28.91600 48.11800 22.93700
H  23.52100 51.46000 23.58800
H  26.46400 50.66500 31.56500
H  28.06200 48.37000 30.82600
H  30.11200 50.08800 31.03100
H  29.30000 49.64700 32.49600
H  28.86900 51.10700 31.68600
H  25.93500 47.77900 31.20900
H  24.71800 48.80600 30.54300
H  25.03000 48.01400 33.21000
H  23.98300 49.26000 32.55800
H  33.00700 48.32600 26.86500
H  32.31100 46.72900 27.11900
H  32.18400 48.05200 28.30000
H  33.58700 48.15300 24.85600
H  33.52300 47.10400 23.37700
H  32.66800 46.57600 24.92500
H  26.35900 48.32700 21.87500
H  25.49700 51.18000 21.70100
H  28.63500 49.69600 21.15000
H  27.27400 50.45600 20.10500
H  27.61500 48.86300 19.89900
H  23.49700 49.30700 22.38600
H  24.40600 48.63800 20.93400
H  23.75500 51.38200 20.20000
H  22.29200 50.41500 20.60600
H  23.44100 49.82700 19.50500
H  21.78600 52.37600 24.68700
H  22.20900 53.85100 25.37100
H  21.17200 52.72600 26.32500
H  23.37700 50.92600 30.47900
H  24.00900 55.01100 32.28800
H  25.17200 53.96000 33.03500
H  23.53200 53.97900 33.66500

