158

Mg 24.88900 -4.77500 46.07000
C  26.77900 -2.42300 44.43600
C  22.29900 -4.38300 43.82400
C  23.45100 -7.64400 47.26400
C  27.86600 -5.66700 47.91200
N  24.57800 -3.55800 44.38400
C  25.46300 -2.62400 43.87400
C  24.85400 -1.82400 42.62300
C  23.43100 -2.50600 42.60300
C  23.39200 -3.49900 43.70800
C  22.35500 -1.46800 42.60200
C  25.60400 -2.20200 41.30800
C  25.56100 -0.99700 40.30700
H  25.52800 -1.17100 38.77300
N  23.01800 -5.72900 45.77000
C  22.06900 -5.41300 44.78600
C  20.93200 -6.36300 44.87500
C  21.25900 -7.24000 45.86300
C  22.65200 -6.89700 46.31900
C  19.65100 -6.32000 44.08100
C  20.40400 -8.37300 46.41000
O  19.25700 -8.58300 45.94000
C  20.74900 -9.20800 47.63800
N  25.56900 -6.44600 47.30300
C  24.77600 -7.43900 47.72000
C  25.44800 -8.42000 48.69600
C  26.68000 -7.58800 49.11400
C  26.78500 -6.50200 48.00600
C  24.63400 -9.08000 49.78900
C  28.02000 -8.45500 49.29100
C  29.01500 -7.94700 50.32000
N  26.90500 -4.08900 46.27700
C  27.93900 -4.51700 47.11000
C  29.06600 -3.62000 46.94900
C  28.66100 -2.70400 45.98600
C  27.37200 -3.11500 45.53400
C  30.36600 -3.77600 47.68100
C  29.05400 -1.62000 45.21500
O  30.08100 -0.96800 45.24800
C  27.87500 -1.40300 44.15400
C  27.35100 -0.04600 44.31700
O  26.42600 0.32100 45.05200
O  27.99200 0.75300 43.37800
C  27.63400 2.19500 43.29800
H  21.49200 -4.15800 43.12400
H  23.10400 -8.50600 47.83800
H  28.74400 -5.85600 48.53300
H  24.79300 -0.77000 42.89100
H  23.21200 -3.04000 41.67900
H  21.47700 -1.82000 42.06100
H  22.63200 -0.50400 42.17500
H  21.96300 -1.43200 43.61900
H  25.07400 -2.97300 40.75000
H  26.65600 -2.46400 41.42300
H  26.51300 -0.49200 40.47400
H  24.93600 -0.13400 40.53600
H  19.75400 -5.54700 43.32000
H  18.74200 -6.11200 44.64500
H  19.41400 -7.34900 43.81100
H  19.88400 -9.75300 48.01600
H  20.96500 -8.49300 48.43200
H  21.58200 -9.79200 47.24700
H  25.81000 -9.28800 48.14700
H  26.33800 -7.03000 49.98600
H  25.16500 -9.39700 50.68700
H  24.07100 -9.92200 49.38500
H  23.94800 -8.32400 50.17100
H  28.52200 -8.57700 48.33200
H  27.74200 -9.44700 49.64700
H  29.16300 -8.69900 51.09500
H  28.45300 -7.11200 50.74000
H  29.93600 -7.49800 49.94800
H  30.25700 -3.24100 48.62400
H  31.08500 -3.15100 47.15100
H  30.69000 -4.80800 47.81600
H  28.15500 -1.42700 43.10100
H  26.84000 2.42600 42.58800
H  28.50600 2.83500 43.16400
H  27.30100 2.48600 44.29500
Mg 17.14000 51.15000 25.80700
C  18.83200 49.68300 28.59100
C  14.67900 52.06700 27.98800
C  15.41500 52.21400 23.09900
C  19.52100 49.58300 23.68800
N  16.77200 50.79500 28.00100
C  17.62900 50.28400 28.94800
C  17.07400 50.58100 30.34900
C  15.61800 51.00600 30.10800
C  15.70400 51.33500 28.56600
C  14.60000 49.81700 30.38900
C  17.91600 51.57600 31.16100
C  18.42000 51.13000 32.51600
H  17.83300 51.88600 33.72600
N  15.26900 52.02500 25.54200
C  14.41800 52.37500 26.56800
C  13.28500 53.13000 25.97200
C  13.55200 53.21000 24.58800
C  14.77000 52.45500 24.34000
C  12.05900 53.40900 26.65000
C  12.70000 53.94500 23.50300
O  12.92200 53.98100 22.29100
C  11.51200 54.77200 23.93300
N  17.41800 50.79900 23.67500
C  16.58000 51.50200 22.76200
C  17.16400 51.17000 21.37700
C  18.46900 50.31200 21.58600
C  18.49300 50.25600 23.03200
C  16.22400 50.55900 20.42600
C  19.83300 50.80500 20.98400
C  20.12700 50.18300 19.60800
N  18.90200 49.98300 26.06900
C  19.77800 49.42100 25.09600
C  20.87000 48.65400 25.73500
C  20.53000 48.81500 27.10800
C  19.29000 49.50200 27.24100
C  22.04600 47.99300 25.04800
C  20.90600 48.44200 28.51100
O  21.77600 47.63800 28.89100
C  19.81300 49.09500 29.50400
C  19.20500 48.05700 30.37700
O  18.24400 47.30100 30.10700
O  19.83300 48.02500 31.56700
C  19.39200 47.03100 32.53500
H  13.90500 52.49600 28.62800
H  14.86300 52.56200 22.22400
H  20.25300 49.05900 23.06900
H  16.98200 49.59900 30.81200
H  15.31800 51.89200 30.66600
H  14.82100 49.27200 31.30700
H  14.67500 49.18700 29.50400
H  13.54400 50.08300 30.44000
H  17.37100 52.47800 31.43700
H  18.70000 51.98500 30.52300
H  19.47500 51.40200 32.49900
H  18.38500 50.04500 32.60900
H  11.17700 52.92000 26.23600
H  11.91900 54.48800 26.58700
H  12.15700 53.05200 27.67500
H  11.13900 55.33200 23.07600
H  11.88000 55.54200 24.61300
H  10.72100 54.10700 24.27900
H  17.42400 52.14800 20.97200
H  18.34500 49.25500 21.35200
H  16.57600 50.89700 19.45100
H  15.23300 50.91100 20.71300
H  16.27900 49.47900 20.56000
H  20.73800 50.58500 21.55100
H  19.87500 51.88700 20.86200
H  19.35800 49.48000 19.28800
H  21.11700 49.75700 19.45000
H  20.10700 51.03200 18.92500
H  22.57600 48.71200 24.42300
H  21.76600 47.19400 24.36300
H  22.71500 47.67400 25.84700
H  20.06900 49.87500 30.22100
H  19.73800 46.05200 32.20400
H  18.33000 47.08500 32.77500
H  19.89800 47.24200 33.47700

