158

Mg -8.63800 40.59300 42.52300
C  -7.65700 37.20000 41.82300
C  -5.83300 41.60900 40.66500
C  -9.85100 43.75500 42.70800
C  -11.77600 39.34900 43.53800
N  -7.03200 39.49400 41.40100
C  -6.73100 38.12800 41.32500
C  -5.36000 37.86800 40.67000
C  -4.73400 39.29400 40.60200
C  -5.91400 40.21200 40.89500
C  -3.59100 39.48700 41.58200
C  -5.45200 37.21700 39.29700
C  -4.69700 35.89000 38.93900
H  -4.05800 35.95500 37.56900
N  -7.92100 42.51400 41.83400
C  -6.74600 42.68200 41.14000
C  -6.53100 44.14800 41.11600
C  -7.64100 44.74400 41.76000
C  -8.51800 43.72000 42.07500
C  -5.31500 44.75300 40.50000
C  -7.76000 46.28700 41.95900
O  -6.93100 47.01800 41.48800
C  -8.89000 46.90500 42.77700
N  -10.54300 41.46100 43.09900
C  -10.76400 42.80100 43.13800
C  -12.22500 43.10100 43.50800
C  -12.81000 41.71400 43.77500
C  -11.65500 40.76800 43.41400
C  -12.37900 44.13000 44.67600
C  -14.08900 41.36300 42.85800
C  -15.24400 40.64600 43.65700
N  -9.50200 38.72700 42.88100
C  -10.78900 38.34900 43.21100
C  -10.82900 36.95200 43.28600
C  -9.64400 36.46000 42.71500
C  -8.82100 37.56900 42.51600
C  -11.93900 36.14700 43.82400
C  -8.98800 35.22300 42.46000
O  -9.38600 34.10200 42.67400
C  -7.64300 35.69300 41.77700
C  -6.43400 35.19800 42.47300
O  -6.05300 35.51000 43.60200
O  -5.80400 34.23000 41.68600
C  -4.55100 33.59700 42.20800
H  -4.93200 41.84300 40.09400
H  -10.19300 44.78000 42.86700
H  -12.75800 38.96300 43.81800
H  -4.91900 37.19300 41.40400
H  -4.25300 39.60200 39.67400
H  -3.69300 40.34000 42.25300
H  -2.72500 39.82700 41.01300
H  -3.22000 38.56600 42.03100
H  -5.21600 38.03700 38.61900
H  -6.49900 36.92900 39.19400
H  -5.50000 35.15700 39.02400
H  -3.90100 35.69700 39.65800
H  -5.52100 45.08800 39.48300
H  -4.55700 43.97200 40.45300
H  -4.97400 45.58800 41.11200
H  -8.89500 47.98600 42.92100
H  -8.90200 46.38800 43.73700
H  -9.81600 46.55700 42.32000
H  -12.81800 43.54000 42.70500
H  -12.98200 41.58800 44.84400
H  -12.89000 45.00700 44.27900
H  -11.40100 44.52600 44.94700
H  -13.05200 43.64000 45.38000
H  -13.88000 40.66300 42.04900
H  -14.48500 42.29100 42.44500
H  -15.41800 39.61800 43.33900
H  -16.20300 41.16200 43.62400
H  -14.82500 40.63600 44.66300
H  -11.54800 35.21400 44.22800
H  -12.67000 35.94300 43.04200
H  -12.61300 36.65500 44.51500
H  -7.60500 35.35600 40.74100
H  -4.00600 33.13200 41.38600
H  -4.90300 32.94400 43.00700
H  -3.91500 34.35200 42.67000
Mg 0.59200 42.72600 26.10100
C  2.87000 42.69500 28.77100
C  -1.80400 41.61700 28.26200
C  -1.31500 42.04100 23.52100
C  3.42800 43.02200 23.90800
N  0.60000 42.08600 28.27900
C  1.56500 42.32200 29.16400
C  0.98800 42.29700 30.59500
C  -0.52900 41.90700 30.43700
C  -0.54800 41.82400 28.87700
C  -0.88000 40.50300 31.17000
C  1.15600 43.69500 31.41600
C  1.58900 43.64000 32.89800
H  1.29600 42.34300 33.66100
N  -1.39100 42.04900 25.96600
C  -2.22900 41.70300 26.93400
C  -3.43200 41.19500 26.40800
C  -3.29200 41.28700 24.98400
C  -1.97900 41.78100 24.74700
C  -4.64400 40.72300 27.17900
C  -4.34100 40.92100 23.86500
O  -3.97900 41.15200 22.68000
C  -5.73900 40.32900 24.24000
N  0.99100 42.79800 23.97700
C  0.02100 42.38400 23.18800
C  0.45900 42.36400 21.69600
C  1.90900 42.83200 21.73200
C  2.16300 42.85700 23.25200
C  0.29700 40.89500 21.08500
C  2.20200 44.07900 20.90300
C  2.15600 45.37900 21.63200
N  2.69600 42.95400 26.28100
C  3.70600 43.09900 25.29600
C  4.95100 43.32300 25.92600
C  4.71100 43.17800 27.38100
C  3.33900 42.95000 27.44900
C  6.22800 43.72000 25.30300
C  5.27100 43.15800 28.67800
O  6.40900 43.37300 29.10800
C  4.16200 42.84500 29.64800
C  4.61500 41.61900 30.34500
O  4.38500 40.49500 29.90000
O  5.19100 41.88400 31.55900
C  5.48600 40.83500 32.49000
H  -2.66600 41.45300 28.91100
H  -1.87900 41.81400 22.61400
H  4.23100 43.29500 23.22000
H  1.49800 41.44300 31.04200
H  -1.29900 42.63500 30.69200
H  -1.91500 40.66100 31.47200
H  -0.25500 40.34600 32.05000
H  -0.84000 39.71200 30.42100
H  0.18900 44.18200 31.29200
H  1.75300 44.42200 30.86400
H  0.85700 44.37000 33.24400
H  2.57100 44.02800 33.16800
H  -5.48300 41.41500 27.10700
H  -4.52300 40.64100 28.25900
H  -4.94000 39.77000 26.73800
H  -6.11200 40.79200 25.15400
H  -5.70700 39.29500 24.58200
H  -6.40700 40.54100 23.40600
H  -0.22700 43.04000 21.18600
H  2.58100 42.09200 21.29700
H  1.20700 40.29700 21.13800
H  0.15000 41.14800 20.03500
H  -0.50600 40.33600 21.56600
H  1.70500 44.04100 19.93400
H  3.27000 44.01900 20.69300
H  3.08100 45.69800 22.11400
H  1.29300 45.39500 22.29700
H  1.87600 46.13400 20.89700
H  7.06700 43.05900 25.52000
H  6.43100 44.66100 25.81500
H  6.10800 43.91200 24.23700
H  4.11200 43.60600 30.42600
H  6.56900 40.73300 32.56000
H  5.01600 39.91000 32.15400
H  5.08200 41.18900 33.43900

