158

Mg 25.14400 51.73100 25.66000
C  23.50400 52.63200 28.56400
C  28.11400 51.79200 27.65500
C  27.26000 51.60800 22.78200
C  22.72400 52.74200 23.77000
N  25.66700 52.08300 27.92600
C  24.77700 52.34400 28.89500
C  25.42700 52.29100 30.27500
C  26.99900 52.15800 29.97600
C  26.91700 51.98200 28.44400
C  27.95700 53.32600 30.43400
C  24.82400 51.20000 31.21000
C  24.34900 51.64500 32.62300
H  25.32000 52.20500 33.59000
N  27.30500 51.59500 25.32000
C  28.32300 51.68900 26.26800
C  29.63100 51.59600 25.67400
C  29.45700 51.63400 24.27500
C  27.94400 51.58400 24.09000
C  30.96500 51.57700 26.41600
C  30.43000 51.68900 23.15000
O  30.06600 51.95800 22.01000
C  31.90500 51.51000 23.50200
N  25.03500 52.03000 23.55400
C  25.93600 51.75200 22.55700
C  25.24700 51.76100 21.19600
C  23.77600 52.08300 21.50300
C  23.79500 52.27100 23.06600
C  25.82700 52.70900 20.15100
C  22.91000 50.91300 20.89100
C  21.65900 51.30100 20.07600
N  23.46900 52.44200 26.00900
C  22.46700 52.76400 25.13800
C  21.34800 53.19500 25.80000
C  21.62400 53.07200 27.17500
C  22.96200 52.63200 27.26600
C  20.15700 53.72300 25.15600
C  21.10400 53.25600 28.56800
O  19.99400 53.55600 29.02900
C  22.32200 52.89300 29.44100
C  22.43300 54.08500 30.27700
O  23.02300 55.10200 29.99600
O  21.75200 53.90800 31.47400
C  21.91600 54.90300 32.56200
H  28.99800 51.89300 28.28700
H  27.80800 51.66500 21.83900
H  21.79600 52.94500 23.23000
H  25.31500 53.27200 30.73700
H  27.36700 51.25500 30.46400
H  27.48100 53.96400 31.17900
H  28.30800 53.93700 29.60200
H  28.77000 52.92000 31.03600
H  25.55900 50.41400 31.38400
H  23.93100 50.82200 30.71200
H  23.90100 50.74100 33.03500
H  23.56400 52.37400 32.42300
H  30.88500 51.24200 27.45100
H  31.37400 52.58500 26.48200
H  31.78600 50.95200 26.06400
H  32.51600 51.42500 22.60300
H  32.05200 50.49000 23.85800
H  32.25700 52.27700 24.19100
H  25.40900 50.72500 20.89900
H  23.49300 53.04000 21.06600
H  26.67000 53.29500 20.51700
H  25.04300 53.34800 19.74600
H  26.06600 52.05300 19.31400
H  22.48900 50.41600 21.76600
H  23.51900 50.22500 20.30400
H  20.73800 51.02400 20.58900
H  21.68700 50.73700 19.14400
H  21.78700 52.34600 19.79300
H  20.37300 54.65900 24.64100
H  19.33800 54.07900 25.78000
H  19.87200 53.06700 24.33300
H  22.11000 52.00100 30.03100
H  22.28200 55.84800 32.16100
H  22.66100 54.57100 33.28600
H  20.97200 55.09100 33.07300
Mg -8.19600 39.52200 42.69900
C  -7.02600 36.38800 41.78400
C  -5.52100 41.00000 41.22100
C  -9.63300 42.40400 43.32500
C  -11.25900 37.98200 43.59700
N  -6.54400 38.81000 41.54000
C  -6.19500 37.48100 41.39300
C  -4.98800 37.37800 40.54600
C  -4.37500 38.84200 40.72800
C  -5.53700 39.64800 41.24700
C  -3.09600 38.96200 41.58900
C  -5.32300 37.01800 39.01300
C  -4.59000 35.72100 38.55800
H  -3.76100 35.75600 37.33000
N  -7.58600 41.52200 42.38900
C  -6.50400 41.92500 41.72800
C  -6.38400 43.35500 41.79200
C  -7.58500 43.82200 42.41000
C  -8.37800 42.64000 42.83300
C  -5.16000 44.12600 41.15800
C  -7.88400 45.28200 42.57500
O  -7.13500 46.12500 42.18600
C  -9.03300 45.72700 43.44700
N  -10.36900 40.17300 43.08500
C  -10.54000 41.41900 43.45800
C  -11.94900 41.66500 43.94100
C  -12.47100 40.18000 43.96200
C  -11.27200 39.33900 43.54900
C  -12.19000 42.42400 45.26500
C  -13.72300 39.97600 43.10500
C  -15.07500 40.43000 43.47400
N  -9.02500 37.54900 42.68000
C  -10.27100 37.11000 43.12800
C  -10.31400 35.64000 43.10100
C  -9.01900 35.33400 42.57000
C  -8.31800 36.54700 42.30900
C  -11.52500 34.78200 43.50100
C  -8.02900 34.27300 42.26000
O  -8.17300 33.10200 42.37300
C  -6.73800 34.90200 41.74700
C  -5.70800 34.57200 42.72300
O  -5.28100 35.33600 43.63000
O  -5.16300 33.29500 42.50100
C  -4.09600 32.84100 43.33900
H  -4.64000 41.45000 40.75800
H  -10.10800 43.37200 43.49700
H  -12.14700 37.54800 44.06300
H  -4.35100 36.61700 40.99600
H  -4.07400 39.27900 39.77600
H  -2.93500 38.00200 42.08100
H  -3.28600 39.69800 42.37000
H  -2.28000 39.28100 40.94100
H  -4.94300 37.82900 38.39100
H  -6.40600 37.08700 38.91000
H  -5.34900 34.98500 38.29400
H  -3.98000 35.32300 39.36900
H  -5.21100 45.21300 41.09900
H  -5.04200 43.79900 40.12500
H  -4.23400 43.88500 41.68000
H  -9.14400 46.81100 43.42900
H  -9.05600 45.35100 44.47000
H  -9.87200 45.36800 42.85100
H  -12.48800 42.26000 43.20400
H  -12.79400 39.88300 44.95900
H  -12.87200 43.26500 45.14600
H  -11.29100 42.80800 45.74800
H  -12.64100 41.69200 45.93400
H  -13.76900 38.89200 43.00400
H  -13.58000 40.38800 42.10600
H  -15.46800 41.06600 42.68200
H  -15.03500 41.03600 44.38000
H  -15.70100 39.54500 43.59000
H  -11.18500 33.75600 43.64400
H  -12.35300 34.90900 42.80300
H  -11.81100 35.21500 44.45900
H  -6.43600 34.50700 40.77700
H  -4.43100 32.99900 44.36500
H  -3.29000 33.56000 43.19300
H  -3.74500 31.83100 43.12900

