158

Mg 26.07200 -0.78400 29.74900
C  28.09100 -0.96300 32.63600
C  23.36200 -0.08400 31.81300
C  24.26800 -0.35200 27.01400
C  28.82800 -1.46700 27.69600
N  25.82300 -0.56800 32.07300
C  26.79400 -0.67200 33.00700
C  26.25000 -0.50900 34.43900
C  24.71800 -0.17600 34.11200
C  24.57800 -0.32600 32.61000
C  23.73300 -1.14200 34.82300
C  26.95000 0.69400 35.12800
C  27.51800 0.32400 36.57000
H  27.01500 1.26600 37.71800
N  24.10900 -0.33900 29.39700
C  23.16000 -0.09900 30.38800
C  21.90900 0.10300 29.70400
C  22.10800 -0.15400 28.32600
C  23.56000 -0.37100 28.16800
C  20.66200 0.45300 30.34900
C  21.05300 -0.15300 27.16800
O  21.37900 -0.37000 25.99600
C  19.57500 0.07600 27.43700
N  26.47200 -0.98700 27.70300
C  25.51500 -0.62100 26.75100
C  26.06200 -0.81000 25.31700
C  27.61200 -0.93400 25.57400
C  27.68500 -1.14800 27.07500
C  25.46000 -2.02700 24.45600
C  28.47900 0.28100 25.09900
C  29.96800 -0.04100 24.76300
N  28.01300 -1.28100 30.09800
C  29.04200 -1.60900 29.17600
C  30.23200 -1.96600 29.94500
C  29.95700 -1.62400 31.28900
C  28.56600 -1.27900 31.34000
C  31.44200 -2.46200 29.45200
C  30.45000 -1.54100 32.60400
O  31.55700 -1.94400 33.00900
C  29.31800 -1.14300 33.49800
C  29.25700 -2.25600 34.52100
O  28.52100 -3.23800 34.47400
O  30.00900 -1.89900 35.64100
C  29.74800 -2.56300 36.86300
H  22.56700 0.20300 32.50400
H  23.67500 -0.25300 26.10200
H  29.68900 -1.58400 27.03500
H  26.37000 -1.46500 34.94900
H  24.45900 0.85100 34.37000
H  23.45000 -2.04200 34.27700
H  22.80500 -0.59000 34.97600
H  24.15600 -1.43400 35.78400
H  26.26900 1.53500 35.26000
H  27.73900 1.00200 34.44300
H  28.60700 0.35000 36.60000
H  27.18000 -0.69400 36.76300
H  20.85500 0.97600 31.28600
H  20.20900 -0.49900 30.62500
H  19.99800 1.06800 29.74100
H  19.46300 -0.58900 28.29400
H  18.96400 -0.32700 26.62900
H  19.30500 1.11700 27.61100
H  25.99300 0.09200 24.71000
H  27.99800 -1.83100 25.08900
H  24.77300 -2.65000 25.02900
H  26.27500 -2.67500 24.13300
H  24.89300 -1.52900 23.66900
H  28.60100 0.89000 25.99500
H  27.93800 0.83200 24.33000
H  30.11400 -1.12000 24.73000
H  30.65800 0.14900 25.58500
H  30.14700 0.35700 23.76400
H  32.13500 -1.64100 29.26600
H  31.16700 -2.84300 28.46800
H  31.95300 -3.14700 30.12700
H  29.48800 -0.19300 34.00500
H  29.26200 -1.72800 37.36700
H  30.73600 -2.75500 37.28200
H  29.18900 -3.48700 36.71400
Mg 0.16500 43.17500 25.81200
C  2.65300 43.01300 28.23600
C  -2.02300 42.12900 27.99500
C  -2.05500 42.97900 23.25100
C  2.68900 43.38200 23.41100
N  0.34600 42.72500 27.88500
C  1.37400 42.90400 28.72200
C  1.00900 42.88200 30.14400
C  -0.41100 42.19300 30.08400
C  -0.74600 42.31300 28.60100
C  -0.46200 40.67700 30.46900
C  0.96500 44.28500 30.84500
C  0.91900 44.26900 32.42200
H  0.83400 42.91500 33.06200
N  -1.78000 42.69400 25.67500
C  -2.50600 42.28900 26.68400
C  -3.89300 41.98600 26.24300
C  -3.99400 42.36400 24.88200
C  -2.54900 42.67800 24.53200
C  -4.98600 41.48700 27.13200
C  -5.14000 42.25600 23.91000
O  -5.01600 42.48500 22.67500
C  -6.60200 41.86000 24.35800
N  0.35000 43.32100 23.60900
C  -0.74600 43.14900 22.79900
C  -0.44300 43.61400 21.37000
C  1.08300 43.67200 21.37900
C  1.44500 43.54500 22.87100
C  -1.06700 42.69400 20.25500
C  1.56500 45.02000 20.75000
C  1.60200 46.20100 21.72100
N  2.29400 43.14600 25.81900
C  3.14600 43.26600 24.77400
C  4.50400 43.21300 25.24900
C  4.41200 43.03900 26.64900
C  3.04400 43.06600 26.89500
C  5.76300 43.22200 24.38200
C  5.16600 42.87200 27.90700
O  6.36400 42.75900 28.17200
C  3.99300 42.88700 28.97400
C  4.08300 41.60400 29.74700
O  3.48800 40.55700 29.64000
O  5.05900 41.97900 30.67000
C  5.00300 41.12100 31.78600
H  -2.80500 41.73800 28.64900
H  -2.76700 43.06000 22.42700
H  3.46800 43.52400 22.65900
H  1.77000 42.20300 30.52900
H  -1.08900 42.80100 30.68200
H  0.38300 40.33800 31.06700
H  -0.53300 40.02000 29.60300
H  -1.40200 40.50000 30.99200
H  0.10600 44.79000 30.40300
H  1.83400 44.84400 30.49600
H  0.12900 44.88800 32.84900
H  1.87600 44.73700 32.65100
H  -5.76100 42.22600 27.33700
H  -4.65000 40.94800 28.01800
H  -5.56500 40.79000 26.52600
H  -6.94400 42.48900 25.18000
H  -6.47700 40.80700 24.61300
H  -7.28700 41.91500 23.51300
H  -0.86300 44.60900 21.22600
H  1.40500 42.71800 20.96100
H  -1.46000 41.73500 20.59400
H  -0.17200 42.40000 19.70500
H  -1.80400 43.13800 19.58600
H  0.93200 45.38000 19.93900
H  2.60700 44.96700 20.43300
H  2.65600 46.32200 21.97100
H  1.03000 45.94000 22.61100
H  1.15800 47.06200 21.22000
H  5.48300 43.30000 23.33100
H  6.31900 42.30800 24.59000
H  6.40200 44.05300 24.67900
H  4.27800 43.75600 29.56700
H  5.15900 40.08800 31.47500
H  3.97400 41.15300 32.14300
H  5.47800 41.48900 32.69600

