158

Mg 35.46100 48.21100 26.39300
C  36.07500 46.19600 29.08600
C  34.35000 50.75000 28.44500
C  34.99200 50.16500 23.75300
C  36.51200 45.70600 24.19900
N  35.18200 48.41600 28.50600
C  35.53900 47.43100 29.44700
C  35.29400 47.99900 30.89900
C  34.45700 49.37300 30.57000
C  34.70800 49.54300 29.04700
C  32.93800 49.34000 30.84900
C  36.66300 48.29100 31.61100
C  36.78600 48.02000 33.10800
H  36.22800 49.20700 33.88900
N  34.82400 50.24200 26.14300
C  34.37700 51.11200 27.08000
C  34.02700 52.33700 26.50800
C  34.33100 52.25100 25.14300
C  34.81100 50.86200 24.94900
C  33.53700 53.55400 27.20200
C  34.30000 53.34600 24.08600
O  34.71100 53.05900 22.94400
C  33.80200 54.72300 24.36500
N  35.62100 47.93000 24.24900
C  35.31400 48.89100 23.39100
C  35.32100 48.45800 21.94000
C  35.96700 47.02300 22.07600
C  36.06500 46.82200 23.57100
C  33.81500 48.35000 21.39200
C  37.40200 46.86400 21.41600
C  38.53900 47.52000 22.16800
N  36.00100 46.28400 26.55900
C  36.54400 45.44700 25.60700
C  36.97600 44.16600 26.30000
C  36.78200 44.44000 27.67400
C  36.26600 45.72400 27.77900
C  37.59200 43.02300 25.56500
C  36.92700 43.91900 28.96500
O  37.24300 42.78300 29.29400
C  36.55100 45.10500 29.98100
C  35.60400 44.64500 31.00200
O  34.43600 44.29300 30.77100
O  36.19100 44.64600 32.27600
C  35.42900 43.99100 33.28200
H  33.91600 51.50200 29.10700
H  34.70500 50.82800 22.93400
H  36.80000 44.90400 23.51600
H  34.64000 47.31100 31.43500
H  34.84700 50.24700 31.09100
H  32.65800 50.10600 31.57100
H  32.68400 48.36500 31.26700
H  32.32200 49.49500 29.96300
H  36.99700 49.28600 31.31700
H  37.44000 47.68000 31.15200
H  37.81500 47.76700 33.36100
H  36.19000 47.13300 33.32700
H  32.80700 54.16500 26.67100
H  34.34300 54.20900 27.53200
H  32.97300 53.27100 28.09000
H  34.15600 55.38800 23.57800
H  34.36400 55.11100 25.21500
H  32.73500 54.88900 24.51800
H  35.90500 49.14900 21.33200
H  35.33200 46.29700 21.56800
H  33.03100 48.52400 22.12900
H  33.60800 47.34100 21.03500
H  33.66000 49.10900 20.62500
H  37.27900 47.43400 20.49500
H  37.45600 45.83000 21.07500
H  38.17100 48.18700 22.94800
H  39.11100 48.11100 21.45300
H  39.14700 46.70900 22.57100
H  37.70200 43.31800 24.52100
H  37.03500 42.08600 25.56200
H  38.52700 42.75900 26.05900
H  37.47500 45.25900 30.53800
H  34.95900 43.05800 32.97200
H  34.57100 44.62700 33.49800
H  36.02000 43.68900 34.14800
Mg 27.48100 49.84100 25.88600
C  25.49500 51.00500 28.61800
C  29.77600 48.75100 28.25000
C  29.40100 48.71000 23.38400
C  25.37600 51.36400 23.73400
N  27.51600 49.80100 28.20700
C  26.61800 50.28700 29.11600
C  27.03000 49.98500 30.62400
C  28.55000 49.79100 30.37200
C  28.70500 49.49400 28.81600
C  29.36400 51.12100 30.68000
C  26.36000 48.72300 31.33600
C  25.69300 48.88200 32.69400
H  26.42100 49.61500 33.84000
N  29.28800 48.80100 25.75300
C  30.04200 48.42400 26.90200
C  31.14200 47.55400 26.47300
C  30.98500 47.45800 25.06500
C  29.91600 48.34000 24.67500
C  32.10700 46.83600 27.38200
C  31.65100 46.57200 24.10600
O  31.39200 46.60100 22.88800
C  32.68900 45.62000 24.55200
N  27.59400 50.16600 23.84000
C  28.36300 49.51500 22.98000
C  27.83500 49.47700 21.57400
C  26.40700 50.17800 21.70100
C  26.44000 50.62600 23.13100
C  28.77600 50.23800 20.53200
C  25.28100 49.10100 21.40900
C  25.11000 47.97900 22.47000
N  25.77700 51.01300 26.07600
C  25.05100 51.59200 25.05000
C  23.82200 52.17200 25.58800
C  23.97000 51.97700 27.00400
C  25.22200 51.32200 27.24800
C  22.67300 52.85700 24.71900
C  23.35400 52.30800 28.30900
O  22.39000 53.09900 28.54800
C  24.26500 51.57800 29.44400
C  24.64300 52.58200 30.50100
O  25.18000 53.63900 30.26100
O  24.19200 52.10600 31.74200
C  24.55100 52.86900 32.94600
H  30.50200 48.45000 29.00800
H  29.75100 48.25900 22.45300
H  24.53900 51.40200 23.03300
H  26.82900 50.89200 31.19300
H  28.98300 49.02600 31.01700
H  30.15600 51.26500 29.94500
H  29.79000 51.07700 31.68300
H  28.69200 51.96900 30.55300
H  27.06900 47.89800 31.40300
H  25.51800 48.47200 30.69000
H  25.41000 47.87600 33.00200
H  24.79600 49.49500 32.61100
H  31.84400 46.98300 28.43000
H  33.14500 47.14900 27.27000
H  32.00500 45.76800 27.19400
H  32.10900 44.99500 25.23000
H  33.54000 46.13600 24.99600
H  33.05000 45.04700 23.69800
H  27.73300 48.45400 21.21300
H  26.40700 50.98500 20.96900
H  29.80400 50.06600 20.84800
H  28.55100 51.29700 20.40100
H  28.61300 49.71000 19.59200
H  25.61400 48.58300 20.51000
H  24.33000 49.57100 21.15800
H  25.51200 48.28000 23.43700
H  25.66800 47.08500 22.19400
H  24.09400 47.68500 22.73400
H  22.60800 52.38000 23.74100
H  23.01100 53.89000 24.64300
H  21.71100 52.79300 25.22800
H  23.88000 50.66000 29.88800
H  23.93800 53.76600 33.02900
H  25.62500 53.05100 32.99900
H  24.48000 52.13900 33.75200

