158

Mg 44.43300 2.20500 47.27500
C  44.05200 5.51900 46.30300
C  41.31400 1.52900 46.10000
C  45.14600 -1.08800 47.56300
C  47.84400 2.87300 47.90900
N  42.80000 3.41600 46.49700
C  42.86600 4.73100 46.05400
C  41.60100 5.17500 45.39200
C  40.63300 3.91000 45.55300
C  41.61900 2.88100 46.12900
C  39.44800 4.04000 46.59300
C  41.82700 5.60200 43.90800
C  41.37600 7.00000 43.47500
H  40.20300 7.16500 42.43300
N  43.34100 0.43100 46.96500
C  42.03100 0.39100 46.47700
C  41.60600 -1.01400 46.35300
C  42.70500 -1.80000 46.82300
C  43.79900 -0.85700 47.17600
C  40.21700 -1.45000 45.88500
C  42.73100 -3.32900 46.96600
O  41.70700 -3.93400 46.72700
C  43.90400 -4.12600 47.33500
N  46.27100 1.02000 47.73600
C  46.21200 -0.25600 47.85800
C  47.60000 -0.91000 48.11100
C  48.53200 0.39300 47.95200
C  47.50700 1.54200 47.90300
C  47.78400 -1.71000 49.41700
C  49.56100 0.45100 46.83500
C  51.00600 0.11600 47.16800
N  45.66600 3.89900 47.22500
C  46.98200 4.00500 47.62400
C  47.35300 5.42000 47.51700
C  46.23500 6.02600 47.03400
C  45.26100 5.08700 46.85400
C  48.57500 6.03700 47.90800
C  45.70400 7.28700 46.57100
O  46.20900 8.40800 46.52100
C  44.25200 6.97400 46.01400
C  43.32000 7.81000 46.79700
O  42.90600 7.62500 47.88900
O  43.11600 8.99000 46.09600
C  42.49200 10.04500 46.86300
H  40.33100 1.31500 45.67600
H  45.42000 -2.12500 47.76900
H  48.90600 3.10500 48.01600
H  41.09800 6.04000 45.82500
H  40.08100 3.57100 44.67600
H  39.80500 4.03300 47.62300
H  38.65300 3.30900 46.44400
H  39.09000 5.06100 46.46300
H  41.41000 4.82800 43.26300
H  42.88000 5.38100 43.73600
H  42.21800 7.44800 42.94800
H  41.20200 7.67900 44.31000
H  40.20900 -2.19600 45.09000
H  39.69400 -0.56100 45.53200
H  39.63300 -1.71900 46.76500
H  44.26500 -3.81100 48.31400
H  44.67400 -4.12800 46.56400
H  43.46300 -5.12100 47.40800
H  47.67000 -1.59400 47.26600
H  49.07900 0.47600 48.89100
H  48.47000 -1.16700 50.06700
H  48.10700 -2.72500 49.18700
H  46.87200 -1.66300 50.01200
H  49.60400 1.42800 46.35500
H  49.15300 -0.29400 46.15200
H  51.62900 0.86100 46.67300
H  51.25500 -0.85300 46.73600
H  51.27500 0.11200 48.22500
H  49.43300 5.38300 48.06100
H  48.41900 6.65600 48.79200
H  48.72200 6.66800 47.03200
H  44.26000 7.28500 44.96900
H  42.89100 10.98400 46.47800
H  42.57800 9.89200 47.93900
H  41.44700 9.95200 46.56700
Mg 46.44600 44.49800 43.75500
C  43.06100 44.14700 43.47000
C  46.77500 41.10600 43.21100
C  49.79000 44.87200 43.46900
C  45.97500 47.92100 43.77500
N  45.01900 42.75500 43.69300
C  43.72600 42.95000 43.31500
C  43.04100 41.59000 42.96100
C  44.19800 40.52200 43.05200
C  45.41100 41.45000 43.40300
C  43.98200 39.31200 44.05800
C  42.26100 41.56700 41.62200
C  42.88900 42.22600 40.38100
H  42.84500 41.36600 39.07600
N  48.09200 43.19600 43.43400
C  47.97800 41.85000 43.27100
C  49.30900 41.29100 43.17900
C  50.24200 42.33400 43.24700
C  49.36800 43.53700 43.46500
C  49.59300 39.81000 43.02700
C  51.73400 42.13200 43.22700
O  52.27200 40.98500 43.09600
C  52.72400 43.19500 43.30000
N  47.72300 46.12900 43.63900
C  49.08300 46.06900 43.59700
C  49.73200 47.48500 43.54800
C  48.45200 48.43400 43.59200
C  47.28600 47.43900 43.72900
C  50.74100 47.66700 44.75400
C  48.31500 49.29700 42.31100
C  49.32700 50.48300 42.27400
N  44.81500 45.82100 43.87800
C  44.78700 47.17900 43.82800
C  43.42400 47.64800 43.90100
C  42.71200 46.49900 43.72800
C  43.62200 45.41700 43.66400
C  43.02800 49.09300 44.02400
C  41.38700 45.92200 43.66400
O  40.27100 46.44800 43.81400
C  41.53100 44.38600 43.32000
C  40.71700 43.63800 44.33700
O  39.68000 43.06300 44.03300
O  41.22700 43.74200 45.63900
C  40.33500 43.20200 46.64800
H  46.85200 40.04200 42.97800
H  50.87100 44.96600 43.35100
H  45.90400 49.01100 43.80400
H  42.33600 41.31600 43.74600
H  44.35100 40.02600 42.09300
H  42.99000 39.11000 44.46100
H  44.64200 39.55400 44.89100
H  44.33500 38.39400 43.58700
H  41.29400 42.06100 41.72600
H  41.85600 40.57200 41.44000
H  43.95900 42.35200 40.54800
H  42.46800 43.22300 40.24900
H  50.13800 39.63400 42.10000
H  48.73800 39.13500 43.07000
H  50.15600 39.40700 43.86900
H  52.47000 43.92100 42.52800
H  53.68200 42.67700 43.25600
H  52.60300 43.74600 44.23200
H  50.39400 47.56200 42.68600
H  48.49100 48.96600 44.54200
H  51.77300 47.73600 44.41000
H  50.65300 46.77200 45.37000
H  50.57500 48.54000 45.38400
H  47.34300 49.74200 42.09700
H  48.50300 48.68600 41.42800
H  48.75500 51.41000 42.24800
H  49.95300 50.30000 41.40100
H  50.07000 50.42800 43.07000
H  42.34700 49.16200 44.87200
H  42.62600 49.47400 43.08500
H  43.86500 49.73600 44.29600
H  41.28500 44.13700 42.28800
H  40.25500 42.11600 46.59400
H  39.34800 43.66000 46.58200
H  40.70000 43.58000 47.60300

