158

Mg 0.53600 8.41200 26.90100
C  1.29100 10.61000 29.53300
C  0.70400 5.81200 29.13400
C  0.65500 6.30500 24.27800
C  0.79900 11.10600 24.66700
N  0.90300 8.22300 29.03500
C  1.08600 9.29200 29.93900
C  1.01600 8.84000 31.43400
C  1.01700 7.32100 31.25000
C  0.84600 7.08400 29.71300
C  2.29500 6.56900 31.88700
C  -0.26200 9.40100 32.17800
C  -0.31100 9.14800 33.72800
H  0.95500 8.74900 34.39800
N  0.42200 6.38300 26.73500
C  0.56900 5.48200 27.79700
C  0.55300 4.13900 27.22900
C  0.43400 4.22900 25.80300
C  0.46700 5.70900 25.52100
C  0.53700 2.93500 28.08500
C  0.38300 3.11500 24.65400
O  0.29900 3.32300 23.46000
C  0.66800 1.68800 25.14000
N  0.59600 8.69700 24.75900
C  0.55300 7.65800 23.89500
C  0.66100 8.13400 22.44200
C  0.45100 9.67400 22.61600
C  0.66400 9.84900 24.11900
C  2.07300 7.81600 21.81200
C  -0.91800 10.10900 22.02700
C  -0.98500 11.02200 20.79900
N  0.97700 10.50500 27.02900
C  0.97700 11.45900 26.01400
C  1.19700 12.70500 26.59000
C  1.43600 12.45600 27.95800
C  1.22500 11.07700 28.17100
C  1.34400 14.03000 25.92600
C  1.80300 13.02800 29.20100
O  2.07500 14.16500 29.52000
C  1.59700 11.90500 30.30200
C  2.76000 11.85900 31.16600
O  3.89300 11.53100 30.86900
O  2.32800 12.18700 32.42300
C  3.46900 12.55900 33.23300
H  0.89900 4.96100 29.79100
H  0.79700 5.52500 23.52700
H  0.61700 11.86800 23.90700
H  1.92500 9.16400 31.94100
H  0.10200 6.90300 31.66800
H  2.57700 5.77700 31.19300
H  1.90100 6.04400 32.75600
H  3.05300 7.27300 32.23100
H  -1.14800 8.90100 31.78600
H  -0.22700 10.46400 31.93700
H  -1.17300 8.55400 34.03100
H  -0.50500 10.17100 34.04900
H  1.57700 2.64000 28.22900
H  -0.01400 2.08400 27.68400
H  0.19700 3.01500 29.11800
H  1.38700 1.70800 25.95800
H  0.98100 0.98300 24.37000
H  -0.19300 1.23800 25.63500
H  -0.07200 7.64800 21.79800
H  1.18400 10.33900 22.16000
H  2.69800 8.70900 21.84600
H  1.86300 7.46300 20.80300
H  2.50900 7.03900 22.44000
H  -1.37400 10.69700 22.82500
H  -1.57000 9.23500 22.05700
H  -0.09500 10.98500 20.17200
H  -1.04000 12.06000 21.12700
H  -1.77700 10.67000 20.13900
H  0.70200 14.00700 25.04600
H  2.38000 14.17400 25.62000
H  1.07900 14.91500 26.50400
H  0.67700 12.17700 30.82100
H  4.22200 13.01200 32.58900
H  3.88400 11.69600 33.75500
H  3.13600 13.32900 33.92900
Mg 47.32200 24.33800 27.57400
C  48.28500 26.67800 30.05500
C  47.07300 21.97400 30.03200
C  46.73300 21.97400 25.22900
C  48.24400 26.65400 25.10200
N  47.69700 24.39500 29.77800
C  47.76900 25.47900 30.55300
C  47.67000 25.07000 32.03700
C  47.38100 23.55100 32.01100
C  47.42600 23.26300 30.47600
C  48.33400 22.69300 32.90900
C  46.78500 26.06000 32.89400
C  46.29900 25.64800 34.34200
H  46.79700 26.61300 35.44000
N  46.94600 22.24500 27.62000
C  46.79800 21.49400 28.75800
C  46.35400 20.17100 28.44000
C  46.26300 20.10900 26.99200
C  46.80500 21.38600 26.51100
C  45.92500 19.14000 29.58100
C  45.71300 19.00700 26.11000
O  45.90100 19.09000 24.86400
C  44.94700 17.87400 26.55300
N  47.47700 24.27200 25.59800
C  46.92500 23.28300 24.81200
C  46.65400 23.76000 23.34400
C  46.93400 25.24400 23.43600
C  47.58500 25.41300 24.76300
C  47.43800 22.95200 22.24700
C  45.63700 26.05400 23.16800
C  44.62300 26.21700 24.37700
N  48.18400 26.34600 27.50000
C  48.47100 27.09200 26.45700
C  49.01000 28.35500 26.94200
C  48.95100 28.30800 28.33700
C  48.51100 27.00100 28.63600
C  49.38400 29.43600 26.04800
C  49.18500 28.96800 29.56800
O  49.65000 30.01500 29.84900
C  48.67800 28.02400 30.68100
C  49.77900 27.92400 31.58700
O  50.70100 27.16900 31.60100
O  49.56400 28.80100 32.62100
C  50.53000 28.77000 33.80100
H  46.76700 21.24500 30.78600
H  46.38400 21.38600 24.37800
H  48.10400 27.39700 24.31300
H  48.67600 25.31300 32.37900
H  46.37500 23.30100 32.34500
H  47.99100 21.66500 33.03100
H  48.25600 23.19200 33.87500
H  49.36400 22.73100 32.55300
H  46.00500 26.45400 32.24200
H  47.38800 26.96800 32.91200
H  46.71200 24.67500 34.60800
H  45.22200 25.51600 34.44800
H  46.79900 18.56100 29.88000
H  45.27700 18.34500 29.21100
H  45.37800 19.53000 30.44000
H  44.28400 17.55100 25.75000
H  44.25600 18.22600 27.31800
H  45.63600 17.05300 26.75400
H  45.60000 23.60200 23.11400
H  47.56700 25.44700 22.57200
H  48.48500 23.25300 22.30300
H  47.23700 23.16800 21.19800
H  47.25000 21.87900 22.26000
H  45.15100 25.50800 22.36000
H  45.81600 27.08400 22.85700
H  44.89000 26.96400 25.12500
H  44.12500 25.30200 24.69900
H  43.76000 26.79600 24.04700
H  49.09400 30.37900 26.51100
H  48.80000 29.31500 25.13600
H  50.46200 29.55600 25.93400
H  47.79000 28.49000 31.10900
H  50.47100 27.79400 34.28200
H  50.43800 29.49700 34.60800
H  51.54000 28.76000 33.39100

