158

Mg 2.08600 -0.66000 44.23200
C  5.41500 0.44700 44.04300
C  1.15200 2.10400 42.32500
C  -0.80100 -2.15300 43.63000
C  3.34700 -3.74200 45.35700
N  3.19400 1.07100 43.24100
C  4.50900 1.30400 43.30100
C  4.84400 2.64700 42.63600
C  3.41700 3.21000 42.34800
C  2.53900 2.10300 42.61200
C  3.10500 4.50800 43.11700
C  5.67100 2.39500 41.31300
C  6.98100 3.21400 41.27300
H  7.90700 2.89500 40.03100
N  0.40000 -0.02400 43.30100
C  0.16200 1.14400 42.61100
C  -1.18700 1.22300 42.26600
C  -1.84900 0.03200 42.75200
C  -0.71900 -0.80200 43.24600
C  -1.75100 2.46000 41.56200
C  -3.37700 -0.21200 42.73200
O  -4.09100 0.65300 42.17400
C  -3.98700 -1.45600 43.32700
N  1.32500 -2.69800 44.42000
C  0.09100 -3.04800 44.15200
C  -0.18400 -4.53500 44.39500
C  1.19800 -4.98700 44.99400
C  2.06000 -3.75800 44.89400
C  -1.35100 -4.86700 45.33000
C  1.94800 -6.26900 44.43100
C  2.53600 -7.25300 45.46900
N  4.00400 -1.47600 44.65300
C  4.31500 -2.66600 45.27300
C  5.66400 -2.66500 45.60600
C  6.20100 -1.45900 45.11300
C  5.17200 -0.81800 44.53300
C  6.47900 -3.76100 46.23600
C  7.36100 -0.60900 45.05400
O  8.49000 -0.76500 45.55200
C  6.88400 0.70100 44.32500
C  7.18500 1.86400 45.17400
O  6.43900 2.34600 46.01700
O  8.37200 2.39700 44.61400
C  8.71600 3.75700 45.11200
H  0.93700 2.99300 41.72800
H  -1.78200 -2.50900 43.30900
H  3.72900 -4.67700 45.77200
H  5.41500 3.31200 43.28400
H  3.29600 3.44400 41.29100
H  3.92800 4.90000 43.71400
H  2.24800 4.50900 43.79000
H  2.85500 5.34700 42.46800
H  5.05500 2.69600 40.46600
H  5.82400 1.32800 41.15200
H  7.48100 2.98100 42.21300
H  6.86900 4.29800 41.25300
H  -2.76500 2.69800 41.88100
H  -1.88300 2.16900 40.52000
H  -1.18000 3.35100 41.82400
H  -5.03200 -1.21800 43.12900
H  -3.75200 -1.50100 44.39000
H  -3.75300 -2.26600 42.63700
H  -0.34600 -5.10000 43.47700
H  1.09900 -5.08700 46.07500
H  -1.08700 -5.07000 46.36800
H  -1.97400 -5.66600 44.92700
H  -1.96400 -3.97600 45.46800
H  2.68000 -6.01900 43.66200
H  1.09300 -6.78800 43.99800
H  2.28200 -8.28600 45.23200
H  2.21800 -7.05600 46.49300
H  3.61500 -7.13600 45.36400
H  6.71300 -4.41800 45.39800
H  5.95700 -4.35100 46.98900
H  7.37900 -3.37400 46.71500
H  7.44200 0.95100 43.42300
H  9.73000 4.04300 44.83500
H  8.58400 3.91400 46.18300
H  8.07100 4.39400 44.50700
Mg 36.02500 48.31000 26.01300
C  36.30600 46.25300 29.01400
C  34.97100 50.94000 28.07500
C  34.89000 49.84300 23.39200
C  36.31300 45.31900 24.22200
N  35.68300 48.60700 28.32200
C  36.04700 47.64200 29.29000
C  35.86100 48.27300 30.67300
C  35.40300 49.72200 30.35300
C  35.30200 49.80600 28.80500
C  34.02500 50.12000 31.01400
C  37.10800 48.13400 31.64400
C  36.83100 47.63100 33.04500
H  36.46100 48.60300 34.13700
N  35.26900 50.21500 25.76300
C  34.91000 51.15400 26.70800
C  34.67900 52.36500 26.14000
C  34.62200 52.09400 24.71500
C  34.93100 50.63200 24.54500
C  34.52600 53.67100 26.92100
C  34.29800 52.97100 23.53800
O  34.28800 52.52100 22.39900
C  33.89500 54.44300 23.83000
N  35.68200 47.67400 24.06800
C  35.20700 48.53000 23.16900
C  35.13800 47.90900 21.74600
C  35.61500 46.44500 22.01400
C  35.87900 46.48200 23.49900
C  33.71900 48.02700 21.10900
C  36.93700 45.97100 21.17600
C  38.32400 46.09600 21.82700
N  36.42600 46.26400 26.43700
C  36.56200 45.22800 25.60500
C  36.87900 44.02500 26.38400
C  36.75100 44.39100 27.70900
C  36.49800 45.75600 27.69400
C  37.20000 42.60900 25.89300
C  36.77800 43.90500 29.08000
O  36.85300 42.73300 29.53000
C  36.47700 45.12600 29.98400
C  35.16000 44.82500 30.62700
O  34.05100 45.12600 30.17000
O  35.39100 44.33000 31.85000
C  34.32900 44.15700 32.79700
H  34.72100 51.81700 28.67500
H  34.65200 50.34300 22.45100
H  36.32800 44.35400 23.71100
H  35.06300 47.70000 31.14500
H  36.12700 50.42800 30.76000
H  34.35800 50.83600 31.76500
H  33.57500 49.25500 31.50100
H  33.38200 50.59700 30.27400
H  37.64700 49.08000 31.69100
H  37.82900 47.39300 31.30000
H  37.76300 47.12500 33.29500
H  36.07200 46.84900 33.03600
H  33.49600 53.77400 27.26000
H  34.72800 54.56900 26.33800
H  35.16700 53.74600 27.79900
H  34.76400 55.05800 24.06200
H  33.13100 54.41000 24.60800
H  33.35800 54.81100 22.95600
H  35.75700 48.37800 20.98100
H  34.80200 45.75200 21.79600
H  33.57600 47.01600 20.72800
H  33.81800 48.72500 20.27700
H  33.00500 48.22600 21.90800
H  37.03700 46.58900 20.28400
H  36.78300 44.91900 20.94000
H  38.18900 46.83000 22.62200
H  39.08100 46.40100 21.10400
H  38.51400 45.12300 22.28000
H  38.20900 42.43200 26.26500
H  37.36400 42.44100 24.82800
H  36.52800 41.90800 26.38700
H  37.35100 45.27500 30.61800
H  34.42200 44.97600 33.51000
H  34.57100 43.24800 33.34800
H  33.29900 44.20500 32.44300

