158

Mg 16.44900 52.44500 26.82000
C  18.35200 50.86900 29.10500
C  14.01500 53.08800 29.35600
C  14.43300 53.97600 24.51700
C  18.62700 51.65000 24.17700
N  16.21300 52.09200 28.96000
C  17.27100 51.55500 29.67900
C  16.98900 51.74900 31.12600
C  15.53200 52.20100 31.25500
C  15.20300 52.51900 29.83300
C  14.53200 51.08600 31.71400
C  18.04800 52.81000 31.65700
C  18.24400 52.93900 33.13400
H  17.32700 52.04200 34.09700
N  14.51700 53.44900 26.97500
C  13.68000 53.60700 28.09700
C  12.57600 54.46800 27.83800
C  12.75200 54.84700 26.43300
C  13.93700 54.12100 25.89000
C  11.59600 54.89300 28.88500
C  11.97800 55.83100 25.54300
O  12.32700 56.00700 24.42500
C  10.78100 56.61200 26.14700
N  16.49100 52.59200 24.70500
C  15.50000 53.26700 23.97600
C  15.59700 53.03000 22.48800
C  17.14400 52.64000 22.32400
C  17.53300 52.42100 23.78300
C  14.68900 51.94300 22.01600
C  18.03200 53.54200 21.44000
C  19.00400 54.50600 22.16800
N  18.11400 51.41600 26.64800
C  18.88100 51.13600 25.51200
C  19.98300 50.31500 25.91600
C  19.82000 50.17300 27.34500
C  18.69000 50.89300 27.74300
C  21.02900 49.71200 24.96400
C  20.32500 49.54500 28.59200
O  21.32900 48.86400 28.67000
C  19.54500 50.17200 29.79400
C  19.08100 49.14000 30.66300
O  18.22300 48.35700 30.28600
O  19.59200 49.35100 31.93100
C  19.24600 48.40000 33.02700
H  13.24000 53.14900 30.12300
H  13.74400 54.30200 23.73500
H  19.45700 51.32000 23.54900
H  17.14800 50.74700 31.52400
H  15.41100 53.04600 31.93200
H  14.12500 50.59400 30.83100
H  13.79600 51.47600 32.41700
H  15.09100 50.29200 32.20900
H  17.78500 53.75900 31.19000
H  19.01700 52.53600 31.23900
H  18.06300 53.98400 33.38400
H  19.28300 52.68400 33.34600
H  10.69100 55.32800 28.46000
H  12.05500 55.65000 29.52100
H  11.22500 54.14500 29.58600
H  11.19600 57.12800 27.01300
H  9.90200 55.99700 26.34000
H  10.49400 57.36800 25.41500
H  15.36600 53.98300 22.01200
H  17.15200 51.67000 21.82700
H  15.19700 51.31200 21.28700
H  13.93400 52.47600 21.43800
H  14.11200 51.37000 22.74200
H  17.37700 54.16900 20.83600
H  18.57600 52.90700 20.74100
H  19.14800 54.25600 23.21900
H  18.62700 55.50400 21.94500
H  19.97900 54.41200 21.69000
H  21.88100 49.35400 25.54200
H  21.31500 50.50400 24.27200
H  20.64000 48.87600 24.38300
H  20.21600 50.94500 30.16800
H  18.30000 47.87500 32.89600
H  19.25100 48.87400 34.00800
H  20.03300 47.66600 33.19900
Mg 0.96100 43.06200 26.51700
C  2.97400 43.28700 29.31800
C  -1.81700 42.47900 28.67700
C  -1.04300 42.95300 23.87900
C  3.73100 43.32500 24.58100
N  0.55000 42.80800 28.73700
C  1.59200 43.02500 29.63900
C  1.11200 43.13900 31.05600
C  -0.37900 42.54600 30.85600
C  -0.57000 42.51900 29.34900
C  -0.49200 41.10100 31.42600
C  1.04400 44.57500 31.68700
C  1.23500 44.65200 33.16800
H  0.88900 43.36600 34.01200
N  -1.18000 42.82100 26.29800
C  -2.12700 42.68000 27.30900
C  -3.40500 42.64300 26.62600
C  -3.18100 42.93200 25.24700
C  -1.76900 42.91600 25.08300
C  -4.69700 42.48400 27.44100
C  -4.16300 43.18800 24.16800
O  -3.81000 43.51400 23.03000
C  -5.66000 43.20000 24.32800
N  1.28900 43.15500 24.52200
C  0.32000 43.06100 23.54400
C  0.78300 43.06400 22.13700
C  2.29000 43.43900 22.45800
C  2.46100 43.38800 23.97000
C  0.54000 41.70600 21.44600
C  2.63900 44.82100 21.93600
C  3.81500 44.98100 20.93100
N  2.95700 43.22500 26.84200
C  4.01300 43.37900 25.97900
C  5.29700 43.34800 26.68600
C  4.89800 43.38100 28.01900
C  3.52700 43.26200 28.07600
C  6.61800 43.45000 26.17200
C  5.44800 43.46800 29.38400
O  6.60000 43.60200 29.76700
C  4.12700 43.42100 30.25400
C  4.32500 42.14800 31.05500
O  4.19000 41.01300 30.71900
O  4.71400 42.55900 32.32000
C  4.96900 41.41400 33.24800
H  -2.63300 42.31700 29.38400
H  -1.54900 42.93000 22.91100
H  4.54100 43.37200 23.85000
H  1.76900 42.50400 31.65000
H  -1.14300 43.19000 31.29000
H  0.13400 40.99000 32.31200
H  -0.28000 40.33800 30.67700
H  -1.50800 40.98200 31.80200
H  0.08300 45.02500 31.43600
H  1.81400 45.11800 31.14000
H  0.66700 45.52500 33.49000
H  2.29600 44.84700 33.32700
H  -5.38000 41.71200 27.08700
H  -5.25300 43.41700 27.35200
H  -4.44100 42.19400 28.46100
H  -5.95600 42.15800 24.45400
H  -6.23700 43.67200 23.53200
H  -5.93500 43.75000 25.22800
H  0.23000 43.89400 21.69600
H  2.87400 42.69000 21.92300
H  1.44100 41.13400 21.22700
H  -0.00600 41.89300 20.52200
H  -0.00700 40.98900 22.05800
H  2.79700 45.43900 22.82100
H  1.81900 45.26800 21.37500
H  4.46000 44.16900 20.59600
H  4.38400 45.83900 21.29000
H  3.42900 45.35300 19.98200
H  6.66700 44.18200 25.36500
H  7.11500 42.51800 25.90300
H  7.21600 43.92300 26.95200
H  4.05600 44.25100 30.95600
H  5.61200 40.72700 32.69800
H  3.98100 41.05800 33.54000
H  5.65800 41.81800 33.98900

