158

Mg 1.09400 8.26800 27.52500
C  1.51100 10.29900 30.18700
C  1.01700 5.52900 29.73300
C  0.68900 6.25400 24.98300
C  1.67700 10.88600 25.32600
N  1.44600 8.02200 29.75800
C  1.21700 9.01200 30.57000
C  0.96700 8.51300 32.03000
C  1.11500 6.98400 31.74700
C  1.26800 6.81500 30.28800
C  2.33900 6.27100 32.58700
C  -0.39300 9.03000 32.77600
C  -0.38800 9.12000 34.28500
H  0.75300 8.37600 35.08300
N  0.85900 6.15000 27.41900
C  0.68400 5.22500 28.40200
C  0.34900 3.97200 27.91500
C  0.29100 4.12300 26.46600
C  0.61200 5.54100 26.18300
C  0.23200 2.83300 28.78300
C  0.21100 3.02900 25.39800
O  0.36500 3.28400 24.20800
C  0.17900 1.53800 25.72400
N  1.19900 8.45900 25.43100
C  1.03100 7.48500 24.56400
C  1.00700 7.91000 23.06800
C  0.91900 9.48800 23.20900
C  1.26800 9.62500 24.78400
C  2.37700 7.43000 22.41400
C  -0.44900 10.14400 22.87100
C  -0.41900 11.53900 22.21900
N  1.46400 10.17800 27.70700
C  1.80000 11.14500 26.78000
C  2.02900 12.41800 27.37300
C  1.88200 12.15600 28.72400
C  1.59300 10.75400 28.85900
C  2.16800 13.79000 26.65600
C  1.85500 12.74000 30.04500
O  2.02000 13.92900 30.36000
C  1.57500 11.55800 30.99300
C  2.55200 11.40400 32.17000
O  3.77600 11.43300 32.07700
O  1.84700 11.51900 33.32700
C  2.70800 11.92000 34.50200
H  1.10100 4.71400 30.45500
H  0.44700 5.61800 24.12900
H  1.73500 11.65000 24.54800
H  1.81900 8.80000 32.64700
H  0.21300 6.49300 32.11100
H  2.02200 6.19600 33.62700
H  3.23700 6.88800 32.54600
H  2.60000 5.32300 32.11700
H  -1.21500 8.41000 32.41900
H  -0.61500 9.99900 32.32800
H  -1.35900 8.82300 34.68200
H  -0.24200 10.16100 34.57100
H  1.17100 2.36200 29.07600
H  -0.39500 2.03400 28.38700
H  -0.41900 3.13700 29.60200
H  1.01300 1.29200 26.38100
H  0.14600 0.88400 24.85300
H  -0.71500 1.27200 26.28700
H  0.16200 7.49300 22.52000
H  1.64800 10.06200 22.63700
H  2.62800 8.26100 21.75400
H  2.22600 6.50400 21.85900
H  3.09100 7.06500 23.15200
H  -1.18800 10.16700 23.67100
H  -0.77800 9.45100 22.09600
H  0.53000 12.07500 22.23700
H  -1.07500 12.30600 22.63000
H  -0.75200 11.40400 21.19000
H  2.49700 13.58300 25.63800
H  2.97800 14.31300 27.16400
H  1.32500 14.48100 26.67600
H  0.53200 11.70400 31.27500
H  3.30500 12.80900 34.29500
H  3.39600 11.11600 34.76300
H  2.01100 12.04100 35.33100
Mg 41.02600 9.50900 29.33900
C  43.00500 10.72900 32.09900
C  39.07900 7.94700 31.54300
C  39.57100 7.97600 26.80200
C  43.70300 10.45800 27.20300
N  41.11500 9.24400 31.57900
C  41.87700 9.94500 32.50100
C  41.38900 9.63800 33.96000
C  40.29000 8.60700 33.74500
C  40.12100 8.58700 32.18200
C  40.33400 7.26600 34.55300
C  40.89600 10.93600 34.70800
C  40.09100 10.79200 35.99800
H  40.47700 11.69300 37.22700
N  39.33600 8.28600 29.15700
C  38.66600 7.75500 30.22400
C  37.49200 7.04700 29.79600
C  37.53400 7.12500 28.36400
C  38.81200 7.82500 28.01200
C  36.55900 6.17200 30.63000
C  36.49900 6.75800 27.22200
O  36.81700 6.91700 26.04300
C  35.11700 6.29600 27.68500
N  41.59200 9.16700 27.32900
C  40.74600 8.58400 26.41900
C  41.22900 8.64100 24.93200
C  42.54200 9.50300 25.12200
C  42.62900 9.73700 26.67900
C  41.53200 7.20500 24.27900
C  42.49400 10.84300 24.31300
C  43.59700 11.05400 23.23900
N  42.93400 10.52500 29.53000
C  43.88700 10.76200 28.56500
C  44.87900 11.48000 29.18500
C  44.58700 11.54800 30.54500
C  43.44500 10.87300 30.71300
C  46.17400 11.98200 28.52900
C  45.07000 11.99200 31.85500
O  46.04300 12.67600 32.13800
C  44.04200 11.38700 32.96900
C  44.70000 10.32600 33.78700
O  44.92600 9.20600 33.37000
O  44.89700 10.72800 35.10100
C  45.49600 9.75200 35.96000
H  38.38000 7.43700 32.20900
H  39.17700 7.40200 25.96100
H  44.47400 10.76600 26.49500
H  42.19600 9.26500 34.59000
H  39.35500 9.08600 34.03600
H  41.36700 7.04300 34.81800
H  39.92800 6.46800 33.93200
H  39.74100 7.30500 35.46700
H  40.29000 11.39500 33.92700
H  41.75400 11.54400 34.99400
H  40.15600 9.74800 36.30500
H  39.06600 11.08800 35.77800
H  36.81600 6.36400 31.67200
H  36.65400 5.14300 30.28300
H  35.51800 6.46500 30.49500
H  34.62400 7.08600 28.25100
H  35.16600 5.44700 28.36600
H  34.46700 6.03300 26.85000
H  40.48200 9.08400 24.27400
H  43.43400 9.01900 24.72400
H  41.26800 7.37800 23.23600
H  40.96200 6.42900 24.79000
H  42.61400 7.08300 24.33100
H  42.77400 11.61300 25.03100
H  41.59200 11.05200 23.73800
H  44.31300 11.76800 23.64800
H  43.03300 11.44800 22.39300
H  43.99900 10.07700 22.97100
H  46.16200 12.81200 27.82300
H  46.40700 11.05900 27.99700
H  46.90800 12.15200 29.31700
H  43.69900 12.17600 33.63800
H  44.61500 9.37600 36.47900
H  46.20200 10.14500 36.69100
H  46.01500 8.94700 35.43900

