158

Mg 47.32400 15.87000 28.06200
C  45.27900 15.26400 30.95100
C  49.34500 17.66600 29.95100
C  48.92300 16.92200 25.26600
C  44.72900 14.62100 26.09900
N  47.27100 16.46600 30.18800
C  46.46600 16.06000 31.15400
C  46.81900 16.65900 32.51400
C  48.13100 17.42400 32.27000
C  48.21400 17.25000 30.68200
C  48.27700 18.84400 32.77000
C  47.09600 15.49100 33.58700
C  47.68100 15.99900 34.91400
H  47.08400 17.34000 35.49600
N  49.07700 16.86600 27.69200
C  49.73300 17.54200 28.62900
C  50.96100 17.99300 28.10700
C  50.96400 17.66800 26.74300
C  49.60300 17.11900 26.47200
C  52.02000 18.55400 29.00800
C  52.09600 17.77300 25.76400
O  51.86400 17.81100 24.54400
C  53.49800 18.00000 26.35100
N  47.07800 15.54200 25.87900
C  47.74600 16.22800 24.96200
C  46.97300 16.32200 23.59200
C  45.72500 15.43000 23.95600
C  45.82500 15.18600 25.43800
C  46.51600 17.83000 23.22400
C  45.60900 14.12600 23.02200
C  44.51500 14.05600 21.93600
N  45.42400 14.97500 28.41500
C  44.48300 14.57300 27.49000
C  43.32600 14.06600 28.12200
C  43.55500 14.25000 29.49100
C  44.83600 14.85600 29.63800
C  42.03600 13.57700 27.47400
C  43.03600 14.09200 30.79800
O  41.91300 13.72200 31.18200
C  44.14200 14.72100 31.83900
C  43.41500 15.73100 32.58600
O  42.94300 16.81100 32.08800
O  43.24800 15.28100 33.84500
C  42.21300 15.95700 34.64800
H  50.01500 18.27500 30.56100
H  49.40300 17.29400 24.35800
H  43.79000 14.55000 25.54700
H  46.03200 17.34200 32.83300
H  48.95700 16.82000 32.64500
H  48.04100 19.54400 31.96900
H  49.31200 18.93300 33.10100
H  47.63200 19.12800 33.60200
H  47.89000 14.87300 33.16700
H  46.14900 14.95300 33.60400
H  48.76000 16.14900 34.88000
H  47.43400 15.25600 35.67200
H  52.36100 19.43800 28.46900
H  52.78300 17.79400 29.17900
H  51.70100 19.00800 29.94600
H  54.15900 18.07600 25.48700
H  53.81800 17.20400 27.02400
H  53.42900 18.92600 26.92200
H  47.57500 15.95000 22.76300
H  44.76300 15.89700 23.74100
H  45.44300 17.96600 23.35600
H  46.73000 18.04100 22.17600
H  47.00900 18.52600 23.90300
H  45.58600 13.24300 23.66100
H  46.55300 14.18600 22.47900
H  43.72500 14.80600 21.95900
H  43.85100 13.20700 22.09700
H  45.05700 13.89800 21.00300
H  41.96800 12.53000 27.17900
H  41.95200 14.27600 26.64100
H  41.14300 13.71400 28.08400
H  44.41400 13.94400 32.55300
H  42.85100 16.67600 35.16200
H  41.96600 15.05400 35.20700
H  41.39500 16.31100 34.02100
Mg 6.43400 54.35700 41.44700
C  5.91600 50.85300 41.26900
C  9.55200 53.80200 40.11400
C  6.86700 57.65200 41.56200
C  3.01100 54.85500 42.14600
N  7.56500 52.44000 40.61800
C  7.16800 51.16300 40.64800
C  8.26900 50.29400 40.23200
C  9.47100 51.28800 40.03600
C  8.81700 52.61900 40.27200
C  10.84900 51.03800 40.85400
C  8.04900 49.41800 38.95200
C  7.14100 49.87900 37.84400
H  7.73400 50.09100 36.44100
N  7.97400 55.58600 40.86200
C  9.17200 55.14700 40.38900
C  9.98800 56.27000 40.30000
C  9.32200 57.43600 40.75700
C  7.98400 56.94600 41.08800
C  11.42100 56.10100 39.98800
C  9.98600 58.88800 40.82500
O  11.12600 59.12800 40.54300
C  9.27400 60.02700 41.49300
N  5.04900 56.07100 41.71000
C  5.55800 57.32700 41.76300
C  4.47100 58.27900 42.18400
C  3.16600 57.39200 42.25400
C  3.71700 56.00800 42.05700
C  4.76600 59.09800 43.52400
C  1.96500 57.75200 41.35500
C  0.85700 58.47900 42.06100
N  4.83100 53.16500 41.63100
C  3.49400 53.51700 41.90900
C  2.77200 52.26900 42.14000
C  3.76900 51.26500 42.00500
C  4.94200 51.80100 41.54500
C  1.31400 52.12400 42.26200
C  3.91000 49.83600 42.10800
O  3.09600 49.03200 42.51700
C  5.35200 49.49700 41.61300
C  5.20500 48.46900 40.57100
O  4.46400 48.59100 39.57800
O  5.92400 47.35500 40.77000
C  5.62700 46.21000 39.77700
H  10.55700 53.64900 39.71500
H  7.07500 58.70900 41.73800
H  1.97100 54.86500 42.47900
H  8.44500 49.65100 41.09400
H  9.74100 51.35500 38.98200
H  10.77100 50.43600 41.75900
H  11.16200 51.96200 41.34000
H  11.60200 50.61100 40.19100
H  7.78500 48.37500 39.12700
H  9.08800 49.38600 38.62400
H  6.76200 50.85700 38.14000
H  6.29400 49.21400 37.67200
H  12.15800 56.81200 40.36000
H  11.59200 55.98200 38.91800
H  11.67800 55.12300 40.39600
H  8.45300 60.29500 40.82700
H  10.07100 60.75300 41.65700
H  8.95500 59.68300 42.47700
H  4.37100 59.04200 41.41200
H  2.83800 57.45800 43.29100
H  4.72800 60.17700 43.37300
H  5.75400 58.76400 43.84100
H  3.97400 58.83300 44.22500
H  1.54600 56.84300 40.92400
H  2.41400 58.38700 40.59100
H  0.07600 57.74300 42.25500
H  0.43500 59.27400 41.44700
H  1.21500 58.99300 42.95300
H  0.89400 51.78400 41.31500
H  0.71900 52.96500 42.61700
H  1.09500 51.36000 43.00800
H  5.90000 49.09300 42.46500
H  6.14800 45.30500 40.09100
H  5.90500 46.40700 38.74100
H  4.58700 45.89300 39.86000

