158

Mg 2.05900 -1.16300 43.67400
C  5.52100 -0.33600 43.04500
C  1.19700 1.74700 42.13400
C  -1.04200 -2.37000 43.41600
C  3.24300 -4.20500 44.83300
N  3.23000 0.51400 42.77000
C  4.57600 0.64000 42.55800
C  5.02600 1.96300 41.91300
C  3.63700 2.71500 41.93800
C  2.57900 1.55800 42.25600
C  3.52100 3.93100 42.92100
C  5.66500 1.87400 40.46100
C  6.91100 2.68700 40.11900
H  6.93100 3.61000 38.94400
N  0.27900 -0.35100 43.02000
C  0.11300 0.86300 42.40500
C  -1.23200 1.01400 42.05100
C  -1.94000 -0.10200 42.49800
C  -0.92900 -1.06500 43.01600
C  -1.81800 2.17300 41.43600
C  -3.46200 -0.30000 42.44700
O  -4.20400 0.49700 41.91200
C  -4.18200 -1.45100 43.06700
N  1.26200 -3.08000 43.96800
C  -0.04600 -3.29700 43.93800
C  -0.42400 -4.74600 44.43200
C  0.98600 -5.26000 44.96300
C  1.91500 -4.17400 44.48100
C  -1.67200 -4.83500 45.32800
C  1.34300 -6.64400 44.23400
C  2.00900 -7.70400 45.21600
N  4.00300 -2.12100 43.97900
C  4.28700 -3.28300 44.57900
C  5.69400 -3.34100 44.82500
C  6.23100 -2.25500 44.21600
C  5.16600 -1.55300 43.71500
C  6.45300 -4.36500 45.64600
C  7.48700 -1.53900 43.96100
O  8.65200 -1.72200 44.30500
C  7.03800 -0.42700 43.02100
C  7.75200 0.85300 43.34800
O  8.45400 1.42700 42.53500
O  7.48100 1.35100 44.57100
C  7.93000 2.72900 44.82900
H  0.94900 2.75200 41.78700
H  -2.10900 -2.60400 43.40400
H  3.49800 -5.15200 45.31300
H  5.61000 2.42400 42.71000
H  3.22300 3.06100 40.99100
H  4.51200 4.19000 43.29400
H  2.81900 3.71200 43.72600
H  3.18100 4.79700 42.35500
H  4.94500 2.14700 39.69000
H  5.92400 0.82200 40.34600
H  7.69700 1.96700 39.89400
H  7.11300 3.32600 40.97900
H  -2.53000 1.88800 40.66200
H  -1.14600 2.84600 40.90400
H  -2.22100 2.73700 42.27600
H  -5.21900 -1.16700 43.24500
H  -3.79400 -1.71000 44.05200
H  -4.04700 -2.28100 42.37400
H  -0.56700 -5.21900 43.46000
H  1.08700 -5.24400 46.04800
H  -1.38100 -5.43400 46.19100
H  -2.56100 -5.26000 44.86400
H  -1.92200 -3.85000 45.72100
H  2.04100 -6.45100 43.41900
H  0.48700 -7.08000 43.72000
H  1.45800 -8.64400 45.17900
H  2.15400 -7.34300 46.23400
H  2.98400 -7.95900 44.80200
H  5.95100 -5.32200 45.50700
H  6.31100 -3.98900 46.65900
H  7.52500 -4.45700 45.47100
H  7.41600 -0.71900 42.04000
H  7.36400 3.37600 44.16000
H  8.98100 2.87800 44.58000
H  7.65600 3.08400 45.82300
Mg 18.04900 -0.82800 27.38400
C  17.09600 1.21000 30.11400
C  20.11800 -2.55500 29.61400
C  19.13500 -2.49100 24.78900
C  16.62700 1.73800 25.20200
N  18.43800 -0.70200 29.58600
C  17.89000 0.12400 30.54500
C  18.43300 -0.20900 32.01100
C  19.55300 -1.26800 31.71400
C  19.40700 -1.53700 30.21500
C  20.95900 -0.73100 32.07600
C  17.19800 -0.77600 32.77700
C  17.05400 -0.44200 34.26100
H  18.17100 0.28000 35.03200
N  19.34100 -2.33800 27.28100
C  20.08400 -3.02000 28.28400
C  20.74200 -4.14600 27.64600
C  20.46100 -4.10000 26.24800
C  19.65800 -2.94500 26.03800
C  21.50600 -5.13500 28.48500
C  20.90800 -5.03700 25.23100
O  20.61400 -4.94900 24.06900
C  21.73600 -6.32700 25.59800
N  17.88600 -0.39900 25.34900
C  18.32900 -1.36000 24.46400
C  17.93300 -0.98300 23.07200
C  17.30700 0.42900 23.18700
C  17.22900 0.61600 24.68200
C  19.17500 -1.05100 22.15500
C  15.97000 0.61300 22.41600
C  14.72600 -0.04200 23.05800
N  16.91000 1.04700 27.63900
C  16.31000 1.85300 26.57800
C  15.47200 2.76100 27.26300
C  15.70200 2.57300 28.63500
C  16.61600 1.49800 28.80100
C  14.65100 3.88000 26.64300
C  15.37100 3.01400 29.98600
O  14.59800 3.87400 30.33100
C  16.31000 2.16200 30.93400
C  17.11500 3.04200 31.78500
O  18.35400 3.12400 31.84100
O  16.37100 3.77600 32.60400
C  16.98600 4.75200 33.54400
H  20.89900 -3.00800 30.22800
H  19.39000 -3.08000 23.90600
H  16.30300 2.42300 24.41500
H  18.66900 0.74200 32.48900
H  19.39900 -2.16500 32.31200
H  21.64200 -0.65500 31.23100
H  21.35100 -1.44800 32.79800
H  20.90100 0.25400 32.53800
H  17.11600 -1.86300 32.76600
H  16.25700 -0.45800 32.32700
H  17.02100 -1.41000 34.75900
H  16.12100 0.06600 34.50500
H  21.19700 -6.18000 28.50500
H  21.55700 -4.94700 29.55800
H  22.53700 -5.26600 28.15300
H  22.56700 -5.97700 26.21000
H  22.15700 -6.68200 24.65700
H  21.09100 -6.99700 26.16500
H  17.10900 -1.65000 22.82000
H  17.98300 1.17000 22.76100
H  19.26000 -0.20900 21.46800
H  19.09100 -1.89500 21.47100
H  20.08600 -1.02200 22.75300
H  16.13100 0.18700 21.42600
H  15.76900 1.67700 22.29200
H  13.93800 0.69200 23.23200
H  14.91200 -0.50700 24.02600
H  14.41600 -0.84600 22.39000
H  14.16000 3.49400 25.74900
H  15.32300 4.69200 26.36600
H  13.88500 4.18200 27.35700
H  15.71700 1.76700 31.75900
H  17.08000 5.69200 33.00100
H  17.90300 4.53100 34.09100
H  16.13100 4.99800 34.17400

