158

Mg 24.65200 -7.43100 46.51500
C  26.86600 -4.80700 45.31500
C  22.34000 -6.28700 44.13700
C  22.84700 -10.08700 47.17700
C  27.41000 -8.82200 48.05500
N  24.60000 -5.74500 44.97800
C  25.65800 -4.85600 44.59200
C  25.26100 -4.07700 43.39500
C  23.71200 -4.31900 43.39600
C  23.46800 -5.52700 44.23200
C  22.75400 -3.12100 43.74400
C  26.07000 -4.41200 42.08700
C  26.80100 -3.28100 41.32300
H  26.54400 -3.20100 39.81000
N  22.69400 -7.88200 46.05300
C  21.94300 -7.32900 45.04700
C  20.67100 -8.04900 45.04300
C  20.76700 -9.16900 45.95300
C  22.17100 -9.11400 46.45700
C  19.49800 -7.69900 44.10700
C  19.72100 -10.15500 46.17600
O  18.63400 -9.97900 45.66800
C  19.95500 -11.31800 47.10000
N  25.09800 -9.27400 47.49600
C  24.15300 -10.14600 47.71100
C  24.70100 -11.34300 48.68400
C  26.16500 -10.92500 48.82200
C  26.24700 -9.60100 48.10300
C  23.97500 -11.48200 50.09000
C  27.27600 -11.89800 48.45500
C  28.48400 -12.02800 49.45200
N  26.70200 -6.80100 46.84900
C  27.61900 -7.50500 47.53100
C  28.79600 -6.67300 47.65800
C  28.55200 -5.63700 46.75600
C  27.22900 -5.75500 46.28100
C  30.02500 -7.14600 48.38700
C  29.06500 -4.38600 46.11100
O  30.14500 -3.84100 46.19900
C  28.05200 -3.99200 45.04900
C  27.60800 -2.57200 45.41500
O  27.74500 -1.57600 44.67500
O  26.81000 -2.61800 46.52200
C  26.29000 -1.38100 46.98000
H  21.66300 -6.01100 43.32500
H  22.21700 -10.92200 47.49300
H  28.25500 -9.18000 48.64700
H  25.50200 -3.04900 43.66500
H  23.36900 -4.50500 42.37800
H  22.13500 -3.31100 44.62100
H  22.16800 -2.88100 42.85700
H  23.48200 -2.33800 43.95200
H  25.47300 -4.94400 41.34600
H  26.83300 -5.11700 42.41400
H  27.85500 -3.46500 41.53100
H  26.47200 -2.34600 41.77700
H  18.99900 -8.61000 43.77800
H  19.85300 -7.05900 43.29900
H  18.80400 -7.17300 44.76300
H  20.29700 -10.99400 48.08300
H  20.60100 -12.07400 46.65500
H  18.97700 -11.78900 47.19300
H  24.77000 -12.34900 48.27100
H  26.30000 -10.67400 49.87400
H  24.33800 -12.27000 50.74900
H  22.89600 -11.60200 49.98700
H  24.14900 -10.49300 50.51300
H  27.65900 -11.64700 47.46600
H  26.85500 -12.89900 48.36700
H  28.19000 -11.57100 50.39600
H  29.33000 -11.47700 49.03900
H  28.72700 -13.07400 49.64000
H  30.71100 -6.31600 48.55900
H  30.48600 -7.98100 47.85900
H  29.66800 -7.41400 49.38100
H  28.37200 -4.02000 44.00700
H  27.12700 -0.92900 47.51300
H  25.44800 -1.39000 47.67100
H  25.91200 -0.64800 46.26700
Mg 34.49000 49.41000 25.47400
C  34.65800 47.63800 28.58000
C  33.17200 52.07800 27.18400
C  34.01000 50.74200 22.52100
C  34.98400 46.31900 23.83800
N  33.94200 49.75600 27.58800
C  34.23700 48.93400 28.71600
C  34.04300 49.65800 30.03400
C  33.38200 51.01500 29.58000
C  33.50600 50.97100 28.05800
C  31.95200 51.29600 30.10500
C  35.24200 49.79300 31.02600
C  35.05300 49.42600 32.53700
H  33.55500 49.58600 33.11700
N  33.75300 51.20100 24.95000
C  33.21900 52.16200 25.77700
C  32.71500 53.25000 24.96600
C  33.12200 52.96200 23.60500
C  33.68700 51.59200 23.67000
C  31.69000 54.20700 25.55200
C  32.83200 53.76500 22.32400
O  33.25300 53.43100 21.22300
C  31.89400 54.96800 22.44600
N  34.40200 48.60000 23.40600
C  34.24300 49.39400 22.35500
C  34.44800 48.73400 20.94600
C  34.79300 47.28700 21.47400
C  34.74300 47.38200 23.01500
C  33.28500 48.72500 19.92800
C  36.22800 46.93900 21.05900
C  37.47400 47.55900 21.78600
N  34.86300 47.37600 26.02900
C  35.01700 46.20600 25.26900
C  35.22000 45.08800 26.12300
C  35.07400 45.55400 27.41200
C  34.86900 46.95800 27.30400
C  35.60500 43.66800 25.65700
C  35.17000 45.21500 28.81700
O  35.35900 44.15100 29.40400
C  34.81000 46.51000 29.58700
C  33.51700 46.16100 30.33300
O  32.42700 46.15400 29.79000
O  33.75200 45.74500 31.62500
C  32.52800 45.61700 32.44500
H  32.78100 52.94600 27.71800
H  33.84600 51.30800 21.60100
H  35.18800 45.31200 23.46700
H  33.28300 49.00500 30.46300
H  33.97400 51.79400 30.06100
H  31.47100 50.36600 30.40600
H  31.26400 51.75700 29.39700
H  31.95200 51.86600 31.03400
H  35.55800 50.83600 31.03200
H  36.00100 49.15600 30.57200
H  35.64900 50.14100 33.10400
H  35.47100 48.47800 32.87500
H  30.82400 54.47800 24.94900
H  32.13400 55.13200 25.92100
H  31.24200 53.79300 26.45500
H  32.26700 55.60600 23.24700
H  30.89100 54.55700 22.56500
H  32.01600 55.52200 21.51600
H  35.30000 49.15600 20.41300
H  34.10000 46.46800 21.28000
H  32.36500 49.05800 20.40700
H  33.25900 47.73100 19.48100
H  33.51700 49.31400 19.04100
H  36.42500 47.14600 20.00700
H  36.18200 45.85800 21.18500
H  37.27500 48.61200 21.98600
H  38.32100 47.51600 21.10200
H  37.69500 47.02600 22.71100
H  36.45300 43.30500 26.23800
H  35.87200 43.61900 24.60100
H  34.80300 42.97400 25.90900
H  35.51900 46.62900 30.40600
H  32.24200 44.56500 32.46900
H  31.70000 46.25300 32.13300
H  32.77100 45.87500 33.47600

