158

Mg 0.14300 7.03600 25.61900
C  0.90000 9.09400 28.44900
C  0.32500 4.37700 27.81600
C  -0.47000 5.23500 23.01200
C  0.69000 9.82800 23.63400
N  0.45700 6.80600 27.96800
C  0.70600 7.77700 28.88500
C  0.62400 7.24200 30.29500
C  0.75800 5.69500 30.00100
C  0.38500 5.60600 28.54400
C  2.20800 5.11100 30.39100
C  -0.78600 7.65200 30.89400
C  -0.85500 7.82200 32.43800
H  0.30600 7.58700 33.40900
N  -0.08300 5.05700 25.40400
C  0.10500 4.10400 26.35000
C  0.05700 2.81800 25.73100
C  -0.32900 3.01700 24.32400
C  -0.26300 4.49100 24.18800
C  0.27200 1.63900 26.60400
C  -0.62400 2.00300 23.27200
O  -0.79500 2.27700 22.11300
C  -0.86100 0.61200 23.68500
N  0.24900 7.47100 23.55100
C  -0.25600 6.54500 22.70100
C  -0.63700 7.23300 21.36900
C  -0.42900 8.67800 21.67000
C  0.20500 8.66900 23.04800
C  0.18500 6.59100 20.21200
C  -1.71000 9.65600 21.62700
C  -1.79200 10.70300 20.44800
N  0.59200 9.12200 25.93600
C  0.94600 10.10500 25.04700
C  1.44000 11.29700 25.71300
C  1.38100 10.97700 27.05200
C  0.92300 9.64300 27.14700
C  1.59800 12.68000 25.10100
C  1.61100 11.45100 28.39100
O  2.01600 12.52100 28.92100
C  1.20300 10.25400 29.28200
C  2.26600 10.08100 30.29600
O  3.23100 9.38000 30.13700
O  1.94000 10.80200 31.40200
C  2.79600 10.76300 32.56300
H  0.55000 3.57900 28.52700
H  -0.80400 4.55200 22.22700
H  0.76100 10.73900 23.03600
H  1.46200 7.64600 30.86300
H  0.13700 5.04200 30.61400
H  2.62300 4.80300 29.43100
H  2.02600 4.26600 31.05600
H  2.75100 5.87500 30.94600
H  -1.47600 6.89600 30.51800
H  -1.03000 8.61400 30.44400
H  -1.65800 7.20300 32.83800
H  -1.16200 8.84300 32.66500
H  0.92700 1.91600 27.43000
H  0.82900 0.96100 25.95600
H  -0.61900 1.14800 26.99700
H  -1.35900 0.49800 24.64800
H  0.06800 0.04200 23.72300
H  -1.46600 0.05800 22.96700
H  -1.70800 7.04000 21.30100
H  0.39100 9.01500 21.03700
H  -0.48300 6.02700 19.56100
H  0.94700 5.96600 20.67500
H  0.71900 7.30400 19.58300
H  -1.71800 10.14100 22.60300
H  -2.64000 9.08800 21.63800
H  -0.85200 10.58500 19.91000
H  -1.77100 11.66100 20.96900
H  -2.71300 10.67700 19.86600
H  2.48100 12.77200 24.46800
H  1.62000 13.46700 25.85500
H  0.76400 12.90800 24.43700
H  0.39200 10.59600 29.92500
H  3.50200 9.93200 32.55900
H  2.30300 10.83800 33.53200
H  3.48900 11.59800 32.45300
Mg 7.47100 52.86000 42.07200
C  6.98200 49.44400 41.52100
C  10.48900 52.69700 40.55400
C  7.66600 56.19300 42.36000
C  4.25900 53.05600 43.36500
N  8.50600 51.24600 40.95700
C  8.17100 49.95900 40.93300
C  9.30200 49.17100 40.18000
C  10.53200 50.14600 40.22500
C  9.83300 51.44900 40.64600
C  11.79600 49.69500 41.00500
C  8.81900 48.71900 38.77200
C  7.96200 49.71900 37.92700
H  7.72000 49.37700 36.46400
N  8.88400 54.30900 41.48800
C  10.06900 54.05900 40.84800
C  10.86900 55.23600 40.80400
C  10.08500 56.25200 41.31600
C  8.81700 55.57700 41.81600
C  12.20900 55.28900 40.02000
C  10.44600 57.79200 41.38300
O  11.50100 58.17300 40.87200
C  9.47300 58.82800 41.78300
N  6.11900 54.47300 42.55200
C  6.43100 55.73300 42.70000
C  5.15800 56.65900 42.95500
C  4.15500 55.50600 43.34900
C  4.86900 54.24700 43.06900
C  5.28900 57.90400 43.96300
C  2.75800 55.58000 42.61400
C  1.51600 55.47200 43.53000
N  5.85500 51.59300 42.42500
C  4.66000 51.76500 43.03900
C  3.99400 50.55200 43.12900
C  4.94100 49.57700 42.72800
C  5.98200 50.28900 42.15700
C  2.56800 50.26800 43.58800
C  5.25900 48.15800 42.63300
O  4.66000 47.14200 42.99100
C  6.60700 48.08700 41.75600
C  6.27100 47.38600 40.45600
O  5.57700 47.77800 39.50800
O  6.73500 46.11400 40.53500
C  6.31500 45.13900 39.55400
H  11.52300 52.61100 40.21200
H  7.87700 57.21400 42.68300
H  3.30400 53.00800 43.89200
H  9.53700 48.22000 40.66000
H  10.90600 50.31900 39.21600
H  12.63500 49.51700 40.33300
H  11.62800 48.75200 41.52400
H  11.88100 50.44600 41.79100
H  8.47700 47.68800 38.86100
H  9.72500 48.70400 38.16600
H  8.53600 50.64500 37.87900
H  7.04100 50.03200 38.42000
H  12.07800 55.25100 38.93900
H  12.76500 54.42900 40.39400
H  12.76400 56.21800 40.15000
H  9.19700 58.79000 42.83700
H  8.55800 58.66000 41.21400
H  9.87700 59.80300 41.51000
H  4.85000 57.10600 42.01000
H  4.08000 55.66100 44.42500
H  4.46100 57.76500 44.65800
H  5.31000 58.91400 43.55200
H  6.25400 57.91300 44.47000
H  2.65200 54.72500 41.94700
H  2.74700 56.49300 42.01900
H  0.97600 54.57200 43.23400
H  0.88600 56.36100 43.55000
H  1.92800 55.33900 44.53100
H  1.93800 51.14800 43.45700
H  2.54500 49.90200 44.61500
H  2.15700 49.39000 43.08900
H  7.43000 47.66300 42.33200
H  6.90300 45.34900 38.66100
H  5.26200 45.20500 39.27900
H  6.49100 44.08700 39.78100

