158

Mg 40.40500 10.24000 30.15900
C  41.98300 11.74300 32.73100
C  38.05500 9.02300 32.34900
C  38.71100 8.86900 27.60500
C  42.89800 11.19100 27.94100
N  39.95000 10.48300 32.34000
C  40.86500 11.01400 33.22300
C  40.43400 10.84400 34.68200
C  39.23100 9.83100 34.52600
C  38.99200 9.82300 32.98000
C  39.62700 8.35800 35.06200
C  40.03300 12.08800 35.38300
C  40.70400 12.26100 36.75000
H  40.11900 13.24200 37.75400
N  38.62500 9.15500 30.01800
C  37.80800 8.67400 30.97500
C  36.73300 7.92400 30.41800
C  36.81900 8.01000 29.03200
C  38.07300 8.78000 28.78200
C  35.54800 7.27000 31.33300
C  35.90200 7.41600 27.95600
O  35.97400 7.57000 26.72200
C  34.62700 6.67300 28.46000
N  40.74400 10.12400 28.00300
C  39.91100 9.47400 27.19900
C  40.52100 9.40100 25.74300
C  41.75000 10.36800 25.86100
C  41.79400 10.59500 27.35300
C  40.95400 7.96100 25.28600
C  41.58100 11.64500 25.00000
C  40.75300 12.82300 25.54700
N  42.12500 11.19900 30.25500
C  43.03700 11.57300 29.29300
C  44.03200 12.44500 29.89200
C  43.58600 12.48200 31.25100
C  42.42900 11.80100 31.40200
C  45.22100 13.06800 29.24200
C  44.06500 12.96000 32.52200
O  45.06800 13.57000 32.84800
C  42.99200 12.56400 33.53600
C  43.64900 11.77100 34.61900
O  43.72600 10.57000 34.57900
O  44.03400 12.50100 35.70800
C  44.71300 11.80900 36.90000
H  37.44300 8.44300 33.04300
H  38.31200 8.29700 26.76500
H  43.61100 11.59500 27.21800
H  41.32000 10.36500 35.09800
H  38.41400 10.14500 35.17600
H  38.78300 7.88300 35.56200
H  40.48300 8.51200 35.71900
H  39.94100 7.61700 34.32700
H  38.94800 12.17200 35.44700
H  40.42500 12.94400 34.83300
H  41.69000 12.60800 36.43900
H  40.74800 11.31700 37.29200
H  34.58800 7.71400 31.07100
H  35.77700 7.49700 32.37500
H  35.55500 6.18600 31.21800
H  35.05800 5.78200 28.91900
H  33.96300 6.46900 27.62100
H  33.95400 7.26600 29.07900
H  39.77800 9.74000 25.02100
H  42.72000 10.04500 25.48500
H  40.66500 7.13700 25.93900
H  42.04100 7.92100 25.21800
H  40.52400 7.77100 24.30300
H  41.04600 11.30400 24.11400
H  42.53700 12.09200 24.73000
H  40.19600 13.30000 24.74100
H  41.55200 13.48000 25.89200
H  40.07900 12.57500 26.36700
H  44.89700 13.27700 28.22200
H  46.06200 12.37400 29.26000
H  45.50700 13.86300 29.93000
H  42.54600 13.48100 33.92100
H  45.30700 10.92900 36.65700
H  43.84100 11.53400 37.49400
H  45.35700 12.50200 37.44200
Mg 17.17200 51.28900 25.77600
C  18.83600 50.27300 28.58900
C  14.46500 52.08100 27.69700
C  15.59000 52.47600 22.99800
C  19.77400 50.04300 23.80900
N  16.69100 51.13600 27.91200
C  17.52700 50.74900 28.87100
C  16.91200 51.04800 30.27100
C  15.44800 51.40600 30.02600
C  15.54700 51.60700 28.47700
C  14.41700 50.27000 30.39700
C  17.70800 52.16400 31.09500
C  17.99800 51.84900 32.52500
H  17.13400 52.51600 33.59500
N  15.28700 52.25000 25.41100
C  14.33100 52.45200 26.33700
C  13.16200 53.06600 25.73400
C  13.48500 53.28100 24.35800
C  14.86100 52.66800 24.21500
C  11.87500 53.40600 26.52700
C  12.59300 53.93800 23.26900
O  12.94600 53.98800 22.06000
C  11.33000 54.54900 23.59200
N  17.68700 51.36000 23.76800
C  16.84300 51.89300 22.79200
C  17.39200 51.63300 21.36800
C  18.84900 51.21500 21.71100
C  18.82000 50.82300 23.16800
C  16.59200 50.66400 20.52100
C  19.94700 52.21400 21.32000
C  21.02100 51.57600 20.45500
N  18.93700 50.34600 26.07900
C  19.88200 49.80200 25.16900
C  21.05400 49.27800 25.90000
C  20.70800 49.47400 27.21300
C  19.40400 50.06700 27.29600
C  22.31400 48.67400 25.24900
C  21.16900 49.31500 28.56100
O  22.23200 48.86400 29.03900
C  19.96300 49.87000 29.52600
C  19.63100 48.79400 30.51400
O  19.09600 47.69900 30.22900
O  20.09100 49.16100 31.74500
C  19.95300 48.25300 32.89100
H  13.55900 52.15700 28.30100
H  14.93700 52.66900 22.14500
H  20.58500 49.73900 23.14400
H  17.06000 50.19200 30.92800
H  15.25900 52.38800 30.45800
H  13.38400 50.61500 30.34700
H  14.56300 49.88900 31.40700
H  14.57000 49.48400 29.65700
H  16.99100 52.98300 31.15500
H  18.67600 52.37300 30.64000
H  19.04800 52.12300 32.63100
H  18.03900 50.77400 32.70000
H  11.86400 54.49400 26.45800
H  11.87500 53.12700 27.58100
H  11.03600 52.98000 25.97700
H  10.87500 55.08300 22.75700
H  11.70100 55.39900 24.16400
H  10.58500 53.96000 24.12800
H  17.31200 52.53100 20.75600
H  19.03900 50.25000 21.24000
H  16.52200 51.10300 19.52600
H  15.56700 50.65400 20.89200
H  17.05300 49.67700 20.48500
H  20.44600 52.65400 22.18400
H  19.58600 52.96500 20.61800
H  20.65300 51.53000 19.43000
H  21.29400 50.62800 20.91700
H  21.96500 52.10800 20.33800
H  22.00900 48.08700 24.38300
H  22.90200 48.04700 25.92000
H  22.96600 49.51800 25.02900
H  20.39000 50.63500 30.17500
H  19.19400 47.48600 32.73900
H  19.79700 48.91100 33.74600
H  20.96500 47.84900 32.93000

