158

Mg 35.12100 2.23400 29.72900
C  32.97000 3.34000 32.07800
C  37.66900 2.32800 31.97200
C  37.60100 1.86900 27.15900
C  32.65000 2.54700 27.39200
N  35.28200 2.79500 31.72700
C  34.28600 3.12500 32.58000
C  34.82700 3.51800 33.93300
C  36.30400 3.40000 33.79000
C  36.42600 2.74200 32.43500
C  37.17000 4.61600 33.90900
C  34.21200 2.58600 35.10900
C  34.03000 3.20400 36.43400
H  35.14200 4.23300 36.97100
N  37.28200 1.95300 29.65200
C  38.07100 1.91600 30.69300
C  39.40200 1.49500 30.28500
C  39.39500 1.37900 28.85400
C  38.04500 1.70900 28.47600
C  40.53100 1.38100 31.31500
C  40.45100 1.05600 27.91800
O  40.31000 0.85400 26.68900
C  41.89200 0.92800 28.50400
N  35.18100 2.60500 27.59900
C  36.24600 2.24000 26.79500
C  35.81000 1.98500 25.35600
C  34.24900 1.84500 25.42800
C  34.00600 2.51000 26.82300
C  36.30700 3.13300 24.37300
C  33.67500 0.44300 25.30800
C  32.19000 0.22200 24.84700
N  33.15500 2.75100 29.67100
C  32.31700 2.80600 28.64100
C  30.99900 3.19100 29.10100
C  31.16600 3.37100 30.48600
C  32.48900 3.17500 30.79900
C  29.76600 3.25700 28.27500
C  30.54500 3.74000 31.75200
O  29.35900 3.92500 32.00600
C  31.69100 3.75700 32.86500
C  31.74200 5.07800 33.39500
O  31.86000 6.11100 32.76000
O  31.54300 5.02600 34.74500
C  31.13700 6.23200 35.48300
H  38.46700 2.22000 32.71000
H  38.13300 1.65600 26.22900
H  31.92500 2.42700 26.58500
H  34.57700 4.55400 34.15900
H  36.75400 2.76200 34.55000
H  36.63800 5.39800 34.45100
H  37.32000 5.12000 32.95400
H  38.06900 4.21600 34.37600
H  34.76500 1.64900 35.17500
H  33.20400 2.32800 34.78700
H  34.13800 2.31600 37.05700
H  33.06600 3.69100 36.29000
H  40.75300 0.31400 31.33300
H  40.14000 1.74200 32.26600
H  41.47000 1.79700 30.94900
H  42.00900 0.01000 29.07900
H  42.23100 1.88600 28.89900
H  42.51400 0.84600 27.61200
H  36.23900 1.02000 25.08500
H  33.73600 2.53500 24.75700
H  36.57600 4.03200 24.92700
H  35.46200 3.37700 23.72900
H  37.16200 2.72900 23.83100
H  33.80900 -0.09400 26.24700
H  34.30400 -0.09500 24.59800
H  32.24900 -0.26200 23.87200
H  31.62200 1.15200 24.81200
H  31.63000 -0.37500 25.56800
H  29.40500 4.27000 28.10000
H  28.97500 2.75500 28.83200
H  29.88800 2.78600 27.29900
H  31.59500 2.91300 33.54900
H  30.87200 7.06400 34.83100
H  32.04500 6.53700 36.00300
H  30.33400 5.97500 36.17400
Mg 0.72900 42.68900 25.92700
C  2.13700 42.63800 28.97100
C  -1.99100 41.02800 27.12700
C  -0.40800 42.14900 22.71900
C  3.80000 43.72700 24.57200
N  0.14100 42.00500 27.80800
C  0.86500 42.21200 28.91200
C  0.05200 41.80700 30.14500
C  -1.33200 41.26300 29.55800
C  -1.01500 41.38900 28.03100
C  -1.75700 39.80900 30.10300
C  -0.08700 42.88200 31.20100
C  0.41500 42.45400 32.62100
H  -0.41900 42.66600 33.87600
N  -1.00400 41.84000 25.09500
C  -1.97500 41.21900 25.75800
C  -2.99700 40.81300 24.85900
C  -2.60300 41.27700 23.54500
C  -1.28100 41.72800 23.69600
C  -4.27000 40.25800 25.37300
C  -3.36500 41.06700 22.22500
O  -2.83600 41.33300 21.11400
C  -4.72100 40.38400 22.15600
N  1.57700 42.92100 23.99300
C  0.85200 42.70700 22.85900
C  1.60900 43.15100 21.58300
C  2.83900 43.88700 22.22300
C  2.78100 43.54900 23.68800
C  1.96100 42.04600 20.58100
C  2.86800 45.45500 21.92800
C  4.09500 45.85000 21.12800
N  2.66300 43.05400 26.61200
C  3.82200 43.48300 25.95700
C  4.92500 43.62800 26.92400
C  4.27400 43.30100 28.10100
C  2.92400 42.98800 27.84600
C  6.36200 43.93400 26.59400
C  4.48300 43.16500 29.55900
O  5.49800 43.38300 30.24500
C  3.10400 42.73000 30.11100
C  3.32200 41.44200 30.83700
O  3.00000 40.32800 30.44600
O  3.93900 41.68400 32.05700
C  4.20900 40.52100 32.90000
H  -2.88800 40.66700 27.63500
H  -0.68500 41.93600 21.68500
H  4.69500 44.06100 24.04400
H  0.64900 40.94300 30.43500
H  -2.23600 41.84200 29.74200
H  -1.64600 39.13100 29.25700
H  -2.79900 39.68500 30.40000
H  -1.03500 39.55100 30.87800
H  -1.07900 43.33200 31.24500
H  0.54100 43.71300 30.87800
H  1.28300 43.11300 32.64100
H  0.89500 41.47500 32.63600
H  -5.04000 41.01800 25.23800
H  -4.26500 39.92800 26.41200
H  -4.68300 39.44800 24.77200
H  -4.53600 39.37800 22.53400
H  -4.98600 40.32200 21.10000
H  -5.42700 41.05200 22.65000
H  0.89800 43.83700 21.12300
H  3.73000 43.40700 21.82100
H  1.61400 41.06300 20.89900
H  3.00900 41.95400 20.29300
H  1.26600 42.18800 19.75300
H  2.92000 46.05800 22.83500
H  2.04700 45.77600 21.28600
H  4.75000 46.39700 21.80600
H  3.89200 46.56100 20.32700
H  4.65300 45.01800 20.69800
H  6.48300 44.61500 25.75200
H  6.96800 43.04800 26.40400
H  6.89700 44.38100 27.43200
H  2.80000 43.50100 30.81800
H  5.09600 40.20200 32.35400
H  3.42700 39.76200 32.90200
H  4.46000 40.79500 33.92500

