158

Mg 25.30200 1.29300 29.89800
C  27.59900 0.91300 32.62900
C  22.90400 1.83600 32.12800
C  23.27500 1.49300 27.32400
C  28.08300 0.76900 27.75300
N  25.31200 1.29300 32.13900
C  26.34600 1.42200 32.97700
C  25.83200 1.89600 34.37600
C  24.28200 1.96500 34.20800
C  24.15400 1.71000 32.71700
C  23.58200 0.86200 35.11700
C  26.46000 3.24500 34.90900
C  26.94200 3.19600 36.39100
H  26.29800 4.18900 37.38800
N  23.30200 1.60200 29.71400
C  22.42200 1.77300 30.74700
C  21.08700 1.72900 30.29400
C  21.19200 1.73500 28.89100
C  22.65200 1.64000 28.58300
C  19.87200 1.74700 31.19300
C  20.11100 1.76800 27.83700
O  20.31700 1.69100 26.65500
C  18.68200 1.78100 28.25700
N  25.62200 1.06100 27.92600
C  24.62800 1.25400 26.99100
C  25.11900 1.23100 25.50800
C  26.60800 1.33400 25.76800
C  26.78300 1.00800 27.25200
C  24.60900 0.16200 24.54200
C  27.35700 2.59300 25.24100
C  27.32100 3.79100 26.13500
N  27.31300 0.77600 30.11400
C  28.33400 0.60500 29.11900
C  29.59200 0.39700 29.76900
C  29.31100 0.55400 31.13700
C  27.95800 0.74400 31.30900
C  30.86100 0.06800 29.07800
C  29.99700 0.64100 32.39500
O  31.14300 0.52600 32.68500
C  28.88800 0.99300 33.44000
C  29.10200 0.00900 34.50200
O  29.10500 -1.18200 34.29800
O  29.20000 0.66600 35.66200
C  29.36900 -0.04700 36.91700
H  22.14800 1.99700 32.89900
H  22.61100 1.62500 26.46700
H  28.86600 0.77700 26.99200
H  26.07700 1.14900 35.13100
H  23.94800 2.96100 34.49700
H  24.04900 -0.10800 34.94600
H  22.55600 0.76000 34.76300
H  23.57200 1.19300 36.15500
H  25.75100 4.05200 34.72500
H  27.40100 3.42900 34.38900
H  28.01300 3.39500 36.38800
H  26.73100 2.20700 36.79800
H  19.56500 2.78500 31.32100
H  20.26100 1.38200 32.14400
H  19.14600 0.98500 30.90900
H  18.51300 2.59300 28.96400
H  18.45500 0.75300 28.53800
H  18.03600 1.97900 27.40100
H  24.76200 2.13000 25.00700
H  27.11300 0.42700 25.43500
H  24.23000 -0.62700 25.19100
H  25.41200 -0.39400 24.05700
H  23.82700 0.34000 23.80400
H  26.90700 2.80000 24.27000
H  28.41000 2.35000 25.09600
H  26.85800 3.64300 27.11000
H  26.65100 4.48900 25.63200
H  28.32200 4.21700 26.20200
H  31.04100 0.13000 28.00400
H  30.99000 -0.95900 29.42000
H  31.50300 0.84700 29.48900
H  29.04100 2.01900 33.77400
H  29.43300 -1.12900 36.80300
H  28.59500 -0.01400 37.68500
H  30.30000 0.26700 37.38900
Mg 47.43200 25.92200 28.51000
C  48.18500 28.12000 31.16700
C  46.61900 23.61000 30.89400
C  46.57900 23.84500 26.03800
C  48.87400 28.16700 26.20400
N  47.38700 25.88000 30.80700
C  47.66500 26.96100 31.69600
C  47.38400 26.64600 33.19600
C  46.90800 25.17100 33.03300
C  46.96900 24.80600 31.50700
C  47.69400 24.10300 33.90200
C  46.44900 27.65300 34.01200
C  46.98900 28.36700 35.22500
H  45.89100 28.67700 36.15300
N  46.76100 23.93600 28.44700
C  46.44200 23.14900 29.53900
C  45.90700 21.93600 29.04800
C  45.80300 22.01900 27.62600
C  46.32700 23.31400 27.28500
C  45.55700 20.73300 29.87300
C  45.24200 21.06500 26.58000
O  45.10100 21.36000 25.35600
C  44.88000 19.70600 26.99500
N  47.91500 25.89700 26.47600
C  47.35400 24.95100 25.63900
C  47.69200 25.25900 24.17200
C  48.40500 26.62600 24.17100
C  48.49800 26.91900 25.74600
C  48.45700 24.20600 23.41800
C  47.65400 27.71500 23.39600
C  48.50800 28.95700 22.90200
N  48.37400 27.68100 28.63800
C  48.84300 28.51000 27.64200
C  49.41400 29.71300 28.26500
C  49.20700 29.56700 29.57000
C  48.48000 28.32300 29.78400
C  50.13400 30.79000 27.47100
C  49.42800 30.25500 30.82500
O  49.95000 31.28100 31.18100
C  48.83600 29.27900 31.92000
C  49.96000 28.84200 32.90700
O  50.69500 27.85000 32.85200
O  50.00300 29.73100 33.95400
C  51.05400 29.33500 34.87900
H  46.22500 22.91600 31.63900
H  46.22500 23.22800 25.20900
H  49.20800 28.96700 25.54000
H  48.36700 26.55300 33.65700
H  45.85600 25.23600 33.31000
H  48.39400 24.67300 34.51300
H  48.16000 23.34900 33.26800
H  46.98300 23.52200 34.48900
H  45.45200 27.23500 34.15200
H  46.30700 28.49700 33.33700
H  47.35300 29.38600 35.09100
H  47.82600 27.77000 35.58700
H  44.50800 20.50900 29.67500
H  45.74800 20.80400 30.94400
H  46.11400 19.91700 29.41400
H  45.56800 19.16200 27.64300
H  44.88700 19.11700 26.07800
H  43.88100 19.75700 27.42800
H  46.72000 25.36500 23.69100
H  49.43300 26.54800 23.81900
H  48.41900 24.51800 22.37400
H  48.15300 23.18700 23.65400
H  49.46600 24.38900 23.78900
H  46.84100 28.19500 23.94000
H  47.26900 27.29800 22.46500
H  49.51600 28.57400 23.06300
H  48.11500 29.78900 23.48600
H  48.19000 29.25800 21.90400
H  51.20700 30.71400 27.64400
H  49.91000 31.82600 27.72700
H  49.97300 30.60200 26.40900
H  48.08100 29.85800 32.45100
H  51.35500 30.14800 35.54000
H  52.04100 29.17500 34.44600
H  50.74700 28.51800 35.53200

