158

Mg 47.79400 15.28000 29.13800
C  45.96800 15.06300 32.01500
C  49.81100 17.71500 30.80700
C  49.45600 15.95900 26.21400
C  45.32500 13.42100 27.41900
N  47.74200 16.39000 31.07200
C  47.08600 15.81000 32.22900
C  47.70700 16.36200 33.53800
C  48.48200 17.53100 33.04800
C  48.72400 17.17200 31.51700
C  47.78700 19.01400 33.19400
C  48.42100 15.31900 34.38200
C  48.17900 15.36100 35.89900
H  47.86600 16.58400 36.67400
N  49.44700 16.53800 28.61200
C  50.15500 17.40800 29.46200
C  51.25200 18.02200 28.69700
C  51.13000 17.59100 27.33000
C  49.98400 16.63000 27.32300
C  52.14000 19.01300 29.31000
C  51.97900 17.96100 26.10800
O  51.84500 17.48000 25.03100
C  53.02300 19.00800 26.29700
N  47.43100 14.76700 27.08200
C  48.30700 15.14300 26.09700
C  47.82000 14.57700 24.77700
C  46.57500 13.73200 25.16300
C  46.40500 13.92400 26.64400
C  47.48500 15.71300 23.76000
C  46.68400 12.19400 24.86600
C  46.16600 11.86800 23.41700
N  45.94900 14.46300 29.51100
C  45.07300 13.72800 28.75300
C  43.93100 13.29200 29.57000
C  44.25600 13.81000 30.83800
C  45.47800 14.45300 30.76700
C  42.78600 12.41600 29.24400
C  43.79800 13.80000 32.23500
O  42.79200 13.26900 32.75100
C  44.88300 14.55500 32.97500
C  44.31700 15.67000 33.80400
O  44.04700 16.77300 33.44700
O  44.22600 15.28300 35.11100
C  43.86700 16.33900 36.05700
H  50.51400 18.35500 31.34400
H  50.04800 16.13400 25.31300
H  44.63700 12.71900 26.94300
H  46.87300 16.70300 34.15100
H  49.42400 17.61400 33.59100
H  48.24300 19.35800 34.12200
H  46.71800 18.96100 33.40000
H  48.00800 19.73300 32.40600
H  49.48900 15.52400 34.29900
H  48.35300 14.32000 33.95200
H  49.05000 14.90300 36.36700
H  47.28700 14.73300 35.90100
H  53.19400 18.76500 29.18400
H  51.92600 19.17900 30.36500
H  51.91900 20.00400 28.91200
H  52.62200 19.93400 26.71000
H  53.36100 19.16400 25.27300
H  53.83900 18.66200 26.93200
H  48.52900 13.91900 24.27500
H  45.74900 14.25000 24.67600
H  47.55600 16.66500 24.28600
H  46.47600 15.59100 23.36600
H  48.13500 15.74400 22.88600
H  46.18500 11.71500 25.70900
H  47.74300 11.96100 24.97800
H  45.37400 11.12000 23.46800
H  46.95500 11.39600 22.83100
H  45.81600 12.77700 22.92800
H  41.87000 12.71600 29.75400
H  43.06500 11.38100 29.44000
H  42.57900 12.43900 28.17400
H  45.26700 13.82400 33.68600
H  42.78400 16.46000 36.04100
H  44.22000 17.35300 35.86800
H  44.12400 16.12500 37.09400
Mg -1.59200 34.94500 26.54400
C  -3.35600 33.44200 29.09400
C  -0.31500 37.15900 29.00100
C  -0.16500 36.78700 24.17300
C  -3.06800 32.97000 24.23300
N  -1.88900 35.30500 28.80300
C  -2.46900 34.41300 29.67000
C  -2.12400 34.74800 31.18000
C  -1.52400 36.23500 31.03400
C  -1.14800 36.19700 29.54800
C  -2.39700 37.45300 31.52900
C  -1.19900 33.76900 31.92500
C  -1.90200 32.91700 32.99200
H  -1.31800 32.92100 34.39700
N  -0.38900 36.65200 26.58400
C  0.11100 37.37000 27.69700
C  0.84400 38.57600 27.23900
C  0.86400 38.47300 25.87100
C  0.08600 37.31100 25.44100
C  1.25700 39.71500 28.10300
C  1.46900 39.42000 24.85600
O  1.31200 39.37300 23.61500
C  2.44600 40.39700 25.28800
N  -1.86000 35.05600 24.47100
C  -0.97600 35.74600 23.69200
C  -0.81200 35.15400 22.28200
C  -1.60400 33.84800 22.39300
C  -2.22900 33.97600 23.73500
C  -1.23800 36.10800 21.07800
C  -0.78600 32.53000 22.31500
C  0.17900 32.07000 23.44500
N  -2.93700 33.52200 26.59400
C  -3.46300 32.76600 25.60800
C  -4.39500 31.80600 26.11400
C  -4.40000 31.98700 27.51100
C  -3.49200 33.08900 27.76800
C  -5.02200 30.67900 25.37000
C  -4.87600 31.58900 28.83000
O  -5.70600 30.73400 29.07700
C  -4.13300 32.41800 29.87700
C  -5.25000 33.10400 30.66600
O  -5.65400 34.21600 30.44100
O  -5.58800 32.22300 31.65000
C  -6.79800 32.70100 32.40000
H  0.08000 37.93000 29.66600
H  0.39400 37.17300 23.31800
H  -3.55800 32.30000 23.52400
H  -3.12900 34.73800 31.60400
H  -0.62400 36.33800 31.63900
H  -3.27400 37.20200 32.12500
H  -2.65600 38.08800 30.68100
H  -1.77600 38.12400 32.12100
H  -0.35000 34.31000 32.34300
H  -0.70800 33.17700 31.15200
H  -1.82700 31.88200 32.65700
H  -2.94300 33.21000 33.12600
H  2.34200 39.81000 28.14900
H  0.87100 39.56800 29.11200
H  0.80400 40.64700 27.76500
H  1.95400 41.31800 25.59900
H  3.19500 40.54900 24.51000
H  2.77700 39.72000 26.07600
H  0.26300 34.98700 22.21300
H  -2.53000 33.79200 21.82000
H  -0.38100 36.10800 20.40400
H  -1.25800 37.09000 21.54900
H  -2.18000 35.78500 20.63400
H  -0.06700 32.67300 21.50900
H  -1.55900 31.80900 22.04700
H  0.49800 32.88200 24.09800
H  1.05300 31.67600 22.92700
H  -0.26800 31.22000 23.96100
H  -4.87800 29.80200 26.00000
H  -4.59500 30.64400 24.36700
H  -6.09800 30.85200 25.33700
H  -3.59600 31.72000 30.52000
H  -7.53000 33.34200 31.91000
H  -6.43700 33.25100 33.26900
H  -7.43500 31.90100 32.77700

