158

Mg 48.47100 34.97500 27.70500
C  46.42500 33.61700 30.10300
C  48.47900 37.94000 29.51000
C  50.27300 36.44600 25.23000
C  47.72000 32.21400 25.58500
N  47.69800 35.64300 29.69500
C  46.87200 34.88900 30.48900
C  46.68600 35.58200 31.82100
C  46.89800 37.07500 31.41000
C  47.73100 36.90100 30.09900
C  45.52900 37.84400 31.10800
C  47.54300 35.09900 33.03100
C  48.69000 35.97200 33.57200
H  48.33200 36.88800 34.71700
N  49.45900 36.86500 27.53600
C  49.32700 37.89100 28.37000
C  50.19100 39.04600 27.83000
C  50.81700 38.51200 26.65200
C  50.20600 37.20300 26.43800
C  50.17500 40.47700 28.25600
C  51.80100 39.18500 25.71000
O  52.27800 38.71900 24.65200
C  52.45800 40.44100 26.22300
N  48.92900 34.44300 25.68800
C  49.71500 35.21900 24.85600
C  49.96300 34.50900 23.45600
C  49.15200 33.15200 23.61400
C  48.54400 33.21200 25.06700
C  49.50800 35.45500 22.24300
C  49.89600 31.87000 23.36500
C  50.35200 31.55400 21.89200
N  47.41300 33.18000 27.75500
C  47.16500 32.16100 26.89100
C  46.28800 31.13300 27.46500
C  45.99800 31.66000 28.74300
C  46.68200 32.87500 28.86700
C  45.92700 29.84900 26.76500
C  45.33200 31.40700 29.98900
O  44.67300 30.42600 30.21500
C  45.51400 32.71200 30.89700
C  45.90900 32.27800 32.28500
O  46.91300 31.72300 32.64600
O  44.97600 32.75300 33.15200
C  45.12000 32.60500 34.58100
H  48.41400 38.93600 29.95300
H  50.85700 36.85900 24.40500
H  47.48400 31.42200 24.87000
H  45.64300 35.43900 32.10400
H  47.36800 37.74400 32.13100
H  44.57200 37.32200 31.07100
H  45.71100 38.24900 30.11300
H  45.43400 38.56100 31.92300
H  47.94600 34.09300 32.91500
H  46.92500 35.07400 33.92900
H  49.16000 36.52800 32.76000
H  49.44300 35.25900 33.90800
H  49.93900 41.14500 27.42800
H  51.06600 40.66000 28.85800
H  49.22500 40.57200 28.78000
H  52.84900 40.13300 27.19200
H  51.80600 41.31400 26.26600
H  53.29400 40.61300 25.54500
H  51.04800 34.43500 23.53200
H  48.26500 33.31500 23.00200
H  50.46200 35.84000 21.88400
H  48.94700 36.34300 22.53300
H  48.97100 34.92300 21.45800
H  49.32200 31.01800 23.72900
H  50.73700 32.09300 24.02200
H  49.96200 30.59200 21.55900
H  51.42800 31.52400 21.71900
H  50.04800 32.34500 21.20700
H  46.85900 29.38200 26.44500
H  45.36700 30.05000 25.85200
H  45.29000 29.18300 27.34600
H  44.53300 33.18600 30.86300
H  44.50000 31.81100 34.99800
H  44.77000 33.48700 35.11700
H  46.13700 32.38800 34.90800
Mg 31.07000 59.21000 40.27900
C  28.46900 57.19500 39.24900
C  33.21300 56.63200 39.46600
C  33.74000 61.52800 40.12400
C  28.96500 61.90000 40.69900
N  30.83600 57.12800 39.44400
C  29.70100 56.50900 39.12600
C  29.95200 55.05700 38.67300
C  31.38800 54.81500 39.11700
C  31.88800 56.26000 39.41300
C  31.67400 53.79300 40.25600
C  29.57000 54.80100 37.23200
C  28.42600 53.74100 36.95800
H  27.79500 53.73700 35.56300
N  33.16700 59.09500 39.90300
C  33.79700 57.91300 39.59200
C  35.26700 58.16600 39.49400
C  35.42600 59.59500 39.39400
C  34.10700 60.18600 39.84300
C  36.25400 57.14200 39.24600
C  36.67700 60.36500 38.97500
O  37.71800 59.75800 38.68300
C  36.61400 61.86100 38.78300
N  31.39800 61.38800 40.48400
C  32.48300 62.10200 40.47000
C  32.35400 63.49400 41.02100
C  30.78200 63.67300 41.14600
C  30.31500 62.22900 40.74800
C  33.15200 63.90900 42.23400
C  30.18400 64.88300 40.32100
C  29.49000 65.85500 41.23400
N  29.07500 59.52700 40.07400
C  28.28400 60.63200 40.41600
C  26.95000 60.24100 40.23900
C  26.96200 58.92300 39.81000
C  28.30300 58.49000 39.67100
C  25.74400 61.08900 40.41400
C  26.11100 57.79800 39.47200
O  24.92100 57.65400 39.38900
C  27.07100 56.63800 39.08400
C  26.66300 55.43100 39.97300
O  27.30800 54.96700 40.93400
O  25.46600 54.98000 39.61600
C  24.91600 53.89600 40.38600
H  33.90700 55.81200 39.27200
H  34.50500 62.30500 40.18600
H  28.17600 62.64600 40.81300
H  29.27900 54.57700 39.38300
H  31.91900 54.54200 38.20500
H  31.86900 52.75700 39.98000
H  30.84600 53.89900 40.95600
H  32.61900 54.05000 40.73500
H  30.46200 54.45200 36.71100
H  29.29300 55.72400 36.72300
H  27.56600 53.77000 37.62700
H  28.98500 52.84200 37.21600
H  36.54200 57.11100 38.19500
H  36.02600 56.15900 39.65800
H  37.13000 57.49700 39.78800
H  36.70000 62.24500 39.79900
H  35.72900 62.15200 38.21600
H  37.40800 62.15400 38.09500
H  32.71400 64.17200 40.24800
H  30.48600 63.70700 42.19400
H  33.37900 62.93900 42.67700
H  32.56400 64.64400 42.78400
H  34.04500 64.40900 41.85700
H  29.47300 64.50800 39.58400
H  30.98300 65.37100 39.76300
H  28.51600 66.23600 40.92700
H  30.10900 66.71000 41.50600
H  29.10800 65.26500 42.06700
H  25.42700 61.12200 39.37200
H  25.97400 62.12000 40.68500
H  25.08500 60.59100 41.12500
H  26.72800 56.32100 38.09900
H  23.84500 53.71100 40.30800
H  25.07800 54.05400 41.45300
H  25.25100 52.88600 40.15400

