158

Mg 54.89100 24.15900 44.42900
C  52.03400 26.15400 43.41500
C  53.09000 21.51900 43.49300
C  57.77000 22.43300 44.85100
C  56.46000 27.12000 45.36000
N  52.86000 23.95700 43.40400
C  51.80800 24.86900 43.09800
C  50.60000 24.16600 42.55900
C  50.87200 22.68800 43.06200
C  52.36800 22.68700 43.35500
C  50.20100 22.41700 44.40600
C  50.45000 24.24700 41.07000
C  49.00600 24.41600 40.52000
H  48.81100 24.04400 39.09300
N  55.38900 22.20800 44.07300
C  54.47400 21.26000 43.78800
C  55.05400 19.94800 43.84100
C  56.39100 20.19700 44.33300
C  56.61400 21.65000 44.42100
C  54.36400 18.74200 43.39200
C  57.40700 19.05600 44.60400
O  57.07100 17.87600 44.44700
C  58.73700 19.25600 45.10500
N  56.91100 24.68600 44.92200
C  57.93900 23.84300 45.03900
C  59.28100 24.52500 45.37400
C  58.79500 26.00500 45.69500
C  57.32600 25.94000 45.24900
C  60.22100 23.89100 46.48000
C  59.63600 27.05100 44.96600
C  60.92300 27.45700 45.75800
N  54.38200 26.19800 44.44800
C  55.09800 27.27900 44.92900
C  54.29000 28.50100 44.99600
C  53.07300 28.08200 44.36600
C  53.19400 26.70300 44.06700
C  54.71300 29.79400 45.74200
C  51.80400 28.57200 43.90700
O  51.33800 29.65900 43.89100
C  51.07000 27.35200 43.29200
C  50.53500 27.64200 41.93500
O  51.25200 27.81600 40.95900
O  49.18800 27.70300 41.90500
C  48.47700 28.00200 40.60300
H  52.48600 20.60900 43.52300
H  58.68000 21.85600 45.02900
H  56.92100 28.01900 45.77400
H  49.74400 24.57000 43.09800
H  50.61500 21.84900 42.41400
H  49.26800 21.88100 44.23000
H  49.95400 23.36400 44.88500
H  50.78500 21.82500 45.11100
H  50.78500 23.35400 40.54200
H  50.94700 25.12200 40.65000
H  48.61800 25.41700 40.71300
H  48.41300 23.65900 41.03300
H  55.02600 18.33500 42.62800
H  53.44400 19.05800 42.90000
H  54.19800 17.92600 44.09500
H  59.37900 19.80300 44.41600
H  59.21300 18.29700 45.31100
H  58.73300 19.79100 46.05500
H  59.83500 24.45900 44.43700
H  58.76300 26.01600 46.78500
H  61.03000 24.61000 46.61200
H  60.66500 22.94100 46.18400
H  59.72600 23.85800 47.45000
H  59.00700 27.92100 44.77600
H  59.98100 26.74800 43.97700
H  61.16800 28.48200 45.48000
H  61.78200 26.84900 45.47200
H  60.79600 27.39500 46.83900
H  54.03800 30.64900 45.77900
H  55.68000 30.14500 45.38100
H  54.73300 29.55200 46.80500
H  50.23100 27.25200 43.98000
H  48.39700 29.08700 40.52800
H  47.52400 27.47200 40.59900
H  48.98600 27.61500 39.72000
Mg -1.29100 34.40900 26.62300
C  -3.54100 32.78500 28.96600
C  -0.32000 36.53800 29.19400
C  0.61300 36.01200 24.46700
C  -2.61700 32.34900 24.06700
N  -1.89700 34.65200 28.81500
C  -2.69700 33.77700 29.51800
C  -2.72400 34.14400 31.01400
C  -1.76900 35.44800 31.08400
C  -1.33900 35.61100 29.61300
C  -2.46700 36.69000 31.68500
C  -2.36800 32.96200 31.95200
C  -1.62500 33.25300 33.26500
H  -2.20500 32.80700 34.62500
N  0.12900 36.00300 26.80400
C  0.39700 36.71300 27.93500
C  1.25900 37.85000 27.58200
C  1.40300 37.80000 26.19800
C  0.76500 36.54300 25.75500
C  1.58300 38.91500 28.60400
C  2.04200 38.79000 25.34100
O  2.14500 38.60400 24.11200
C  2.64200 40.02700 25.89000
N  -1.01600 34.20000 24.61300
C  -0.12200 34.96000 23.95000
C  -0.13400 34.49600 22.44200
C  -0.96000 33.12900 22.47900
C  -1.58100 33.23800 23.80600
C  -0.77800 35.61400 21.45100
C  -0.14600 31.84900 22.30100
C  -0.85800 30.63300 21.80900
N  -2.82100 32.90100 26.46300
C  -3.28800 32.22500 25.35000
C  -4.29700 31.27500 25.73200
C  -4.45700 31.51600 27.09700
C  -3.54000 32.49200 27.50400
C  -5.10900 30.27800 24.80500
C  -5.23100 31.15300 28.21000
O  -6.22400 30.46900 28.33100
C  -4.65600 31.89200 29.48400
C  -5.67800 32.75600 30.19400
O  -6.32000 33.74700 29.76200
O  -6.00100 32.27000 31.42300
C  -7.21100 32.65300 32.17200
H  -0.08200 37.32200 29.91600
H  1.09100 36.42100 23.57400
H  -2.91400 31.61900 23.31100
H  -3.77000 34.38600 31.20400
H  -0.80900 35.23300 31.55400
H  -3.55000 36.58200 31.75000
H  -2.38500 37.47000 30.92800
H  -2.15900 37.01700 32.67800
H  -1.91700 32.12500 31.41900
H  -3.35100 32.64200 32.29800
H  -1.60300 34.33900 33.35600
H  -0.62400 32.82900 33.19600
H  1.53600 38.55900 29.63300
H  0.92400 39.76900 28.45100
H  2.65600 39.09400 28.52700
H  1.96300 40.58500 26.53500
H  2.90500 40.68200 25.05900
H  3.57200 39.80800 26.41400
H  0.86500 34.33200 22.03800
H  -1.69100 33.11600 21.67000
H  -1.33100 36.46200 21.85500
H  -1.37800 35.20700 20.63700
H  0.11500 36.09400 21.05200
H  0.44500 31.69700 23.20400
H  0.66200 32.07100 21.60400
H  -0.20300 30.36900 20.97800
H  -1.78300 30.87800 21.28800
H  -0.98400 29.88500 22.59100
H  -4.57400 30.09100 23.87400
H  -6.14200 30.58800 24.64600
H  -5.16800 29.36200 25.39200
H  -4.26700 31.15400 30.18500
H  -7.98900 33.05700 31.52400
H  -6.89400 33.33000 32.96600
H  -7.55800 31.72600 32.62800

