158

Mg 40.51100 9.08700 29.27000
C  42.61400 10.51000 31.81800
C  38.69000 7.58300 31.57100
C  39.13600 7.33300 26.72400
C  43.08200 10.11300 26.96300
N  40.77400 8.95400 31.37000
C  41.52200 9.78300 32.23800
C  41.14000 9.45000 33.73700
C  39.86800 8.54300 33.58700
C  39.74500 8.35900 32.04500
C  39.85300 7.14400 34.32300
C  40.84300 10.70500 34.64100
C  40.10000 10.50400 35.98400
H  40.87300 10.86800 37.28500
N  38.95300 7.81400 29.18200
C  38.34000 7.28200 30.25600
C  37.16600 6.50600 29.80200
C  37.35100 6.40700 28.36400
C  38.56400 7.19400 28.02600
C  36.35900 5.74800 30.82400
C  36.60900 5.65100 27.36300
O  36.84400 5.58900 26.14900
C  35.34500 4.86900 27.70000
N  41.01000 8.78500 27.18600
C  40.21700 8.13600 26.35600
C  40.61600 8.22700 24.86900
C  41.99700 8.94600 24.97400
C  42.01300 9.34300 26.46000
C  40.72200 6.84300 24.10100
C  42.21900 10.14300 24.00800
C  41.38600 11.44100 24.23800
N  42.39800 10.22400 29.30500
C  43.31100 10.52100 28.30100
C  44.48800 11.20600 28.86000
C  44.22600 11.28700 30.23200
C  42.95000 10.64100 30.48200
C  45.66300 11.63500 28.06500
C  44.72100 11.79200 31.47900
O  45.76800 12.38600 31.72800
C  43.67900 11.24800 32.53100
C  44.36900 10.48300 33.55000
O  44.99700 9.48300 33.47500
O  44.32000 11.15800 34.73800
C  44.75800 10.48700 36.02200
H  38.09300 7.12000 32.36000
H  38.72700 6.81600 25.85300
H  43.80600 10.36700 26.18600
H  42.03000 8.90800 34.05800
H  39.01000 9.16900 33.83200
H  40.64500 7.01500 35.06100
H  39.79100 6.28100 33.65900
H  38.81300 7.13900 34.64700
H  40.48000 11.57400 34.09200
H  41.69700 11.26100 35.02700
H  39.77400 9.46600 36.04200
H  39.17100 11.04600 35.80700
H  36.75000 5.81900 31.83900
H  36.29700 4.68000 30.61300
H  35.29000 5.96000 30.84400
H  34.58100 5.45100 28.21500
H  35.68400 4.06200 28.35000
H  34.86400 4.55900 26.77200
H  39.86500 8.81700 24.34300
H  42.75300 8.16200 24.91800
H  40.05600 6.80400 23.23800
H  40.56000 6.02500 24.80300
H  41.71000 6.64800 23.68500
H  41.91000 9.75500 23.03700
H  43.26600 10.44700 23.99100
H  41.95000 12.16700 24.82500
H  40.44600 11.31600 24.77500
H  41.11700 11.92500 23.29900
H  45.75100 11.07800 27.13300
H  46.47100 11.43300 28.76900
H  45.66400 12.68700 27.77900
H  43.21200 12.09500 33.03300
H  44.95800 9.43900 35.80100
H  44.04900 10.66200 36.83100
H  45.72200 10.92000 36.28800
Mg 26.79600 50.38000 26.82700
C  24.59500 51.40700 29.40100
C  29.03200 49.32800 29.15100
C  28.73100 49.72200 24.25500
C  24.48500 51.95700 24.52200
N  26.73300 50.45400 28.98100
C  25.76800 50.90000 29.86600
C  26.14000 50.55300 31.38100
C  27.64900 50.06300 31.24500
C  27.81600 49.90600 29.71900
C  28.66500 51.01000 31.85700
C  25.11400 49.46500 31.94300
C  24.37100 49.88900 33.26100
H  24.16500 48.97100 34.46100
N  28.57800 49.62300 26.66100
C  29.31500 49.15900 27.77800
C  30.56900 48.64300 27.27300
C  30.52800 48.72100 25.82900
C  29.29900 49.40100 25.49600
C  31.62200 48.08400 28.16800
C  31.58900 48.17100 24.86100
O  31.51100 48.27000 23.65400
C  32.74500 47.40700 25.31400
N  26.62500 50.90800 24.68700
C  27.57900 50.42800 23.85000
C  27.07500 50.52400 22.38800
C  25.61600 51.00400 22.53300
C  25.54300 51.32100 24.04600
C  28.04000 51.44000 21.57300
C  24.43100 50.04500 22.18300
C  23.41200 50.53300 21.13100
N  24.90000 51.47200 26.91700
C  24.09700 51.95700 25.90700
C  22.87200 52.55500 26.50900
C  23.00500 52.29600 27.89400
C  24.27900 51.68700 28.08300
C  21.77700 53.31300 25.71000
C  22.32500 52.45700 29.16400
O  21.29700 52.97300 29.52400
C  23.41900 51.99000 30.20400
C  23.93100 53.13000 31.04300
O  25.04200 53.71000 30.91400
O  23.09700 53.37500 32.02800
C  23.40300 54.48100 32.98200
H  29.72100 48.91300 29.89000
H  29.32700 49.35600 23.41600
H  23.73500 52.26300 23.79000
H  26.20100 51.53100 31.85800
H  27.75400 49.10600 31.75600
H  29.20300 50.42900 32.60600
H  28.24800 51.94100 32.24200
H  29.28700 51.38600 31.04400
H  25.69100 48.55400 32.10400
H  24.40000 49.22400 31.15500
H  23.41600 50.22700 32.85900
H  24.85200 50.81300 33.58100
H  31.51000 48.19800 29.24700
H  32.62100 48.50500 28.05600
H  31.86500 47.03100 28.02500
H  32.41700 46.70000 26.07700
H  33.43600 48.04700 25.86200
H  33.16100 46.94300 24.42000
H  27.21600 49.51800 21.99300
H  25.47400 51.93500 21.98400
H  29.02100 51.46600 22.04600
H  27.54600 52.36800 21.28600
H  28.15400 50.95400 20.60400
H  23.89900 49.78600 23.09800
H  24.94800 49.14000 21.86300
H  23.64800 50.15400 20.13700
H  23.54700 51.61000 21.02700
H  22.39200 50.26100 21.40000
H  21.86600 53.30800 24.62300
H  21.94900 54.33500 26.04900
H  20.80200 53.06700 26.12900
H  22.89400 51.30000 30.86400
H  23.98800 54.08200 33.81100
H  22.51400 54.86500 33.48200
H  23.80800 55.36800 32.49500

