158

Mg 1.76200 -0.97400 44.13000
C  5.17000 -0.25700 43.45300
C  0.96500 1.82500 42.42000
C  -1.45000 -2.01700 43.88900
C  2.84900 -4.13500 45.16200
N  2.99900 0.52100 43.05400
C  4.34300 0.68900 42.89800
C  4.83200 1.84100 42.07700
C  3.40700 2.62100 41.95700
C  2.38100 1.55000 42.49600
C  3.36700 4.02000 42.73800
C  5.27400 1.37200 40.70600
C  6.45300 2.06400 40.08700
H  6.08900 2.85800 38.75200
N  -0.02300 -0.15100 43.34500
C  -0.18400 1.06100 42.71100
C  -1.55700 1.44100 42.61000
C  -2.29800 0.33400 43.09000
C  -1.28300 -0.70800 43.45300
C  -2.08000 2.69900 41.90800
C  -3.77100 0.34100 43.31200
O  -4.50200 1.34900 43.08200
C  -4.50200 -0.84700 43.81800
N  0.91600 -2.79800 44.36800
C  -0.46500 -2.99000 44.22200
C  -0.86500 -4.42700 44.61900
C  0.45700 -4.98800 45.18200
C  1.45900 -3.91500 44.88800
C  -2.10900 -4.58400 45.53600
C  0.79000 -6.44600 44.64800
C  1.62700 -7.47400 45.50000
N  3.59300 -1.94400 44.43300
C  3.87100 -3.20900 44.97000
C  5.25500 -3.40200 45.15700
C  5.84000 -2.25200 44.48100
C  4.74400 -1.40100 44.16500
C  5.82700 -4.66300 45.60200
C  7.06900 -1.64400 44.06700
O  8.26000 -2.00700 44.20700
C  6.75100 -0.23800 43.40600
C  7.29900 0.83400 44.24900
O  7.26000 0.89300 45.51900
O  7.96400 1.71400 43.43000
C  8.68100 2.84400 44.07700
H  0.72400 2.82800 42.06100
H  -2.43800 -2.44000 43.69600
H  3.21400 -5.12400 45.44700
H  5.64000 2.35200 42.60000
H  3.03000 2.81900 40.95400
H  2.64700 4.75300 42.37300
H  4.33900 4.50400 42.64800
H  2.97700 3.74500 43.71800
H  4.41800 1.46400 40.03600
H  5.50600 0.31000 40.62500
H  7.35600 1.50100 39.85000
H  6.74900 2.88900 40.73500
H  -2.75800 2.38300 41.11600
H  -1.32700 3.33500 41.44300
H  -2.65600 3.29500 42.61600
H  -4.74600 -1.35200 42.88400
H  -5.48200 -0.56100 44.19900
H  -3.96800 -1.43000 44.56800
H  -0.95500 -5.02600 43.71200
H  0.29300 -4.90200 46.25600
H  -2.19600 -3.77800 46.26500
H  -2.27300 -5.60600 45.87700
H  -3.01800 -4.50000 44.93900
H  1.26600 -6.43300 43.66800
H  -0.15900 -6.94500 44.45400
H  2.16900 -8.11000 44.80000
H  0.97900 -8.16800 46.03500
H  2.27700 -6.89800 46.15900
H  5.79900 -5.44400 44.84300
H  5.27200 -5.04900 46.45700
H  6.84100 -4.31600 45.79900
H  7.14100 -0.19300 42.38900
H  7.95700 3.65200 44.17900
H  9.43300 3.20800 43.37700
H  9.17400 2.44400 44.96300
Mg 26.58700 52.26400 25.80100
C  24.00100 53.04000 28.19800
C  28.58400 51.66100 28.40900
C  29.07800 51.82700 23.59800
C  24.47100 53.45600 23.33600
N  26.32400 52.54500 28.12600
C  25.16300 52.73300 28.83800
C  25.41500 52.35900 30.35100
C  26.93900 51.97400 30.32000
C  27.34100 52.05100 28.85100
C  27.92900 52.78700 31.31300
C  24.50100 51.20200 30.83200
C  23.56800 51.55500 32.02300
H  23.62500 50.62100 33.25400
N  28.60300 51.70700 26.00100
C  29.22000 51.53500 27.17500
C  30.52200 51.05000 26.94600
C  30.73300 51.08600 25.49000
C  29.49800 51.52500 24.96200
C  31.42700 50.46500 27.99700
C  31.84800 50.54100 24.66200
O  31.83800 50.60300 23.43900
C  32.92900 49.73500 25.30900
N  26.75500 52.52200 23.78600
C  27.93000 52.29500 23.12300
C  27.74800 52.67000 21.66700
C  26.27400 53.21300 21.52600
C  25.78300 53.04600 22.92000
C  28.92000 53.50800 21.07100
C  25.41400 52.66600 20.35200
C  25.30700 53.43200 19.00500
N  24.58900 53.04200 25.77800
C  23.86700 53.42200 24.66200
C  22.48600 53.75700 25.01600
C  22.49600 53.60400 26.42900
C  23.76600 53.19800 26.78200
C  21.34300 54.09700 24.08400
C  21.73100 53.68100 27.68400
O  20.57900 53.92900 27.87700
C  22.65500 53.42800 28.83400
C  22.78600 54.78800 29.47400
O  23.03000 55.82300 28.91000
O  22.69600 54.68900 30.80800
C  22.60000 55.97600 31.51500
H  29.33000 51.32800 29.13300
H  29.81000 51.65200 22.80700
H  23.76200 53.68800 22.53900
H  25.34800 53.18800 31.05500
H  27.02700 50.94600 30.67100
H  28.85500 53.09500 30.82900
H  28.34500 52.05900 32.00900
H  27.48200 53.50300 32.00300
H  25.08800 50.32100 31.09400
H  23.80200 51.02400 30.01600
H  22.49400 51.55500 31.83500
H  23.88000 52.52700 32.40400
H  31.37700 49.40200 27.76000
H  31.14000 50.64900 29.03200
H  32.45500 50.80200 27.86700
H  32.54000 48.90700 25.90200
H  33.50900 50.32700 26.01700
H  33.55100 49.28100 24.53800
H  27.77000 51.73000 21.11600
H  26.23900 54.28900 21.36000
H  29.57200 54.04400 21.76000
H  28.52200 54.25200 20.38100
H  29.56600 52.85000 20.49000
H  24.38900 52.41400 20.62700
H  25.88000 51.74600 20.00000
H  24.33800 53.27300 18.53200
H  25.96000 53.20400 18.16300
H  25.54800 54.47800 19.19400
H  20.40900 54.01700 24.64100
H  21.29200 53.27400 23.37200
H  21.49100 55.04200 23.56100
H  22.26900 52.67300 29.51800
H  23.59900 56.32000 31.78200
H  22.01400 55.68400 32.38700
H  22.04200 56.77800 31.03300

