158

Mg 24.17300 -5.98800 45.20700
C  26.72300 -3.83000 43.91800
C  21.98900 -4.68200 42.97800
C  22.34400 -8.78700 45.58000
C  26.89500 -7.71200 46.89500
N  24.41000 -4.43700 43.65600
C  25.51400 -3.65200 43.29300
C  25.19900 -2.76500 42.06000
C  23.65200 -2.91500 42.01300
C  23.30200 -4.08000 42.98200
C  22.79300 -1.61800 42.21700
C  25.96600 -3.22400 40.81200
C  26.81200 -2.17900 40.13500
H  26.52100 -1.89500 38.68900
N  22.41200 -6.57500 44.54800
C  21.61200 -5.83700 43.67600
C  20.31500 -6.55600 43.44800
C  20.41100 -7.76000 44.30300
C  21.77700 -7.74600 44.88900
C  19.21000 -6.12500 42.57400
C  19.37800 -8.90700 44.42700
O  18.28900 -8.78300 43.84100
C  19.52100 -10.00600 45.44000
N  24.52400 -7.90400 46.16400
C  23.59000 -8.87400 46.18200
C  24.04200 -10.11200 47.03900
C  25.42400 -9.66300 47.59000
C  25.66300 -8.33200 46.89600
C  23.06900 -10.45700 48.21300
C  26.52200 -10.74700 47.29800
C  27.50800 -11.08400 48.44800
N  26.32000 -5.70200 45.62500
C  27.21100 -6.54800 46.23700
C  28.54800 -5.97200 46.19300
C  28.41700 -4.80100 45.40600
C  26.99600 -4.74700 44.97700
C  29.80500 -6.51800 46.70400
C  29.14500 -3.76700 44.69300
O  30.35600 -3.51000 44.63800
C  28.09000 -3.04100 43.76700
C  28.00600 -1.54400 44.00300
O  27.01600 -0.91900 44.32300
O  29.27800 -0.97200 43.82600
C  29.25800 0.49200 43.96600
H  21.29500 -4.18300 42.29800
H  21.87700 -9.71900 45.90500
H  27.70300 -8.24100 47.40500
H  25.52100 -1.76000 42.33300
H  23.45000 -3.46700 41.09500
H  22.16700 -1.56800 41.32600
H  23.39700 -0.71200 42.17100
H  22.05300 -1.68900 43.01400
H  25.19800 -3.45400 40.07300
H  26.52900 -4.14100 40.98600
H  27.85700 -2.49100 40.11700
H  26.85400 -1.23700 40.68200
H  19.61700 -6.31200 41.58100
H  19.21100 -5.03600 42.61800
H  18.27400 -6.59600 42.87500
H  18.57400 -10.50500 45.64500
H  19.80600 -9.48900 46.35600
H  20.28800 -10.61900 44.96600
H  24.16100 -10.84800 46.24400
H  25.46600 -9.37800 48.64200
H  23.46800 -10.20900 49.19600
H  22.97300 -11.54300 48.22200
H  22.07300 -10.03700 48.07400
H  27.07900 -10.46900 46.40400
H  26.16000 -11.71100 46.94200
H  27.45800 -12.17100 48.50600
H  27.02300 -10.81200 49.38500
H  28.50700 -10.65100 48.40100
H  30.66600 -5.95200 46.34700
H  29.90600 -7.51800 46.28100
H  29.75100 -6.49600 47.79200
H  28.52500 -3.18200 42.77800
H  30.29900 0.69500 43.71400
H  28.99500 0.88100 44.94900
H  28.68000 1.02400 43.21100
Mg -10.86900 17.59300 41.33000
C  -7.25600 17.43100 41.87100
C  -10.48700 20.92700 40.59200
C  -14.12500 17.51800 40.36200
C  -10.72100 14.06200 41.28100
N  -9.04700 18.93800 41.30700
C  -7.74000 18.70400 41.50000
C  -6.86500 19.92000 41.31700
C  -7.98200 21.03000 41.42400
C  -9.26700 20.26600 41.06200
C  -8.10000 21.77800 42.71400
C  -6.35400 19.97100 39.78600
C  -4.90400 19.55700 39.47900
H  -4.72200 18.59900 38.30500
N  -12.11300 19.05800 40.65700
C  -11.77700 20.34800 40.49400
C  -12.92900 21.10700 40.07900
C  -14.05400 20.18300 40.03700
C  -13.52800 18.83400 40.33200
C  -12.84300 22.62300 39.69300
C  -15.42600 20.61200 39.45800
O  -15.72700 21.78700 39.31700
C  -16.46000 19.54200 39.16300
N  -12.26100 15.96000 40.86600
C  -13.60600 16.20500 40.55300
C  -14.39300 14.90500 40.41000
C  -13.23000 13.85600 40.43000
C  -11.96800 14.63700 40.94400
C  -15.37200 14.56500 41.59400
C  -12.94400 13.06200 39.16800
C  -13.88500 12.01400 38.82000
N  -9.30700 16.01500 41.61900
C  -9.46800 14.65400 41.61500
C  -8.23300 14.03200 42.07000
C  -7.37200 15.08600 42.10500
C  -8.06100 16.24500 41.85700
C  -7.82700 12.62400 42.39900
C  -5.99900 15.39200 42.36500
O  -5.00100 14.66900 42.49400
C  -5.86200 16.99300 42.31600
C  -5.48700 17.57200 43.64200
O  -4.51500 18.34900 43.71000
O  -6.24100 17.11500 44.66800
C  -6.03800 17.81100 45.89900
H  -10.24800 21.97500 40.39900
H  -15.19200 17.49900 40.13100
H  -10.77200 12.98900 41.47700
H  -6.15500 20.09600 42.12500
H  -7.91800 21.72400 40.58600
H  -8.87500 21.31600 43.32600
H  -8.49300 22.77000 42.49000
H  -7.11400 21.75400 43.17700
H  -6.32300 21.02200 39.49800
H  -6.99000 19.35100 39.15300
H  -4.49700 19.12200 40.39100
H  -4.34500 20.48600 39.36700
H  -13.10500 22.48300 38.64400
H  -11.84900 22.97500 39.97200
H  -13.57700 23.15300 40.30000
H  -15.96300 18.79500 38.54400
H  -17.24100 19.93100 38.51000
H  -16.74800 19.06700 40.10100
H  -14.92400 14.85200 39.46000
H  -13.21500 13.07000 41.18600
H  -15.09900 15.31700 42.33500
H  -15.18700 13.53300 41.89000
H  -16.38000 14.64000 41.18700
H  -11.98700 12.59800 39.40700
H  -12.75100 13.66900 38.28400
H  -14.41500 11.54900 39.65100
H  -13.27600 11.24600 38.34300
H  -14.65200 12.33000 38.11200
H  -7.44900 12.00100 41.58900
H  -8.58700 12.09100 42.97000
H  -6.95400 12.73400 43.04300
H  -5.08500 17.20700 41.58200
H  -5.80900 17.02600 46.62000
H  -6.95900 18.30000 46.21400
H  -5.17500 18.46800 46.00700

