158

Mg 24.39000 -7.78400 46.68300
C  27.06700 -5.63700 45.44800
C  22.50700 -6.45900 44.09500
C  22.13600 -10.12100 47.46800
C  26.86300 -9.34600 48.73600
N  24.78400 -6.36400 44.99500
C  25.82200 -5.53500 44.74200
C  25.66100 -4.56100 43.60700
C  24.11300 -4.75100 43.24500
C  23.77100 -5.90600 44.19900
C  23.26100 -3.43700 43.44900
C  26.56900 -4.87200 42.33200
C  27.46200 -3.72200 42.02500
H  27.43000 -3.06100 40.71500
N  22.52100 -8.05300 46.03400
C  21.95500 -7.48200 44.95700
C  20.61000 -8.01600 44.77800
C  20.39200 -9.06300 45.76800
C  21.76600 -9.16500 46.48300
C  19.57600 -7.39700 43.84800
C  19.13900 -9.85200 45.95600
O  18.20300 -9.68400 45.17000
C  18.89300 -10.93200 46.94600
N  24.48500 -9.51900 47.78500
C  23.42300 -10.28400 48.07000
C  23.74000 -11.48000 48.97600
C  25.24000 -11.28100 49.28900
C  25.57400 -9.99300 48.54900
C  22.84600 -11.64900 50.17900
C  26.10200 -12.43700 48.87300
C  27.22800 -12.85600 49.89300
N  26.49600 -7.47700 47.16500
C  27.31000 -8.17100 48.01900
C  28.68000 -7.51900 48.06400
C  28.54800 -6.48600 47.07900
C  27.28900 -6.65200 46.51000
C  29.76400 -7.93000 48.94900
C  29.24200 -5.33100 46.45300
O  30.30800 -4.81200 46.71000
C  28.29800 -4.79400 45.33600
C  28.07300 -3.43300 45.53600
O  27.31500 -3.02300 46.37800
O  28.83000 -2.68300 44.65100
C  28.74200 -1.25200 44.87600
H  21.86900 -6.03000 43.32000
H  21.38200 -10.87400 47.70800
H  27.64300 -9.87000 49.29000
H  25.94600 -3.55300 43.90700
H  23.93400 -5.04600 42.21100
H  22.59100 -3.16500 42.63400
H  24.00500 -2.64000 43.46300
H  22.67600 -3.41500 44.36800
H  25.97900 -5.11400 41.44700
H  27.14900 -5.76000 42.58500
H  28.46600 -4.09600 42.22600
H  27.32900 -2.85700 42.67400
H  18.55700 -7.35500 44.23100
H  19.71300 -7.96700 42.92900
H  19.83700 -6.35800 43.64600
H  19.44000 -11.83000 46.65700
H  17.86300 -11.26500 46.81300
H  19.09800 -10.44100 47.89700
H  23.48000 -12.39200 48.43900
H  25.22000 -11.07000 50.35800
H  22.35200 -12.60600 50.01000
H  22.14300 -10.81700 50.21600
H  23.40700 -11.68000 51.11300
H  26.53300 -12.31600 47.87900
H  25.49800 -13.33500 48.74300
H  26.97000 -13.87700 50.17500
H  27.20800 -12.27200 50.81300
H  28.19200 -12.95300 49.39400
H  30.47400 -7.14000 49.19300
H  30.27200 -8.70900 48.37900
H  29.40600 -8.32800 49.89800
H  28.76400 -4.96700 44.36600
H  27.67600 -1.02300 44.86600
H  29.21200 -0.67600 44.07900
H  29.10400 -1.00100 45.87300
Mg 35.98000 2.51100 29.39800
C  33.59500 3.04200 31.82800
C  38.35800 2.67300 31.69700
C  38.19000 1.81200 26.92200
C  33.38800 2.63900 27.00600
N  35.86900 2.91100 31.57400
C  34.84400 3.02100 32.36800
C  35.18000 3.10200 33.87200
C  36.75800 3.31400 33.72200
C  37.07000 2.88500 32.23800
C  37.16200 4.77000 34.07000
C  34.73600 1.75200 34.51100
C  34.52600 1.76600 36.05100
H  35.06000 3.00600 36.77400
N  37.96700 2.22700 29.34800
C  38.80200 2.32500 30.41400
C  40.17200 2.06900 30.00500
C  40.12700 1.82600 28.53800
C  38.68900 1.98400 28.22100
C  41.30600 2.01300 30.96000
C  41.34300 1.45000 27.60700
O  41.19000 1.01700 26.45400
C  42.72500 1.51600 28.11800
N  35.83500 2.24200 27.28700
C  36.83700 1.85700 26.51000
C  36.37000 1.69000 25.04900
C  34.84500 1.56800 25.19300
C  34.61800 2.25300 26.53300
C  36.82800 2.82100 24.11400
C  34.13800 0.15200 25.04300
C  32.91000 -0.02700 24.10700
N  33.95700 2.95000 29.32500
C  33.03100 2.98700 28.27900
C  31.71400 3.26900 28.80000
C  31.85600 3.23200 30.19900
C  33.27200 3.05000 30.44500
C  30.54600 3.34800 28.00400
C  31.19800 3.46500 31.45600
O  30.02700 3.72400 31.79700
C  32.26200 3.16700 32.50700
C  32.16000 4.40900 33.39900
O  32.70100 5.44100 33.20300
O  31.48000 4.09900 34.58000
C  31.32900 5.13200 35.61200
H  39.12400 2.73900 32.47200
H  38.99300 1.45000 26.27600
H  32.51500 2.58400 26.35200
H  34.78100 3.99400 34.35500
H  37.17500 2.56300 34.39300
H  36.42500 5.11100 34.79700
H  37.09700 5.41100 33.19000
H  38.09100 4.77100 34.64100
H  35.37600 0.91600 34.23000
H  33.69900 1.55400 34.24000
H  34.97600 0.88700 36.51400
H  33.43700 1.76100 36.07900
H  40.85000 1.72900 31.90900
H  41.61200 3.05500 31.04500
H  42.08300 1.27100 30.77400
H  42.64100 2.43100 28.70500
H  43.32600 1.85800 27.27600
H  43.03300 0.54700 28.51100
H  36.69900 0.67900 24.81200
H  34.28900 2.17000 24.47400
H  36.28300 3.75000 24.28100
H  36.73000 2.57500 23.05700
H  37.89400 2.98600 24.27000
H  33.75400 -0.14100 26.02000
H  34.91200 -0.57900 24.80600
H  32.89900 0.88700 23.51400
H  32.03700 -0.21300 24.73200
H  33.14500 -0.81400 23.39100
H  30.66000 2.94600 26.99700
H  30.25100 4.38500 27.83900
H  29.70700 2.90800 28.54200
H  31.97600 2.27700 33.06700
H  31.32900 4.58600 36.55500
H  30.37100 5.63600 35.48200
H  32.17700 5.81100 35.69900

