158

Mg 45.32100 4.60200 48.69000
C  43.31400 7.35500 48.18400
C  42.53500 2.69900 48.34900
C  47.27700 1.81800 48.73800
C  48.18500 6.61100 48.46800
N  43.17100 4.97600 48.28400
C  42.58800 6.19600 48.17200
C  41.10200 6.06000 47.72800
C  40.78900 4.60500 48.21000
C  42.23200 4.05800 48.47300
C  39.82800 4.49800 49.35200
C  40.91600 6.36600 46.25500
C  39.81100 7.41000 45.91800
H  39.06900 7.28800 44.62600
N  44.95800 2.57800 48.45500
C  43.75700 2.00700 48.22000
C  43.97000 0.64100 47.90700
C  45.36400 0.28200 47.99700
C  45.92300 1.53700 48.50500
C  42.86800 -0.32700 47.52400
C  45.94600 -1.04000 47.78000
O  45.29000 -1.99700 47.43900
C  47.43500 -1.28400 47.93800
N  47.47300 4.27900 48.46200
C  47.98500 3.00200 48.65100
C  49.50300 3.16500 48.90500
C  49.72300 4.68800 48.86800
C  48.40600 5.25500 48.54500
C  50.17600 2.38300 50.12100
C  50.76100 5.23300 47.72900
C  51.77500 6.19000 48.40100
N  45.69000 6.52300 48.50800
C  46.89200 7.22300 48.51600
C  46.63900 8.67700 48.41800
C  45.22500 8.69500 48.19700
C  44.70800 7.41500 48.33600
C  47.67400 9.83300 48.35700
C  44.16500 9.61900 47.85700
O  44.32100 10.80800 47.62800
C  42.84900 8.80700 47.96100
C  42.18900 9.41700 49.09400
O  42.24600 8.98400 50.18500
O  41.28800 10.44900 48.80500
C  40.18500 10.58400 49.74600
H  41.69000 2.02900 48.17900
H  48.00800 1.03000 48.93000
H  49.10700 7.13300 48.73200
H  40.47200 6.64200 48.40000
H  40.45100 3.88600 47.46300
H  39.49000 5.49200 49.64500
H  40.11600 4.02600 50.29100
H  38.95200 3.91400 49.07100
H  40.64600 5.46900 45.69800
H  41.86700 6.79200 45.93700
H  40.38100 8.33700 45.85600
H  39.14100 7.54400 46.76700
H  43.22300 -0.85900 46.64100
H  41.94500 0.14700 47.19200
H  42.59000 -0.92300 48.39300
H  47.71800 -1.27000 48.99000
H  47.95800 -0.50600 47.38000
H  47.67700 -2.25500 47.50600
H  49.83300 2.57200 48.05200
H  49.97500 4.98500 49.88700
H  50.72600 1.49300 49.81800
H  49.42500 1.98800 50.80500
H  50.67600 3.21300 50.62000
H  50.29400 5.71000 46.86700
H  51.24800 4.35200 47.31200
H  52.79200 5.80700 48.48500
H  51.54300 6.41000 49.44300
H  51.81800 7.12900 47.84900
H  47.23900 10.72100 47.90000
H  48.43100 9.54800 47.62600
H  48.08300 10.03700 49.34700
H  42.32100 8.85600 47.00900
H  39.62600 11.51900 49.70700
H  40.57800 10.43700 50.75200
H  39.55000 9.72300 49.53900
Mg 26.33000 50.01200 26.77200
C  24.04100 51.12900 29.21400
C  28.45200 49.23800 29.21800
C  28.31800 48.74600 24.34000
C  24.21500 51.31300 24.27200
N  26.13700 50.02300 28.95700
C  25.11900 50.38300 29.75100
C  25.42300 50.13900 31.21300
C  27.00300 49.89800 31.23200
C  27.25900 49.67700 29.67300
C  27.96800 51.04200 31.85500
C  24.57800 49.01900 31.87700
C  24.12200 49.16200 33.35700
H  24.99500 49.94200 34.42400
N  28.16700 49.09600 26.77000
C  28.92800 48.89600 27.90200
C  30.13000 48.07900 27.56500
C  30.06400 47.90100 26.16000
C  28.85200 48.65400 25.61100
C  31.17800 47.66300 28.63200
C  30.92200 47.02300 25.25400
O  30.80000 46.98800 24.05500
C  31.93500 46.10400 25.89500
N  26.40900 50.19700 24.63800
C  27.23200 49.44700 23.87000
C  26.83000 49.38900 22.34900
C  25.41900 50.03400 22.35200
C  25.36000 50.63400 23.83000
C  27.95300 50.01200 21.40400
C  24.24100 49.14600 21.94800
C  23.25700 49.75400 20.91700
N  24.64900 51.11500 26.70100
C  23.82300 51.55500 25.63800
C  22.65900 52.17300 26.19500
C  22.73900 52.01900 27.57800
C  23.90000 51.30800 27.81900
C  21.58000 52.72600 25.41700
C  21.92700 52.36200 28.81100
O  20.83000 52.87400 28.91500
C  22.82800 51.68900 29.92700
C  23.23600 52.66200 30.89900
O  23.97600 53.64600 30.76500
O  22.60500 52.42100 32.16500
C  23.07400 53.21400 33.26400
H  29.01100 48.88800 30.08800
H  28.73100 48.04200 23.61500
H  23.48400 51.60100 23.51400
H  25.17400 51.04100 31.77300
H  27.25900 48.90600 31.60200
H  28.68300 51.33800 31.08800
H  28.51800 50.52400 32.64100
H  27.46100 51.90900 32.27900
H  25.14400 48.09400 31.76400
H  23.65000 48.84100 31.33300
H  24.04600 48.23200 33.92100
H  23.21600 49.76400 33.42500
H  31.07100 48.30100 29.50900
H  32.14600 47.62300 28.13300
H  30.93300 46.64200 28.92600
H  32.86500 46.64100 26.08600
H  32.22100 45.30800 25.20700
H  31.40000 45.77300 26.78500
H  26.79900 48.31900 22.14300
H  25.51500 50.88300 21.67500
H  28.91900 50.02500 21.90900
H  27.64500 51.03500 21.18700
H  28.02000 49.45900 20.46700
H  23.71200 48.82000 22.84400
H  24.71300 48.26100 21.52100
H  22.21600 49.66700 21.22800
H  23.28100 49.32200 19.91600
H  23.43300 50.82500 20.81400
H  20.70300 52.84700 26.05300
H  21.27800 52.16700 24.53200
H  21.85100 53.75900 25.19700
H  22.28200 50.86200 30.38100
H  24.15900 53.32000 33.26300
H  22.68600 52.90800 34.23600
H  22.80500 54.25500 33.08200

