158

Mg 9.10100 3.40100 27.59600
C  10.33400 1.58400 30.31900
C  7.37000 5.32400 29.84200
C  7.52900 4.84600 24.91300
C  10.18200 0.80800 25.40900
N  8.88300 3.41100 29.79800
C  9.58300 2.68000 30.73200
C  9.58500 3.28400 32.17900
C  8.42600 4.45900 31.95200
C  8.15500 4.36400 30.47600
C  7.15800 4.26800 32.83600
C  10.94900 3.69800 32.79100
C  10.76800 4.67400 33.94600
H  11.55800 4.36100 35.23100
N  7.60400 4.86400 27.41900
C  7.08900 5.58900 28.42600
C  6.29200 6.65300 27.91200
C  6.18300 6.48100 26.50100
C  7.15700 5.35000 26.22800
C  5.56800 7.65800 28.91900
C  5.46300 7.28000 25.46700
O  5.63500 7.12000 24.24800
C  4.53500 8.43000 25.96300
N  9.00200 2.96600 25.45400
C  8.32900 3.73900 24.57000
C  8.28100 3.08500 23.12500
C  9.21900 1.84000 23.31900
C  9.42400 1.81200 24.83100
C  6.90600 2.70200 22.44400
C  10.61600 2.04300 22.66300
C  11.16900 0.78200 22.06200
N  9.99700 1.56000 27.78100
C  10.44900 0.68900 26.79100
C  11.17900 -0.32600 27.51100
C  11.21700 -0.00300 28.86000
C  10.48400 1.18700 28.97000
C  11.88200 -1.55800 26.87100
C  11.68800 -0.38900 30.15000
O  12.30400 -1.40300 30.48600
C  11.14200 0.62200 31.22800
C  10.25900 0.06000 32.24100
O  9.09400 -0.32600 32.03000
O  10.84600 0.17200 33.46700
C  9.94800 -0.16500 34.60400
H  6.79600 5.83900 30.61600
H  6.99200 5.21500 24.03700
H  10.67300 0.08500 24.75500
H  9.18300 2.51000 32.83100
H  8.83500 5.46900 31.91900
H  6.26900 4.10200 32.22700
H  6.92000 5.01600 33.59200
H  7.27400 3.31500 33.35300
H  11.69500 4.14900 32.13800
H  11.45100 2.79200 33.13200
H  9.69600 4.65000 34.14000
H  11.07000 5.66400 33.60300
H  5.40100 7.31600 29.94100
H  4.56600 7.86900 28.54400
H  6.19900 8.54300 28.99700
H  5.19300 9.00600 26.61400
H  3.70100 8.17800 26.61800
H  4.16000 9.02500 25.13100
H  8.77800 3.79100 22.46000
H  8.78600 0.86700 23.08500
H  6.17700 2.99300 23.20100
H  6.79100 1.62500 22.32500
H  6.71400 3.14900 21.46900
H  11.39200 2.27000 23.39400
H  10.58700 2.81600 21.89400
H  10.32800 0.25000 21.61900
H  11.71200 0.29500 22.87200
H  11.90500 0.96500 21.27900
H  11.28800 -1.79400 25.98800
H  11.78500 -2.36600 27.59600
H  12.91100 -1.28100 26.64400
H  11.90500 1.15900 31.79100
H  9.66800 0.81300 34.99600
H  10.44400 -0.77400 35.35900
H  9.01700 -0.68800 34.38700
Mg 7.12200 54.08800 40.73900
C  6.60000 50.74400 40.80400
C  10.37500 53.62400 40.10700
C  7.30300 57.47000 39.98600
C  3.56000 54.58300 41.28000
N  8.37800 52.34500 40.64100
C  7.95200 51.05500 40.50600
C  9.12000 50.13500 40.34700
C  10.34100 51.11600 40.45700
C  9.69100 52.46000 40.40100
C  11.21100 50.91600 41.73900
C  9.20200 49.31900 39.02900
C  9.32200 50.00400 37.63900
H  7.94300 50.07900 36.93800
N  8.67000 55.38800 40.08400
C  9.94800 54.98300 39.92400
C  10.72800 56.15600 39.45100
C  9.92800 57.33800 39.56300
C  8.58000 56.76000 39.84200
C  12.19500 56.18800 39.19600
C  10.37300 58.82900 39.37500
O  11.46700 59.13600 38.95200
C  9.40100 59.86800 39.75800
N  5.61600 55.73700 40.59200
C  6.00700 57.01800 40.31600
C  4.88400 58.05900 40.60700
C  3.62700 57.10400 40.82900
C  4.29200 55.72700 40.92500
C  5.19500 59.06100 41.73400
C  2.53400 57.17300 39.79200
C  1.31800 58.15100 40.05400
N  5.44000 52.98300 41.07300
C  4.07800 53.33900 41.27000
C  3.30700 52.15200 41.57800
C  4.25800 51.09800 41.35600
C  5.47800 51.64100 41.00100
C  1.85400 52.06200 41.87000
C  4.40500 49.65500 41.31700
O  3.61100 48.71500 41.55700
C  5.92500 49.36100 40.96000
C  5.93400 48.41900 39.80300
O  5.48300 48.59000 38.68100
O  6.32900 47.13500 40.30900
C  6.26400 46.02500 39.34200
H  11.43900 53.43300 39.95300
H  7.34700 58.49900 39.62500
H  2.50900 54.79800 41.48100
H  9.12000 49.50500 41.23700
H  10.98600 50.89800 39.60500
H  11.14100 49.96700 42.27100
H  10.91400 51.73900 42.38800
H  12.26100 50.99800 41.45700
H  8.32000 48.67900 39.00900
H  10.04900 48.63700 39.10200
H  9.94900 49.45100 36.93900
H  9.66400 51.02000 37.83200
H  12.56900 55.16400 39.18100
H  12.75500 56.82200 39.88300
H  12.41300 56.63400 38.22600
H  8.69000 59.76900 38.93800
H  9.81200 60.87700 39.71700
H  8.92300 59.68400 40.72000
H  4.77800 58.57400 39.65200
H  3.15900 57.20900 41.80800
H  6.25600 58.91000 41.93400
H  4.49700 58.93100 42.56200
H  5.24200 60.10700 41.43400
H  2.14100 56.16900 39.63300
H  2.99200 57.54300 38.87400
H  0.49600 57.49500 40.33900
H  1.24600 58.79200 39.17500
H  1.61700 58.74400 40.91800
H  1.62400 51.46900 42.75500
H  1.35300 51.60200 41.01900
H  1.30700 52.99700 41.99200
H  6.22200 48.89900 41.90100
H  5.92800 45.16200 39.91800
H  7.16900 45.79300 38.78000
H  5.49100 46.20900 38.59700

