158

Mg 43.29900 42.81900 26.00900
C  42.42800 45.41500 28.19600
C  44.63900 41.05600 28.48400
C  44.17000 40.59400 23.65100
C  42.57000 45.16700 23.42600
N  43.44300 43.16500 28.12500
C  42.90600 44.20300 28.88700
C  43.01500 43.95600 30.40800
C  44.01800 42.70100 30.39800
C  44.08100 42.25900 28.90100
C  45.38900 42.87300 31.20600
C  41.53100 43.80000 30.90500
C  41.19100 44.16400 32.31800
H  42.28200 43.93700 33.35300
N  44.35800 41.08400 26.03800
C  44.75600 40.43300 27.22600
C  45.40600 39.20000 26.89500
C  45.12600 38.94500 25.45600
C  44.52700 40.21400 24.94500
C  45.89200 38.39700 28.04800
C  45.47400 37.79800 24.54000
O  45.14400 37.81800 23.36000
C  46.23300 36.69200 25.13800
N  43.49400 42.94900 23.83100
C  43.86300 41.86600 23.12600
C  43.56100 41.97800 21.68600
C  42.77100 43.32300 21.66600
C  42.87700 43.88100 23.06600
C  44.92400 42.04900 20.90900
C  41.31600 43.19100 21.02600
C  40.40200 42.05500 21.52700
N  42.67200 44.86200 25.81300
C  42.46800 45.65400 24.72000
C  42.09800 47.01000 25.12900
C  42.06100 46.96500 26.52500
C  42.41400 45.64200 26.83400
C  41.79700 48.13000 24.18100
C  41.85100 47.72400 27.70700
O  41.54100 48.87900 27.86000
C  42.14100 46.74400 28.89900
C  43.20500 47.18700 29.84400
O  44.41000 47.19600 29.68000
O  42.57900 47.46400 31.00800
C  43.37000 48.01900 32.08500
H  45.14200 40.50700 29.28300
H  44.10400 39.80300 22.90100
H  42.20700 45.80600 22.61900
H  43.59900 44.73000 30.90600
H  43.43200 42.02400 31.01900
H  45.64300 43.87300 31.55700
H  46.10200 42.46800 30.48800
H  45.47100 42.20800 32.06600
H  41.02600 42.86900 30.64800
H  40.84800 44.43700 30.34300
H  40.37800 43.51900 32.65300
H  40.84500 45.19300 32.42100
H  46.52700 38.97100 28.72400
H  46.50500 37.55400 27.72800
H  45.03000 37.92300 28.51600
H  45.60600 36.27900 25.92800
H  47.11900 37.18600 25.53700
H  46.59500 35.89600 24.48700
H  42.93600 41.16500 21.31700
H  43.23800 44.07500 21.03000
H  45.76000 42.01700 21.60700
H  45.02200 42.88900 20.22100
H  45.10700 41.06300 20.48100
H  41.46000 43.29600 19.95100
H  40.85600 44.09200 21.43000
H  39.41900 42.46800 21.75100
H  40.77900 41.54600 22.41400
H  40.23400 41.21600 20.85200
H  42.73800 48.15000 23.63200
H  41.58000 49.01400 24.78200
H  40.95800 47.89000 23.52700
H  41.19300 46.57000 29.40800
H  44.15300 48.71200 31.77600
H  43.75000 47.41300 32.90800
H  42.68100 48.73000 32.54200
Mg 10.11900 47.78200 25.95800
C  7.87600 47.72800 28.58900
C  12.42800 49.19600 28.15100
C  12.56500 47.95300 23.48600
C  7.74800 47.03000 23.72600
N  10.07300 48.65500 28.13100
C  9.11600 48.21700 29.00200
C  9.67200 48.65200 30.41800
C  10.77200 49.72500 30.18300
C  11.13100 49.23900 28.72600
C  10.34200 51.20400 30.25300
C  10.22600 47.37700 31.22100
C  9.77100 47.34300 32.68900
H  10.03300 46.07400 33.58300
N  12.17700 48.36800 25.90700
C  12.95300 48.79800 26.91300
C  14.34500 48.76200 26.58200
C  14.46000 48.35600 25.19500
C  13.06400 48.14900 24.78500
C  15.51100 49.09100 27.50800
C  15.61600 48.18100 24.25000
O  15.54800 47.97000 23.02800
C  16.99700 48.29000 24.70300
N  10.12900 47.61200 23.88500
C  11.22500 47.67600 23.06700
C  10.89000 47.52200 21.63100
C  9.38100 47.18500 21.71900
C  9.04900 47.18600 23.19000
C  11.23300 48.88000 20.80000
C  9.02400 45.86300 21.05600
C  8.76900 44.55400 21.93100
N  8.13300 47.43300 26.07600
C  7.27000 47.07100 25.04200
C  5.92600 46.91400 25.66600
C  6.13100 47.08900 27.05100
C  7.48400 47.42300 27.19600
C  4.63300 46.60300 24.88800
C  5.49900 47.09200 28.37100
O  4.37300 46.73100 28.71800
C  6.56200 47.58700 29.37800
C  6.74600 46.59400 30.51400
O  7.36900 45.54600 30.44700
O  6.00000 47.03800 31.48300
C  6.00300 46.30600 32.82000
H  13.20500 49.64700 28.77300
H  13.28900 48.00800 22.67000
H  6.91400 46.87300 23.03900
H  8.89100 49.15600 30.98700
H  11.57000 49.59100 30.91300
H  9.29000 51.33100 30.51000
H  10.49000 51.66300 29.27500
H  10.98000 51.73500 30.95900
H  11.31100 47.48200 31.23400
H  9.96700 46.51300 30.61000
H  8.68300 47.40200 32.68200
H  10.09500 48.23800 33.22100
H  15.31500 49.46200 28.51400
H  16.02900 49.97800 27.14300
H  16.25100 48.29900 27.62600
H  17.44800 47.33200 24.96000
H  17.14900 49.09300 25.42500
H  17.62400 48.53700 23.84600
H  11.49700 46.71900 21.21300
H  8.84700 48.01100 21.24900
H  10.98300 49.85500 21.22000
H  10.78100 48.81600 19.81000
H  12.28200 49.05800 20.56700
H  9.70800 45.68300 20.22700
H  8.04400 46.00000 20.59900
H  9.54800 43.83700 21.67200
H  7.75200 44.16500 21.86800
H  8.93200 44.63800 23.00600
H  4.29800 47.50300 24.37100
H  3.87000 46.34300 25.62100
H  4.87200 45.76600 24.23200
H  6.15700 48.50400 29.80600
H  5.35600 45.43300 32.74100
H  5.53300 46.94100 33.57100
H  6.90600 45.86400 33.24300

