158

Mg 26.25400 0.42200 28.89300
C  27.99300 -0.11400 31.82000
C  23.34100 0.75500 30.78200
C  24.60300 0.65100 26.07300
C  29.18500 -0.12400 27.06500
N  25.73200 0.23900 31.03500
C  26.63500 0.04900 32.08700
C  25.84700 0.17500 33.46600
C  24.38200 0.40800 33.06800
C  24.53300 0.61800 31.51400
C  23.23200 -0.67200 33.52300
C  26.51400 1.09500 34.51400
C  25.78600 1.40400 35.81000
H  26.71400 1.72500 36.99500
N  24.21400 0.71900 28.50300
C  23.14500 0.76900 29.36700
C  22.01200 1.09800 28.58400
C  22.32000 0.87500 27.21700
C  23.76300 0.72400 27.20200
C  20.71800 1.40100 29.20100
C  21.37200 0.87600 26.11800
O  21.69400 0.58700 24.92600
C  19.95700 1.47000 26.23500
N  26.81300 0.22600 26.81900
C  25.92500 0.42600 25.84800
C  26.52600 0.46000 24.47400
C  28.01600 0.42800 24.86200
C  28.06200 0.21400 26.34300
C  26.00600 -0.70500 23.63600
C  28.81600 1.70100 24.47400
C  30.28400 1.49400 24.03200
N  28.22700 -0.10200 29.37700
C  29.34500 -0.19500 28.48500
C  30.55300 -0.49000 29.32900
C  30.07300 -0.45500 30.67300
C  28.64200 -0.23100 30.56400
C  31.98500 -0.82400 28.83700
C  30.35900 -0.53700 32.08300
O  31.49100 -0.63900 32.61800
C  29.03400 -0.29800 32.86400
C  28.76300 -1.47700 33.83500
O  28.16500 -2.52100 33.66800
O  29.41900 -1.21500 34.99400
C  29.28500 -2.13600 36.14200
H  22.44600 0.99300 31.36000
H  24.11900 0.85000 25.11400
H  30.11700 -0.03200 26.50200
H  25.92500 -0.83200 33.87700
H  24.05500 1.33400 33.54300
H  22.32900 -0.23600 33.95100
H  23.71500 -1.31200 34.26200
H  23.02700 -1.33800 32.68500
H  26.91800 1.99800 34.05600
H  27.44900 0.60600 34.78900
H  25.22000 0.48400 35.95900
H  25.14600 2.27800 35.68300
H  20.72100 1.61300 30.27000
H  20.10700 0.53900 28.93200
H  20.38500 2.35800 28.79800
H  19.26700 0.82200 26.77500
H  19.66500 1.49500 25.18500
H  19.95000 2.53600 26.46400
H  26.12100 1.31900 23.94100
H  28.45500 -0.43100 24.35300
H  26.72300 -1.52600 23.67100
H  25.84300 -0.42800 22.59400
H  25.06400 -1.09300 24.02200
H  28.87600 2.35000 25.34800
H  28.19900 2.17200 23.70900
H  30.32300 2.04700 23.09400
H  30.62400 0.45900 24.06900
H  30.98600 2.00400 24.69300
H  32.84600 -0.26900 29.20700
H  32.06600 -0.76700 27.75100
H  32.16800 -1.88200 29.02300
H  29.21200 0.62300 33.41800
H  28.60100 -1.71600 36.88000
H  30.29300 -2.09700 36.55600
H  28.94300 -3.14700 35.92200
Mg 41.11400 41.98500 27.32000
C  40.55700 44.32500 29.79700
C  42.11700 39.79300 29.73100
C  42.32300 39.86900 24.90600
C  40.59200 44.48600 24.93700
N  41.42200 42.12500 29.43700
C  41.05800 43.14900 30.31600
C  41.05700 42.74700 31.82800
C  41.87100 41.38300 31.74500
C  41.84800 41.06700 30.26600
C  43.21600 41.42500 32.47500
C  39.75100 42.68200 32.63000
C  39.75300 43.59900 33.88600
H  39.18400 43.00800 35.13400
N  41.96600 40.05300 27.36100
C  42.21000 39.28100 28.44100
C  42.70500 37.89600 28.04200
C  42.74300 37.87800 26.61000
C  42.30000 39.30600 26.23100
C  43.00600 36.85200 29.02800
C  43.11000 36.84200 25.65700
O  43.14600 36.96300 24.48700
C  43.58500 35.49400 26.17000
N  41.49100 42.18700 25.29800
C  41.91900 41.08900 24.46600
C  41.68300 41.40200 22.97600
C  40.94700 42.79400 23.05200
C  40.96000 43.16400 24.56100
C  42.93400 41.31600 22.10400
C  39.62700 42.71500 22.27700
C  38.52300 41.92300 22.95100
N  40.66200 44.00200 27.28000
C  40.46400 44.98100 26.25500
C  39.95700 46.23200 26.81900
C  40.02700 46.01000 28.18900
C  40.46900 44.72500 28.44800
C  39.38000 47.42000 26.05100
C  39.85400 46.64500 29.45900
O  39.57800 47.79400 29.70000
C  40.07600 45.54900 30.61200
C  41.02200 46.12800 31.68900
O  42.22000 46.36900 31.57000
O  40.30100 46.50000 32.72900
C  40.90200 47.13700 33.86000
H  42.29900 38.99500 30.45300
H  42.66700 39.20600 24.11000
H  40.35400 45.25300 24.19700
H  41.65500 43.56000 32.24000
H  41.30700 40.65200 32.32500
H  43.57600 42.39600 32.81500
H  43.91800 41.03600 31.73700
H  43.12000 40.75300 33.32800
H  39.45000 41.68800 32.96100
H  38.96800 43.15400 32.03700
H  39.04700 44.38900 33.62900
H  40.67100 44.12900 34.14300
H  43.11800 37.24600 30.03900
H  43.94900 36.36500 28.78000
H  42.09400 36.26300 29.12200
H  42.84300 34.94400 26.74900
H  44.58100 35.64100 26.58700
H  43.71700 34.86900 25.28700
H  41.09000 40.58000 22.57300
H  41.60300 43.51700 22.56800
H  42.67200 41.09200 21.07000
H  43.60600 40.53900 22.47100
H  43.43600 42.25700 21.87900
H  39.82000 42.28300 21.29500
H  39.29300 43.73600 22.09300
H  37.68100 42.61200 22.89000
H  38.78200 41.61300 23.96300
H  38.19900 41.04000 22.39900
H  38.50400 47.79000 26.58400
H  39.12400 47.01200 25.07400
H  40.24400 48.08200 25.98500
H  39.10700 45.33600 31.06200
H  41.59300 47.92600 33.56600
H  41.43600 46.41300 34.47600
H  40.11900 47.53200 34.50800

