158

Mg 26.66000 50.17200 25.91400
C  24.72000 51.38400 28.63100
C  28.80600 48.62200 28.16500
C  28.15600 48.86400 23.34600
C  24.43500 51.92000 23.79800
N  26.72200 50.07900 28.08500
C  25.79800 50.56600 28.99200
C  26.24600 50.22700 30.41600
C  27.69600 49.59800 30.21700
C  27.80200 49.47300 28.72800
C  28.90000 50.38500 30.85100
C  25.22000 49.31500 31.20700
C  24.66100 49.74900 32.54600
H  24.33800 48.81400 33.74300
N  28.44600 49.06600 25.74200
C  29.11100 48.50200 26.80100
C  30.20800 47.78900 26.27200
C  29.94100 47.62500 24.83700
C  28.78200 48.48800 24.57200
C  31.35600 47.31700 27.08200
C  30.77000 46.98400 23.86500
O  30.55200 47.10500 22.66200
C  31.96600 46.24800 24.25800
N  26.45300 50.48600 23.89000
C  27.04300 49.67900 23.03100
C  26.61900 49.82600 21.55300
C  25.37400 50.76500 21.76100
C  25.44500 51.14500 23.25500
C  27.77300 50.32800 20.66300
C  23.90100 50.09500 21.60300
C  22.95800 50.87600 20.67800
N  25.08800 51.59600 26.09200
C  24.22200 52.09400 25.12600
C  23.11900 52.76700 25.82600
C  23.28200 52.51400 27.16100
C  24.45200 51.73200 27.28600
C  21.85700 53.31100 25.25800
C  22.59000 52.63200 28.44100
O  21.59900 53.24400 28.74300
C  23.58500 51.95600 29.43500
C  24.12300 52.86000 30.56400
O  25.24400 53.37500 30.57400
O  23.26000 52.95400 31.63100
C  23.54600 53.66100 32.87900
H  29.33600 47.95300 28.84700
H  28.57300 48.25700 22.54000
H  23.57100 52.24800 23.21500
H  26.34300 51.10200 31.05800
H  27.81000 48.63900 30.72200
H  29.50000 50.66000 29.98400
H  29.41800 49.79800 31.60900
H  28.53000 51.30400 31.30500
H  25.70000 48.33800 31.27300
H  24.34000 49.26800 30.56500
H  23.65700 50.14300 32.38800
H  25.27900 50.52500 32.99800
H  32.27000 47.68000 26.61200
H  31.30000 46.22900 27.10500
H  31.34200 47.75900 28.07900
H  32.13600 45.81900 25.24600
H  32.74900 46.92900 23.92600
H  32.06400 45.44200 23.53100
H  26.16100 48.94400 21.10700
H  25.59400 51.64000 21.14900
H  28.75400 50.07500 21.06500
H  27.85300 51.40600 20.52100
H  27.69500 50.04200 19.61400
H  23.37300 50.04800 22.55600
H  24.05800 49.07900 21.24200
H  22.81500 50.17700 19.85400
H  23.35900 51.82600 20.32700
H  21.96200 51.11800 21.04700
H  21.55400 52.83400 24.32600
H  21.95400 54.37800 25.05700
H  21.05200 53.05400 25.94600
H  23.03900 51.12600 29.88200
H  23.52200 52.95700 33.71100
H  22.83800 54.48500 32.96500
H  24.53400 54.12000 32.91900
Mg -5.86300 25.76300 26.81100
C  -4.74000 27.33300 29.84300
C  -7.50100 23.59100 28.78300
C  -6.49000 24.00000 24.03000
C  -3.46400 27.67800 25.09200
N  -5.95700 25.46800 29.17800
C  -5.56400 26.25900 30.18700
C  -6.15500 25.86800 31.49500
C  -6.84300 24.51900 31.06900
C  -6.80500 24.50900 29.55300
C  -6.31700 23.21800 31.64900
C  -7.13500 26.91300 32.09800
C  -7.02100 27.30100 33.62000
H  -6.43500 26.19400 34.49800
N  -7.02600 24.10800 26.36900
C  -7.59900 23.30500 27.32300
C  -8.35600 22.33000 26.63200
C  -8.00900 22.40300 25.22300
C  -7.11600 23.54100 25.14500
C  -9.15200 21.21200 27.40900
C  -8.30500 21.49300 24.08500
O  -7.80700 21.62200 22.97800
C  -9.33400 20.41600 24.26800
N  -5.08500 25.88700 24.83100
C  -5.50100 24.98500 23.88500
C  -4.62100 25.19900 22.61000
C  -3.80900 26.49400 22.88300
C  -4.06400 26.62200 24.38100
C  -3.71700 24.03000 22.11600
C  -4.21700 27.63000 21.94900
C  -5.34100 28.66600 22.49100
N  -4.48300 27.27600 27.28400
C  -3.63300 28.00900 26.46500
C  -2.93400 28.96600 27.27700
C  -3.44800 28.82400 28.58700
C  -4.27300 27.76000 28.54300
C  -1.88900 29.82600 26.62000
C  -3.44300 29.33900 29.96400
O  -2.99600 30.33600 30.46500
C  -4.24700 28.34700 30.82700
C  -3.26400 27.83200 31.83700
O  -2.45700 26.93200 31.67200
O  -3.44400 28.47100 33.05000
C  -2.46000 28.22000 34.08600
H  -8.14100 22.92700 29.36700
H  -6.51900 23.31000 23.18400
H  -2.78900 28.22200 24.42900
H  -5.28500 25.55100 32.07000
H  -7.90400 24.60900 31.30300
H  -5.46400 22.81800 31.09900
H  -7.14200 22.50700 31.60500
H  -6.08600 23.44300 32.69000
H  -8.15500 26.64000 31.82800
H  -6.90700 27.84700 31.58400
H  -8.01800 27.63800 33.90600
H  -6.40700 28.19400 33.73300
H  -10.14900 21.13100 26.97500
H  -9.34800 21.42300 28.46000
H  -8.59600 20.27400 27.40300
H  -9.15000 19.75100 25.11200
H  -9.32300 19.84400 23.34000
H  -10.34900 20.81200 24.24500
H  -5.43900 25.32900 21.90100
H  -2.78500 26.21700 22.63100
H  -2.65100 24.11700 22.32600
H  -3.99200 23.75800 21.09700
H  -3.95700 23.16800 22.73800
H  -4.61600 27.23400 21.01500
H  -3.37800 28.29300 21.73800
H  -5.95400 29.04200 21.67100
H  -4.94700 29.48200 23.09600
H  -6.12200 28.24100 23.12100
H  -2.33100 30.31000 25.75000
H  -1.03000 29.19400 26.39200
H  -1.55200 30.59200 27.31800
H  -5.05400 28.91100 31.29400
H  -2.91700 28.23900 35.07600
H  -1.55800 28.80400 33.90100
H  -2.19700 27.16200 34.06800

