158

Mg 53.43100 24.33500 43.95000
C  50.73500 26.70000 43.83600
C  51.20700 21.85100 43.40200
C  56.02000 22.22700 43.36500
C  55.64900 26.92900 44.33200
N  51.24800 24.33400 43.65100
C  50.35800 25.31700 43.66000
C  49.00000 24.79200 43.45200
C  49.14400 23.29800 43.84300
C  50.63300 23.08900 43.62900
C  48.69200 22.95800 45.23500
C  48.45000 25.01500 42.01700
C  49.22500 24.63600 40.75600
H  49.61500 25.69700 39.72300
N  53.58400 22.33000 43.50900
C  52.55200 21.49700 43.20600
C  53.06100 20.13500 42.92000
C  54.40700 20.23500 42.95200
C  54.76200 21.64500 43.32200
C  52.18500 18.92200 42.71700
C  55.47200 19.10200 42.69400
O  55.15400 18.00700 42.23900
C  57.02300 19.26200 42.94500
N  55.58400 24.62700 43.66100
C  56.41600 23.57800 43.54400
C  57.86500 23.98100 43.41800
C  57.77300 25.50700 43.85300
C  56.28100 25.71900 44.00200
C  59.04200 23.16500 44.07500
C  58.46700 26.40000 42.82000
C  57.69500 26.80700 41.51900
N  53.27000 26.41700 43.93100
C  54.20500 27.34000 44.32500
C  53.62500 28.66000 44.57700
C  52.25200 28.40800 44.26800
C  52.07800 27.05800 43.88400
C  54.28000 29.93800 45.09200
C  51.03000 29.14700 44.28100
O  50.76400 30.32600 44.46600
C  49.90700 28.02500 43.94900
C  49.32100 28.46400 42.61500
O  49.92200 28.70800 41.60900
O  47.97800 28.33700 42.63800
C  47.33600 28.88500 41.39900
H  50.65100 20.91500 43.32600
H  56.87400 21.62500 43.04900
H  56.23700 27.82300 44.55000
H  48.39400 25.41100 44.11400
H  48.55200 22.66400 43.18400
H  48.39400 23.81000 45.84500
H  49.48300 22.64900 45.91900
H  47.88000 22.23200 45.22800
H  48.28700 26.09000 41.94100
H  47.50100 24.47800 42.01200
H  48.72800 23.85700 40.17700
H  50.15600 24.12200 40.99300
H  52.73300 17.99800 42.53200
H  51.42300 19.10600 41.96000
H  51.63600 18.82600 43.65400
H  57.36600 19.92400 42.15000
H  57.31400 18.21200 42.92200
H  57.05400 19.66100 43.95900
H  58.07000 23.87000 42.35300
H  58.31200 25.71800 44.77600
H  59.79100 22.93400 43.31600
H  58.72000 22.32700 44.69200
H  59.53300 23.89900 44.71400
H  59.23800 25.71400 42.46800
H  59.02900 27.23300 43.24000
H  56.62200 26.78100 41.70700
H  57.76100 26.07000 40.71800
H  58.12300 27.73600 41.14100
H  54.06200 30.70500 44.34900
H  55.36500 29.97800 45.18700
H  53.73200 30.23800 45.98500
H  49.06700 28.02200 44.64400
H  47.55200 29.94700 41.28100
H  46.27800 28.64600 41.29300
H  47.73400 28.39800 40.50900
Mg 17.40300 53.08100 26.42300
C  19.65700 51.72000 28.63300
C  15.08800 53.46600 28.93500
C  15.15600 54.43000 24.23800
C  19.44500 52.19400 23.78200
N  17.31700 52.60200 28.47900
C  18.43800 52.11900 29.19900
C  18.14900 52.21200 30.66800
C  16.57600 52.28900 30.72700
C  16.24500 52.76900 29.29200
C  15.81100 50.96500 31.08400
C  18.90600 53.42400 31.31400
C  19.21600 53.28400 32.86700
H  18.17300 52.55200 33.68300
N  15.53000 53.95800 26.56500
C  14.75000 54.08500 27.74300
C  13.50600 54.79700 27.42800
C  13.56600 55.07600 26.00600
C  14.77800 54.49700 25.56000
C  12.42600 55.03500 28.47800
C  12.53100 55.83900 25.16100
O  12.71300 56.19800 23.98100
C  11.15900 56.21900 25.73400
N  17.28300 53.22000 24.28300
C  16.27300 53.88800 23.61600
C  16.60200 53.96600 22.09800
C  17.99500 53.29700 22.02100
C  18.31300 52.92400 23.45100
C  15.53800 53.31400 21.11500
C  19.04200 54.19000 21.27900
C  19.94400 55.02300 22.11700
N  19.11200 51.96400 26.15300
C  19.88800 51.73800 25.05400
C  21.11200 51.05500 25.46300
C  21.07800 51.08300 26.88700
C  19.83100 51.67000 27.23900
C  22.11100 50.40100 24.55600
C  21.79000 50.71900 28.13500
O  22.89700 50.24700 28.25000
C  20.82700 51.17900 29.31700
C  20.45600 50.09000 30.20200
O  19.52900 49.29300 29.98700
O  21.03800 50.33400 31.37700
C  20.66000 49.42700 32.45900
H  14.36400 53.45600 29.75300
H  14.47600 54.75200 23.44600
H  20.22700 51.97200 23.05300
H  18.46800 51.26900 31.11300
H  16.16900 53.04900 31.39400
H  15.16300 51.22200 31.92200
H  16.50600 50.20900 31.45000
H  15.27600 50.60600 30.20500
H  18.33600 54.35200 31.29900
H  19.87000 53.62100 30.84300
H  19.24700 54.30400 33.25100
H  20.14800 52.73500 33.00200
H  11.53400 55.55500 28.12700
H  12.76700 55.62700 29.32700
H  12.13000 54.02700 28.76700
H  11.39000 57.10600 26.32300
H  10.77400 55.33200 26.23700
H  10.33300 56.48900 25.07700
H  16.74100 54.99300 21.76000
H  17.93300 52.32000 21.54300
H  15.09900 52.42300 21.56400
H  15.96800 53.15300 20.12600
H  14.77400 54.07000 20.93400
H  18.54800 54.89900 20.61500
H  19.66700 53.64800 20.56900
H  20.67200 54.28100 22.44300
H  19.39600 55.37400 22.99100
H  20.46300 55.83900 21.61400
H  22.04100 50.72500 23.51800
H  22.06500 49.31400 24.61900
H  23.07100 50.75700 24.92900
H  21.35700 51.91600 29.92100
H  20.66200 48.40000 32.09200
H  19.74800 49.76100 32.95200
H  21.47300 49.58800 33.16700

