158

Mg 47.41000 16.60700 27.83000
C  45.52100 16.30600 30.75000
C  49.48100 18.86400 29.45500
C  49.23700 16.97200 25.01900
C  44.92900 15.08300 26.11700
N  47.46800 17.44800 29.84200
C  46.71200 17.02900 30.94900
C  47.30700 17.48500 32.30500
C  48.37200 18.52600 31.81100
C  48.43400 18.32600 30.29200
C  48.10200 20.04000 32.12500
C  47.78500 16.26500 33.27600
C  48.56400 16.60000 34.54900
H  48.59600 18.00200 35.15400
N  49.07100 17.74400 27.26900
C  49.81000 18.61600 28.07700
C  50.93500 19.18600 27.33000
C  51.02900 18.47300 26.12100
C  49.74800 17.67300 26.10700
C  52.06400 19.99200 27.95200
C  52.18000 18.32200 25.13800
O  52.18700 17.41600 24.33100
C  53.39100 19.26000 25.12000
N  47.23200 15.95100 25.92800
C  48.07100 16.22700 24.88400
C  47.57900 15.78500 23.53500
C  46.27500 14.98400 23.95600
C  46.07900 15.39900 25.41900
C  47.30400 16.91800 22.52600
C  46.37100 13.47000 23.87500
C  46.05700 12.85100 22.44100
N  45.54600 15.93900 28.27400
C  44.61200 15.27300 27.47400
C  43.46000 14.84700 28.24500
C  43.86800 15.23800 29.51800
C  45.06100 15.85100 29.46900
C  42.25400 14.05800 27.84700
C  43.36100 15.18200 30.84400
O  42.36400 14.73500 31.31400
C  44.46300 15.96600 31.77000
C  43.82500 17.17200 32.30400
O  43.47000 18.13900 31.67400
O  43.72100 16.99700 33.61500
C  43.16700 18.13800 34.43800
H  50.04800 19.63600 29.97800
H  49.72900 17.29300 24.09800
H  44.26800 14.63900 25.37000
H  46.51100 18.01100 32.83400
H  49.36200 18.39700 32.24800
H  48.96500 20.41600 32.67600
H  47.22600 20.16100 32.76100
H  47.94400 20.64100 31.23000
H  48.40200 15.49000 32.82200
H  46.91400 15.68500 33.57900
H  49.56400 16.17400 34.47800
H  48.19000 16.01100 35.38600
H  52.31600 20.88200 27.37500
H  52.96500 19.38600 27.86200
H  51.92300 20.22500 29.00800
H  53.05000 20.28700 25.25500
H  53.78800 19.16200 24.11000
H  54.06800 18.92300 25.90500
H  48.27700 15.17200 22.96500
H  45.40300 15.35100 23.41500
H  46.33900 16.88700 22.01900
H  48.04700 16.91000 21.72800
H  47.48400 17.85100 23.05900
H  45.76700 13.01300 24.65900
H  47.37500 13.14600 24.14900
H  47.04900 12.54800 22.10800
H  45.64700 13.45200 21.63000
H  45.33800 12.05700 22.64500
H  42.60600 13.26900 27.18300
H  41.48900 14.69800 27.40700
H  41.81700 13.64400 28.75600
H  44.81400 15.30900 32.56700
H  42.16100 17.85800 34.75200
H  43.07500 19.02600 33.81300
H  43.74900 18.33700 35.33700
Mg 48.21300 25.86800 27.84600
C  48.92400 28.06600 30.25800
C  47.11600 23.44700 30.14500
C  47.58200 23.58900 25.27900
C  49.50100 28.06700 25.44300
N  47.88100 25.79400 29.87600
C  48.29600 26.79800 30.68300
C  48.00900 26.51900 32.18300
C  47.75400 24.96700 32.12700
C  47.55600 24.70900 30.63800
C  48.67300 24.01400 32.90600
C  46.78600 27.42100 32.67700
C  46.16500 27.00400 33.99500
H  46.04000 28.05600 35.14200
N  47.44400 23.83100 27.74500
C  47.09000 23.03900 28.77700
C  46.55700 21.72000 28.31600
C  46.74200 21.77800 26.93200
C  47.26700 23.13800 26.56200
C  45.88400 20.71400 29.19000
C  46.43700 20.60800 25.95600
O  46.65100 20.63900 24.79400
C  45.97500 19.35000 26.46600
N  48.59600 25.84600 25.65500
C  48.09600 24.84200 24.84600
C  48.09100 25.28600 23.39200
C  48.85800 26.57200 23.39600
C  49.04200 26.87400 24.91900
C  48.60500 24.24500 22.37500
C  48.21400 27.74500 22.61900
C  48.89800 28.28500 21.38400
N  49.09900 27.66600 27.81200
C  49.59500 28.44800 26.77700
C  50.10700 29.70900 27.31500
C  49.80100 29.65100 28.70000
C  49.25600 28.37300 28.93300
C  50.66400 30.96800 26.60200
C  49.91300 30.34500 29.98200
O  50.27000 31.50900 30.17100
C  49.34800 29.35600 31.06500
C  50.38200 29.03800 32.14500
O  51.44300 28.47300 32.02800
O  49.92600 29.61200 33.34200
C  50.74600 29.36500 34.54000
H  46.79100 22.72400 30.89600
H  47.30700 22.95600 24.43300
H  49.77100 28.84800 24.73000
H  48.88900 26.77600 32.77300
H  46.80200 24.73800 32.60600
H  49.03900 23.18300 32.30300
H  48.21500 23.60200 33.80500
H  49.52700 24.56400 33.30400
H  46.03400 27.49400 31.89200
H  47.24100 28.39300 32.86900
H  46.70100 26.15000 34.40900
H  45.19600 26.57700 33.73600
H  46.56000 19.86200 29.25700
H  44.98100 20.38100 28.67900
H  45.63200 21.07100 30.18900
H  45.90500 18.57900 25.69900
H  45.00300 19.43300 26.95200
H  46.76300 18.99800 27.13200
H  47.11300 25.48600 22.95400
H  49.85100 26.52500 22.94900
H  49.05800 23.39400 22.88500
H  49.37300 24.63200 21.70600
H  47.76800 23.74800 21.88500
H  48.07400 28.59600 23.28600
H  47.24800 27.42700 22.22800
H  49.63400 27.65500 20.88300
H  49.33300 29.18200 21.82500
H  48.17400 28.53100 20.60700
H  50.13100 31.91600 26.68400
H  50.56100 30.80200 25.52900
H  51.69900 31.23200 26.81400
H  48.44800 29.82300 31.46500
H  51.04800 30.36200 34.86100
H  51.61500 28.71800 34.41700
H  50.11200 28.88900 35.28700

