158

Mg 35.64900 1.26400 29.36300
C  33.47300 2.44800 31.80400
C  38.26300 1.43700 31.50700
C  37.58500 0.44900 26.77000
C  32.97300 1.85400 26.99900
N  35.82800 1.95300 31.44700
C  34.76300 2.11800 32.27300
C  35.27600 2.19200 33.78100
C  36.86100 2.14000 33.61800
C  37.03200 1.86200 32.08100
C  37.64400 3.42800 34.08500
C  34.66300 1.09100 34.67700
C  34.45500 1.58000 36.14200
H  35.30700 2.67000 36.78500
N  37.64200 0.87200 29.21300
C  38.57200 0.89100 30.25000
C  39.92100 0.46100 29.73100
C  39.74200 0.19200 28.29400
C  38.26300 0.50700 28.04800
C  41.14900 0.59000 30.54300
C  40.87700 -0.12200 27.20100
O  40.74700 0.08400 25.97000
C  42.16900 -0.63000 27.77000
N  35.31000 1.11600 27.18300
C  36.31300 0.68600 26.37900
C  35.85600 0.67100 24.89900
C  34.29100 0.93300 25.06100
C  34.13700 1.38800 26.48000
C  36.64000 1.58700 23.91900
C  33.40000 -0.20800 24.50900
C  32.30900 0.24300 23.53200
N  33.66200 1.97300 29.32900
C  32.71600 2.10800 28.35100
C  31.42800 2.51600 28.85800
C  31.64100 2.68400 30.22900
C  33.02700 2.36000 30.48300
C  30.19100 2.70800 27.98900
C  31.07800 3.05500 31.48800
O  29.97900 3.41500 31.84200
C  32.26500 2.97300 32.53200
C  32.46000 4.32100 33.02400
O  33.51000 5.01400 32.71600
O  31.46900 4.67400 33.91300
C  31.74300 5.89600 34.64600
H  39.08700 1.48900 32.22300
H  38.25400 0.16200 25.95600
H  32.29600 2.20300 26.21600
H  34.99400 3.17900 34.14800
H  37.39900 1.39000 34.19700
H  37.83500 3.96000 33.15300
H  38.62200 3.25200 34.53400
H  37.02400 3.91600 34.83600
H  35.32100 0.22700 34.76800
H  33.72200 0.79900 34.21100
H  34.63200 0.72000 36.78800
H  33.41200 1.87200 36.26300
H  41.37800 -0.45600 30.74600
H  41.03700 1.17600 31.45500
H  41.88800 1.01200 29.86200
H  42.75300 0.20300 28.16200
H  42.75000 -1.03400 26.94100
H  41.96900 -1.51700 28.37000
H  36.00300 -0.34700 24.53800
H  33.99700 1.86300 24.57500
H  37.45300 2.16400 24.36100
H  36.05800 2.25700 23.28700
H  37.19500 0.96800 23.21500
H  33.03300 -0.75500 25.37800
H  34.01200 -0.88600 23.91400
H  31.38500 -0.27200 23.79700
H  32.49800 0.01000 22.48400
H  32.18100 1.31400 23.68500
H  29.90000 3.74000 27.79300
H  29.37000 2.20400 28.49900
H  30.30100 2.12100 27.07800
H  32.00800 2.40000 33.42300
H  31.38500 6.74200 34.06100
H  32.78700 5.94000 34.95800
H  31.10800 5.88200 35.53100
Mg -5.11500 25.51400 25.25400
C  -3.43600 27.20000 27.82800
C  -6.49100 23.42700 27.45700
C  -6.28300 23.65400 22.70400
C  -2.77900 27.06800 23.08600
N  -4.79300 25.25100 27.41400
C  -4.26200 26.15900 28.31600
C  -4.74400 25.85000 29.71100
C  -5.44200 24.48900 29.58300
C  -5.63000 24.39800 28.02100
C  -4.71400 23.23200 30.10500
C  -5.66600 26.97200 30.43400
C  -5.09700 27.34200 31.79000
H  -4.74200 26.08500 32.65700
N  -6.26800 23.78400 25.07300
C  -6.81800 23.12000 26.12500
C  -7.76000 22.12900 25.65300
C  -7.68000 22.10200 24.26200
C  -6.78000 23.26500 23.95900
C  -8.56500 21.34700 26.71000
C  -8.42000 21.19200 23.24900
O  -8.21100 21.25200 22.07500
C  -9.45000 20.10900 23.68000
N  -4.60300 25.35600 23.29100
C  -5.25800 24.56500 22.37800
C  -4.68100 24.69200 20.96800
C  -3.58700 25.77000 21.06300
C  -3.60500 26.01200 22.57300
C  -4.09800 23.32000 20.36300
C  -3.82700 27.05200 20.21600
C  -3.58400 27.03500 18.72900
N  -3.57100 27.00400 25.35000
C  -2.74800 27.60300 24.40600
C  -1.91700 28.63300 24.98100
C  -2.11400 28.46700 26.37500
C  -3.11800 27.49500 26.49800
C  -1.01400 29.53200 24.28700
C  -1.73200 28.91400 27.68400
O  -0.84100 29.72000 27.98400
C  -2.54500 28.08700 28.71700
C  -1.48000 27.39200 29.48300
O  -0.71900 26.51700 29.03800
O  -1.49500 27.81900 30.77500
C  -0.71200 27.17300 31.79700
H  -7.02000 23.00900 28.31600
H  -6.85000 23.20100 21.88800
H  -2.10600 27.63800 22.44300
H  -3.85200 25.61300 30.29100
H  -6.45300 24.39000 29.97700
H  -3.87600 23.35900 30.79000
H  -4.33700 22.70600 29.22800
H  -5.52700 22.65700 30.54800
H  -6.71300 26.70500 30.58100
H  -5.69500 27.86900 29.81600
H  -5.83900 27.99400 32.25200
H  -4.26800 28.02100 31.58700
H  -9.48600 21.91600 26.83300
H  -8.10400 21.37600 27.69700
H  -8.75900 20.33000 26.36800
H  -9.97100 19.94000 22.73700
H  -10.08800 20.52000 24.46300
H  -8.97700 19.21100 24.07700
H  -5.49400 25.03200 20.32700
H  -2.59100 25.39300 20.83200
H  -4.46800 23.27100 19.33900
H  -4.52000 22.47400 20.90600
H  -3.01100 23.35300 20.30000
H  -3.28100 27.91700 20.59300
H  -4.84800 27.33900 20.46900
H  -2.85000 27.78700 18.44100
H  -4.52300 27.30200 18.24400
H  -3.20300 26.07200 18.38900
H  -1.06200 30.57600 24.59600
H  -1.25200 29.40700 23.23000
H  -0.01100 29.19000 24.53900
H  -3.02100 28.83900 29.34600
H  -1.43100 27.27000 32.61000
H  0.24500 27.66900 31.96200
H  -0.64700 26.12100 31.51800

