158

Mg -2.19700 17.00400 26.35500
C  -2.44300 14.87500 28.96300
C  -3.40100 19.61300 28.43900
C  -2.13100 19.15700 23.75400
C  -1.98000 14.38200 24.15500
N  -2.69700 17.27100 28.53700
C  -2.73600 16.21900 29.39200
C  -3.07600 16.71100 30.76100
C  -3.62000 18.20500 30.56300
C  -3.29200 18.39700 29.08900
C  -5.13300 18.52700 30.77500
C  -1.86000 16.71300 31.71800
C  -2.08600 15.91000 33.03100
H  -2.71600 16.71000 34.18500
N  -2.53400 19.13200 26.13400
C  -2.92000 20.01900 27.10500
C  -2.73400 21.40200 26.61400
C  -2.25000 21.23800 25.30700
C  -2.34200 19.76800 24.98900
C  -3.01900 22.57500 27.45100
C  -1.76500 22.32900 24.42300
O  -1.52900 22.14300 23.20600
C  -1.49200 23.63900 25.01800
N  -2.16300 16.80500 24.22100
C  -2.05500 17.80900 23.41900
C  -1.96200 17.30900 21.97300
C  -2.02000 15.77700 22.07100
C  -1.95400 15.67200 23.56400
C  -3.14900 17.84100 21.06400
C  -0.89300 15.11100 21.31000
C  0.48200 15.31900 21.89300
N  -2.17800 15.01600 26.49000
C  -2.12900 14.06900 25.54300
C  -2.17900 12.72100 26.13400
C  -2.23700 12.98600 27.49800
C  -2.27100 14.38100 27.67100
C  -2.33300 11.47600 25.38200
C  -2.25900 12.35600 28.78400
O  -2.17000 11.18800 29.06700
C  -2.43900 13.54900 29.80400
C  -1.35200 13.36100 30.84800
O  -0.24500 13.80700 30.78800
O  -1.95800 12.59000 31.82700
C  -1.03200 11.96700 32.80300
H  -3.79600 20.45300 29.01300
H  -1.93900 19.77900 22.87700
H  -1.73200 13.51100 23.54400
H  -3.91800 16.11500 31.11300
H  -3.15200 18.97800 31.17300
H  -5.65500 17.70800 31.27000
H  -5.69300 18.76200 29.87000
H  -5.30700 19.37500 31.43600
H  -1.65700 17.73900 32.02600
H  -0.95000 16.46200 31.17200
H  -1.16900 15.59900 33.53100
H  -2.87900 15.22100 32.73800
H  -2.96800 22.29700 28.50400
H  -3.93600 23.15300 27.32800
H  -2.22000 23.31200 27.53500
H  -1.14000 24.31000 24.23500
H  -0.69200 23.58500 25.75600
H  -2.49400 23.97700 25.28400
H  -1.03500 17.66600 21.52400
H  -2.97000 15.40500 21.68900
H  -3.85300 18.47300 21.60500
H  -3.74800 17.04700 20.61800
H  -2.83700 18.48300 20.24100
H  -0.88100 15.59400 20.33300
H  -1.01700 14.03700 21.17500
H  1.18000 15.92000 21.31000
H  0.88600 14.31000 21.81000
H  0.44000 15.68700 22.91800
H  -2.05500 10.57300 25.92600
H  -2.02200 11.59100 24.34300
H  -3.42100 11.40300 25.37800
H  -3.38700 13.28600 30.27400
H  -0.34800 11.39200 32.17900
H  -1.60900 11.23600 33.36800
H  -0.47700 12.67700 33.41700
Mg 16.96700 -2.85900 27.04200
C  16.07200 -0.94500 30.00800
C  18.76000 -4.86300 28.97800
C  18.33400 -4.04400 24.23500
C  15.29200 -0.33700 25.19400
N  17.24300 -2.92600 29.29400
C  16.84200 -2.12500 30.31500
C  17.56400 -2.50500 31.64400
C  18.61500 -3.63400 31.21700
C  18.20500 -3.79400 29.75600
C  20.06900 -3.24800 31.31500
C  16.58100 -2.84700 32.75200
C  16.78700 -2.35300 34.19900
H  18.10000 -1.59800 34.62300
N  18.17400 -4.37200 26.62900
C  18.77400 -5.10700 27.57400
C  19.47300 -6.20500 26.96400
C  19.38000 -6.04800 25.57000
C  18.62700 -4.81800 25.41500
C  20.45900 -7.16100 27.72100
C  19.90000 -6.85700 24.39100
O  19.83700 -6.47300 23.19700
C  20.33000 -8.27300 24.64000
N  16.89300 -2.17000 25.02600
C  17.57700 -2.91300 24.08600
C  17.43500 -2.12700 22.70900
C  16.30900 -1.02400 23.01900
C  16.03900 -1.27300 24.47100
C  18.63600 -1.57600 21.92300
C  15.00000 -1.07400 22.07700
C  14.85300 0.11800 21.11700
N  15.88800 -0.99000 27.41900
C  15.18200 -0.15100 26.54500
C  14.47900 0.81500 27.34300
C  14.81800 0.55800 28.67600
C  15.70500 -0.55700 28.70400
C  13.51800 1.85700 26.72500
C  14.59100 0.98200 30.04400
O  14.01700 2.00600 30.41800
C  15.43600 -0.02500 30.95800
C  16.53400 0.80800 31.62600
O  17.62800 1.05000 31.14600
O  16.04400 1.40600 32.77500
C  16.87200 2.53200 33.25500
H  19.38700 -5.51800 29.58600
H  18.79900 -4.34800 23.29400
H  14.76600 0.46100 24.66500
H  18.00500 -1.61000 32.08200
H  18.41000 -4.55700 31.75900
H  20.41400 -2.80100 30.38300
H  20.65100 -4.14300 31.54000
H  20.14900 -2.51100 32.11400
H  16.63800 -3.93400 32.69800
H  15.56100 -2.62600 32.43700
H  16.85900 -3.26100 34.79800
H  15.95100 -1.67600 34.37100
H  20.35300 -8.15600 27.28900
H  20.41900 -7.25400 28.80700
H  21.42800 -6.73900 27.45500
H  21.33300 -8.30000 25.06600
H  20.39300 -8.70900 23.64300
H  19.62400 -8.81000 25.27300
H  16.89900 -2.81200 22.05100
H  16.86700 -0.08800 22.97200
H  19.57800 -2.06800 22.16700
H  18.94300 -0.65200 22.41300
H  18.40700 -1.42900 20.86800
H  14.04200 -1.23600 22.57100
H  15.13500 -1.92300 21.40800
H  15.76300 0.71600 21.11800
H  14.04200 0.77000 21.44200
H  14.61100 -0.23500 20.11400
H  13.04200 1.42400 25.84500
H  14.12500 2.73500 26.50600
H  12.77800 1.99000 27.51400
H  14.83900 -0.57600 31.68600
H  17.89900 2.23900 33.47600
H  16.37800 2.86800 34.16600
H  16.87100 3.27800 32.46000

