158

Mg 47.60200 25.38500 28.98800
C  48.40200 27.46900 31.72800
C  46.15700 23.12600 31.38700
C  47.34900 23.08300 26.61500
C  49.36400 27.45100 26.93500
N  47.55800 25.21800 31.29600
C  47.71000 26.32200 32.15200
C  47.09700 26.11200 33.51600
C  46.55400 24.60800 33.50200
C  46.75800 24.25000 31.93700
C  47.41400 23.66500 34.43400
C  45.94300 27.13100 33.91700
C  45.92300 27.72700 35.38200
H  46.87900 27.20500 36.48400
N  46.84300 23.39200 28.96300
C  46.26000 22.71100 30.01000
C  45.67100 21.48400 29.51900
C  45.99600 21.41500 28.11900
C  46.70300 22.66900 27.78400
C  45.02400 20.47600 30.26900
C  45.74100 20.30000 27.14400
O  46.15700 20.34100 25.95400
C  44.82400 19.09700 27.45100
N  48.41400 25.21500 27.09900
C  48.11800 24.23400 26.25100
C  48.65700 24.46000 24.89300
C  49.08100 25.92000 24.95600
C  48.99400 26.23800 26.42700
C  49.71900 23.40900 24.39100
C  48.24300 26.83700 24.05900
C  48.97100 27.72100 22.98100
N  48.71500 27.11800 29.24600
C  49.30100 27.89700 28.30700
C  49.85800 29.17900 28.88400
C  49.59100 29.00800 30.28700
C  48.85800 27.78200 30.36600
C  50.59900 30.14100 28.07500
C  49.63100 29.61100 31.61100
O  50.05200 30.71100 31.89300
C  48.92600 28.58800 32.53700
C  49.85500 28.19400 33.62100
O  50.49400 27.15500 33.78100
O  49.94900 29.28000 34.45200
C  50.77100 29.18200 35.67900
H  45.57800 22.48300 32.05300
H  47.27500 22.31800 25.83900
H  49.77600 28.10600 26.16400
H  47.83700 26.14100 34.31500
H  45.50300 24.50100 33.76900
H  46.80600 23.38700 35.29600
H  48.38400 24.04100 34.75900
H  47.58000 22.75500 33.85800
H  44.95700 26.70400 33.73100
H  46.04600 27.98800 33.25100
H  44.91300 27.81400 35.78000
H  46.22400 28.75300 35.17000
H  44.73700 20.63400 31.30900
H  45.47400 19.48800 30.36800
H  44.06600 20.31400 29.77600
H  45.25600 18.52700 28.27400
H  44.65100 18.54000 26.53000
H  43.91000 19.50200 27.88400
H  47.84200 24.38800 24.17200
H  50.11100 26.11100 24.65500
H  49.42700 22.81400 23.52600
H  49.91800 22.70800 25.20300
H  50.65900 23.87700 24.09900
H  47.64000 27.50000 24.67900
H  47.54300 26.31400 23.40800
H  48.57200 27.45300 22.00300
H  50.03500 27.56400 23.16000
H  48.81400 28.75200 23.29600
H  50.84900 29.73600 27.09400
H  51.45700 30.42100 28.68600
H  50.11700 31.11900 28.08600
H  48.10100 29.12000 33.00900
H  51.76500 28.78200 35.48000
H  50.24500 28.57800 36.42000
H  50.95700 30.16900 36.10100
Mg 36.62000 49.21900 24.73400
C  36.56800 47.43800 27.84700
C  35.36200 51.89300 26.20900
C  36.20600 50.72900 21.66500
C  37.40300 46.25100 23.13200
N  35.93200 49.56500 26.80300
C  36.13000 48.78300 27.90200
C  35.84000 49.58000 29.19100
C  35.22200 50.93000 28.65300
C  35.45500 50.82300 27.13100
C  33.74800 51.45400 29.08800
C  37.15300 49.69500 30.01900
C  37.10200 49.49900 31.53600
H  35.78800 49.53800 32.35300
N  35.92200 51.05900 23.98700
C  35.55000 52.08800 24.83500
C  35.37600 53.30000 24.07400
C  35.62700 52.97500 22.68200
C  35.91200 51.53400 22.69600
C  35.18100 54.67100 24.75600
C  35.77300 53.93400 21.53100
O  35.95600 53.50700 20.40100
C  35.55900 55.47200 21.68000
N  36.85300 48.63500 22.71700
C  36.58600 49.40100 21.65900
C  36.88600 48.73100 20.31200
C  37.21500 47.28000 20.81300
C  37.14500 47.40100 22.35200
C  35.69100 48.72400 19.36200
C  38.47900 46.69900 20.22100
C  39.82000 47.20400 20.81000
N  37.07800 47.22700 25.36400
C  37.35100 46.19100 24.56600
C  37.71800 45.09000 25.44800
C  37.38500 45.48700 26.78600
C  36.99600 46.83700 26.63800
C  38.26300 43.82500 24.85400
C  37.31500 45.11900 28.16600
O  37.60400 44.02100 28.60800
C  36.82500 46.42000 28.94600
C  35.77600 46.02400 29.90500
O  34.57100 45.98200 29.69400
O  36.42400 45.60800 31.01300
C  35.60100 45.19600 32.18900
H  34.95300 52.71600 26.80000
H  36.30300 51.27300 20.72300
H  37.74900 45.42700 22.50400
H  35.05300 48.97000 29.63400
H  35.86500 51.71400 29.05100
H  33.12200 50.60300 29.35500
H  33.15800 51.97700 28.33500
H  33.83700 52.19200 29.88600
H  37.61900 50.67000 29.87900
H  37.89000 48.99600 29.62300
H  37.88100 50.09000 32.01600
H  37.34000 48.44200 31.65600
H  36.02100 55.35900 24.66800
H  35.18000 54.58200 25.84300
H  34.21000 55.12700 24.56300
H  34.56300 55.58900 22.10700
H  35.76800 55.99800 20.74800
H  36.34300 55.76000 22.38000
H  37.76400 49.29100 19.99100
H  36.43600 46.54000 20.62700
H  34.89300 49.16600 19.95900
H  35.34300 47.75200 19.01500
H  36.00900 49.34200 18.52200
H  38.50100 47.04700 19.18900
H  38.49700 45.61000 20.27100
H  40.41500 47.52600 19.95500
H  40.27000 46.37200 21.35200
H  39.70100 48.06800 21.46300
H  38.91100 44.15700 24.04300
H  37.41500 43.25700 24.47100
H  38.94600 43.34200 25.55300
H  37.65600 46.66700 29.60800
H  35.45600 46.11600 32.75600
H  36.21600 44.43300 32.66600
H  34.64400 44.76900 31.88900

