158

Mg 24.67100 1.84700 29.45600
C  26.95900 1.61900 32.16100
C  22.10600 1.88400 31.69700
C  22.65000 2.00200 26.85800
C  27.38800 1.31400 27.32800
N  24.58900 1.74200 31.68100
C  25.63700 1.89300 32.56800
C  25.12200 2.11500 34.00600
C  23.57200 1.94300 33.89200
C  23.39500 1.89000 32.35300
C  22.81200 0.78200 34.73500
C  25.59500 3.36400 34.80100
C  24.97400 3.63800 36.20100
H  25.90300 3.40600 37.35700
N  22.69200 1.96000 29.34100
C  21.75600 1.90800 30.35100
C  20.41600 1.82300 29.77600
C  20.58100 1.80300 28.35000
C  22.03200 1.98000 28.12400
C  19.18600 1.80500 30.60600
C  19.48100 1.54300 27.30800
O  19.74900 1.57100 26.07600
C  18.00200 1.17700 27.78300
N  25.01300 1.80400 27.43900
C  23.99700 1.98000 26.49900
C  24.49100 1.87300 24.99900
C  26.10200 1.88900 25.24600
C  26.20100 1.59900 26.73500
C  23.98800 0.73000 24.22500
C  26.91000 3.16800 24.75900
C  26.68300 4.43500 25.53400
N  26.80300 1.53900 29.65700
C  27.71400 1.24700 28.67300
C  29.04500 1.04900 29.29500
C  28.78900 1.20600 30.73100
C  27.36600 1.43100 30.82800
C  30.37300 0.66900 28.62900
C  29.39900 1.20500 32.04200
O  30.57600 0.98500 32.30300
C  28.25300 1.57500 33.02000
C  28.19000 0.60200 34.11000
O  27.50400 -0.38600 34.20900
O  29.01600 0.95300 35.10800
C  29.19400 -0.02800 36.20400
H  21.31100 1.87300 32.44700
H  21.94900 1.98700 26.02100
H  28.18900 1.02300 26.64600
H  25.44600 1.22300 34.54300
H  23.04300 2.82500 34.25400
H  21.93900 0.96800 35.36100
H  23.57700 0.23600 35.28600
H  22.43800 0.14500 33.93400
H  25.33000 4.20000 34.15400
H  26.67900 3.24800 34.79200
H  24.09300 3.02000 36.37300
H  24.61100 4.66500 36.14700
H  18.83200 2.82900 30.48800
H  19.37100 1.79200 31.68000
H  18.51200 0.98800 30.34500
H  17.51700 1.92200 28.41300
H  18.14900 0.18200 28.20400
H  17.53700 0.83900 26.85600
H  24.21900 2.75400 24.41700
H  26.62300 1.11500 24.68400
H  23.00300 0.38900 24.54400
H  24.62100 -0.15700 24.27100
H  23.83500 0.92100 23.16300
H  26.47100 3.42700 23.79500
H  27.90900 2.88900 24.42600
H  26.37800 4.40700 26.58000
H  25.98900 5.08300 24.99700
H  27.67000 4.89600 25.54500
H  30.55100 1.33300 27.78400
H  30.44000 -0.33200 28.20400
H  31.12900 0.90600 29.37800
H  28.53200 2.54800 33.42600
H  28.49800 0.15300 37.02400
H  30.14600 0.09900 36.71900
H  29.15800 -1.03200 35.78000
Mg 48.10500 25.37100 28.64500
C  49.25100 27.71300 31.09600
C  47.27500 23.22400 30.92200
C  47.70500 23.24500 26.11500
C  49.76100 27.50400 26.22200
N  48.42200 25.38800 30.81100
C  48.69700 26.47700 31.60300
C  48.24000 26.22500 33.03800
C  47.79900 24.77200 33.00100
C  47.84900 24.38900 31.53500
C  48.54800 23.78900 33.94800
C  47.09500 27.19000 33.51100
C  47.52400 28.23100 34.59900
H  46.68200 28.43700 35.79600
N  47.52600 23.50700 28.57700
C  47.19100 22.72900 29.60800
C  46.58800 21.51700 29.10700
C  46.68300 21.54200 27.68200
C  47.36900 22.78100 27.42300
C  45.93200 20.60000 30.05500
C  46.19200 20.49000 26.65900
O  46.36800 20.54800 25.42900
C  45.36300 19.26100 27.21200
N  48.70100 25.39600 26.45600
C  48.46000 24.34400 25.67200
C  48.95300 24.50900 24.22300
C  49.64400 25.81600 24.32600
C  49.30500 26.30700 25.72300
C  49.64000 23.25200 23.57900
C  49.37700 26.80000 23.14400
C  48.22900 27.84900 23.38200
N  49.17200 27.25900 28.61400
C  49.73500 27.95900 27.54000
C  50.39900 29.14300 28.05800
C  50.16600 29.06800 29.44800
C  49.54500 27.89400 29.70800
C  50.93700 30.25100 27.22000
C  50.37900 29.83400 30.69000
O  50.85600 30.91500 30.93700
C  49.78100 28.93200 31.85500
C  50.84200 28.71500 32.80100
O  51.79000 27.97600 32.72800
O  50.65800 29.54100 33.81000
C  51.72100 29.55600 34.76600
H  46.88200 22.58900 31.71900
H  47.51400 22.48700 25.35300
H  50.26800 28.10800 25.46600
H  49.11700 26.34200 33.67600
H  46.74400 24.53400 33.13900
H  47.89900 23.36900 34.71700
H  49.38000 24.26800 34.46400
H  48.94100 22.89900 33.45600
H  46.25000 26.60100 33.86600
H  46.69800 27.78600 32.68800
H  47.40300 29.16900 34.05700
H  48.57300 28.14400 34.88500
H  46.49200 19.66600 30.00700
H  44.97700 20.32400 29.60800
H  45.86300 20.79600 31.12500
H  45.93000 18.87000 28.05700
H  45.29200 18.42800 26.51300
H  44.38500 19.69600 27.41700
H  48.03100 24.73600 23.68900
H  50.73100 25.75000 24.28500
H  49.00600 22.36600 23.54300
H  50.47100 23.13800 24.27400
H  49.93500 23.54800 22.57200
H  49.13100 26.24800 22.23700
H  50.32600 27.31700 23.00000
H  47.53200 27.67100 22.56300
H  48.54200 28.88900 23.28600
H  47.70000 27.72400 24.32700
H  50.48100 30.14200 26.23600
H  52.02200 30.16700 27.15100
H  50.61500 31.17000 27.70900
H  49.03800 29.53400 32.37900
H  52.71200 29.70600 34.33700
H  51.66100 28.70300 35.44200
H  51.47500 30.37900 35.43700

