158

Mg 1.09400 8.26800 27.52500
C  1.51100 10.29900 30.18700
C  1.01700 5.52900 29.73300
C  0.68900 6.25400 24.98300
C  1.67700 10.88600 25.32600
N  1.44600 8.02200 29.75800
C  1.21700 9.01200 30.57000
C  0.96700 8.51300 32.03000
C  1.11500 6.98400 31.74700
C  1.26800 6.81500 30.28800
C  2.33900 6.27100 32.58700
C  -0.39300 9.03000 32.77600
C  -0.38800 9.12000 34.28500
H  0.75300 8.37600 35.08300
N  0.85900 6.15000 27.41900
C  0.68400 5.22500 28.40200
C  0.34900 3.97200 27.91500
C  0.29100 4.12300 26.46600
C  0.61200 5.54100 26.18300
C  0.23200 2.83300 28.78300
C  0.21100 3.02900 25.39800
O  0.36500 3.28400 24.20800
C  0.17900 1.53800 25.72400
N  1.19900 8.45900 25.43100
C  1.03100 7.48500 24.56400
C  1.00700 7.91000 23.06800
C  0.91900 9.48800 23.20900
C  1.26800 9.62500 24.78400
C  2.37700 7.43000 22.41400
C  -0.44900 10.14400 22.87100
C  -0.41900 11.53900 22.21900
N  1.46400 10.17800 27.70700
C  1.80000 11.14500 26.78000
C  2.02900 12.41800 27.37300
C  1.88200 12.15600 28.72400
C  1.59300 10.75400 28.85900
C  2.16800 13.79000 26.65600
C  1.85500 12.74000 30.04500
O  2.02000 13.92900 30.36000
C  1.57500 11.55800 30.99300
C  2.55200 11.40400 32.17000
O  3.77600 11.43300 32.07700
O  1.84700 11.51900 33.32700
C  2.70800 11.92000 34.50200
H  1.10100 4.71400 30.45500
H  0.44700 5.61800 24.12900
H  1.73500 11.65000 24.54800
H  1.81900 8.80000 32.64700
H  0.21300 6.49300 32.11100
H  2.02200 6.19600 33.62700
H  3.23700 6.88800 32.54600
H  2.60000 5.32300 32.11700
H  -1.21500 8.41000 32.41900
H  -0.61500 9.99900 32.32800
H  -1.35900 8.82300 34.68200
H  -0.24200 10.16100 34.57100
H  1.17100 2.36200 29.07600
H  -0.39500 2.03400 28.38700
H  -0.41900 3.13700 29.60200
H  1.01300 1.29200 26.38100
H  0.14600 0.88400 24.85300
H  -0.71500 1.27200 26.28700
H  0.16200 7.49300 22.52000
H  1.64800 10.06200 22.63700
H  2.62800 8.26100 21.75400
H  2.22600 6.50400 21.85900
H  3.09100 7.06500 23.15200
H  -1.18800 10.16700 23.67100
H  -0.77800 9.45100 22.09600
H  0.53000 12.07500 22.23700
H  -1.07500 12.30600 22.63000
H  -0.75200 11.40400 21.19000
H  2.49700 13.58300 25.63800
H  2.97800 14.31300 27.16400
H  1.32500 14.48100 26.67600
H  0.53200 11.70400 31.27500
H  3.30500 12.80900 34.29500
H  3.39600 11.11600 34.76300
H  2.01100 12.04100 35.33100
Mg 8.72600 3.89400 27.55200
C  9.84100 2.31100 30.48300
C  6.66900 5.92600 29.49800
C  7.57600 5.30800 24.70800
C  10.55400 1.57200 25.68700
N  8.44900 4.13700 29.75300
C  8.98000 3.36300 30.80400
C  8.40600 3.84600 32.18800
C  7.35900 4.93600 31.74900
C  7.44500 4.96900 30.19400
C  5.89300 4.75000 32.25700
C  9.47900 4.41200 33.12200
C  9.49100 3.70500 34.55200
H  10.85300 3.90200 35.40000
N  7.35400 5.49100 27.20400
C  6.53700 6.15700 28.08300
C  5.71400 7.17100 27.46600
C  6.02100 7.01800 26.05500
C  7.06900 5.91400 25.90200
C  4.80600 8.08100 28.21200
C  5.51400 7.92100 24.87800
O  5.87000 7.75300 23.68000
C  4.53600 8.93100 25.16700
N  8.85800 3.42700 25.50000
C  8.46500 4.31000 24.53300
C  8.99100 3.82200 23.12700
C  9.81400 2.53300 23.49800
C  9.78300 2.55000 25.01700
C  7.94400 3.51400 22.01300
C  11.19600 2.33800 22.83900
C  11.32900 0.89500 22.08000
N  9.84100 2.18700 27.89300
C  10.52400 1.34400 27.08700
C  11.22300 0.32700 27.83300
C  11.04400 0.69900 29.11900
C  10.17200 1.84600 29.15300
C  12.10500 -0.76600 27.33700
C  11.46500 0.41900 30.46600
O  12.30400 -0.44300 30.90100
C  10.67900 1.43100 31.38800
C  9.77600 0.71900 32.32200
O  8.65500 0.32400 31.99000
O  10.32700 0.53400 33.60500
C  9.41800 -0.20200 34.45100
H  5.96900 6.52000 30.09000
H  7.18600 5.81000 23.82000
H  11.07500 0.75500 25.18200
H  7.84800 3.02100 32.63100
H  7.62000 5.97700 31.93900
H  5.35900 4.12100 31.54300
H  5.51000 5.76400 32.37000
H  5.96800 4.24900 33.22200
H  9.21100 5.45200 33.30700
H  10.43600 4.34700 32.60500
H  9.15300 2.67200 34.47100
H  8.73400 4.18500 35.17300
H  5.07300 9.13300 28.10900
H  4.77800 7.90400 29.28700
H  3.79600 7.90900 27.83900
H  4.14700 9.20700 24.18700
H  4.99300 9.79900 25.64200
H  3.71700 8.42800 25.68300
H  9.64900 4.53800 22.63500
H  9.30400 1.62500 23.17700
H  6.90400 3.71700 22.26900
H  7.96400 2.48100 21.66500
H  8.29300 4.17200 21.21800
H  12.05700 2.47300 23.49300
H  11.38800 3.15100 22.13800
H  11.71900 0.99700 21.06700
H  10.45700 0.24700 22.16300
H  12.17600 0.39700 22.55200
H  13.15900 -0.49000 27.32100
H  11.93600 -1.06000 26.30100
H  11.95600 -1.66100 27.94000
H  11.50200 1.87000 31.95100
H  8.37800 0.10400 34.33800
H  9.58000 -0.12500 35.52600
H  9.35000 -1.18300 33.98100

