158

Mg 25.79600 -8.03000 47.56100
C  27.66600 -5.51600 46.41200
C  23.36100 -7.19700 45.18100
C  24.02300 -10.84100 48.40000
C  28.27500 -8.92400 49.94800
N  25.65000 -6.57100 45.86600
C  26.53000 -5.59800 45.67800
C  26.11800 -4.65500 44.50500
C  24.62600 -5.16800 44.11900
C  24.46100 -6.33700 45.17300
C  23.53300 -4.08100 44.19700
C  27.14000 -4.73500 43.37800
C  27.62000 -3.35100 42.81100
H  27.21600 -3.02200 41.38400
N  23.86400 -8.86900 46.93700
C  23.03100 -8.29300 46.01300
C  21.75500 -9.04100 46.05100
C  21.98800 -10.13700 46.96100
C  23.31600 -10.02000 47.50700
C  20.58500 -8.62900 45.11300
C  20.89100 -11.16400 47.18300
O  19.76900 -10.94300 46.80000
C  21.10400 -12.40200 48.03700
N  26.16900 -9.63500 48.87300
C  25.24000 -10.62700 49.09700
C  25.53900 -11.45900 50.29700
C  27.00500 -11.08000 50.63000
C  27.18200 -9.83600 49.74500
C  24.49400 -11.14900 51.47500
C  28.03400 -12.13400 50.15200
C  28.28900 -13.23500 51.17500
N  27.72600 -7.48900 48.05800
C  28.50900 -7.77600 49.13400
C  29.65200 -6.78800 49.11900
C  29.29500 -5.85800 48.08500
C  28.18300 -6.35900 47.47400
C  30.75000 -6.72100 50.11100
C  29.81300 -4.70700 47.42300
O  30.80700 -4.05500 47.57400
C  28.74100 -4.34700 46.35600
C  28.12300 -3.03000 46.64500
O  27.35300 -2.81800 47.59900
O  28.34100 -2.22000 45.58000
C  27.68000 -0.93800 45.72400
H  22.58800 -6.87000 44.48200
H  23.51900 -11.71500 48.81700
H  28.91100 -9.15000 50.80600
H  26.17500 -3.59300 44.74700
H  24.52300 -5.72000 43.18500
H  22.95300 -4.16700 43.27900
H  24.05900 -3.12800 44.13500
H  22.87200 -4.20600 45.05500
H  26.60700 -5.33100 42.63700
H  28.02000 -5.26200 43.74700
H  28.68300 -3.24500 43.03000
H  27.12900 -2.52700 43.32800
H  20.05800 -9.53000 44.80000
H  20.89800 -8.03000 44.25800
H  19.85400 -8.02500 45.65100
H  21.89800 -13.10900 47.79800
H  20.15200 -12.88600 47.81900
H  21.06100 -12.23100 49.11300
H  25.50900 -12.46200 49.87100
H  27.07300 -10.81900 51.68600
H  23.96600 -12.08600 51.65300
H  23.74600 -10.43400 51.13200
H  25.00800 -10.86700 52.39400
H  28.97300 -11.60800 49.98400
H  27.77000 -12.59500 49.19900
H  29.28700 -13.12200 51.59700
H  28.32500 -14.24100 50.75700
H  27.64200 -13.14200 52.04700
H  30.39000 -7.06500 51.08100
H  31.12400 -5.69900 50.04500
H  31.56800 -7.37100 49.80200
H  29.32100 -4.30700 45.43400
H  26.61400 -1.16100 45.67800
H  28.04900 -0.20200 45.01000
H  28.01300 -0.51800 46.67300
Mg 7.00500 53.13500 41.10200
C  6.44700 49.67300 40.43900
C  10.22700 52.63400 40.28200
C  7.28200 56.48000 40.77200
C  3.54100 53.45600 41.62400
N  8.11400 51.30500 40.38900
C  7.73100 50.05600 40.11600
C  8.96100 49.25100 39.86000
C  10.16100 50.14900 40.41300
C  9.47500 51.44600 40.39500
C  10.86300 49.70600 41.78000
C  9.07800 48.71100 38.42500
C  8.86700 49.69800 37.26100
H  7.59700 49.61600 36.47500
N  8.63900 54.48300 40.58900
C  9.88900 54.05600 40.30700
C  10.78700 55.18600 40.05100
C  9.92400 56.37900 40.30000
C  8.58900 55.85000 40.62200
C  12.20300 55.13500 39.57400
C  10.35700 57.87900 40.22200
O  11.48600 58.06400 39.80400
C  9.41800 59.03000 40.51400
N  5.56600 54.72100 41.03000
C  5.99400 55.99500 41.07400
C  4.84900 57.02900 41.30900
C  3.64200 56.06000 41.36300
C  4.27300 54.66700 41.35000
C  5.01700 57.96700 42.48100
C  2.69700 56.25900 40.16500
C  1.39000 56.95900 40.55000
N  5.32100 51.90700 41.21000
C  4.00400 52.15200 41.50400
C  3.23200 50.92100 41.49300
C  4.20100 49.88800 41.19100
C  5.41600 50.58600 40.92700
C  1.87500 50.77800 41.87800
C  4.42200 48.49400 41.01600
O  3.65900 47.62100 41.25800
C  5.82700 48.33900 40.52700
C  5.79000 47.73900 39.27100
O  5.10500 48.07600 38.25800
O  6.53400 46.65900 39.34600
C  6.55900 45.86000 38.11600
H  11.28300 52.48800 40.04700
H  7.42000 57.56200 40.83100
H  2.48700 53.48100 41.91100
H  8.88300 48.38900 40.52200
H  10.95500 50.14400 39.66600
H  10.64400 48.70000 42.13800
H  10.57800 50.46100 42.51400
H  11.94100 49.70800 41.61800
H  8.36000 47.91400 38.23300
H  10.12400 48.40400 38.38900
H  9.71800 49.61800 36.58400
H  8.95300 50.73600 37.58200
H  12.47000 55.62900 38.63900
H  12.56600 54.10700 39.54900
H  12.76600 55.59000 40.38800
H  9.11400 58.89800 41.55200
H  8.65900 58.89300 39.74400
H  9.94300 59.96000 40.29700
H  4.83600 57.69500 40.44600
H  3.02000 56.19800 42.24800
H  4.06300 58.14100 42.97800
H  5.34100 58.92300 42.06900
H  5.80000 57.60900 43.14900
H  2.33700 55.32000 39.74500
H  3.17700 56.73700 39.31100
H  1.48200 57.37700 41.55200
H  0.49300 56.33900 40.57500
H  1.29800 57.76700 39.82500
H  1.38500 51.74100 42.02100
H  1.89100 50.33000 42.87200
H  1.28700 50.20400 41.16200
H  6.38900 47.73500 41.24000
H  7.30900 45.07300 38.18900
H  6.74500 46.50900 37.26100
H  5.55300 45.55200 37.83000

