158

Mg -0.03300 7.88500 26.19200
C  0.75800 10.19000 28.93700
C  0.12400 5.41600 28.53100
C  -0.02200 5.79800 23.71200
C  0.27800 10.58000 24.02800
N  0.21700 7.88800 28.47300
C  0.46500 8.94700 29.40300
C  0.26200 8.42200 30.82300
C  0.44100 6.91700 30.63800
C  0.10800 6.69800 29.13800
C  1.82000 6.35200 31.07400
C  -1.14900 8.81600 31.42600
C  -1.24900 8.52100 32.92400
H  0.03900 8.30700 33.76400
N  -0.01500 5.88100 26.12800
C  -0.01400 5.00300 27.21600
C  -0.22000 3.68600 26.78400
C  -0.26800 3.80100 25.30200
C  -0.11300 5.19200 25.01900
C  -0.40200 2.56000 27.73500
C  -0.48400 2.74400 24.26400
O  -0.66900 2.93200 23.09500
C  -0.49300 1.24700 24.68300
N  -0.00300 8.13700 24.24200
C  -0.12900 7.15600 23.36200
C  -0.22100 7.57600 21.86100
C  -0.58500 9.10100 22.06800
C  -0.08800 9.28900 23.56400
C  1.08700 7.39300 21.02400
C  -2.10700 9.65100 21.97600
C  -2.27700 11.03200 21.27200
N  0.28400 10.01900 26.38500
C  0.43700 10.95100 25.37500
C  0.85600 12.23800 25.98600
C  1.00200 11.98200 27.35800
C  0.59800 10.65100 27.59700
C  1.33300 13.51500 25.29600
C  1.51700 12.50400 28.64000
O  2.04500 13.62800 28.85800
C  1.18500 11.42100 29.66000
C  2.41000 11.00700 30.43500
O  3.24400 10.22700 30.11800
O  2.31100 11.55400 31.66700
C  3.37500 11.37500 32.68200
H  0.29100 4.61400 29.25300
H  0.09200 5.02800 22.94500
H  0.57900 11.31500 23.27900
H  0.99100 8.90500 31.47400
H  -0.37500 6.45600 31.19400
H  2.37400 7.16000 31.55000
H  2.45800 5.92800 30.29900
H  1.51700 5.56200 31.76100
H  -1.89500 8.15100 30.99000
H  -1.36600 9.87500 31.28700
H  -1.90500 7.65100 32.93000
H  -1.75700 9.36800 33.38500
H  0.58700 2.27500 28.09300
H  -1.03700 1.78700 27.30000
H  -1.04000 2.75300 28.59700
H  -0.39900 0.64900 23.77700
H  -1.38400 0.94200 25.23100
H  0.36200 1.22600 25.35800
H  -1.06000 7.07600 21.37900
H  0.06300 9.76100 21.49100
H  1.27000 8.33100 20.49800
H  0.89200 6.66100 20.24000
H  1.91000 7.00900 21.62600
H  -2.47300 9.80000 22.99200
H  -2.69500 8.97600 21.35300
H  -2.97700 10.72700 20.49400
H  -1.39900 11.34800 20.70800
H  -2.58200 11.83600 21.94200
H  0.70800 14.37900 25.52100
H  1.42600 13.33900 24.22400
H  2.29700 13.77200 25.73500
H  0.38400 11.77100 30.31100
H  3.47300 10.30100 32.84400
H  3.06700 11.95600 33.55100
H  4.28800 11.87400 32.35800
Mg -1.88600 34.34900 27.46500
C  -3.95300 32.70300 29.71100
C  -0.72100 36.32100 29.97700
C  -0.64400 36.62500 25.13600
C  -3.79900 32.89500 24.84100
N  -2.35100 34.49600 29.60900
C  -3.18600 33.66700 30.31800
C  -3.03900 33.91800 31.85900
C  -2.03300 35.14600 31.98100
C  -1.72600 35.40600 30.39000
C  -2.62500 36.36400 32.71800
C  -2.47500 32.61100 32.53500
C  -3.17900 32.14100 33.86000
H  -2.34700 32.05400 35.12400
N  -0.67300 36.08000 27.52500
C  -0.24200 36.64200 28.68300
C  0.76600 37.56500 28.41800
C  0.85000 37.75000 26.97100
C  -0.19300 36.79400 26.47900
C  1.66500 38.14300 29.49300
C  1.82900 38.51400 26.11900
O  1.79300 38.51800 24.90200
C  2.88900 39.30900 26.75200
N  -2.35200 34.77500 25.34600
C  -1.58000 35.68800 24.65600
C  -1.90400 35.63100 23.11500
C  -2.55900 34.18600 22.99600
C  -2.90700 33.90300 24.46100
C  -2.89900 36.78600 22.75000
C  -1.69600 32.98800 22.50000
C  -0.37100 32.74300 23.22600
N  -3.39000 32.94600 27.29200
C  -4.06300 32.47700 26.15400
C  -5.06800 31.49000 26.56400
C  -4.99400 31.50100 27.95700
C  -4.04200 32.45800 28.32600
C  -5.83500 30.57500 25.68900
C  -5.53100 30.92200 29.15800
O  -6.37400 30.09300 29.36700
C  -4.85200 31.65500 30.34500
C  -5.83800 32.36500 31.20700
O  -6.37600 33.41800 30.85800
O  -5.91600 31.78200 32.49700
C  -7.11400 32.25600 33.20000
H  -0.36700 36.95600 30.79200
H  -0.14900 37.32900 24.46400
H  -4.35800 32.38100 24.05700
H  -4.04000 34.14300 32.22600
H  -1.06300 34.80400 32.34100
H  -1.88500 37.16000 32.80300
H  -2.68900 36.20800 33.79500
H  -3.51000 36.79000 32.24500
H  -1.40500 32.67500 32.73100
H  -2.62700 31.79600 31.82800
H  -3.64500 31.15900 33.77700
H  -3.87300 32.94100 34.11800
H  1.73600 37.42600 30.31200
H  1.08700 38.92600 29.98400
H  2.67300 38.49800 29.27700
H  2.44200 39.90200 27.54900
H  3.49600 39.92100 26.08400
H  3.57300 38.64300 27.27800
H  -1.00500 35.74200 22.51000
H  -3.52100 34.24800 22.48800
H  -3.09500 37.33300 23.67200
H  -3.91000 36.57200 22.40000
H  -2.49200 37.31200 21.88600
H  -1.57800 33.08000 21.42100
H  -2.13500 31.99100 22.52500
H  -0.00600 31.71900 23.14700
H  -0.27900 33.09300 24.25500
H  0.39100 33.35700 22.74800
H  -6.87700 30.89600 25.71200
H  -5.71400 29.57300 26.09900
H  -5.51900 30.54700 24.64700
H  -4.29600 30.88200 30.87700
H  -7.07500 33.30200 33.50400
H  -6.97300 31.68400 34.11700
H  -8.03400 32.16200 32.62200

