158

Mg 40.81300 10.30200 30.42700
C  42.71300 11.65600 33.21800
C  38.60300 9.09500 32.71500
C  39.10100 9.01500 27.93900
C  43.37800 11.16700 28.37700
N  40.74800 10.32300 32.76100
C  41.53100 11.06400 33.67700
C  40.87800 10.97600 35.03800
C  39.58700 10.07700 34.89100
C  39.67500 9.74600 33.35600
C  39.46300 8.73500 35.64800
C  40.63500 12.34200 35.67200
C  39.66800 12.45000 36.91000
H  39.85800 13.44500 37.98800
N  39.14300 9.27500 30.32900
C  38.34300 8.84700 31.37100
C  37.16400 8.17800 30.87000
C  37.18600 8.21500 29.43600
C  38.52400 8.83500 29.17900
C  36.14200 7.56700 31.81300
C  36.16200 7.70600 28.36400
O  36.30100 7.90000 27.16500
C  34.85500 7.03800 28.80500
N  41.25500 9.97200 28.45900
C  40.33000 9.55000 27.52700
C  40.81200 9.55800 26.09900
C  42.27500 10.28100 26.31300
C  42.34000 10.42700 27.86900
C  40.79200 8.20300 25.32400
C  42.32700 11.56400 25.54100
C  41.58000 12.82800 25.95800
N  42.62600 11.23400 30.66200
C  43.62300 11.46800 29.72900
C  44.69200 12.19900 30.30800
C  44.36000 12.29900 31.64200
C  43.11800 11.63300 31.81600
C  45.98000 12.64700 29.67400
C  44.84300 12.78500 32.85600
O  45.92100 13.29100 33.08400
C  43.76600 12.49600 33.99700
C  44.39900 11.71400 35.02000
O  44.77600 10.59200 34.79100
O  44.49100 12.41100 36.22800
C  44.92000 11.55000 37.35700
H  37.77700 8.78000 33.35700
H  38.59500 8.59000 27.06900
H  44.10000 11.47900 27.61900
H  41.54800 10.48900 35.74700
H  38.64500 10.61600 34.99500
H  39.15100 7.91000 35.00900
H  38.57600 8.79000 36.27900
H  40.29100 8.38800 36.26600
H  40.35200 13.03500 34.87900
H  41.53900 12.78100 36.09400
H  39.49100 11.47000 37.35200
H  38.77000 12.66200 36.33000
H  35.84900 8.20900 32.64400
H  36.62300 6.80000 32.42000
H  35.28700 7.16300 31.27100
H  34.26900 7.76000 29.37400
H  35.08900 6.16200 29.40900
H  34.26100 6.80800 27.92000
H  40.22100 10.27000 25.52200
H  43.10700 9.66500 25.97200
H  41.69200 8.00100 24.74300
H  39.86400 8.22200 24.75300
H  40.70800 7.37000 26.02100
H  41.90100 11.36400 24.55700
H  43.40500 11.62200 25.39200
H  41.09400 12.78300 26.93300
H  40.76500 12.99800 25.25600
H  42.17700 13.73400 25.85300
H  46.04200 12.11300 28.72600
H  46.72300 12.33500 30.40700
H  45.85600 13.72000 29.52200
H  43.35600 13.44300 34.34800
H  44.43400 11.85700 38.28300
H  45.99600 11.40000 37.45500
H  44.59700 10.51900 37.21000
Mg 1.69900 42.61800 25.36100
C  3.58700 42.07600 28.20600
C  -1.08200 41.48600 26.95000
C  0.20900 42.43700 22.33200
C  4.75100 43.35300 23.59400
N  1.35000 41.87900 27.37400
C  2.20700 41.91200 28.44100
C  1.50100 41.76900 29.81700
C  0.03500 41.47200 29.30300
C  0.10300 41.58500 27.75600
C  -0.62900 40.16100 29.80000
C  1.70300 43.03300 30.69800
C  2.25900 42.81500 32.12100
H  1.85100 41.57100 32.94600
N  -0.21700 42.17900 24.72500
C  -1.26100 41.70200 25.52700
C  -2.44500 41.61800 24.67800
C  -2.03500 41.82000 23.34400
C  -0.62200 42.20200 23.42800
C  -3.82100 41.25000 25.18800
C  -2.79600 41.83600 22.06200
O  -2.41100 42.32200 21.01600
C  -4.08100 41.13100 22.03800
N  2.43400 42.76700 23.22500
C  1.56200 42.78200 22.25000
C  2.17700 43.24100 20.88300
C  3.53500 43.77500 21.42700
C  3.60800 43.27100 22.84200
C  2.20800 42.11000 19.86400
C  3.48700 45.34300 21.37800
C  3.53500 46.04600 20.03100
N  3.74900 42.65800 25.73900
C  4.81700 43.05800 24.97100
C  6.05800 43.07000 25.75900
C  5.60900 42.67600 27.02300
C  4.21300 42.40100 26.96900
C  7.52000 43.33700 25.35400
C  6.06900 42.32500 28.36700
O  7.17500 42.36300 28.84500
C  4.79800 41.98300 29.15400
C  4.93500 40.72600 29.88400
O  4.52100 39.61600 29.54500
O  5.65400 40.89100 31.08500
C  5.68500 39.75700 31.98100
H  -1.97300 41.11400 27.45900
H  -0.14200 42.53000 21.30200
H  5.68500 43.68200 23.13500
H  1.99700 40.93200 30.30900
H  -0.56700 42.34100 29.57000
H  -1.63800 40.45200 30.09400
H  -0.02400 39.83100 30.64400
H  -0.80800 39.47000 28.97600
H  0.80000 43.63700 30.78300
H  2.50600 43.61800 30.25100
H  2.14600 43.72200 32.71500
H  3.33900 42.82000 31.97400
H  -4.58100 41.86000 24.69900
H  -4.00800 41.48800 26.23500
H  -4.01600 40.20500 24.95100
H  -4.78500 41.65600 22.68400
H  -3.90700 40.11700 22.39600
H  -4.54200 41.00400 21.05900
H  1.72700 44.04900 20.30600
H  4.42500 43.37800 20.93800
H  3.20500 41.67100 19.88800
H  1.98100 42.48000 18.86400
H  1.46000 41.36600 20.13800
H  4.28200 45.73200 22.01500
H  2.58200 45.61000 21.92500
H  3.62200 45.31700 19.22500
H  4.34800 46.76900 20.10300
H  2.63500 46.65400 19.93700
H  7.77900 44.30000 25.79400
H  7.70300 43.30400 24.28000
H  8.11400 42.49700 25.71400
H  4.77400 42.74100 29.93700
H  5.30600 40.39100 32.78300
H  6.67000 39.40000 32.28000
H  4.99600 38.97400 31.66300

