158

Mg 17.39200 -1.52600 27.02600
C  16.25700 0.61600 29.52500
C  19.23600 -3.14300 29.24200
C  18.70600 -3.34200 24.42300
C  15.72800 0.51800 24.61300
N  17.95000 -1.05500 29.16100
C  17.18100 -0.31600 30.00300
C  17.45900 -0.59800 31.51100
C  18.66800 -1.66700 31.34300
C  18.62700 -2.03100 29.82900
C  19.99800 -0.96900 31.76400
C  16.25100 -1.13400 32.36600
C  16.26100 -0.78500 33.87900
H  17.50600 -0.12100 34.41900
N  18.64900 -3.16300 26.85300
C  19.22700 -3.72300 27.90200
C  19.88600 -4.91600 27.51900
C  19.85500 -4.98700 26.07200
C  19.05200 -3.80200 25.71800
C  20.59700 -5.87900 28.52300
C  20.48700 -5.97100 25.07100
O  20.19100 -5.84100 23.88900
C  21.50100 -6.95600 25.55300
N  17.05600 -1.52200 24.81500
C  17.87200 -2.23000 23.97800
C  17.87700 -1.66200 22.54200
C  16.74100 -0.57200 22.64900
C  16.47000 -0.54800 24.10800
C  19.20200 -1.16000 21.95700
C  15.60200 -0.74100 21.64000
C  14.18100 -0.98600 22.06700
N  16.18800 0.15100 27.00600
C  15.54700 0.78500 25.95800
C  14.63600 1.75100 26.56000
C  14.92600 1.78900 27.92500
C  15.92300 0.85700 28.16000
C  13.62400 2.63500 25.86600
C  14.54400 2.35700 29.23400
O  13.64000 3.15700 29.57000
C  15.41800 1.64300 30.35200
C  16.19500 2.75800 31.03900
O  17.36900 3.01300 30.72500
O  15.42100 3.28500 32.04000
C  16.30300 3.87900 33.11400
H  19.82100 -3.77300 29.91500
H  19.22400 -3.74900 23.55200
H  15.24900 1.19900 23.90700
H  17.69400 0.38900 31.91100
H  18.62900 -2.50400 32.03900
H  20.65300 -1.71400 32.21500
H  19.82800 -0.15100 32.46400
H  20.53600 -0.49200 30.94400
H  16.25200 -2.20600 32.56200
H  15.30800 -0.94000 31.85600
H  16.07900 -1.69800 34.44500
H  15.49800 -0.06100 34.16400
H  20.05100 -6.03700 29.45300
H  21.58400 -5.47800 28.75300
H  20.63900 -6.87400 28.08000
H  21.05100 -7.76200 26.13200
H  22.29000 -6.43500 26.09700
H  21.90400 -7.39300 24.64000
H  17.72200 -2.55200 21.93100
H  17.24200 0.39400 22.58800
H  19.15400 -0.09800 21.71700
H  19.35200 -1.74100 21.04700
H  19.93900 -1.35200 22.73700
H  15.89000 -1.50300 20.91600
H  15.52400 0.21800 21.12900
H  13.76300 -1.71200 21.37100
H  13.55500 -0.09500 22.00800
H  14.10400 -1.31700 23.10300
H  12.64700 2.57600 26.34500
H  13.55100 2.36800 24.81100
H  14.01800 3.65100 25.87800
H  14.83200 1.20900 31.16200
H  16.77300 4.73700 32.63300
H  17.07400 3.19900 33.47300
H  15.77000 4.25900 33.98600
Mg 47.29100 24.59700 28.82600
C  48.24100 26.88600 31.22600
C  46.37300 22.50700 31.47000
C  47.05400 22.07100 26.67000
C  48.76400 26.57700 26.46700
N  47.26900 24.71500 31.09600
C  47.76700 25.74800 31.80500
C  47.45400 25.69900 33.25300
C  47.16900 24.15400 33.34300
C  46.83900 23.77400 31.91700
C  48.24300 23.33200 34.10100
C  46.25500 26.63300 33.62500
C  46.33700 27.38800 34.92000
H  46.96100 26.71800 36.27500
N  46.71100 22.66100 29.02700
C  46.28200 22.01200 30.17000
C  45.88700 20.68000 29.87100
C  45.95900 20.57900 28.44000
C  46.59200 21.76300 27.97700
C  45.39900 19.66600 30.84700
C  45.55000 19.38300 27.58000
O  45.62700 19.43200 26.38700
C  45.09200 18.15900 28.13300
N  47.69800 24.37800 26.79000
C  47.56600 23.24300 26.08400
C  47.90800 23.34800 24.61100
C  48.23000 24.88000 24.51900
C  48.32200 25.30000 26.02700
C  49.12400 22.49800 24.28500
C  47.22300 25.56400 23.56900
C  45.78500 25.81800 23.99300
N  48.26400 26.28700 28.75600
C  48.68100 27.12500 27.71300
C  49.21100 28.38400 28.17300
C  49.12400 28.32800 29.58300
C  48.52700 27.03200 29.89700
C  49.95300 29.31400 27.42100
C  49.44700 28.95300 30.83400
O  50.14900 29.88500 30.99600
C  48.78300 28.12000 31.97500
C  49.70400 28.00000 33.09500
O  50.62600 27.17300 33.21400
O  49.32600 28.94000 34.01100
C  49.97900 28.97300 35.32400
H  46.21300 21.82800 32.31100
H  46.83500 21.34200 25.88700
H  49.25100 27.19200 25.70700
H  48.33600 25.98200 33.82800
H  46.29000 24.03900 33.97800
H  48.98600 23.98600 34.55700
H  48.81300 22.82200 33.32400
H  47.82400 22.58500 34.77500
H  45.39700 25.99300 33.83100
H  46.04600 27.25800 32.75700
H  45.27500 27.52700 35.12200
H  46.89000 28.31200 34.75300
H  45.60700 19.96900 31.87300
H  45.90000 18.69900 30.79400
H  44.31000 19.62100 30.83700
H  45.87500 17.82000 28.81100
H  44.98800 17.37900 27.37900
H  44.13100 18.23200 28.64100
H  47.05000 23.09800 23.98700
H  49.24900 24.92600 24.13400
H  48.97300 21.58700 24.86500
H  50.11200 22.87900 24.54300
H  49.06800 22.49100 23.19700
H  47.21000 24.98800 22.64400
H  47.67100 26.48200 23.18900
H  45.76900 26.89900 23.85300
H  45.58700 25.51400 25.02000
H  44.95600 25.47300 23.37500
H  50.69800 28.76500 26.84500
H  50.47200 29.99100 28.09900
H  49.30300 29.89800 26.77000
H  47.86900 28.61700 32.30200
H  49.36700 28.48600 36.08400
H  50.18500 29.96400 35.72800
H  50.93000 28.44500 35.26300

