158

Mg 36.62200 50.39300 25.78700
C  36.07300 48.15900 28.44700
C  35.92500 53.03700 27.86000
C  36.53000 52.39600 23.01500
C  37.08600 47.66600 23.64800
N  35.90300 50.56300 27.92500
C  35.93800 49.56500 28.83400
C  35.76200 50.10900 30.25000
C  35.42900 51.58200 29.97800
C  35.77300 51.77800 28.51400
C  33.92800 52.00000 30.29300
C  37.15800 49.94600 31.11700
C  36.98800 50.16000 32.59000
H  35.58500 50.27300 33.15900
N  36.38200 52.46000 25.49400
C  36.16900 53.40800 26.51400
C  36.31700 54.72300 25.94700
C  36.36200 54.62700 24.49100
C  36.46800 53.15500 24.25700
C  36.32200 55.96100 26.88300
C  36.39800 55.75900 23.48800
O  36.53600 55.53200 22.30200
C  36.47100 57.09100 23.90500
N  36.75600 50.05600 23.58500
C  36.62000 51.04000 22.68800
C  36.78100 50.54600 21.17500
C  37.17400 49.03900 21.46200
C  37.03700 48.85900 22.98300
C  35.47300 50.64000 20.37700
C  38.68400 48.90300 20.99100
C  39.13600 47.49200 20.45500
N  36.57800 48.30600 25.99200
C  36.87000 47.34600 25.00700
C  37.02400 46.03700 25.69600
C  36.57500 46.30300 27.01200
C  36.34400 47.68900 27.14200
C  37.42900 44.70100 25.15000
C  36.37800 45.70600 28.33800
O  36.45500 44.51600 28.63800
C  36.01500 46.88000 29.31500
C  34.73600 46.57000 29.93900
O  33.65600 46.87700 29.39000
O  34.88600 46.09700 31.17300
C  33.62600 45.96300 32.05000
H  35.72600 53.84100 28.57100
H  36.62800 52.97500 22.09400
H  37.09200 46.74500 23.06200
H  34.95000 49.50700 30.65900
H  36.09200 52.23200 30.54900
H  33.81600 52.49600 31.25700
H  33.20800 51.18200 30.31000
H  33.57600 52.67000 29.50900
H  37.84100 50.68000 30.68800
H  37.50200 48.91800 31.00400
H  37.51700 51.07400 32.86100
H  37.52400 49.30700 33.00500
H  37.22200 56.57100 26.81000
H  36.23400 55.64700 27.92300
H  35.43300 56.57700 26.74900
H  36.31600 57.85000 23.13800
H  37.42700 57.20000 24.41600
H  35.63300 57.27900 24.57500
H  37.56600 51.04100 20.60300
H  36.59000 48.34300 20.86000
H  35.08100 51.65100 20.48600
H  34.70700 49.88900 20.56700
H  35.67300 50.54200 19.31000
H  39.24000 49.19000 21.88400
H  38.85400 49.53200 20.11800
H  38.33700 46.75700 20.55100
H  39.98400 47.16600 21.05700
H  39.45700 47.56400 19.41500
H  37.61100 43.89700 25.86300
H  38.16900 44.88100 24.37000
H  36.54800 44.27900 24.66800
H  36.75600 46.90200 30.11500
H  33.05000 46.88500 31.96900
H  33.93900 45.91100 33.09200
H  33.14600 45.01700 31.80100
Mg -1.73300 33.38200 26.95200
C  -3.21900 31.66700 29.61800
C  -0.15800 35.58900 29.00900
C  -0.90600 35.33800 24.29400
C  -3.46100 31.18100 24.67300
N  -1.82900 33.70600 29.06300
C  -2.45100 32.89100 29.98900
C  -2.04200 33.33000 31.41300
C  -1.12100 34.56100 31.17700
C  -1.03700 34.60500 29.61600
C  -1.67400 35.91400 31.83300
C  -1.41400 32.20300 32.29500
C  -0.45200 32.60100 33.41000
H  -0.62300 32.06100 34.84200
N  -0.66900 35.18300 26.69000
C  -0.07900 35.94400 27.61000
C  0.74100 37.00000 27.00400
C  0.54000 36.90600 25.60300
C  -0.42200 35.81500 25.45200
C  1.71700 37.80200 27.90700
C  1.08500 37.80800 24.55900
O  0.82100 37.67800 23.36300
C  2.06500 38.88100 24.86800
N  -2.28700 33.41300 24.72100
C  -1.77500 34.32500 23.90300
C  -1.94400 33.86600 22.43500
C  -2.54600 32.37400 22.60700
C  -2.79500 32.30600 24.07400
C  -2.87100 34.71300 21.61800
C  -1.55500 31.20900 22.09600
C  -0.11400 31.11500 22.64400
N  -3.04500 31.75200 27.10000
C  -3.61800 30.98300 26.09600
C  -4.40200 29.91100 26.77700
C  -4.27000 30.15800 28.14100
C  -3.45500 31.27300 28.28500
C  -5.36200 28.94800 26.13800
C  -4.76900 29.73700 29.47800
O  -5.47700 28.77200 29.77400
C  -4.00900 30.70200 30.45200
C  -4.98900 31.45200 31.34000
O  -5.36900 32.61100 31.20700
O  -5.27600 30.59400 32.41200
C  -5.78800 31.30700 33.65300
H  0.46200 36.17100 29.69400
H  -0.50700 35.89300 23.44200
H  -3.97000 30.44600 24.04500
H  -2.99600 33.64500 31.83700
H  -0.07200 34.47000 31.45800
H  -2.52000 35.63100 32.45900
H  -2.07600 36.58600 31.07600
H  -0.87700 36.44300 32.35400
H  -1.02300 31.40400 31.66500
H  -2.29000 31.83000 32.82500
H  -0.14700 33.64700 33.42200
H  0.45400 32.11100 33.05400
H  2.73100 37.40600 27.86000
H  1.25700 37.85500 28.89400
H  1.75100 38.86600 27.67100
H  1.60100 39.73000 25.37100
H  2.46400 39.27100 23.93200
H  2.92200 38.57900 25.47000
H  -0.99900 33.78200 21.89800
H  -3.46000 32.29500 22.01900
H  -2.86000 35.69400 22.09300
H  -3.92200 34.42700 21.58500
H  -2.59100 34.93700 20.58900
H  -1.49700 31.35900 21.01800
H  -2.03500 30.23900 22.23200
H  -0.07200 31.84000 23.45600
H  0.73500 31.36900 22.00800
H  -0.04100 30.12200 23.08700
H  -5.05300 28.77900 25.10600
H  -6.39700 29.29000 26.17100
H  -5.35400 27.96400 26.60600
H  -3.50900 29.96900 31.08600
H  -4.96900 31.76700 34.20500
H  -6.09300 30.54100 34.36500
H  -6.61700 31.99200 33.47300

