158

Mg 2.05100 -2.05900 44.81300
C  5.23100 -1.04700 43.99300
C  0.75600 0.46300 42.72200
C  -1.08900 -3.24900 45.18900
C  3.39100 -4.84000 46.36500
N  2.86700 -0.54100 43.45200
C  4.25500 -0.28600 43.27900
C  4.57700 0.90200 42.32600
C  3.10000 1.37000 41.98700
C  2.17100 0.33800 42.71700
C  2.84100 2.82500 42.41600
C  5.47200 0.32500 41.19100
C  6.75100 1.14700 40.93100
H  7.31500 1.09100 39.50400
N  0.11200 -1.41600 44.06300
C  -0.21000 -0.38300 43.28000
C  -1.68600 -0.26400 43.17400
C  -2.24500 -1.23300 43.99700
C  -1.03900 -2.04800 44.43900
C  -2.46200 0.82600 42.39900
C  -3.81000 -1.34200 44.42600
O  -4.68700 -0.60100 43.99400
C  -4.30000 -2.33600 45.36200
N  1.32800 -3.81900 45.50500
C  -0.07500 -4.03100 45.68500
C  -0.34400 -5.39200 46.28000
C  1.07600 -5.69900 46.87900
C  2.01200 -4.77000 46.14600
C  -1.54900 -5.66100 47.11400
C  1.25800 -7.25100 46.79300
C  0.97100 -8.07900 48.09000
N  3.94800 -2.86400 45.17700
C  4.39200 -3.94300 45.86800
C  5.90300 -3.88700 46.00600
C  6.16100 -2.74600 45.30500
C  5.03800 -2.20500 44.75300
C  6.79400 -4.76400 46.82500
C  7.29200 -1.90500 44.96200
O  8.46900 -1.99300 45.20600
C  6.74000 -0.70300 44.19100
C  6.92000 0.60200 44.94600
O  6.29400 0.95300 45.93300
O  7.89500 1.39700 44.42200
C  8.19500 2.69100 45.05900
H  0.43500 1.31100 42.11400
H  -2.14700 -3.51600 45.22500
H  3.86600 -5.72600 46.79200
H  5.00000 1.77600 42.82200
H  2.88100 1.22700 40.92900
H  3.52800 3.40100 41.79700
H  3.15200 3.00800 43.44400
H  1.81500 3.18600 42.34700
H  4.86500 0.49500 40.30200
H  5.67900 -0.74000 41.30000
H  7.49600 0.66600 41.56400
H  6.63000 2.17300 41.27800
H  -1.90500 1.50000 41.74800
H  -3.01200 1.57400 42.97100
H  -3.20000 0.31100 41.78400
H  -4.27900 -3.31700 44.88700
H  -5.30200 -2.06900 45.69900
H  -3.76500 -2.48500 46.30000
H  -0.57300 -6.06900 45.45600
H  1.06800 -5.48600 47.94800
H  -2.12600 -6.43200 46.60300
H  -2.14900 -4.77500 47.31900
H  -1.33700 -6.06200 48.10500
H  2.29400 -7.41200 46.49500
H  0.59900 -7.74900 46.08200
H  0.13800 -8.75000 47.87700
H  0.76600 -7.45400 48.95900
H  1.87000 -8.61500 48.39300
H  7.15200 -5.67100 46.33600
H  6.20200 -5.08800 47.68100
H  7.62600 -4.15800 47.18200
H  7.20900 -0.72400 43.20800
H  7.42900 3.34700 44.64700
H  9.18500 2.96900 44.69900
H  8.20100 2.72200 46.14900
Mg 36.60100 49.90800 25.48000
C  36.91900 48.16100 28.53700
C  35.16500 52.49400 27.14900
C  35.85200 51.27100 22.45400
C  38.09600 47.11400 23.87500
N  35.97700 50.20500 27.60600
C  36.29700 49.45200 28.60500
C  36.06400 50.25600 29.93800
C  35.40400 51.61100 29.48900
C  35.50800 51.43000 27.95400
C  33.96300 51.94000 30.13500
C  37.40300 50.45500 30.75200
C  37.49300 50.01700 32.22300
H  36.21800 50.13300 33.09200
N  35.65400 51.64300 24.88200
C  35.12900 52.56400 25.71000
C  34.42200 53.64000 24.91800
C  34.63800 53.34900 23.56700
C  35.43600 52.03900 23.56900
C  33.77100 54.82300 25.65600
C  34.34800 54.14200 22.29900
O  34.65500 53.74800 21.18300
C  33.72000 55.47200 22.40900
N  36.90600 49.23500 23.43900
C  36.52900 50.03600 22.35800
C  37.02700 49.50100 21.03700
C  37.91100 48.21000 21.55100
C  37.60500 48.17300 23.06300
C  35.79700 49.13100 20.16200
C  39.48600 48.35900 21.13300
C  40.19400 47.11300 20.53300
N  37.24400 47.91200 25.98000
C  37.89200 46.89300 25.24200
C  38.21000 45.76300 26.17700
C  37.84800 46.20500 27.46800
C  37.30400 47.52300 27.29000
C  38.98000 44.55800 25.78300
C  37.78200 45.84300 28.85400
O  38.25400 44.88000 29.54000
C  37.16000 47.13700 29.60800
C  35.98800 46.66100 30.41100
O  34.95100 46.29200 29.87400
O  36.39100 46.49600 31.71000
C  35.43800 45.73200 32.60800
H  34.70500 53.28200 27.75000
H  35.78800 51.76100 21.48000
H  38.71800 46.39400 23.33900
H  35.34400 49.75900 30.58700
H  36.07600 52.40700 29.80800
H  34.01800 52.89600 30.65500
H  33.67300 51.13000 30.80500
H  33.17300 52.19100 29.42800
H  37.60300 51.52000 30.87700
H  38.18000 49.96200 30.16700
H  38.32200 50.60900 32.61100
H  37.78000 48.96600 32.24900
H  33.33800 54.59300 26.63000
H  32.97400 55.18800 25.00900
H  34.42500 55.68800 25.76600
H  32.78800 55.39900 22.96900
H  33.46900 55.80100 21.40100
H  34.45500 56.15900 22.82900
H  37.71400 50.21000 20.57500
H  37.45200 47.31500 21.13200
H  35.96200 48.14400 19.73100
H  35.59600 49.89500 19.41200
H  34.95500 48.92100 20.82100
H  40.04600 48.63900 22.02600
H  39.49600 49.21600 20.46100
H  40.47200 47.41700 19.52300
H  39.43900 46.32800 20.50200
H  41.00700 46.80800 21.19200
H  39.95600 44.83000 25.38000
H  38.30200 44.07800 25.07700
H  39.02300 44.02200 26.73000
H  37.87600 47.60800 30.28000
H  35.00300 46.36000 33.38600
H  36.02400 44.95600 33.10000
H  34.64200 45.16800 32.12200

