158

Mg 9.31100 48.20800 26.08200
C  6.87000 48.71600 28.57300
C  11.52400 49.83500 28.11300
C  11.50400 48.03800 23.58700
C  6.65500 47.76000 23.77100
N  9.13400 49.26300 28.03900
C  8.17900 49.16400 28.92000
C  8.61700 49.44600 30.33000
C  9.93000 50.31300 30.04100
C  10.22800 49.73000 28.61300
C  9.88800 51.85000 30.10800
C  8.86000 48.18700 31.24300
C  8.05100 48.16900 32.54600
H  8.00700 46.77100 33.36000
N  11.32600 48.72100 25.92300
C  12.03700 49.40700 26.84700
C  13.39700 49.41400 26.37400
C  13.42400 48.80300 25.08100
C  12.06000 48.52700 24.77400
C  14.51600 49.82400 27.29000
C  14.58000 48.54200 24.15700
O  14.45300 48.25000 22.93700
C  16.02600 48.67700 24.64900
N  9.06700 48.15300 23.86200
C  10.14500 47.79400 23.13500
C  9.72800 47.20500 21.71100
C  8.12400 47.31600 21.79900
C  7.91700 47.75200 23.27100
C  10.39500 47.96400 20.50500
C  7.35500 46.05600 21.37700
C  6.71800 46.06600 19.95500
N  7.20000 48.09700 26.13300
C  6.28800 47.95600 25.14600
C  4.95300 47.92400 25.67400
C  5.16100 48.10100 27.10300
C  6.54900 48.19500 27.30000
C  3.74000 47.75000 24.90100
C  4.52200 48.28000 28.29600
O  3.32700 48.35100 28.63400
C  5.62400 48.60700 29.34800
C  5.56700 47.40100 30.22400
O  6.31100 46.43300 30.25400
O  4.48900 47.56700 31.08400
C  4.35900 46.47800 32.01500
H  12.17800 50.54000 28.63100
H  12.30000 47.71500 22.91300
H  5.81400 47.41300 23.16800
H  7.88300 50.15000 30.72100
H  10.85000 50.00900 30.54000
H  8.84800 52.13800 30.26400
H  10.26500 52.31700 29.19800
H  10.50700 52.11800 30.96300
H  9.91800 48.14200 31.50300
H  8.66800 47.27800 30.67300
H  7.02600 48.30900 32.20200
H  8.44200 49.03600 33.07900
H  14.12500 50.23500 28.22100
H  15.21700 50.56200 26.90100
H  15.01100 48.91800 27.64100
H  16.12500 48.14900 25.59800
H  16.24000 49.69100 24.98800
H  16.73900 48.36600 23.88600
H  10.01100 46.15200 21.71200
H  7.74500 48.09300 21.13500
H  10.87600 47.15900 19.94900
H  11.06800 48.75400 20.83900
H  9.53000 48.41200 20.01600
H  6.62000 45.90700 22.16800
H  8.02500 45.19700 21.35700
H  6.34300 47.07200 19.76700
H  5.87200 45.38600 19.85600
H  7.47300 45.82900 19.20500
H  3.79900 46.72200 24.54100
H  3.79800 48.48300 24.09600
H  2.83900 47.83600 25.50800
H  5.25900 49.48200 29.88600
H  3.50600 46.56200 32.68900
H  5.20200 46.42100 32.70400
H  4.34400 45.50600 31.52200
Mg -6.59900 25.08300 25.11800
C  -5.08100 26.50600 27.96700
C  -8.29000 22.99200 27.24500
C  -7.54400 23.24900 22.42400
C  -5.03300 27.40100 23.22700
N  -6.51900 24.70100 27.30200
C  -5.93500 25.47900 28.30700
C  -6.46200 25.02600 29.74600
C  -7.15000 23.69700 29.38300
C  -7.34200 23.75500 27.88000
C  -6.36500 22.45300 29.90400
C  -7.62400 26.11200 30.23200
C  -7.37200 26.70600 31.68500
H  -6.85800 25.67600 32.73400
N  -7.72900 23.33200 24.86900
C  -8.46800 22.75400 25.88000
C  -9.33400 21.73100 25.30400
C  -9.03400 21.69700 23.85400
C  -8.04900 22.77600 23.59600
C  -10.17800 20.88000 26.20400
C  -9.67700 20.89700 22.76100
O  -9.45400 21.15300 21.59000
C  -10.74100 19.90000 23.05500
N  -6.54400 25.38900 23.09700
C  -6.94000 24.49200 22.17400
C  -6.38500 24.93400 20.85000
C  -6.04700 26.39000 21.07100
C  -5.81600 26.44400 22.55100
C  -5.24000 24.04600 20.37800
C  -7.09100 27.45700 20.49600
C  -6.46700 28.31500 19.40100
N  -5.33100 26.71800 25.41900
C  -4.75500 27.56200 24.58700
C  -3.94300 28.56900 25.33800
C  -4.06800 28.12800 26.71600
C  -4.93500 26.99100 26.66900
C  -3.20400 29.74300 24.84700
C  -3.66800 28.51100 28.05700
O  -2.89700 29.33000 28.50200
C  -4.34800 27.34100 28.96900
C  -3.31000 26.62800 29.63800
O  -2.42400 25.94000 29.21100
O  -3.21100 27.10200 30.93200
C  -2.29700 26.54700 31.97300
H  -8.97400 22.45800 27.90800
H  -7.89300 22.78100 21.50100
H  -4.58000 28.09600 22.51700
H  -5.66600 24.92000 30.48300
H  -8.11300 23.56600 29.87600
H  -5.41000 22.70100 30.36700
H  -6.16500 21.78000 29.07100
H  -7.02900 21.90600 30.57300
H  -8.60900 25.64700 30.28500
H  -7.69200 26.96400 29.55500
H  -8.27100 27.07600 32.17700
H  -6.81700 27.64200 31.62200
H  -10.95700 20.36800 25.63800
H  -10.67100 21.43800 27.00000
H  -9.42500 20.24400 26.66800
H  -10.38300 19.16200 23.77300
H  -11.12000 19.47500 22.12700
H  -11.56800 20.52500 23.39200
H  -6.94700 24.84100 19.92100
H  -5.07200 26.57200 20.61800
H  -4.53300 24.69000 19.85400
H  -5.58600 23.40600 19.56700
H  -4.63900 23.51100 21.11300
H  -7.34400 28.14200 21.30500
H  -8.03700 27.01900 20.17900
H  -6.82900 28.05700 18.40600
H  -5.37800 28.34000 19.35600
H  -6.71400 29.37500 19.46000
H  -3.64600 29.98500 23.88000
H  -2.14500 29.48700 24.84900
H  -3.29100 30.59000 25.52700
H  -4.89600 27.76800 29.80900
H  -1.31000 26.48200 31.51400
H  -2.72500 25.60600 32.32000
H  -2.20600 27.27400 32.78000

