158

Mg 41.99200 9.08500 29.69100
C  43.59200 10.10900 32.61300
C  39.65300 7.57100 31.61100
C  40.55900 7.90600 26.81600
C  44.75200 10.05400 27.83600
N  41.70400 8.77900 31.82800
C  42.33400 9.46200 32.79400
C  41.72900 9.19300 34.17900
C  40.75800 8.04300 33.85000
C  40.63900 8.23900 32.32200
C  41.15700 6.66200 34.30000
C  41.15300 10.46400 34.87900
C  41.07600 10.59900 36.41300
H  41.26600 11.94300 37.07100
N  40.27500 8.00900 29.27600
C  39.42400 7.39900 30.25900
C  38.30300 6.73300 29.56800
C  38.48700 7.05200 28.14100
C  39.84100 7.71700 28.02600
C  37.29700 5.86800 30.33700
C  37.60900 6.55700 27.01800
O  37.79200 6.76000 25.80700
C  36.34400 5.74000 27.37700
N  42.52100 8.98700 27.63800
C  41.83600 8.44600 26.65100
C  42.56100 8.47900 25.28000
C  43.91500 9.25700 25.69200
C  43.67200 9.56500 27.17100
C  42.90400 7.11300 24.67000
C  44.05800 10.59900 24.93100
C  43.14100 11.76900 25.24500
N  43.85800 9.96300 30.11600
C  44.83300 10.27700 29.25600
C  45.80200 11.09300 29.99400
C  45.33400 11.12300 31.34400
C  44.21400 10.31900 31.32800
C  47.00300 11.75500 29.50400
C  45.50800 11.54800 32.73900
O  46.31000 12.34100 33.18500
C  44.45100 10.90100 33.64000
C  44.97100 10.03200 34.73500
O  45.72100 9.10100 34.55500
O  44.48800 10.48400 35.96900
C  45.12400 9.91600 37.10800
H  38.96200 7.25100 32.39400
H  40.18000 7.45400 25.89700
H  45.57500 10.47000 27.25200
H  42.57300 8.84000 34.77100
H  39.81200 8.20700 34.36600
H  40.37300 6.26200 34.94300
H  42.18200 6.57500 34.66100
H  41.13500 6.05600 33.39400
H  40.11500 10.50800 34.55000
H  41.73900 11.29500 34.48600
H  41.64300 9.76100 36.81900
H  40.02800 10.38700 36.62600
H  37.32700 4.79200 30.17100
H  36.28200 6.20900 30.13200
H  37.54900 5.90600 31.39700
H  36.59200 4.75200 27.76500
H  35.78700 5.54700 26.46000
H  35.64400 6.19500 28.07800
H  42.01600 9.08400 24.55500
H  44.78800 8.61800 25.56100
H  43.97200 6.92700 24.56100
H  42.39400 7.12700 23.70700
H  42.50600 6.31100 25.29200
H  43.99000 10.37700 23.86700
H  45.09200 10.93000 25.02400
H  42.29500 11.46500 25.86000
H  42.66900 12.26300 24.39600
H  43.78600 12.51800 25.70400
H  46.76200 12.73100 29.08300
H  47.60800 11.17400 28.80800
H  47.67300 12.04000 30.31500
H  43.98200 11.79700 34.04500
H  46.15400 9.58400 36.98200
H  44.60300 8.99400 37.36600
H  45.20900 10.57600 37.97100
Mg 48.16200 34.84500 26.71700
C  46.52100 33.28500 29.37400
C  48.71000 37.52100 28.84800
C  49.71400 36.20300 24.17200
C  47.54100 31.94700 24.70900
N  47.87700 35.21300 28.93900
C  47.21700 34.44600 29.80400
C  47.38300 35.07800 31.16400
C  47.62200 36.58500 30.88500
C  48.12200 36.42000 29.49100
C  46.44100 37.52500 31.10400
C  48.62800 34.40600 31.86000
C  48.69000 34.47800 33.42000
H  47.65300 35.30200 34.18000
N  48.90600 36.64900 26.47200
C  49.04500 37.62600 27.45800
C  49.80200 38.75700 26.94700
C  50.25100 38.35800 25.59000
C  49.54300 37.07100 25.31300
C  50.25400 40.02200 27.85000
C  51.25100 39.07300 24.60400
O  51.62000 38.53800 23.56500
C  51.76200 40.39300 25.01000
N  48.47100 34.26500 24.57000
C  49.35100 34.93800 23.86900
C  49.81300 34.10900 22.65900
C  49.09800 32.72400 22.86100
C  48.30200 32.97800 24.09600
C  49.32100 34.78300 21.37000
C  50.09600 31.51000 23.09300
C  50.44900 30.70500 21.77000
N  47.12700 33.08500 26.92500
C  47.04200 31.98700 26.00900
C  46.28700 30.90300 26.74600
C  46.05100 31.47000 27.97800
C  46.64100 32.74200 28.08200
C  45.84500 29.64800 26.16200
C  45.34000 31.17600 29.23400
O  44.66100 30.19200 29.52500
C  45.50400 32.43400 30.11300
C  45.63400 32.13200 31.56800
O  46.64800 31.84300 32.16500
O  44.42800 32.35500 32.11900
C  44.38500 32.31800 33.63200
H  48.83200 38.36900 29.52500
H  50.33800 36.63100 23.38500
H  47.34000 31.04500 24.12600
H  46.52400 34.84900 31.79500
H  48.40300 36.93700 31.55900
H  46.60500 38.22600 31.92200
H  45.54100 36.93900 31.29200
H  46.26400 38.17800 30.24900
H  49.48800 34.94400 31.46200
H  48.71400 33.37100 31.52800
H  49.62500 34.94200 33.73600
H  48.67200 33.51400 33.92800
H  49.86100 40.98700 27.52800
H  51.34200 39.99900 27.91700
H  49.92800 39.92100 28.88500
H  52.36800 40.82400 24.21300
H  52.46000 40.39300 25.84700
H  50.91500 41.07500 25.08500
H  50.90200 34.09100 22.61900
H  48.42200 32.61000 22.01400
H  48.67900 35.66300 21.41500
H  48.92300 34.06200 20.65600
H  50.24800 35.04400 20.86100
H  49.74400 30.76500 23.80600
H  51.05000 31.87400 23.47400
H  49.83700 31.01300 20.92200
H  50.22900 29.65700 21.97200
H  51.51100 30.78300 21.53600
H  45.39400 29.85300 25.19100
H  45.13600 29.26800 26.89700
H  46.70300 28.99200 26.01700
H  44.51400 32.82800 29.88100
H  43.71600 33.10600 33.97900
H  45.35500 32.48600 34.10000
H  44.06700 31.32800 33.96000

