158

Mg 24.39600 -3.99700 45.01600
C  26.31900 -1.26000 43.48300
C  21.65700 -3.12800 43.21300
C  23.25500 -7.15700 45.37700
C  27.67300 -5.11800 46.03600
N  24.05700 -2.43600 43.46500
C  24.95300 -1.42600 43.01300
C  24.19200 -0.56000 41.96700
C  22.73900 -1.15300 42.05000
C  22.79700 -2.29300 42.97400
C  21.66300 -0.07200 42.43700
C  24.70800 -0.49800 40.50000
C  25.66900 -1.70400 40.15600
H  25.65600 -2.07100 38.65600
N  22.59400 -4.93300 44.55200
C  21.49500 -4.34700 43.87400
C  20.43100 -5.25300 43.87500
C  20.92000 -6.43800 44.57200
C  22.31600 -6.23100 44.87700
C  19.07700 -5.02200 43.14800
C  20.00400 -7.63600 44.72400
O  18.89200 -7.66200 44.32300
C  20.40000 -8.81800 45.66000
N  25.36400 -5.84900 45.59300
C  24.60400 -6.95100 45.78100
C  25.42400 -8.03300 46.43800
C  26.94800 -7.43500 46.60300
C  26.64700 -6.07000 46.02200
C  24.92600 -8.71300 47.76500
C  28.06100 -8.24800 45.76400
C  28.25800 -9.56500 46.28700
N  26.47600 -3.21900 45.10500
C  27.65700 -3.85400 45.50600
C  28.78200 -3.00200 45.25900
C  28.23300 -1.90400 44.55800
C  26.90100 -2.14300 44.34800
C  30.27000 -3.09200 45.65100
C  28.59500 -0.57500 44.00700
O  29.58900 0.15300 44.13900
C  27.34500 -0.12400 43.17500
C  27.00000 1.31100 43.63100
O  26.17900 1.65100 44.51300
O  27.87500 2.10000 42.90600
C  27.99000 3.50800 43.23400
H  20.77000 -2.81400 42.65800
H  22.86500 -8.16600 45.52700
H  28.63400 -5.62700 46.13100
H  24.21400 0.42700 42.42900
H  22.61100 -1.47300 41.01600
H  20.65500 -0.33000 42.11400
H  21.89500 0.90400 42.01000
H  21.63600 0.03800 43.52100
H  25.37300 0.35900 40.39100
H  23.91500 -0.46700 39.75400
H  25.32200 -2.56800 40.72300
H  26.66600 -1.38300 40.45500
H  18.86200 -5.52300 42.20400
H  18.86700 -3.97800 42.91100
H  18.29900 -5.29600 43.86000
H  19.45700 -9.29600 45.92600
H  20.98800 -8.53900 46.53400
H  20.96100 -9.50600 45.02800
H  25.51900 -8.83300 45.70400
H  27.24500 -7.35200 47.64900
H  25.70000 -8.83600 48.52300
H  24.51400 -9.67500 47.46000
H  24.11200 -8.04600 48.04900
H  28.98000 -7.67700 45.90100
H  27.92000 -8.21700 44.68400
H  29.27500 -9.67900 46.66200
H  28.08200 -10.28700 45.49000
H  27.52100 -9.78900 47.05800
H  30.39000 -2.24200 46.32200
H  30.94500 -2.86100 44.82700
H  30.40900 -4.00600 46.22900
H  27.67700 -0.19900 42.14000
H  28.18200 4.16700 42.38700
H  28.89800 3.53600 43.83600
H  27.19500 3.93800 43.84400
Mg 48.86400 35.98800 28.63500
C  46.69500 34.39900 30.91000
C  49.09100 38.68900 30.61400
C  50.54900 37.48000 26.18500
C  48.29900 33.33700 26.42900
N  47.97100 36.50900 30.60300
C  47.25300 35.63200 31.39900
C  47.09800 36.28600 32.78900
C  47.60200 37.77000 32.60400
C  48.24000 37.71400 31.18800
C  46.50200 38.80500 32.74800
C  47.68500 35.49500 33.93500
C  49.02600 34.81400 33.64100
H  50.31000 35.64900 33.74600
N  49.78300 37.78200 28.47300
C  49.75400 38.79900 29.38000
C  50.60800 39.87500 28.94500
C  51.16500 39.49300 27.73500
C  50.53500 38.16300 27.40000
C  50.80200 41.09500 29.80400
C  52.09700 40.27000 26.79200
O  52.48200 39.78800 25.75700
C  52.54600 41.62700 27.21300
N  49.38500 35.45200 26.55400
C  50.07500 36.22600 25.79200
C  50.37400 35.66400 24.39000
C  49.79300 34.18700 24.53500
C  49.14700 34.30700 25.97700
C  49.64600 36.43300 23.19900
C  50.71200 32.89400 24.49400
C  50.06200 31.59000 23.90300
N  47.81500 34.20600 28.69200
C  47.66800 33.25600 27.71000
C  46.88900 32.14900 28.24500
C  46.43800 32.58200 29.44800
C  46.98100 33.86000 29.66900
C  46.51700 30.78000 27.55600
C  45.64600 32.20600 30.51600
O  44.97200 31.16600 30.78200
C  45.63200 33.42700 31.44900
C  45.95300 32.93400 32.77800
O  46.90900 32.18400 33.10200
O  44.97600 33.23700 33.56100
C  44.85300 32.63400 34.90200
H  49.18700 39.53300 31.30100
H  50.96000 38.08300 25.37300
H  47.98400 32.51900 25.77800
H  46.04000 36.36300 33.03800
H  48.45800 37.91600 33.26300
H  46.69000 39.27600 33.71200
H  45.50100 38.38600 32.85900
H  46.46600 39.59100 31.99400
H  46.95900 34.87400 34.46000
H  47.99000 36.23400 34.67600
H  48.98400 34.52300 32.59100
H  49.16800 33.87800 34.18000
H  51.80800 41.31400 30.16000
H  50.22300 41.17500 30.72400
H  50.50800 41.93300 29.17200
H  51.71800 42.33100 27.30400
H  53.27900 42.03700 26.51800
H  52.94800 41.51500 28.21900
H  51.44700 35.70800 24.20600
H  48.98200 34.01900 23.82600
H  50.26700 36.71100 22.34700
H  49.01700 37.22200 23.61300
H  48.98500 35.71500 22.71300
H  50.97900 32.70000 25.53300
H  51.57500 33.13900 23.87500
H  50.53000 30.82100 24.51800
H  50.44400 31.52300 22.88400
H  48.97700 31.65700 23.98800
H  45.43500 30.66000 27.60800
H  46.87300 29.96100 28.18000
H  46.89000 30.65600 26.53900
H  44.66100 33.92200 31.46000
H  43.87200 32.15900 34.86700
H  45.00900 33.43500 35.62400
H  45.59100 31.85200 35.07900

