158

Mg 1.19400 7.92800 25.49100
C  1.63300 9.59600 28.51100
C  1.13700 4.90000 27.30100
C  0.94400 6.35300 22.55900
C  1.12900 10.98600 23.79500
N  1.27100 7.39900 27.64700
C  1.33600 8.24700 28.71700
C  1.37300 7.44700 30.01200
C  1.45800 5.95400 29.57600
C  1.18100 6.13000 28.04200
C  2.76200 5.10900 29.97000
C  0.22600 7.70000 31.01300
C  0.69100 7.89800 32.50300
H  1.99800 7.19200 33.04800
N  1.10600 5.92600 25.00000
C  1.07700 4.82600 25.86900
C  1.05200 3.58300 25.11600
C  0.92100 3.95700 23.73100
C  1.02100 5.45900 23.67900
C  0.97900 2.23400 25.74700
C  0.84100 3.16100 22.44300
O  0.87800 3.68700 21.33100
C  1.02500 1.75600 22.60200
N  0.99500 8.58300 23.43900
C  0.94200 7.72100 22.43500
C  0.86100 8.40400 21.06700
C  0.75200 9.95200 21.50300
C  0.93300 9.87400 23.02000
C  2.03400 8.07800 20.15600
C  -0.65800 10.65300 21.27900
C  -0.54600 11.95700 20.53300
N  1.28500 9.85100 26.00600
C  1.33800 11.01200 25.21300
C  1.50400 12.19000 26.01100
C  1.74400 11.68400 27.34100
C  1.53200 10.26300 27.30300
C  1.61100 13.56600 25.59900
C  2.04900 12.02200 28.76000
O  2.20300 13.09500 29.29500
C  1.83800 10.63800 29.55200
C  3.00000 10.56700 30.46100
O  4.11900 10.28500 30.23400
O  2.65200 11.11500 31.66800
C  3.70200 11.50400 32.59100
H  1.21000 4.01400 27.93600
H  0.90200 5.86200 21.58400
H  0.89500 11.97300 23.39200
H  2.32900 7.71800 30.46100
H  0.68700 5.35700 30.06200
H  3.56800 5.18800 29.24000
H  2.58000 4.03500 29.98900
H  3.07600 5.47900 30.94600
H  -0.56300 6.96500 30.85200
H  -0.27100 8.61800 30.69900
H  -0.13400 7.61900 33.15800
H  0.85800 8.94800 32.74500
H  1.23800 2.26900 26.80500
H  1.68900 1.57600 25.24500
H  0.00900 1.74900 25.63400
H  0.08700 1.33600 22.96300
H  1.82100 1.49900 23.30100
H  1.44100 1.53700 21.61800
H  -0.05900 8.16800 20.53300
H  1.58300 10.50200 21.06100
H  1.75300 7.09200 19.78600
H  2.98800 8.02600 20.68100
H  2.09900 8.74300 19.29500
H  -1.10400 10.93700 22.23200
H  -1.31000 9.95900 20.75100
H  -0.70100 11.78000 19.46900
H  0.47600 12.31500 20.66100
H  -1.30700 12.65600 20.87900
H  2.45700 14.08500 26.04700
H  0.62500 14.03200 25.62000
H  1.88000 13.41800 24.55300
H  1.01700 10.60400 30.26800
H  4.48900 10.75500 32.68200
H  3.28300 11.75800 33.56500
H  4.11900 12.41500 32.16300
Mg 53.55500 23.32000 44.88100
C  51.31000 25.58300 43.49600
C  52.01100 20.87600 43.20200
C  56.23800 21.47900 45.44900
C  55.40500 26.20100 46.01000
N  51.84700 23.23700 43.48500
C  51.09500 24.30300 43.10600
C  50.08100 23.83700 42.10300
C  50.10200 22.25100 42.22900
C  51.37900 22.04500 43.05300
C  48.85200 21.58400 42.94100
C  50.58900 24.17700 40.66900
C  49.42700 24.43700 39.72300
H  49.82600 24.82100 38.27300
N  53.93300 21.35700 44.56600
C  53.15700 20.46000 43.89300
C  53.64500 19.17100 44.05300
C  54.87200 19.33300 44.69700
C  55.01500 20.78300 44.98300
C  52.80500 18.00200 43.76300
C  55.76800 18.11500 45.00200
O  55.39000 17.00400 44.61100
C  57.00100 18.18800 45.95400
N  55.56200 23.82600 45.48600
C  56.46200 22.82900 45.65300
C  57.85400 23.49900 46.03800
C  57.37900 24.76600 46.67000
C  55.99700 24.98300 45.98000
C  58.83000 22.60100 46.85700
C  58.37800 25.99600 46.60200
C  58.53600 26.60400 45.26900
N  53.37300 25.47400 44.89800
C  54.15800 26.43500 45.49900
C  53.42300 27.70400 45.37300
C  52.32100 27.42400 44.55800
C  52.37900 26.09000 44.29100
C  53.82700 29.04500 45.98100
C  51.09300 27.96900 44.02100
O  50.63400 29.07700 44.07600
C  50.38400 26.82300 43.28000
C  50.10200 27.32900 41.91600
O  50.95900 27.82500 41.17200
O  48.68800 27.40600 41.66000
C  48.10300 27.97400 40.46700
H  51.42600 20.16400 42.61600
H  57.12300 20.93400 45.78300
H  55.93100 27.03400 46.47900
H  49.14100 24.35900 42.28300
H  50.12000 21.84700 41.21700
H  48.42100 20.84900 42.26100
H  48.04800 22.30800 43.07200
H  49.19400 21.05100 43.82800
H  51.29800 23.43200 40.30700
H  51.07900 25.14300 40.79600
H  48.80000 25.25200 40.08400
H  48.87600 23.49600 39.72200
H  52.90900 17.45400 44.69900
H  52.96400 17.41600 42.85800
H  51.73800 18.22000 43.70700
H  56.97400 18.68400 46.92400
H  57.86700 18.48700 45.36300
H  57.25300 17.14500 46.14900
H  58.36300 23.76700 45.11200
H  57.13700 24.54500 47.71000
H  59.09000 23.24100 47.70000
H  59.72300 22.45600 46.24900
H  58.34700 21.70200 47.23800
H  59.36100 25.63600 46.90400
H  58.18500 26.74600 47.36900
H  57.68100 26.37800 44.63200
H  59.41600 26.08800 44.88600
H  58.56100 27.68600 45.40000
H  52.99900 29.51800 46.50900
H  54.24000 29.63400 45.16300
H  54.53500 28.91400 46.79900
H  49.45300 26.64800 43.81900
H  48.81800 28.65200 40.00100
H  47.24800 28.54400 40.82900
H  47.94200 27.31200 39.61600

