158

Mg -2.20300 16.96300 27.12200
C  -2.67500 14.64400 29.74000
C  -2.62400 19.43700 29.28600
C  -1.81800 19.04800 24.50900
C  -2.16400 14.27300 24.82100
N  -2.77000 17.03400 29.34900
C  -2.75300 16.00400 30.26000
C  -2.83900 16.50600 31.78500
C  -2.74300 18.08700 31.49300
C  -2.69900 18.21900 29.93400
C  -3.85700 19.02500 32.18200
C  -1.84000 15.85800 32.66700
C  -1.49100 16.71600 33.90600
H  -1.21200 16.00400 35.25100
N  -2.27700 18.90100 26.96500
C  -2.45100 19.81200 27.93800
C  -2.30300 21.15700 27.43200
C  -2.10800 21.03400 26.03500
C  -2.07500 19.57500 25.80500
C  -2.41400 22.44800 28.35600
C  -1.95200 22.14200 24.99200
O  -2.10100 21.96000 23.77900
C  -1.66100 23.58400 25.35600
N  -2.20200 16.73300 24.93600
C  -1.88300 17.71100 24.09300
C  -1.90300 17.31100 22.60600
C  -2.10200 15.84100 22.78800
C  -2.15200 15.58100 24.30300
C  -3.02200 17.98000 21.77300
C  -1.04400 15.00300 21.96400
C  0.23200 14.46300 22.62400
N  -2.38000 14.93900 27.19200
C  -2.34600 14.01900 26.14300
C  -2.47700 12.76900 26.70400
C  -2.64100 12.94300 28.04000
C  -2.55000 14.27600 28.36800
C  -2.61000 11.48900 25.87200
C  -2.86300 12.31300 29.31200
O  -3.08600 11.15100 29.48200
C  -2.91800 13.34700 30.48600
C  -1.73800 13.07900 31.39600
O  -0.49900 13.11900 31.26200
O  -2.19800 12.75500 32.63800
C  -1.25300 12.43500 33.76900
H  -2.59900 20.24000 30.02600
H  -1.64000 19.82600 23.76400
H  -2.24400 13.50300 24.05100
H  -3.86900 16.23100 32.00900
H  -1.80100 18.47100 31.88600
H  -3.37700 19.89300 32.63300
H  -4.34700 18.50700 33.00700
H  -4.61000 19.23800 31.42300
H  -0.91700 15.58300 32.15500
H  -2.42700 15.04400 33.09300
H  -2.37400 17.33500 34.06500
H  -0.60100 17.31700 33.72100
H  -1.45900 22.97100 28.38900
H  -2.53700 22.19000 29.40800
H  -3.17300 23.15900 28.02700
H  -0.69500 23.41200 25.83000
H  -2.44600 24.00800 25.98300
H  -1.33400 24.25400 24.56100
H  -0.92400 17.52800 22.17800
H  -3.08900 15.48300 22.49800
H  -3.92100 17.38000 21.91200
H  -2.80100 18.04600 20.70700
H  -3.34600 18.96800 22.09900
H  -0.68900 15.64800 21.15900
H  -1.63700 14.17300 21.58000
H  0.32500 14.94700 23.59700
H  1.08700 14.81600 22.04800
H  0.20900 13.37500 22.55700
H  -3.55000 11.52600 25.32100
H  -2.65300 10.75400 26.67500
H  -1.79300 11.47200 25.15000
H  -3.89200 13.23300 30.96200
H  -1.62800 12.98500 34.63300
H  -0.23200 12.81100 33.69900
H  -1.20100 11.36400 33.96300
Mg 43.29800 5.03300 46.64500
C  41.37700 8.00200 46.91800
C  40.23600 3.32700 46.48700
C  44.94100 2.24900 45.77200
C  46.00900 7.02400 45.86700
N  41.04000 5.55300 46.81900
C  40.53500 6.85300 46.99300
C  39.00400 6.84200 46.95100
C  38.68000 5.31700 47.12700
C  40.03200 4.70700 46.70700
C  38.19700 4.99700 48.55500
C  38.41200 7.37800 45.61800
C  38.93300 6.87000 44.24100
H  39.71000 7.70300 43.19400
N  42.66400 3.05600 46.33300
C  41.36900 2.58800 46.23800
C  41.46300 1.21600 45.85300
C  42.81700 0.81400 45.70900
C  43.55100 2.05100 45.95200
C  40.19500 0.39500 45.61200
C  43.36600 -0.56500 45.43400
O  42.60100 -1.45500 45.22700
C  44.80700 -0.93600 45.51000
N  45.21600 4.69400 45.86700
C  45.67700 3.47500 45.74600
C  47.25000 3.46800 45.59600
C  47.44100 4.93900 45.28900
C  46.13500 5.58800 45.74300
C  47.89400 2.96900 46.93600
C  47.89500 5.16900 43.81400
C  49.42900 5.14300 43.66000
N  43.71300 7.10500 46.55000
C  44.86900 7.76800 46.21700
C  44.72600 9.20700 46.32600
C  43.34100 9.37100 46.64900
C  42.76200 8.01800 46.69000
C  45.83400 10.24100 46.24200
C  42.28200 10.36600 46.94000
O  42.35500 11.61600 47.01600
C  40.93300 9.50500 46.97400
C  40.13600 9.77400 48.17000
O  40.19100 9.17200 49.26700
O  39.18600 10.79400 47.92700
C  38.35000 11.22600 49.04400
H  39.31500 2.75700 46.35100
H  45.62100 1.41200 45.59700
H  46.93600 7.59100 45.76000
H  38.66500 7.46100 47.78100
H  37.97200 5.06000 46.34000
H  37.16100 4.66100 48.57300
H  38.43000 5.70300 49.35200
H  38.74100 4.12600 48.92300
H  38.42900 8.46600 45.55700
H  37.32700 7.27000 45.63200
H  38.02600 6.45100 43.80500
H  39.66800 6.07500 44.36700
H  39.52300 0.75900 46.38900
H  40.26800 -0.69200 45.63400
H  39.86600 0.52300 44.58000
H  45.24800 -0.50800 46.41100
H  45.29400 -0.55000 44.61500
H  44.82300 -2.02100 45.61200
H  47.48600 2.78600 44.77900
H  48.24800 5.35200 45.89500
H  47.30900 2.23200 47.48600
H  47.97600 3.83800 47.58900
H  48.84700 2.53800 46.63000
H  47.35800 5.97600 43.31500
H  47.45600 4.36200 43.22700
H  49.82000 5.65700 44.53800
H  49.78600 5.80200 42.86800
H  49.74500 4.10000 43.68000
H  46.50400 10.18700 45.38400
H  46.45100 10.11700 47.13200
H  45.38900 11.23600 46.25000
H  40.32500 9.86100 46.14200
H  37.34400 10.84600 48.87000
H  38.21600 12.30500 48.96300
H  38.73900 10.90900 50.01200

