158

Mg 9.18100 3.04400 27.59700
C  10.74500 1.52300 30.36600
C  7.22700 4.80600 29.70800
C  7.65100 4.35900 24.79700
C  10.95200 0.88700 25.43200
N  8.97900 3.10800 29.80900
C  9.81500 2.53400 30.75900
C  9.52900 3.12900 32.16500
C  8.29100 4.02600 31.92900
C  8.10400 3.95900 30.41000
C  7.00100 3.69700 32.66100
C  10.76200 3.73000 32.90200
C  10.37200 4.52800 34.19100
H  11.05400 4.25600 35.52700
N  7.61900 4.49900 27.33600
C  6.95400 5.12100 28.38800
C  5.97900 6.07300 27.70600
C  6.26700 6.05000 26.28200
C  7.18300 4.92800 26.09800
C  4.95000 6.75200 28.50700
C  5.68800 6.90100 25.21300
O  5.73700 6.70200 24.02800
C  4.92000 8.02000 25.71900
N  9.19800 2.52700 25.45800
C  8.50600 3.29100 24.53000
C  8.75400 2.86600 23.06500
C  9.96600 1.79700 23.29800
C  10.06500 1.76300 24.81800
C  7.54800 2.28700 22.27300
C  11.40400 2.05800 22.72500
C  12.05800 1.07100 21.64800
N  10.55000 1.49500 27.80100
C  11.17700 0.72400 26.84400
C  12.12300 -0.15200 27.50000
C  11.92500 0.05500 28.87300
C  10.94600 1.09300 29.03000
C  12.96400 -1.28900 26.92300
C  12.35200 -0.37000 30.18900
O  13.15900 -1.25200 30.52800
C  11.74800 0.70900 31.24700
C  11.08800 0.02100 32.38800
O  10.37500 -0.96300 32.32600
O  11.47400 0.53400 33.60500
C  10.88600 -0.08300 34.77200
H  6.79400 5.56000 30.36900
H  7.09200 4.69500 23.92100
H  11.57000 0.19700 24.85300
H  9.20600 2.24200 32.71000
H  8.35900 5.09600 32.12100
H  6.75600 4.42900 33.43100
H  7.00900 2.66700 33.01600
H  6.15300 3.68200 31.97600
H  11.21600 4.40200 32.17400
H  11.38000 2.89700 33.23900
H  9.29600 4.45200 34.34600
H  10.51900 5.59000 33.99600
H  3.94800 6.41300 28.24300
H  5.15500 7.82300 28.52300
H  5.07500 6.52200 29.56500
H  4.01100 7.63100 26.17800
H  4.53100 8.70500 24.96600
H  5.54500 8.46400 26.49400
H  9.07800 3.73800 22.49600
H  9.64000 0.87400 22.81800
H  6.58900 2.34400 22.78800
H  7.64600 1.21000 22.13700
H  7.42500 2.84700 21.34500
H  12.10900 2.14500 23.55100
H  11.36500 3.07100 22.32400
H  11.32500 0.48100 21.09800
H  12.80600 0.38400 22.04500
H  12.50800 1.71700 20.89500
H  12.54400 -2.22800 27.28400
H  14.01000 -1.31600 27.22600
H  12.95400 -1.29100 25.83300
H  12.55700 1.26800 31.71900
H  9.82400 -0.30400 34.66100
H  10.90700 0.62100 35.60400
H  11.37600 -1.01300 35.06100
Mg 26.90000 50.75200 25.93200
C  25.09400 51.97400 28.84400
C  29.40900 49.80100 27.98700
C  28.55800 49.62400 23.24400
C  24.56400 52.28500 23.83400
N  27.11400 50.72900 28.21600
C  26.27700 51.22600 29.18100
C  26.90500 51.17900 30.54100
C  28.37600 50.70800 30.20800
C  28.36300 50.41700 28.66700
C  29.53400 51.59000 30.71500
C  26.06200 50.40400 31.64000
C  25.74700 51.16500 32.94900
H  26.72400 51.07800 34.13500
N  28.65200 49.69500 25.68800
C  29.57800 49.38700 26.67300
C  30.67100 48.62700 26.04300
C  30.28100 48.41700 24.70400
C  29.13200 49.33800 24.49100
C  31.83800 48.09200 26.79000
C  30.88400 47.50500 23.65300
O  30.41700 47.50100 22.49300
C  31.95000 46.48800 23.98200
N  26.64300 51.03400 23.81100
C  27.42400 50.37800 22.89300
C  27.01400 50.61000 21.41100
C  25.63700 51.27400 21.68200
C  25.58200 51.56900 23.22000
C  28.11100 51.41100 20.69400
C  24.40500 50.42100 21.50400
C  23.35400 50.89400 20.36000
N  25.18400 51.85400 26.19300
C  24.31300 52.38000 25.23600
C  23.20000 52.96900 25.95300
C  23.47900 52.84500 27.32300
C  24.70300 52.17600 27.43900
C  21.97000 53.58300 25.33400
C  22.94200 53.04900 28.66600
O  21.81200 53.44000 29.00500
C  24.02300 52.56300 29.67700
C  24.45300 53.68200 30.59200
O  25.36200 54.45100 30.40000
O  23.60600 53.79500 31.68000
C  23.97900 55.04600 32.41400
H  30.22900 49.52700 28.65500
H  29.11000 49.25000 22.38000
H  23.75200 52.74500 23.26700
H  26.98400 52.22400 30.83900
H  28.57800 49.74600 30.67800
H  30.22900 51.84300 29.91400
H  30.02200 51.11700 31.56800
H  29.08400 52.53300 31.02300
H  26.70600 49.54200 31.81400
H  25.14300 49.98100 31.23400
H  24.76500 50.85000 33.30100
H  25.50700 52.20100 32.71000
H  31.76100 48.29600 27.85800
H  32.62400 48.74600 26.41200
H  32.17800 47.08700 26.54200
H  31.68300 45.75100 24.73900
H  32.71900 47.17100 24.34000
H  32.17400 46.06100 23.00400
H  26.91800 49.80200 20.68600
H  25.51800 52.19100 21.10600
H  28.76400 51.95400 21.37800
H  27.51100 52.17600 20.20100
H  28.64800 50.78600 19.98000
H  23.70900 50.37000 22.34100
H  24.69200 49.38100 21.34700
H  23.73100 51.53700 19.56400
H  22.51500 51.35200 20.88400
H  22.90000 50.06900 19.81200
H  22.04600 54.66900 25.38900
H  21.08700 53.27200 25.89100
H  21.76600 53.25300 24.31500
H  23.45300 51.80900 30.22000
H  25.03600 55.14500 32.66100
H  23.55300 54.92300 33.41000
H  23.58200 55.89500 31.85800

