158

Mg 0.14700 7.43700 25.46500
C  1.11200 9.54900 28.13600
C  0.54400 4.75400 27.44100
C  -0.46300 5.57600 22.82700
C  0.60900 10.28100 23.31200
N  0.89900 7.20200 27.58900
C  1.07300 8.15000 28.48800
C  1.23400 7.55600 29.90500
C  1.36300 6.03300 29.57500
C  0.98700 5.94200 28.09700
C  2.81000 5.42400 29.66800
C  -0.05600 7.92200 30.76500
C  -0.46300 7.04800 31.99000
H  0.68400 6.63400 32.98800
N  -0.02900 5.39000 25.21500
C  0.09600 4.42800 26.11400
C  -0.27600 3.14200 25.54300
C  -0.36600 3.40200 24.12000
C  -0.22300 4.83200 24.00500
C  -0.17300 1.88500 26.39900
C  -0.56200 2.33600 22.99100
O  -0.66200 2.67300 21.78200
C  -0.51700 0.83200 23.32900
N  0.05100 7.86300 23.35500
C  -0.46300 6.98600 22.52400
C  -0.74600 7.46600 21.16300
C  -0.51600 9.06200 21.39500
C  0.20500 9.08800 22.73900
C  0.01700 6.97800 19.96400
C  -1.84100 9.86900 21.51200
C  -2.01900 10.80900 20.30300
N  0.72300 9.52700 25.66500
C  0.78700 10.51500 24.67500
C  1.20000 11.73600 25.32400
C  1.32600 11.43700 26.72500
C  1.11700 10.05300 26.82600
C  1.13900 13.08800 24.69000
C  1.66600 11.88200 28.01400
O  1.89500 13.02100 28.38100
C  1.43100 10.69800 29.05400
C  2.65700 10.61800 29.75000
O  3.72800 10.24300 29.32500
O  2.39900 10.82100 31.10800
C  3.44700 10.22300 31.98900
H  0.61000 3.88800 28.10300
H  -0.91100 4.92900 22.07100
H  0.53300 11.14900 22.65400
H  2.13500 7.92400 30.39500
H  0.73100 5.39600 30.19300
H  2.81300 4.46400 30.18300
H  3.36800 6.14300 30.26800
H  3.29800 5.17700 28.72500
H  -0.89300 8.07800 30.08400
H  0.22400 8.88300 31.19500
H  -0.90200 6.16600 31.52500
H  -1.23100 7.67000 32.44900
H  0.31100 1.11900 25.79200
H  -1.18700 1.52100 26.56800
H  0.34500 2.08400 27.33700
H  -0.57500 0.31700 22.36900
H  -1.32200 0.66600 24.04600
H  0.45600 0.62700 23.77500
H  -1.81300 7.39800 20.95200
H  0.16100 9.35300 20.59200
H  0.48300 6.04000 20.26700
H  0.72800 7.70000 19.56300
H  -0.74000 6.75500 19.21200
H  -1.80000 10.42400 22.44900
H  -2.75800 9.28800 21.60600
H  -1.88800 10.14800 19.44700
H  -1.21300 11.52700 20.14900
H  -3.00400 11.27300 20.35400
H  2.14900 13.29600 24.33600
H  0.82700 13.74400 25.50300
H  0.43200 13.10800 23.86100
H  0.52900 10.98000 29.59800
H  4.46300 10.55300 31.77300
H  3.43800 9.13500 32.04200
H  3.36100 10.43100 33.05600
Mg 6.50100 54.22500 41.17700
C  5.94700 50.81800 41.21400
C  9.88000 53.59600 40.30300
C  7.02800 57.53700 40.76500
C  3.19700 54.70400 41.92700
N  7.66800 52.34600 40.65800
C  7.29900 51.08500 40.83200
C  8.47300 50.08700 40.47200
C  9.73300 51.00100 40.59500
C  9.06100 52.45600 40.55600
C  10.52800 50.79900 41.93400
C  8.32500 49.43800 39.03200
C  8.54700 50.08700 37.68500
H  7.58900 49.73700 36.49200
N  8.19400 55.43700 40.57100
C  9.47800 55.01300 40.28500
C  10.34900 56.08700 40.10300
C  9.56400 57.28600 40.19800
C  8.17300 56.83200 40.46800
C  11.88200 55.90700 40.06300
C  10.12500 58.73300 40.09900
O  11.32100 58.94800 39.84400
C  9.22200 59.86900 40.42300
N  5.21300 55.84600 41.14000
C  5.69700 57.18000 41.04900
C  4.57000 58.17400 41.33900
C  3.40300 57.22800 41.83400
C  3.94000 55.81000 41.56200
C  4.83400 59.26300 42.41100
C  2.09500 57.52900 41.18000
C  0.82200 57.59300 42.11400
N  4.83400 53.03800 41.52600
C  3.63600 53.36300 42.01700
C  2.81400 52.19200 42.33200
C  3.73700 51.13800 42.01800
C  4.92500 51.73800 41.52000
C  1.50200 52.12200 42.95600
C  3.91200 49.71700 42.04100
O  3.14600 48.89600 42.43700
C  5.32200 49.43100 41.41700
C  5.05300 48.79200 40.10300
O  4.52700 49.35200 39.15900
O  5.31600 47.44000 40.18800
C  4.78000 46.62900 39.09100
H  10.93100 53.29900 40.27900
H  7.17900 58.59900 40.96800
H  2.15400 54.89200 42.19100
H  8.41500 49.27100 41.19300
H  10.44500 51.01900 39.76900
H  10.34000 51.73900 42.45300
H  11.60100 50.65800 41.80700
H  10.17700 49.87700 42.39700
H  7.29200 49.09400 39.01200
H  8.98300 48.56900 39.05400
H  9.49200 49.70500 37.29800
H  8.75800 51.13000 37.92300
H  12.33600 56.18800 41.01300
H  12.47200 56.40100 39.29100
H  12.22800 54.87600 39.98800
H  8.30400 59.91700 39.83900
H  9.75700 60.79800 40.22500
H  9.04400 59.97300 41.49400
H  4.31500 58.65600 40.39500
H  3.48700 57.26200 42.92000
H  5.67900 59.04100 43.06300
H  3.91800 59.45800 42.97000
H  5.04000 60.18700 41.86900
H  1.90600 56.72000 40.47500
H  2.21000 58.47100 40.64500
H  0.93300 56.95400 42.99000
H  -0.04900 57.29800 41.52900
H  0.71500 58.63900 42.40500
H  1.03700 51.14100 43.05000
H  0.68200 52.63000 42.44700
H  1.64200 52.58400 43.93300
H  5.83700 48.72100 42.06400
H  3.82500 46.14700 39.30100
H  5.42600 45.79900 38.80400
H  4.70800 47.24100 38.19200

