158

Mg 44.34300 5.88300 48.05200
C  42.40400 8.75900 47.31500
C  41.63900 3.91100 47.09300
C  46.33600 3.14200 48.18200
C  47.14600 8.02100 48.22300
N  42.30800 6.31000 47.22100
C  41.68300 7.52900 47.12600
C  40.22800 7.37500 46.93100
C  39.96900 5.84000 46.73500
C  41.40500 5.27100 47.08200
C  38.87600 5.24400 47.62900
C  39.69800 8.23900 45.76700
C  40.52200 8.23600 44.47400
H  39.82800 7.95900 43.13500
N  44.00800 3.79500 47.77000
C  42.82700 3.19000 47.39700
C  42.99700 1.76300 47.49500
C  44.38200 1.50900 47.71800
C  44.96700 2.85600 47.93500
C  41.87400 0.84500 47.49600
C  45.04000 0.07400 47.77800
O  44.31800 -0.90400 47.56500
C  46.49300 -0.14000 48.05300
N  46.41700 5.63300 48.00200
C  46.96100 4.37700 48.18400
C  48.50300 4.42000 48.44100
C  48.77700 5.98000 48.34200
C  47.35000 6.57900 48.24100
C  48.89400 3.62800 49.76000
C  49.66800 6.28200 47.05900
C  51.17400 6.28000 47.31000
N  44.76500 8.04400 47.82600
C  45.93100 8.76100 47.91200
C  45.59200 10.18400 47.82700
C  44.27600 10.25100 47.51500
C  43.80600 8.90900 47.54700
C  46.55300 11.40900 48.07600
C  43.06500 11.11600 47.35700
O  42.90100 12.32700 47.40200
C  41.80400 10.12300 47.28000
C  40.79500 10.50600 48.28800
O  40.34000 9.78600 49.16900
O  40.17000 11.69400 47.93100
C  38.86500 12.10200 48.55700
H  40.82400 3.23900 46.81300
H  46.98000 2.26500 48.28600
H  48.01900 8.67600 48.27200
H  39.69300 7.68300 47.83000
H  39.68200 5.62900 45.70500
H  38.11400 6.02300 47.65000
H  39.28000 5.00800 48.61400
H  38.42500 4.42800 47.06500
H  39.42200 9.25700 46.04200
H  38.75700 7.74500 45.52500
H  41.18200 7.38600 44.64800
H  41.01100 9.21000 44.44100
H  41.82500 0.17800 46.63600
H  40.92400 1.38100 47.49900
H  41.93400 0.29200 48.43300
H  47.07600 0.39100 47.30100
H  46.60000 -1.21400 47.90100
H  46.75000 0.25200 49.03700
H  48.93500 3.86300 47.60900
H  49.30100 6.29900 49.24300
H  48.41700 2.64900 49.73200
H  48.52700 4.20000 50.61200
H  49.96400 3.43300 49.83200
H  49.42900 7.29100 46.72200
H  49.41100 5.57700 46.26900
H  51.75200 5.93000 46.45400
H  51.43500 5.69200 48.19100
H  51.54500 7.27700 47.54700
H  46.34100 12.15600 47.31200
H  47.61600 11.17800 47.99900
H  46.46400 11.83200 49.07700
H  41.28100 10.42100 46.37100
H  37.94800 11.74500 48.08900
H  38.68500 13.17500 48.62000
H  38.84900 11.66600 49.55600
Mg 36.04200 48.59800 24.83600
C  36.04500 46.67500 27.85700
C  34.14200 50.84000 26.47600
C  35.10100 49.93100 21.84000
C  37.13200 45.78800 23.18500
N  35.08500 48.63700 26.95800
C  35.34900 47.88900 28.01700
C  35.05300 48.68300 29.32000
C  34.25000 49.88300 28.76700
C  34.56100 49.82900 27.33000
C  32.69200 49.94600 29.18500
C  36.35000 49.13600 30.02700
C  36.29600 49.64900 31.54300
H  34.96900 49.64700 32.36100
N  34.99700 50.37200 24.22900
C  34.33900 51.14200 25.06300
C  33.83800 52.35900 24.37200
C  34.18400 52.05800 23.02300
C  34.71400 50.69200 22.96700
C  33.00500 53.49900 24.92600
C  34.15300 52.97300 21.83500
O  34.58600 52.60400 20.73700
C  33.68600 54.43300 22.02700
N  35.92500 47.92200 22.87600
C  35.57400 48.66000 21.85400
C  35.72800 47.91100 20.41400
C  36.52800 46.69800 20.87100
C  36.55500 46.76600 22.42400
C  34.31600 47.58000 19.82400
C  37.96100 46.65000 20.22800
C  38.89900 47.83900 20.57400
N  36.47700 46.59500 25.37600
C  37.08000 45.65000 24.59700
C  37.41100 44.51400 25.42200
C  37.09300 44.90100 26.76500
C  36.54300 46.19400 26.61700
C  37.97400 43.20400 24.99300
C  36.99700 44.53900 28.13300
O  37.22100 43.45000 28.64700
C  36.49900 45.77800 28.96600
C  35.54700 45.34600 30.07300
O  34.54800 44.71200 29.90600
O  36.04600 45.89300 31.20600
C  35.15000 45.61000 32.39900
H  33.44900 51.58500 26.87200
H  34.89300 50.36000 20.85800
H  37.47900 44.87500 22.69700
H  34.48500 48.08900 30.03500
H  34.55900 50.85500 29.15100
H  32.47700 49.10000 29.83700
H  32.06600 49.85500 28.29700
H  32.52300 50.90900 29.66600
H  36.78700 49.89000 29.37200
H  37.11800 48.36900 30.13000
H  36.55300 50.70800 31.52300
H  37.12400 49.21600 32.10500
H  33.56400 54.42700 25.04200
H  32.71000 53.30400 25.95700
H  32.10400 53.53400 24.31300
H  33.75600 54.96100 21.07500
H  34.46300 54.78600 22.70500
H  32.69000 54.44300 22.46800
H  36.28400 48.49400 19.67900
H  36.08500 45.74600 20.58000
H  34.33400 46.51100 19.61300
H  34.11300 48.12500 18.90200
H  33.58700 47.82100 20.59700
H  37.97500 46.58700 19.14000
H  38.48900 45.76200 20.57700
H  38.89300 48.51500 19.71900
H  39.88100 47.37500 20.67500
H  38.70300 48.49700 21.42000
H  38.57100 43.42900 24.10900
H  37.13600 42.58300 24.67900
H  38.63900 42.88800 25.79700
H  37.39100 46.09200 29.50800
H  35.22200 44.65100 32.91300
H  34.12500 45.70000 32.04100
H  35.34300 46.36800 33.15700

