158

Mg 43.00000 41.81700 26.51400
C  42.07300 44.21000 28.84200
C  44.16000 39.91800 28.95700
C  43.95700 39.66900 24.14300
C  42.95400 44.43700 24.13300
N  42.87100 41.99200 28.66300
C  42.46200 43.05800 29.43600
C  42.51500 42.67500 30.91600
C  43.47700 41.43900 30.85500
C  43.49700 41.10200 29.40500
C  44.91700 41.71300 31.47500
C  41.12000 42.35700 31.48300
C  40.59600 43.02200 32.76300
H  41.51400 43.03300 33.94500
N  43.85900 40.05100 26.56500
C  44.27800 39.38600 27.64800
C  44.66100 38.03000 27.36800
C  44.58400 37.93700 25.90300
C  44.07000 39.27200 25.47100
C  45.09700 36.94500 28.36200
C  44.80100 36.70500 24.96700
O  44.83700 36.68900 23.76300
C  44.88400 35.39100 25.61400
N  43.37900 42.02000 24.42700
C  43.80900 41.00700 23.68700
C  43.82700 41.40100 22.16700
C  43.35000 42.93200 22.21900
C  43.17800 43.16700 23.71200
C  45.22800 41.29500 21.52000
C  41.96100 43.21400 21.51500
C  40.67300 42.86700 22.32500
N  42.44100 43.90500 26.38600
C  42.49900 44.85300 25.40900
C  41.91200 46.11900 25.81200
C  41.69600 45.88300 27.19600
C  42.10300 44.55500 27.47200
C  41.66900 47.32000 25.02200
C  41.26200 46.50300 28.46100
O  40.93400 47.65800 28.63100
C  41.51600 45.37400 29.58800
C  42.29100 45.92500 30.68900
O  43.51700 46.08700 30.67100
O  41.50700 46.10300 31.77200
C  42.22900 46.39500 32.98400
H  44.60400 39.35500 29.78100
H  44.09800 38.96100 23.32400
H  42.90400 45.17400 23.32900
H  42.84100 43.41700 31.64400
H  43.14600 40.56600 31.41800
H  45.10700 40.92700 32.20600
H  44.92000 42.65500 32.02300
H  45.66300 41.58600 30.69000
H  41.06800 41.28700 31.68700
H  40.40700 42.54700 30.68100
H  39.65200 42.57000 33.06900
H  40.33400 44.05300 32.52500
H  46.17200 36.90000 28.18700
H  44.66600 35.95200 28.23300
H  44.87000 37.23200 29.38900
H  44.76800 34.66300 24.81100
H  43.97600 35.26400 26.20400
H  45.75500 35.37700 26.27000
H  43.12700 40.75100 21.64300
H  44.08500 43.60100 21.77000
H  46.03500 40.91100 22.14500
H  45.58700 42.25800 21.15800
H  45.17900 40.71100 20.60100
H  41.88700 42.57900 20.63200
H  41.98900 44.27100 21.25100
H  40.46100 41.80400 22.21200
H  39.90200 43.45700 21.82900
H  40.69700 42.97900 23.40900
H  42.02900 48.22800 25.50700
H  40.59500 47.35500 24.84000
H  42.15600 47.19500 24.05500
H  40.56400 45.06500 30.02100
H  42.92700 45.58300 33.18800
H  41.69000 46.40600 33.93100
H  42.65200 47.39900 32.96300
Mg -12.32800 15.53300 41.53600
C  -9.33200 13.71900 41.10200
C  -11.03400 18.00300 39.55000
C  -15.31900 17.08900 41.52300
C  -13.76900 12.72000 43.04200
N  -10.39900 15.72600 40.27900
C  -9.29000 14.98000 40.46700
C  -8.04500 15.62700 39.83100
C  -8.64900 17.02700 39.38800
C  -10.11100 16.90300 39.75400
C  -7.92100 18.25300 40.01000
C  -7.43100 14.93000 38.59200
C  -6.12400 15.48100 38.17000
H  -6.20200 16.50000 37.02500
N  -13.02100 17.39600 40.76900
C  -12.31300 18.29500 39.98400
C  -13.15300 19.42000 39.62400
C  -14.42200 19.22200 40.22600
C  -14.34000 17.79700 40.84000
C  -12.69200 20.55500 38.81400
C  -15.62300 20.20600 40.12300
O  -15.53400 21.31600 39.57700
C  -17.01500 19.95400 40.66600
N  -14.27600 14.85100 42.12000
C  -15.32100 15.82600 42.13200
C  -16.58600 15.19000 42.76100
C  -16.10300 13.78200 43.28800
C  -14.67500 13.73800 42.73800
C  -17.25000 16.09200 43.89100
C  -16.89300 12.51200 42.75200
C  -17.28300 11.46500 43.82500
N  -11.66800 13.62700 42.08000
C  -12.38400 12.56700 42.68000
C  -11.45300 11.57900 42.98000
C  -10.21800 11.93200 42.36600
C  -10.42700 13.21000 41.82900
C  -11.72000 10.35600 43.84400
C  -8.84000 11.49400 42.12500
O  -8.23500 10.41600 42.39400
C  -8.21900 12.68100 41.24800
C  -6.84700 13.11700 41.80200
O  -6.69800 13.55500 42.91000
O  -5.86900 13.07700 40.83600
C  -4.73400 13.99100 41.13700
H  -10.55000 18.77600 38.95000
H  -16.34500 17.45800 41.57400
H  -14.20100 12.00900 43.74900
H  -7.37300 15.88400 40.64900
H  -8.65100 17.11300 38.30100
H  -8.62400 18.77200 40.66200
H  -7.64200 18.89500 39.17500
H  -6.97200 18.12400 40.53200
H  -8.16800 15.05500 37.79900
H  -7.32200 13.84700 38.65100
H  -5.48300 14.63200 37.93100
H  -5.73200 16.05100 39.01300
H  -13.26400 20.54300 37.88600
H  -11.60600 20.55700 38.71500
H  -12.95700 21.43600 39.39800
H  -17.76800 20.59700 40.20900
H  -17.07400 20.05100 41.75000
H  -17.23400 18.95700 40.28700
H  -17.30200 15.07400 41.94800
H  -16.02500 13.71600 44.37300
H  -18.20200 16.59500 43.72600
H  -16.47400 16.82000 44.13100
H  -17.33500 15.37800 44.71000
H  -16.38700 12.05400 41.90100
H  -17.83600 12.84500 42.31800
H  -17.10700 10.47100 43.41500
H  -18.36400 11.59100 43.89000
H  -16.73100 11.66600 44.74400
H  -12.47400 10.58900 44.59500
H  -10.75500 10.20300 44.32600
H  -11.97200 9.47600 43.25100
H  -7.85800 12.17500 40.35200
H  -3.95600 13.73200 40.41800
H  -4.27900 13.79100 42.10800
H  -5.08600 15.00100 40.92800

