158

Mg 24.28300 -4.61800 45.68300
C  26.34300 -2.19900 44.08100
C  21.65500 -3.40000 43.57400
C  22.51600 -7.38400 46.35000
C  27.05100 -5.82800 47.35700
N  24.07700 -3.03600 43.97800
C  25.00900 -2.16000 43.61100
C  24.58300 -1.25900 42.44900
C  23.04900 -1.37100 42.60300
C  22.91300 -2.69900 43.42100
C  22.33300 -0.22100 43.35600
C  25.12100 -1.87800 41.05400
C  25.77700 -0.76300 40.16800
H  25.34400 -0.88600 38.68000
N  22.27100 -5.25600 45.12400
C  21.44000 -4.64200 44.25100
C  20.23500 -5.45800 44.15900
C  20.41900 -6.66200 44.93500
C  21.78900 -6.45700 45.51500
C  19.11200 -5.12700 43.29000
C  19.38400 -7.72000 45.17900
O  18.29600 -7.65300 44.60000
C  19.63800 -8.75300 46.20000
N  24.69900 -6.29300 46.68100
C  23.82900 -7.34100 46.84500
C  24.24100 -8.42100 47.78400
C  25.65300 -7.88800 48.20600
C  25.79700 -6.54400 47.42400
C  23.24800 -8.78500 48.91300
C  26.88700 -8.85400 48.04900
C  28.05400 -8.74500 49.03600
N  26.32800 -4.12400 45.81800
C  27.31900 -4.66000 46.57000
C  28.60100 -3.96700 46.42700
C  28.28300 -2.98200 45.38100
C  26.88000 -3.11500 45.05100
C  29.98700 -4.35500 47.10000
C  28.80400 -1.92700 44.54500
O  29.91000 -1.35300 44.49600
C  27.58200 -1.36600 43.65400
C  27.36000 0.06900 43.92400
O  26.61200 0.58100 44.78100
O  28.07100 0.75700 42.95000
C  27.82800 2.19100 43.01000
H  20.87400 -2.94000 42.96400
H  21.93200 -8.25300 46.66100
H  27.85000 -6.22500 47.98700
H  24.96700 -0.25000 42.59900
H  22.56400 -1.39500 41.62800
H  21.73500 -0.62700 44.17200
H  21.62400 0.19200 42.63800
H  22.99800 0.60500 43.61100
H  24.27700 -2.21300 40.45000
H  25.79600 -2.72900 41.14500
H  26.86700 -0.77300 40.14000
H  25.48500 0.21700 40.54500
H  18.93000 -5.97900 42.63500
H  19.17700 -4.12700 42.86100
H  18.23300 -5.08600 43.93400
H  18.74500 -9.37900 46.20600
H  19.77300 -8.33200 47.19600
H  20.38600 -9.50800 45.95700
H  24.44500 -9.28300 47.14900
H  25.44100 -7.69100 49.25700
H  22.44400 -8.05000 48.96600
H  23.74700 -8.72500 49.88000
H  22.70500 -9.73000 48.88000
H  27.30300 -8.83200 47.04200
H  26.50600 -9.87400 48.00100
H  28.12200 -9.53900 49.78000
H  27.79800 -7.88600 49.65600
H  29.01100 -8.62000 48.53000
H  30.08300 -5.43000 46.94400
H  30.03200 -4.14200 48.16800
H  30.85600 -3.86000 46.66600
H  27.82700 -1.60300 42.61900
H  26.90400 2.50400 43.49500
H  27.71800 2.53100 41.98000
H  28.60600 2.83400 43.42200
Mg 47.16700 25.48000 27.95300
C  48.04100 27.71800 30.65900
C  45.85700 23.37600 30.48900
C  46.65700 23.25500 25.60500
C  48.78600 27.62500 25.75200
N  47.10000 25.50000 30.31400
C  47.42100 26.56100 31.12400
C  46.89900 26.31000 32.58700
C  46.21600 24.84900 32.58000
C  46.47200 24.53200 31.06300
C  46.82500 23.76800 33.55800
C  45.86700 27.40700 33.19500
C  46.25000 28.05600 34.62300
H  45.24600 28.08500 35.67900
N  46.43900 23.61500 28.08600
C  45.86400 22.93700 29.15600
C  45.27200 21.71600 28.69700
C  45.52200 21.65700 27.27000
C  46.28900 22.87500 26.93800
C  44.75000 20.58900 29.58100
C  45.20100 20.48700 26.31000
O  45.25400 20.69900 25.10100
C  44.64000 19.16200 26.85200
N  47.94300 25.30100 26.03100
C  47.43500 24.37600 25.20100
C  47.70600 24.65900 23.71200
C  48.29900 26.08000 23.76800
C  48.30500 26.38100 25.27500
C  48.56500 23.63800 22.94500
C  47.52200 27.11600 22.88600
C  48.32800 28.16300 22.17100
N  48.13100 27.36000 28.12300
C  48.80300 28.07500 27.11500
C  49.48500 29.17500 27.67800
C  49.16200 29.15800 29.01400
C  48.33000 27.95100 29.25800
C  50.22400 30.29700 26.93100
C  49.23900 29.86900 30.22100
O  49.79500 30.94800 30.47300
C  48.50700 28.96400 31.37700
C  49.52500 28.73600 32.39900
O  50.61000 28.23500 32.17100
O  49.10900 29.14000 33.62400
C  50.26000 29.41900 34.50700
H  45.28000 22.81600 31.22800
H  46.38500 22.74000 24.68100
H  49.15800 28.23800 24.92800
H  47.72500 26.26400 33.29700
H  45.12800 24.85400 32.64600
H  46.03000 23.19000 34.03000
H  47.26600 24.34400 34.37200
H  47.60300 23.15700 33.10100
H  44.91500 26.90100 33.35900
H  45.75500 28.25100 32.51400
H  46.52100 29.10200 34.48300
H  47.16200 27.59200 34.99900
H  45.47500 19.77500 29.58200
H  43.75400 20.23500 29.31600
H  44.68000 20.97500 30.59800
H  45.31800 18.83100 27.63900
H  44.79800 18.47600 26.01900
H  43.60100 19.25700 27.16700
H  46.74500 24.68100 23.19800
H  49.38100 25.99900 23.66100
H  48.02300 23.15900 22.13000
H  48.72800 22.83400 23.66200
H  49.38400 24.22300 22.52700
H  46.80700 27.63000 23.52900
H  47.00200 26.58100 22.09100
H  48.41100 27.99400 21.09700
H  49.33300 28.14400 22.59100
H  47.90600 29.16700 22.19800
H  50.74300 29.82800 26.09500
H  50.75900 30.83300 27.71500
H  49.43500 30.90900 26.49400
H  47.70200 29.52600 31.85200
H  51.19100 29.72200 34.02700
H  50.48300 28.58200 35.16900
H  49.96500 30.28000 35.10700

