158

Mg -1.60500 17.78300 27.48400
C  -1.84900 15.75400 30.33000
C  -1.93600 20.53800 29.64900
C  -1.95100 19.79200 24.81100
C  -1.71700 14.89100 25.50200
N  -1.78000 18.14100 29.79800
C  -1.80400 17.09000 30.67100
C  -1.93000 17.70700 32.07900
C  -1.95100 19.26000 31.85000
C  -1.77000 19.33900 30.32600
C  -3.19700 19.89600 32.51500
C  -0.85400 17.21100 33.12300
C  -0.17600 18.20500 34.07800
H  0.05700 17.66900 35.53600
N  -1.86800 19.87100 27.24800
C  -1.97200 20.82700 28.24900
C  -1.98000 22.12700 27.59300
C  -2.18100 21.93800 26.14900
C  -1.99400 20.45500 26.05800
C  -2.02200 23.45300 28.34800
C  -2.41500 22.93500 24.99000
O  -2.51000 22.58000 23.78500
C  -2.35100 24.46400 25.33200
N  -1.69600 17.40100 25.44400
C  -1.89500 18.36500 24.57400
C  -1.77600 17.76600 23.13800
C  -1.61100 16.23600 23.34700
C  -1.75100 16.14800 24.91500
C  -2.89400 18.21100 22.11400
C  -0.39500 15.55200 22.58700
C  0.99700 16.23100 22.84600
N  -1.84200 15.76800 27.83800
C  -1.84600 14.68200 26.94000
C  -2.00400 13.43700 27.61200
C  -2.01300 13.78900 28.96100
C  -1.83200 15.22000 29.02200
C  -2.04900 12.05600 27.02000
C  -2.26500 13.35700 30.39300
O  -2.44100 12.26600 30.84900
C  -1.91900 14.55500 31.26700
C  -0.61300 14.20100 31.95200
O  0.42000 13.87000 31.42900
O  -0.84100 14.02700 33.31200
C  0.27900 13.45700 34.13600
H  -1.95300 21.39900 30.32000
H  -2.07100 20.31100 23.85700
H  -1.65000 14.08200 24.77200
H  -2.83400 17.26500 32.49800
H  -1.07500 19.75100 32.27300
H  -3.73600 20.36700 31.69300
H  -2.78200 20.55300 33.27900
H  -3.77700 19.12400 33.02300
H  -0.03200 16.69100 32.63100
H  -1.22300 16.44300 33.80300
H  -0.71200 19.15300 34.13400
H  0.84800 18.28900 33.71400
H  -1.61400 23.28300 29.34400
H  -3.03800 23.84000 28.42900
H  -1.39800 24.18000 27.82800
H  -2.57000 25.06400 24.44800
H  -1.34400 24.68300 25.68800
H  -3.08600 24.86400 26.03000
H  -0.84100 18.21800 22.80800
H  -2.54900 15.86200 22.93800
H  -2.38800 18.68800 21.27400
H  -3.67000 18.82200 22.57400
H  -3.49800 17.43300 21.64600
H  -0.63500 15.77400 21.54700
H  -0.47500 14.46900 22.68500
H  0.89000 17.21600 23.30000
H  1.63700 16.21700 21.96300
H  1.50400 15.60900 23.58400
H  -1.16400 12.07200 26.38400
H  -2.98000 11.95100 26.46200
H  -1.77000 11.30500 27.75800
H  -2.60200 14.69900 32.10400
H  1.26400 13.69900 33.73700
H  0.05400 12.39000 34.15600
H  0.23700 13.81200 35.16600
Mg 27.02400 50.60100 26.40300
C  24.85200 51.32900 29.17000
C  29.21700 49.29500 28.63200
C  29.14400 50.14000 23.87200
C  24.46700 51.71000 24.23200
N  26.94300 50.19200 28.62800
C  25.92400 50.57500 29.53300
C  26.39100 50.26900 30.95500
C  27.87700 49.80900 30.75700
C  27.98800 49.64500 29.22800
C  28.98100 50.73400 31.38900
C  25.35100 49.27300 31.68200
C  24.49500 49.75600 32.86600
H  24.34200 48.74300 33.99700
N  28.92800 49.87400 26.24300
C  29.68700 49.38000 27.31800
C  30.99700 48.96500 26.88300
C  31.07700 49.33500 25.51400
C  29.70300 49.79700 25.13800
C  31.99400 48.13400 27.70200
C  32.20600 49.36100 24.55600
O  31.97900 49.67500 23.38000
C  33.63300 49.02600 25.05400
N  26.84900 50.86300 24.37500
C  27.84600 50.58100 23.57200
C  27.39100 50.81100 22.13100
C  25.83600 51.13100 22.22700
C  25.66800 51.13300 23.67400
C  28.33200 51.87000 21.43500
C  24.93800 50.04000 21.50000
C  23.51700 50.46600 21.09100
N  25.08700 51.35600 26.60500
C  24.20800 51.84000 25.64300
C  23.01700 52.39400 26.22700
C  23.36100 52.30100 27.60200
C  24.55400 51.60000 27.78500
C  21.79400 52.96200 25.60700
C  22.80200 52.62400 28.94000
O  21.86400 53.35200 29.25900
C  23.77300 51.89900 30.00000
C  24.24400 53.01100 30.86400
O  25.15500 53.76500 30.63100
O  23.59700 52.84600 32.05800
C  23.98400 53.94700 33.03000
H  30.06300 49.16800 29.31000
H  29.72200 49.90700 22.97500
H  23.69400 51.94100 23.49700
H  26.37100 51.19100 31.53600
H  27.95500 48.81300 31.19400
H  29.76800 50.08600 31.77600
H  28.51800 51.23700 32.23800
H  29.41000 51.40600 30.64500
H  26.01000 48.47400 32.02200
H  24.79100 48.73800 30.91500
H  23.48300 50.00400 32.54700
H  24.97800 50.65900 33.23800
H  32.73400 48.81200 28.12700
H  32.51200 47.34500 27.15700
H  31.43500 47.64400 28.50000
H  33.62900 47.96100 25.28200
H  33.80000 49.66800 25.91900
H  34.22500 49.28300 24.17500
H  27.54000 49.95300 21.47500
H  25.66200 52.12700 21.81800
H  27.81100 52.78000 21.13900
H  28.81500 51.45600 20.55000
H  29.19900 52.09000 22.05800
H  24.83000 49.28400 22.27700
H  25.52800 49.56500 20.71700
H  23.46600 51.49500 21.44700
H  22.75800 49.85300 21.57600
H  23.28000 50.52800 20.02900
H  21.80000 54.05100 25.55900
H  20.93400 52.63500 26.19200
H  21.72800 52.54700 24.60100
H  23.25500 51.10400 30.53700
H  23.94700 54.99900 32.74900
H  24.94500 53.68100 33.47100
H  23.16400 53.86100 33.74300

