158

Mg 25.43400 1.22600 30.09900
C  27.73200 1.04400 32.76800
C  22.96100 1.45600 32.33800
C  23.47900 1.32400 27.47300
C  28.24100 0.59300 27.87800
N  25.41000 1.16100 32.32300
C  26.43300 1.23900 33.20600
C  25.88300 1.49500 34.64600
C  24.35200 1.29800 34.50500
C  24.20100 1.29300 32.96500
C  23.67200 0.06000 35.17800
C  26.29800 2.86200 35.09900
C  27.10500 2.95100 36.40800
H  26.45000 3.74800 37.55400
N  23.44900 1.44100 29.91900
C  22.53900 1.45400 30.92800
C  21.20300 1.60700 30.38100
C  21.35400 1.60800 28.98200
C  22.84000 1.48000 28.71300
C  19.94300 1.77800 31.20700
C  20.27600 1.65200 27.85700
O  20.52600 1.74800 26.68900
C  18.80100 1.59500 28.20200
N  25.83100 0.79400 27.93800
C  24.77900 1.02600 27.06300
C  25.25300 1.14600 25.61900
C  26.81500 1.04300 25.80200
C  26.97400 0.81200 27.30900
C  24.61200 0.09900 24.59900
C  27.63300 2.26900 25.28300
C  29.07000 2.09500 24.61600
N  27.48400 0.87700 30.21200
C  28.48400 0.51900 29.23400
C  29.71200 0.34500 29.87700
C  29.41700 0.58100 31.24000
C  28.07600 0.87700 31.39700
C  31.12900 0.16200 29.28600
C  30.04500 0.66500 32.60800
O  31.16700 0.46200 32.92200
C  29.02000 1.13000 33.60900
C  28.93200 0.12100 34.68800
O  28.33900 -0.95000 34.64300
O  29.55100 0.54800 35.84200
C  29.34800 -0.18400 37.09900
H  22.06400 1.53600 32.95500
H  22.91700 1.45300 26.54500
H  29.11800 0.58000 27.22800
H  26.33400 0.72700 35.27500
H  23.82800 2.24400 34.64000
H  22.86700 0.45600 35.79700
H  24.38500 -0.52800 35.75500
H  23.11000 -0.63000 34.54700
H  25.38500 3.44800 35.20800
H  26.92500 3.24400 34.29400
H  27.93500 3.59300 36.11300
H  27.54300 2.00000 36.71000
H  19.32500 2.61400 30.88000
H  20.16700 1.84000 32.27100
H  19.42700 0.82000 31.25700
H  18.34000 2.51600 28.55800
H  18.61700 0.77600 28.89700
H  18.22700 1.23000 27.35000
H  25.00800 2.12900 25.21800
H  27.26700 0.20600 25.26900
H  23.98200 -0.61800 25.12500
H  25.40000 -0.50300 24.14700
H  23.98100 0.57600 23.84900
H  27.78700 2.98800 26.08800
H  26.99500 2.78700 24.56600
H  29.47800 1.10200 24.80000
H  29.75300 2.77700 25.12200
H  28.94300 2.32000 23.55700
H  31.33600 0.95900 28.57300
H  31.17100 -0.71100 28.63500
H  31.76000 0.14400 30.17400
H  29.13800 2.14100 33.99900
H  30.34900 -0.20200 37.52900
H  28.98000 -1.20000 36.95300
H  28.77600 0.37100 37.84200
Mg 40.11400 9.50700 29.07200
C  42.44500 10.85200 31.62700
C  37.97400 8.72300 31.53000
C  38.15900 8.11900 26.74300
C  42.53200 10.10400 26.80700
N  40.34300 9.60000 31.31000
C  41.19900 10.30800 32.13700
C  40.62200 10.38700 33.52400
C  39.28200 9.43800 33.53600
C  39.13700 9.23100 32.03800
C  39.35600 8.22200 34.42200
C  40.24700 11.76700 34.05100
C  39.90500 11.87800 35.56600
H  40.86000 12.44300 36.56400
N  38.27500 8.59300 29.06400
C  37.63400 8.34900 30.23000
C  36.43700 7.55700 29.86000
C  36.37400 7.49300 28.46500
C  37.64100 8.09700 28.03000
C  35.57500 6.91000 30.93200
C  35.32700 6.87100 27.52900
O  35.58500 6.88800 26.32600
C  34.01800 6.30100 27.98100
N  40.30300 9.19300 27.12700
C  39.38600 8.61500 26.29300
C  39.80900 8.54800 24.74800
C  41.21100 9.22900 24.79400
C  41.36100 9.56800 26.34500
C  39.84000 7.10800 24.17800
C  41.49800 10.31200 23.81400
C  41.06300 11.76800 24.10300
N  42.04100 10.41500 29.13500
C  42.91300 10.60000 28.07900
C  44.09800 11.23700 28.52700
C  43.97500 11.35200 29.92000
C  42.74400 10.83500 30.25800
C  45.24400 11.58400 27.66900
C  44.58800 11.85300 31.11400
O  45.58200 12.49400 31.28000
C  43.48900 11.59800 32.33300
C  44.00900 10.79700 33.50500
O  44.27400 9.63400 33.65600
O  44.09700 11.70700 34.51600
C  44.26700 11.07600 35.85600
H  37.19000 8.72700 32.29000
H  37.67000 7.57300 25.93300
H  43.31600 10.28800 26.06900
H  41.39700 9.95900 34.16100
H  38.47700 10.07100 33.90900
H  40.16400 8.27000 35.15200
H  39.51100 7.42200 33.69900
H  38.45500 8.30300 35.03100
H  39.30100 12.03400 33.58000
H  41.09900 12.41600 33.85100
H  39.73700 10.84100 35.85800
H  38.98600 12.43900 35.73300
H  36.18300 6.21200 31.50800
H  34.71200 6.33300 30.60000
H  35.13500 7.65100 31.59900
H  33.76800 7.01200 28.76900
H  34.19700 5.26100 28.25500
H  33.23000 6.49500 27.25400
H  39.21800 9.15100 24.05800
H  42.03500 8.55600 24.55900
H  40.68000 6.83900 23.53700
H  38.85700 7.02300 23.71500
H  39.86800 6.42900 25.03100
H  41.14700 9.97900 22.83700
H  42.57100 10.34000 23.62500
H  40.74900 12.19200 23.14900
H  41.85700 12.41700 24.47400
H  40.22300 11.74900 24.79700
H  45.55300 12.59800 27.92200
H  44.88900 11.47900 26.64400
H  46.10300 10.99200 27.98600
H  43.26000 12.60500 32.68200
H  45.22500 10.56600 35.95700
H  43.46600 10.35900 36.03900
H  44.21400 11.86900 36.60200

