158

Mg -2.36100 16.33900 26.86400
C  -2.96600 14.15800 29.45900
C  -2.35100 18.89500 29.07300
C  -2.05000 18.40400 24.21000
C  -2.76200 13.60700 24.58700
N  -2.57900 16.43800 29.04100
C  -2.69700 15.39200 29.91700
C  -2.62700 15.94800 31.37400
C  -2.83600 17.51600 31.18100
C  -2.59800 17.67800 29.66200
C  -4.15500 18.07600 31.61200
C  -1.35700 15.53000 32.11000
C  -0.88400 16.22400 33.39100
H  -0.50300 15.43100 34.58400
N  -2.20200 18.47800 26.70800
C  -2.24200 19.30300 27.73800
C  -1.96500 20.69200 27.22700
C  -1.70900 20.59400 25.86100
C  -1.99000 19.10200 25.52400
C  -1.99700 21.93100 28.10600
C  -1.31700 21.54500 24.79400
O  -1.23500 21.22200 23.62400
C  -0.85300 22.88800 25.18100
N  -2.52700 16.04800 24.71000
C  -2.21800 17.07200 23.81300
C  -2.25400 16.62900 22.38000
C  -2.29200 15.09400 22.56300
C  -2.55600 14.89000 24.03200
C  -3.43500 17.08600 21.49700
C  -1.16600 14.32000 21.87400
C  0.32300 14.43800 22.39400
N  -2.79100 14.31900 26.98600
C  -2.84500 13.36200 25.99500
C  -2.98000 12.06100 26.57000
C  -3.07500 12.30800 27.95000
C  -2.92800 13.73300 28.13100
C  -3.18000 10.77000 25.87800
C  -3.21800 11.63700 29.22300
O  -3.27300 10.44000 29.49300
C  -3.16700 12.90300 30.31000
C  -2.09500 12.42300 31.21800
O  -0.92700 12.72900 31.12300
O  -2.69800 11.66400 32.16800
C  -1.82400 11.24100 33.27100
H  -2.45300 19.69400 29.81100
H  -1.96500 19.04300 23.32900
H  -2.64300 12.78100 23.88200
H  -3.42600 15.54200 31.99400
H  -2.02100 18.17000 31.49300
H  -4.91000 17.29900 31.49100
H  -4.36000 19.03200 31.13000
H  -4.09200 18.32000 32.67200
H  -0.54800 15.40100 31.39100
H  -1.60100 14.52700 32.46100
H  -1.71800 16.77900 33.82100
H  -0.16600 16.96700 33.04300
H  -0.93900 22.18900 28.15900
H  -2.49300 21.70600 29.05000
H  -2.56700 22.65600 27.52500
H  -1.48600 23.53200 25.79100
H  -0.56700 23.52500 24.34500
H  0.04600 22.64900 25.74900
H  -1.38400 17.10400 21.92800
H  -3.14400 14.64800 22.05000
H  -4.27700 16.39400 21.47200
H  -3.22600 17.64200 20.58300
H  -3.83500 17.90600 22.09400
H  -1.03100 14.60000 20.82900
H  -1.48100 13.27900 21.94200
H  0.47600 15.41400 22.85400
H  0.81100 14.46800 21.42000
H  0.74700 13.64900 23.01500
H  -3.15400 10.92900 24.80000
H  -4.12300 10.49600 26.35100
H  -2.55000 10.03800 26.38400
H  -4.07000 12.97800 30.91600
H  -1.42100 10.25600 33.03500
H  -2.49700 11.15100 34.12400
H  -1.05700 11.98100 33.50000
Mg 16.05300 -3.16800 27.73300
C  15.04100 -1.07600 30.27100
C  17.91800 -4.99100 29.99800
C  17.48400 -4.95500 25.13600
C  14.64100 -1.09900 25.27600
N  16.48200 -2.88900 29.90900
C  15.96700 -1.98000 30.79600
C  16.52400 -2.07800 32.25300
C  17.59400 -3.30200 32.03200
C  17.34500 -3.74900 30.54700
C  19.14600 -2.93600 32.27400
C  15.43500 -2.45700 33.23000
C  15.43100 -1.61900 34.49100
H  16.78200 -0.92900 34.91600
N  17.38100 -4.77300 27.61600
C  18.00500 -5.41500 28.68200
C  18.78300 -6.54300 28.17100
C  18.71500 -6.46600 26.74900
C  17.86900 -5.33800 26.43500
C  19.53200 -7.49900 29.11800
C  19.30200 -7.43800 25.78400
O  19.11000 -7.42400 24.58400
C  20.32600 -8.55400 26.31000
N  16.03800 -3.04900 25.47500
C  16.69700 -3.86200 24.69200
C  16.34600 -3.72500 23.17500
C  15.19900 -2.57700 23.26600
C  15.25300 -2.23700 24.76200
C  17.55800 -3.34700 22.31000
C  13.77400 -3.14200 22.82200
C  13.38700 -2.78100 21.41700
N  14.95200 -1.54800 27.73100
C  14.44900 -0.83200 26.68300
C  13.69300 0.33200 27.26100
C  13.89000 0.28000 28.68500
C  14.69400 -0.84400 28.89800
C  12.80600 1.30600 26.48500
C  13.53300 0.89800 29.94200
O  12.82700 1.87500 30.21000
C  14.31000 0.08700 31.00700
C  15.20600 1.19900 31.52500
O  16.11400 1.66900 30.89100
O  14.77200 1.61500 32.71600
C  15.42900 2.81000 33.27500
H  18.57700 -5.46600 30.72800
H  17.85500 -5.57700 24.31900
H  14.08000 -0.42700 24.62400
H  16.99500 -1.11500 32.44900
H  17.26600 -4.15500 32.62500
H  19.56900 -3.59500 33.03200
H  19.33000 -1.90700 32.58200
H  19.71600 -3.07400 31.35500
H  15.43600 -3.53200 33.40700
H  14.50500 -2.15500 32.74800
H  15.08600 -2.20100 35.34600
H  14.71600 -0.80200 34.39300
H  19.38600 -8.52800 28.78800
H  19.27000 -7.36700 30.16700
H  20.60900 -7.33200 29.10600
H  20.81800 -8.94600 25.42000
H  19.83700 -9.41200 26.77100
H  21.16700 -8.14400 26.86900
H  15.85100 -4.64600 22.86800
H  15.49900 -1.78700 22.57800
H  18.36000 -3.99600 22.66000
H  17.96500 -2.35100 22.48400
H  17.30800 -3.60700 21.28100
H  13.10000 -2.67900 23.54200
H  13.65600 -4.22500 22.84800
H  13.75000 -3.62800 20.83500
H  13.85800 -1.83600 21.14800
H  12.29800 -2.75400 21.36500
H  12.46900 0.92000 25.52400
H  13.31700 2.24400 26.27000
H  11.93000 1.57600 27.07500
H  13.63400 -0.26700 31.78500
H  15.71700 3.58800 32.56700
H  16.28300 2.53400 33.89400
H  14.54800 3.02600 33.87900

