158

Mg 46.56900 24.37400 28.95500
C  47.63000 26.71400 31.29700
C  45.72100 22.32200 31.55800
C  46.10600 21.92700 26.70300
C  47.85500 26.48500 26.41800
N  46.79800 24.44600 31.21200
C  47.03400 25.61200 31.96800
C  46.76100 25.44000 33.47200
C  46.29900 23.95800 33.49700
C  46.18100 23.53600 32.03400
C  47.15600 22.99100 34.35700
C  45.69100 26.39900 33.97500
C  45.52500 26.83400 35.52800
H  46.33900 26.15700 36.70300
N  45.85200 22.45500 29.11100
C  45.52100 21.82000 30.26600
C  45.09100 20.45500 29.90900
C  45.10900 20.27200 28.50600
C  45.73800 21.53800 28.05000
C  44.66500 19.40600 30.89800
C  44.67900 19.13200 27.60200
O  44.71700 19.19100 26.37600
C  44.05600 18.06900 28.25900
N  47.19900 24.14800 26.88000
C  46.70100 23.09900 26.16200
C  46.93400 23.28400 24.64700
C  47.49600 24.71000 24.59100
C  47.47800 25.21900 26.01600
C  47.89500 22.24500 24.03500
C  46.79700 25.66900 23.56700
C  47.79200 26.53700 22.71500
N  47.66500 26.15800 28.86200
C  47.98400 26.94000 27.72600
C  48.67900 28.20100 28.15900
C  48.48300 28.12300 29.55100
C  47.93000 26.87300 29.93600
C  49.46900 29.14500 27.36400
C  48.75400 28.89800 30.77300
O  49.29800 29.99000 30.92200
C  48.13600 27.93000 31.91600
C  49.17900 27.89400 32.99500
O  50.31900 27.33100 32.92200
O  48.70900 28.43400 34.12500
C  49.50500 28.51700 35.37200
H  45.43800 21.68400 32.39800
H  46.07900 21.12800 25.95900
H  48.29600 27.15200 25.67500
H  47.69600 25.57400 34.01500
H  45.25400 23.85000 33.78800
H  47.79700 23.63600 34.95700
H  47.72200 22.37600 33.65700
H  46.51400 22.27600 34.87100
H  44.68500 26.10100 33.68000
H  45.90000 27.32300 33.43600
H  44.46600 26.70100 35.75100
H  45.54300 27.92300 35.57200
H  44.76700 19.67800 31.94800
H  45.32800 18.57200 30.66700
H  43.62800 19.13500 30.70100
H  43.16700 18.38900 28.80300
H  44.86400 17.63900 28.85000
H  43.86000 17.34200 27.47100
H  46.03200 23.14600 24.05000
H  48.53900 24.58500 24.30300
H  48.31100 21.68700 24.87400
H  48.77000 22.64100 23.52000
H  47.46500 21.58300 23.28400
H  46.15200 26.28300 24.19600
H  46.12800 25.14400 22.88600
H  47.43700 27.56700 22.69200
H  47.76700 26.25200 21.66300
H  48.79300 26.64100 23.13500
H  50.31000 29.45800 27.98200
H  48.92200 30.08300 27.27300
H  49.84800 28.64500 26.47300
H  47.36100 28.59000 32.30800
H  49.46900 29.55800 35.69500
H  50.53900 28.17300 35.33800
H  49.00600 27.83200 36.05700
Mg 9.79400 47.81000 26.50500
C  7.69900 48.18700 29.42800
C  12.31400 49.22200 28.34500
C  11.62500 47.35800 23.89600
C  6.86600 47.53900 24.69600
N  9.97200 48.51000 28.70800
C  9.02500 48.46700 29.68700
C  9.72000 48.91600 31.00400
C  10.97700 49.69000 30.53100
C  11.15900 49.04800 29.15400
C  10.73700 51.21100 30.34800
C  10.19800 47.71600 31.93300
C  10.05900 47.87600 33.41800
H  9.75200 46.66000 34.33500
N  11.77500 48.25700 26.12400
C  12.64400 48.73800 27.03700
C  14.00000 48.62600 26.46600
C  13.82800 47.99100 25.21700
C  12.38600 47.86200 25.01400
C  15.24600 48.96100 27.29800
C  14.82600 47.55000 24.14800
O  14.45000 47.09000 23.09400
C  16.25900 47.61300 24.36500
N  9.30000 47.70200 24.47700
C  10.28700 47.35300 23.58200
C  9.70000 46.81600 22.31300
C  8.15600 46.95000 22.58000
C  8.06600 47.46700 23.98900
C  10.18400 47.60500 21.08600
C  7.38700 45.61800 22.30500
C  6.19900 45.71000 21.41000
N  7.69400 47.75700 26.92900
C  6.61700 47.65300 26.10200
C  5.40600 47.61300 26.77500
C  5.80200 47.79700 28.08500
C  7.17100 47.95100 28.13500
C  4.03500 47.33800 26.37400
C  5.32100 47.79500 29.47300
O  4.22500 47.65500 29.94400
C  6.56900 48.03300 30.41700
C  6.69800 46.92900 31.34700
O  7.27500 45.85800 31.13500
O  6.01300 47.22200 32.50000
C  5.64100 46.04600 33.36800
H  13.10100 49.72300 28.91100
H  12.20900 46.98100 23.05300
H  5.96500 47.31300 24.12200
H  8.99500 49.54400 31.52300
H  11.85700 49.50500 31.14700
H  11.39300 51.79300 30.99500
H  9.73100 51.52200 30.62800
H  10.88100 51.51500 29.31100
H  11.26200 47.52300 31.80100
H  9.72000 46.75400 31.74500
H  9.33300 48.64100 33.69400
H  11.02200 48.24200 33.77400
H  15.07400 48.89000 28.37200
H  15.70700 49.93400 27.13300
H  15.91500 48.15600 26.99500
H  16.51700 46.88200 25.13100
H  16.48600 48.58900 24.79300
H  16.77500 47.45400 23.41800
H  9.98400 45.76500 22.25400
H  7.80300 47.72000 21.89400
H  10.61500 48.51000 21.51600
H  9.45000 47.81100 20.30700
H  10.95600 46.97600 20.64100
H  6.98000 45.23200 23.23900
H  8.00000 44.81700 21.89300
H  5.97700 46.74200 21.13800
H  5.27600 45.40800 21.90400
H  6.31500 45.22200 20.44200
H  3.48400 48.27300 26.47100
H  3.54200 46.62900 27.03900
H  3.93500 46.93500 25.36600
H  6.44400 48.95400 30.98600
H  6.10500 46.14500 34.34900
H  5.92500 45.05700 33.00900
H  4.57200 46.07200 33.58100

