158

Mg 54.11500 23.54700 43.98700
C  51.66300 26.04200 43.25700
C  52.30400 21.22900 42.44200
C  56.83100 21.65300 44.03000
C  56.24400 26.32300 45.03000
N  52.30500 23.72100 42.77000
C  51.38400 24.68100 42.82700
C  50.10700 24.18800 42.02200
C  50.25800 22.63600 42.15900
C  51.71600 22.55600 42.47700
C  49.36100 21.93400 43.27200
C  50.04500 24.76000 40.58900
C  51.40500 24.90700 39.84200
H  51.18800 25.59500 38.41100
N  54.48400 21.67600 43.41800
C  53.64300 20.86400 42.76500
C  54.24000 19.57700 42.59500
C  55.49200 19.67200 43.19200
C  55.62200 21.07700 43.56900
C  53.58300 18.35200 41.95000
C  56.46600 18.45700 43.36800
O  56.16400 17.25900 43.13100
C  57.85500 18.67900 43.81000
N  56.24200 24.03000 44.54600
C  57.13000 22.93100 44.52300
C  58.50500 23.35800 44.92400
C  58.35500 24.87800 45.22000
C  56.88600 25.13100 44.84400
C  59.13900 22.41200 46.08600
C  59.46600 25.78700 44.55900
C  60.19200 26.67600 45.51300
N  54.07300 25.74500 44.14900
C  54.92000 26.63900 44.74900
C  54.21100 28.00200 44.90100
C  52.87200 27.72100 44.37400
C  52.88000 26.40400 43.86400
C  54.64700 29.19100 45.62200
C  51.58800 28.27700 44.12800
O  51.16700 29.39000 44.35800
C  50.68500 27.15900 43.45400
C  50.17500 27.79700 42.22300
O  50.87900 28.00500 41.25800
O  48.82600 28.02500 42.29400
C  48.10700 28.21100 40.98600
H  51.68200 20.35000 42.26300
H  57.79000 21.13000 44.01800
H  56.84000 27.14500 45.43100
H  49.12000 24.52900 42.33500
H  50.00200 22.12700 41.23000
H  48.54000 22.62700 43.45300
H  49.93900 21.87600 44.19500
H  49.04600 20.97300 42.86500
H  49.53100 25.71800 40.50500
H  49.42600 24.08800 39.99500
H  51.71300 23.86300 39.78100
H  52.07500 25.48900 40.47500
H  52.98700 18.58000 41.06600
H  52.98700 17.73800 42.62600
H  54.36800 17.67700 41.60900
H  57.76500 19.29900 44.70200
H  58.36400 19.17000 42.98100
H  58.39200 17.74400 43.96700
H  59.16700 23.27600 44.06200
H  58.38300 24.92900 46.30900
H  59.32000 22.98100 46.99800
H  60.10900 22.00300 45.80300
H  58.47500 21.56300 46.24900
H  59.03500 26.42200 43.78500
H  60.26500 25.16400 44.15700
H  60.16900 27.69500 45.12700
H  61.24000 26.38300 45.44900
H  59.84700 26.54800 46.53900
H  53.97100 29.22500 46.47700
H  54.45800 30.03800 44.96400
H  55.71500 29.09200 45.81900
H  49.86600 26.86300 44.11000
H  48.15300 27.31500 40.36700
H  48.63700 28.94300 40.37500
H  47.08900 28.59700 41.03500
Mg 27.02000 50.18200 27.34600
C  24.82400 51.07600 29.98900
C  29.43000 49.71800 29.76500
C  29.12400 49.83000 24.90900
C  24.43100 51.04600 25.10300
N  27.08400 50.32400 29.68900
C  26.03700 50.60200 30.52000
C  26.49100 50.35800 31.99300
C  28.05900 50.23100 31.86900
C  28.22900 50.07300 30.33600
C  28.80700 51.35600 32.48900
C  25.84400 49.11000 32.79600
C  24.64800 49.46000 33.76600
H  24.58300 48.85400 35.16300
N  28.99400 49.74000 27.29700
C  29.86000 49.54400 28.38400
C  31.13800 49.20400 27.84500
C  31.07200 49.40900 26.40400
C  29.70700 49.71200 26.16000
C  32.35600 49.09100 28.80300
C  32.14600 49.27800 25.37600
O  31.94700 49.51600 24.17200
C  33.50300 48.94300 25.77800
N  26.81200 50.46400 25.26600
C  27.79500 50.07800 24.45400
C  27.41600 50.04600 22.95000
C  25.87400 50.30500 23.10300
C  25.64600 50.58600 24.55500
C  28.12900 51.00000 22.00600
C  24.89600 49.26100 22.53600
C  24.67400 49.48800 21.02000
N  25.04800 51.00200 27.45700
C  24.13800 51.30500 26.47500
C  22.96400 51.79300 27.05600
C  23.17100 51.70100 28.44300
C  24.45400 51.16500 28.63500
C  21.78600 52.45200 26.40700
C  22.59300 52.01500 29.78000
O  21.48600 52.41400 30.07700
C  23.71000 51.56000 30.80100
C  24.23900 52.78300 31.56400
O  24.95900 53.70600 31.14300
O  23.78700 52.70500 32.86300
C  24.33600 53.61500 33.85100
H  30.22500 49.61500 30.50700
H  29.68500 49.58400 24.00500
H  23.72300 51.22900 24.29300
H  26.22700 51.26800 32.53200
H  28.47400 49.28900 32.22800
H  29.49500 51.04000 33.27300
H  28.09300 52.01100 32.98700
H  29.41000 51.84400 31.72300
H  26.70900 48.60500 33.22700
H  25.49000 48.46100 31.99500
H  23.79200 49.04400 33.23400
H  24.41600 50.52400 33.80600
H  32.08300 49.77300 29.60900
H  33.33300 49.36100 28.40300
H  32.35700 48.03800 29.08300
H  33.81100 49.82500 26.34000
H  34.00700 48.78700 24.82500
H  33.61900 48.16500 26.53300
H  27.51600 49.03800 22.54700
H  25.59000 51.26600 22.67500
H  28.93700 51.45900 22.57700
H  27.51900 51.81800 21.62300
H  28.54200 50.46300 21.15200
H  23.92900 49.07400 23.00500
H  25.44200 48.32200 22.62900
H  25.38300 50.12800 20.49600
H  23.67500 49.86500 20.79800
H  24.78200 48.48100 20.61700
H  20.91900 52.03800 26.92000
H  21.92000 52.16700 25.36400
H  21.86400 53.50200 26.68900
H  23.40300 50.90700 31.61700
H  25.27300 54.02800 33.47500
H  24.71700 53.06100 34.70900
H  23.68400 54.46400 34.05600

