158

Mg 2.44100 -0.84900 43.23500
C  5.87200 0.01600 43.13200
C  1.71800 2.13000 41.83900
C  -0.74700 -1.98700 42.81700
C  3.47500 -4.13200 43.97800
N  3.74800 0.71800 42.43100
C  5.06200 0.96900 42.57000
C  5.40400 2.33800 42.08800
C  4.01300 3.13600 42.29800
C  3.08700 1.95500 42.19400
C  3.83800 4.00500 43.63000
C  5.78700 2.40500 40.54800
C  5.64000 1.10400 39.72900
H  6.38200 1.02400 38.41300
N  0.68800 -0.02000 42.40900
C  0.62300 1.26400 41.86300
C  -0.72800 1.56200 41.53000
C  -1.43900 0.39800 41.89500
C  -0.55000 -0.58600 42.40500
C  -1.17700 2.87700 40.91600
C  -2.99000 0.31800 41.88000
O  -3.64500 1.22500 41.35200
C  -3.70800 -0.73300 42.46200
N  1.47900 -2.80700 43.56100
C  0.13700 -3.03600 43.25200
C  -0.15000 -4.51500 43.03800
C  1.22500 -5.11100 43.45000
C  2.13400 -3.94700 43.67500
C  -1.39100 -5.04800 43.90300
C  1.72200 -6.12700 42.34800
C  1.72600 -7.63000 42.59200
N  4.26800 -1.88100 43.65400
C  4.48800 -3.16200 43.97500
C  5.87700 -3.34100 44.34300
C  6.51700 -2.12000 43.99800
C  5.49700 -1.24700 43.57500
C  6.65300 -4.60100 44.71800
C  7.79800 -1.39200 43.85300
O  8.96100 -1.70100 44.03300
C  7.37200 0.07100 43.28400
C  7.72500 1.19600 44.20000
O  8.55200 2.01900 43.95900
O  6.99500 1.15800 45.36500
C  7.21000 2.23800 46.28200
H  1.41800 3.14600 41.57700
H  -1.68800 -2.42000 42.47300
H  3.75900 -5.18300 44.06400
H  6.20800 2.71500 42.72000
H  3.88300 3.78200 41.43000
H  3.44600 5.01200 43.49000
H  4.72800 3.83700 44.23700
H  2.97500 3.59500 44.15400
H  6.76100 2.84500 40.33300
H  5.12400 3.11600 40.05500
H  4.59400 0.80200 39.66800
H  6.10100 0.31800 40.32800
H  -1.69400 2.68500 39.97600
H  -0.34300 3.55800 40.75200
H  -1.89100 3.42300 41.53300
H  -3.39100 -0.89400 43.49200
H  -3.77300 -1.62700 41.84100
H  -4.77700 -0.54000 42.54700
H  -0.31400 -4.60400 41.96500
H  1.15300 -5.70100 44.36300
H  -1.88000 -4.18300 44.35000
H  -1.13700 -5.71000 44.73200
H  -2.02700 -5.67700 43.28000
H  2.73100 -5.89600 42.00500
H  1.03400 -6.11600 41.50300
H  2.78200 -7.86900 42.71700
H  1.35700 -8.21800 41.75200
H  1.13600 -7.94600 43.45300
H  6.86100 -4.81200 45.76700
H  7.63200 -4.63500 44.23900
H  6.08300 -5.45500 44.35200
H  7.89300 0.25300 42.34400
H  6.41700 2.16700 47.02600
H  7.10500 3.17000 45.72700
H  8.14200 2.17600 46.84300
Mg 47.72400 45.95700 43.55300
C  44.47500 46.34500 42.47500
C  47.67200 42.69300 42.35300
C  50.96300 45.63300 44.24000
C  47.72800 49.16000 44.82700
N  46.28300 44.75100 42.25400
C  45.00400 45.14000 41.99100
C  44.17900 43.96600 41.42000
C  45.13100 42.72500 41.49900
C  46.40900 43.36300 42.10500
C  44.61500 41.47900 42.34100
C  43.55600 44.31500 39.98100
C  42.27600 43.64200 39.59100
H  42.53100 42.58000 38.49800
N  49.13500 44.32200 43.46000
C  48.93100 43.11000 42.89600
C  50.15100 42.26500 43.03600
C  51.14300 43.08600 43.63400
C  50.41200 44.42300 43.83300
C  50.18100 40.84000 42.68100
C  52.52500 42.67100 43.91600
O  52.85000 41.59200 43.54700
C  53.53800 43.71500 44.46000
N  49.17100 47.29500 44.22900
C  50.43700 46.91000 44.49700
C  51.28400 48.10300 45.10200
C  50.26900 49.28200 45.17300
C  48.96400 48.57100 44.75400
C  51.91500 47.83300 46.43800
C  50.67200 50.47200 44.20200
C  51.31200 51.70300 44.88700
N  46.40600 47.49400 43.54400
C  46.55000 48.71300 44.26100
C  45.27500 49.37100 44.27100
C  44.44500 48.47800 43.65900
C  45.15800 47.36400 43.19900
C  45.02000 50.85800 44.83900
C  43.06900 48.27400 43.25200
O  42.05300 48.97000 43.25100
C  43.11300 46.91500 42.39900
C  42.04500 45.98100 42.75200
O  41.06200 45.76200 42.06700
O  42.20300 45.46200 44.03900
C  41.21800 44.49100 44.43700
H  47.63200 41.67500 41.96200
H  52.02900 45.67900 44.47400
H  47.61300 50.09900 45.37300
H  43.42700 43.61900 42.12900
H  45.39100 42.32800 40.51800
H  45.41000 41.02500 42.93300
H  44.13700 40.79900 41.63600
H  43.79500 41.71500 43.02000
H  44.30300 44.01400 39.24700
H  43.33200 45.38100 39.94300
H  41.52000 44.32900 39.21100
H  41.92900 43.10700 40.47500
H  50.05400 40.61900 41.62100
H  49.30100 40.36900 43.11900
H  50.99900 40.23300 43.07100
H  53.64500 44.46900 43.68000
H  54.49000 43.27400 44.75400
H  53.05100 44.09900 45.35700
H  52.05700 48.20700 44.34100
H  50.03900 49.58200 46.19500
H  53.00500 47.81500 46.45300
H  51.41400 46.94500 46.82600
H  51.64800 48.62100 47.14300
H  49.77500 50.60800 43.59600
H  51.42800 50.09800 43.51200
H  52.26900 51.95600 44.43100
H  51.55200 51.33200 45.88300
H  50.56700 52.49400 44.79200
H  44.00300 51.11600 45.13400
H  45.28500 51.59200 44.07800
H  45.57800 50.97600 45.76800
H  42.88200 47.34600 41.42500
H  41.57700 43.51900 44.09900
H  40.25000 44.55800 43.94000
H  41.08100 44.56600 45.51500

