158

Mg 2.20700 -1.74800 43.53900
C  5.59600 -1.14600 42.69600
C  1.56900 1.37000 42.15000
C  -0.97700 -2.67800 43.25200
C  3.12500 -5.07800 44.42300
N  3.40100 -0.04400 42.50500
C  4.70500 -0.18900 42.14100
C  5.12900 1.06200 41.26800
C  3.85900 1.96100 41.09500
C  2.92700 1.11100 41.97000
C  3.85700 3.50300 41.49500
C  5.78600 0.62500 39.89500
C  7.00100 1.51900 39.50900
H  6.83200 2.08200 38.06200
N  0.46800 -0.70500 43.09500
C  0.49300 0.54900 42.58800
C  -0.83000 0.92000 42.26200
C  -1.62000 -0.28700 42.33800
C  -0.76500 -1.32100 42.87600
C  -1.22700 2.26100 41.80900
C  -3.07000 -0.43300 41.92300
O  -3.78700 0.53300 41.57800
C  -3.77900 -1.67200 42.09900
N  1.23300 -3.60800 43.87800
C  -0.10000 -3.70100 43.75200
C  -0.62700 -5.09400 44.18300
C  0.63900 -5.86400 44.59100
C  1.77000 -4.78000 44.29800
C  -1.70400 -4.89100 45.35000
C  0.86700 -7.29800 44.02500
C  1.56200 -7.23900 42.63800
N  4.06600 -2.93200 43.78000
C  4.26200 -4.26700 44.19300
C  5.69000 -4.57600 44.17500
C  6.24100 -3.32500 43.65400
C  5.23100 -2.30600 43.39200
C  6.32600 -5.91500 44.48900
C  7.52600 -2.71100 43.25900
O  8.65900 -3.13500 43.30100
C  7.11900 -1.27700 42.62100
C  7.79400 -0.07300 43.28600
O  8.39100 0.76400 42.63200
O  7.68100 -0.01400 44.60400
C  8.33200 1.13000 45.29100
H  1.40000 2.37500 41.75800
H  -1.98900 -3.08700 43.29100
H  3.42000 -6.11300 44.60800
H  5.92200 1.58400 41.80500
H  3.47600 2.06100 40.07900
H  3.11300 3.74900 42.25300
H  3.64700 4.15200 40.64500
H  4.81500 3.82600 41.90100
H  5.07900 0.83300 39.09200
H  5.99300 -0.44300 39.95800
H  7.89200 0.90400 39.38600
H  7.21000 2.30300 40.23600
H  -0.56900 3.06400 42.14000
H  -2.27800 2.50100 41.96800
H  -1.04900 2.10900 40.74500
H  -4.62200 -1.74000 41.41100
H  -3.95200 -1.72000 43.17400
H  -3.15200 -2.52000 41.82300
H  -1.15700 -5.62300 43.39100
H  0.71700 -6.07400 45.65700
H  -2.05000 -3.86500 45.47600
H  -1.27100 -5.15300 46.31600
H  -2.51800 -5.58500 45.13600
H  -0.04000 -7.90200 43.99400
H  1.39100 -7.89300 44.77400
H  1.06000 -7.95600 41.98800
H  2.61500 -7.51600 42.68100
H  1.65000 -6.19200 42.34900
H  6.02000 -6.60500 43.70300
H  6.02600 -6.30400 45.46300
H  7.39800 -5.71500 44.47800
H  7.53800 -1.25400 41.61500
H  9.40200 0.92700 45.34000
H  7.84600 1.16300 46.26600
H  8.31800 2.08800 44.77100
Mg 9.43400 48.79800 24.65300
C  7.31300 49.46300 27.36500
C  12.04700 50.05900 26.49500
C  11.38500 48.38800 21.96900
C  6.60100 48.09300 22.65300
N  9.58700 49.59000 26.67600
C  8.65300 49.61500 27.70200
C  9.32800 50.07000 29.00500
C  10.57800 50.78800 28.48200
C  10.76100 50.11100 27.15000
C  10.45300 52.31400 28.27400
C  9.56200 48.87600 29.97000
C  8.75500 48.91400 31.26100
H  8.22200 47.54200 31.81300
N  11.52300 48.96300 24.25600
C  12.42500 49.47900 25.20700
C  13.79300 49.41200 24.53400
C  13.60200 48.81200 23.24800
C  12.12300 48.64800 23.14400
C  15.06400 49.66200 25.38700
C  14.57200 48.33800 22.14300
O  14.16000 47.73100 21.21400
C  16.05100 48.54600 22.23400
N  9.11600 48.46900 22.64200
C  10.08600 48.25600 21.68000
C  9.53900 47.92200 20.30600
C  8.03100 47.60200 20.65100
C  7.87400 48.14000 22.03200
C  9.81500 48.87100 19.17900
C  7.55500 46.05900 20.46700
C  8.25300 45.04300 21.34300
N  7.40800 48.95200 24.82400
C  6.38100 48.59700 23.95100
C  5.09900 48.71500 24.65600
C  5.39500 49.05400 25.92200
C  6.83900 49.15800 26.02000
C  3.74100 48.44500 24.12200
C  4.81700 49.25800 27.23600
O  3.66300 49.24300 27.64600
C  6.05700 49.59000 28.19300
C  5.91400 48.55600 29.25100
O  5.89800 47.33100 29.08400
O  5.58700 49.21400 30.43300
C  5.00700 48.39900 31.52200
H  12.86700 50.58100 26.99200
H  12.08500 48.27400 21.13900
H  5.78800 47.66300 22.06600
H  8.70400 50.78500 29.54100
H  11.33500 50.44200 29.18500
H  9.43700 52.54700 27.95600
H  11.12500 52.75200 27.53600
H  10.57100 52.92800 29.16700
H  10.58700 48.77000 30.32600
H  9.28400 47.97800 29.41800
H  7.86000 49.52500 31.14800
H  9.25300 49.49700 32.03600
H  14.85800 49.85500 26.44000
H  15.55000 50.59500 25.10000
H  15.79300 48.85400 25.33900
H  16.30500 48.69700 23.28400
H  16.41500 49.43800 21.72500
H  16.48800 47.60900 21.89000
H  9.96000 46.98400 19.94300
H  7.37900 48.15700 19.97500
H  10.43000 49.68400 19.56300
H  8.88700 49.35500 18.87600
H  10.28800 48.47100 18.28200
H  7.73300 45.81600 19.41900
H  6.48400 45.91700 20.61200
H  8.57900 45.45500 22.29800
H  9.15200 44.61400 20.90100
H  7.61700 44.17300 21.50300
H  3.67700 48.13400 23.07900
H  3.10400 49.32300 24.22800
H  3.17200 47.65200 24.60700
H  5.90800 50.58300 28.61700
H  5.58400 47.47500 31.56900
H  3.95900 48.23500 31.27200
H  5.12400 48.94500 32.45900

