158

Mg 1.10700 7.56300 25.69600
C  1.83500 9.25900 28.59500
C  1.42700 4.56000 27.46500
C  0.58800 5.99300 22.78500
C  1.59400 10.64700 23.88300
N  1.96100 6.90700 27.70200
C  1.87600 7.89700 28.77900
C  1.90000 7.12600 30.11300
C  1.96800 5.64300 29.80400
C  1.80300 5.67700 28.20100
C  3.30200 4.96100 30.11800
C  0.66400 7.56900 30.99700
C  1.07100 7.97400 32.42300
H  2.37900 7.45400 33.13900
N  0.87700 5.51600 25.24000
C  1.02800 4.44900 26.06100
C  0.86200 3.22300 25.35100
C  0.65000 3.60700 23.95700
C  0.69700 5.13100 23.95500
C  0.91000 1.81800 25.95900
C  0.48500 2.75500 22.67900
O  0.30200 3.16100 21.57500
C  0.49400 1.26000 22.81800
N  1.16500 8.24800 23.67200
C  0.79600 7.38600 22.67700
C  0.91700 8.04600 21.36000
C  0.82400 9.52100 21.75100
C  1.22700 9.49400 23.21900
C  2.20700 7.59300 20.56600
C  -0.63400 10.16200 21.58500
C  -0.71600 11.59800 21.02100
N  1.59000 9.54300 26.08100
C  1.76400 10.74700 25.27400
C  1.83100 11.88100 26.14300
C  1.79100 11.36800 27.48100
C  1.75300 9.97700 27.38600
C  1.86600 13.34900 25.65300
C  1.96700 11.75600 28.91500
O  2.06300 12.82100 29.47500
C  1.97600 10.39300 29.70600
C  3.27300 10.40500 30.52200
O  4.46300 10.16100 30.23500
O  2.91100 10.91100 31.73900
C  3.86800 10.96900 32.81000
H  1.46900 3.63100 28.03900
H  0.33800 5.51300 21.83600
H  1.65200 11.61200 23.37500
H  2.83700 7.41700 30.58800
H  1.14100 5.03500 30.17100
H  3.91600 5.63700 30.71400
H  3.87200 4.79700 29.20400
H  3.13800 4.02200 30.64700
H  -0.01600 6.72000 30.93500
H  0.17600 8.41700 30.51600
H  0.19200 7.73100 33.02100
H  1.17300 9.05900 32.39800
H  -0.01000 1.23800 25.88400
H  1.11000 1.78900 27.03000
H  1.69800 1.20300 25.52400
H  1.46600 0.76900 22.88000
H  0.14900 0.77300 21.90600
H  -0.24400 1.03800 23.58800
H  0.02500 7.78600 20.79100
H  1.51000 10.10500 21.13800
H  2.27900 6.51900 20.40000
H  3.12400 8.03400 20.95600
H  1.94500 8.03900 19.60700
H  -1.04100 10.26900 22.59000
H  -1.33600 9.52900 21.04100
H  -1.24600 11.72300 20.07700
H  0.27300 12.05500 21.00500
H  -1.28700 12.18800 21.73800
H  1.58100 14.01500 26.46700
H  1.02900 13.28500 24.95700
H  2.77900 13.69600 25.16900
H  1.12600 10.41100 30.38800
H  3.30000 10.38400 33.53300
H  3.99500 11.96100 33.24200
H  4.84900 10.60100 32.51000
Mg 30.75500 58.55900 40.33800
C  27.85700 56.49900 39.48100
C  32.69200 55.91300 39.49600
C  33.31100 60.63100 40.43500
C  28.55000 61.26800 40.58900
N  30.28300 56.48100 39.49500
C  29.11600 55.80600 39.29500
C  29.37100 54.40900 38.68900
C  30.83600 54.17600 39.21000
C  31.30200 55.61900 39.45000
C  30.89600 53.36000 40.53600
C  29.27500 54.41000 37.15000
C  28.02800 53.52000 36.53300
H  27.15700 54.18800 35.53600
N  32.73600 58.37000 40.01700
C  33.30100 57.15900 39.65200
C  34.69100 57.32800 39.42400
C  35.04300 58.65700 39.86500
C  33.69900 59.31200 40.24600
C  35.69800 56.28000 38.82000
C  36.40800 59.28100 39.93800
O  37.35600 58.65900 39.38400
C  36.70000 60.72000 40.45200
N  30.94800 60.64500 40.71900
C  32.11200 61.31700 40.68800
C  31.96300 62.78100 40.52500
C  30.38400 63.03200 40.71500
C  29.87800 61.57500 40.70600
C  32.74700 63.73200 41.55100
C  29.73100 63.92200 39.61100
C  30.30500 65.28700 39.19700
N  28.59400 58.81900 40.20800
C  27.93000 60.02500 40.29600
C  26.54700 59.81400 40.02600
C  26.41700 58.44600 39.74900
C  27.72700 57.84900 39.83600
C  25.48000 60.89300 40.01600
C  25.55100 57.36900 39.29000
O  24.35600 57.41600 39.05500
C  26.44200 56.14800 39.11500
C  26.06300 55.09300 40.00500
O  26.58400 54.84000 41.08700
O  25.05600 54.27800 39.50700
C  24.46500 53.18300 40.23100
H  33.31100 55.04200 39.26900
H  34.08600 61.36900 40.21700
H  27.86100 62.11600 40.60100
H  28.69800 53.78800 39.28100
H  31.58100 53.78400 38.51800
H  30.00300 52.74100 40.62500
H  30.97400 54.04600 41.38000
H  31.69500 52.62100 40.48400
H  30.13600 53.99200 36.62900
H  29.14600 55.43100 36.79200
H  27.35700 53.02800 37.23800
H  28.54400 52.69400 36.04300
H  36.15400 56.45100 37.84500
H  35.41900 55.22700 38.81500
H  36.53900 56.23700 39.51200
H  36.38600 61.49400 39.75200
H  37.78500 60.71500 40.55700
H  36.13200 60.95500 41.35200
H  32.36200 63.07400 39.55400
H  30.17000 63.46900 41.69000
H  32.11500 63.97800 42.40400
H  32.90500 64.60000 40.91100
H  33.69300 63.28700 41.85900
H  28.71600 64.10600 39.96500
H  29.57000 63.34400 38.70100
H  29.68200 66.17600 39.28800
H  30.74200 65.30000 38.19900
H  31.17400 65.42100 39.84100
H  25.61400 61.55400 39.15900
H  25.45800 61.28600 41.03200
H  24.58300 60.34200 39.73200
H  26.58300 55.79900 38.09200
H  25.16800 52.58600 40.81200
H  24.04700 52.50200 39.48900
H  23.60800 53.48000 40.83500

