158

Mg 44.03500 42.81700 26.20600
C  42.63800 44.84100 28.66100
C  45.42100 40.82200 28.53000
C  45.71800 41.19400 23.80000
C  43.50600 45.51200 23.88300
N  44.09500 42.91000 28.31700
C  43.37300 43.74500 29.15900
C  43.53500 43.48100 30.65100
C  44.67100 42.39100 30.59300
C  44.87100 42.06700 29.05800
C  46.00600 42.77100 31.26500
C  42.22600 43.19000 31.50000
C  42.16400 42.44600 32.81200
H  41.44500 43.04000 34.01600
N  45.16200 41.08900 26.17300
C  45.59000 40.35700 27.25800
C  46.33100 39.23700 26.79900
C  46.47400 39.37200 25.36600
C  45.76700 40.64800 25.05300
C  46.76100 38.19100 27.78500
C  47.17300 38.45300 24.45200
O  47.24700 38.66300 23.22300
C  47.95900 37.29400 24.98800
N  44.33300 43.24200 24.11000
C  45.09100 42.39600 23.37800
C  45.15000 42.87000 21.88700
C  44.45100 44.21100 21.97000
C  44.09200 44.39100 23.39200
C  46.53800 42.86100 21.23500
C  43.15600 44.27900 21.02700
C  41.82300 43.74700 21.42200
N  43.24100 44.76200 26.20300
C  43.08800 45.71400 25.19900
C  42.24300 46.74000 25.74200
C  41.97400 46.42300 27.06300
C  42.64100 45.21500 27.32200
C  41.64200 47.95600 25.06800
C  41.36900 46.87000 28.25700
O  40.67300 47.86800 28.44700
C  41.81600 45.83000 29.34400
C  42.60700 46.59700 30.31600
O  43.61300 47.29500 30.15600
O  41.81700 46.72800 31.51900
C  42.56100 47.54100 32.60000
H  45.77400 40.07900 29.24900
H  46.19300 40.54400 23.06200
H  43.32400 46.34200 23.19800
H  44.08800 44.37700 30.93200
H  44.21100 41.47000 30.95200
H  45.91300 43.61700 31.94600
H  46.78800 42.97300 30.53200
H  46.34700 41.94800 31.89300
H  41.70300 42.65300 30.70900
H  41.64300 44.10000 31.63700
H  43.15000 42.08800 33.10700
H  41.69600 41.49700 32.55000
H  47.06600 37.23500 27.36000
H  45.96100 37.93300 28.48000
H  47.59500 38.63200 28.33200
H  48.69600 37.78700 25.62200
H  48.52600 37.06000 24.08800
H  47.31500 36.49400 25.35600
H  44.51000 42.25900 21.25000
H  45.17200 44.99800 21.74800
H  46.54300 41.94400 20.64700
H  47.41000 42.60900 21.84000
H  46.71800 43.68100 20.54000
H  43.40400 43.92200 20.02800
H  42.95600 45.34100 20.88400
H  41.90000 43.14200 22.32500
H  41.45100 43.06200 20.66000
H  41.06700 44.53300 21.44700
H  41.43300 47.78800 24.01100
H  42.47900 48.65500 25.08500
H  40.69700 48.19200 25.55800
H  40.93500 45.35500 29.77600
H  42.53500 46.88000 33.46600
H  42.04600 48.47900 32.80500
H  43.62200 47.75300 32.46800
Mg 37.01400 49.77900 24.71500
C  37.26400 47.98700 27.63600
C  35.45200 52.27900 26.28700
C  36.54300 51.32500 21.68800
C  38.09200 46.91100 22.93900
N  36.43100 49.99500 26.68800
C  36.76000 49.25000 27.79000
C  36.44100 49.96600 29.08000
C  35.65000 51.23400 28.57300
C  35.84700 51.17400 27.06800
C  34.23800 51.41800 29.03400
C  37.68600 50.20100 29.90100
C  37.43100 50.06800 31.42300
H  35.99200 50.34800 32.00600
N  36.28400 51.58700 24.10400
C  35.65400 52.49700 24.95000
C  35.17800 53.65900 24.20900
C  35.55200 53.40900 22.85000
C  36.17700 52.07600 22.83300
C  34.38300 54.83500 24.82300
C  35.42100 54.28000 21.63100
O  35.80800 53.89800 20.52000
C  34.89400 55.64100 21.66400
N  37.20900 49.14900 22.59300
C  36.98800 50.01200 21.55400
C  37.23000 49.39900 20.15800
C  37.92300 48.02800 20.62800
C  37.64500 47.98100 22.15700
C  35.92200 49.11700 19.33100
C  39.40300 47.86900 20.14600
C  40.51200 48.40700 21.11000
N  37.57100 47.86200 25.17300
C  38.08300 46.82900 24.36500
C  38.64800 45.80500 25.12600
C  38.26800 46.17000 26.43600
C  37.63900 47.41600 26.39800
C  39.52500 44.65500 24.57200
C  38.33500 45.84400 27.80900
O  38.80200 44.87600 28.40300
C  37.63600 47.00800 28.61700
C  36.41500 46.48000 29.26500
O  35.35700 46.18900 28.70900
O  36.65700 46.42100 30.60000
C  35.56900 45.78600 31.39400
H  35.08700 53.18000 26.78400
H  36.26300 51.82700 20.76000
H  38.58700 46.16100 22.31900
H  35.75900 49.35100 29.66800
H  36.24600 52.04200 28.99800
H  33.87400 50.53500 29.55800
H  33.45600 51.53100 28.28200
H  34.12200 52.28400 29.68600
H  38.01100 51.23000 29.74400
H  38.49600 49.58100 29.51600
H  38.07300 50.84300 31.84100
H  37.75000 49.04400 31.61700
H  33.40400 54.67500 24.37000
H  34.68000 55.78600 24.38100
H  34.22000 54.87200 25.90000
H  34.93700 56.03700 20.64900
H  35.45100 56.32700 22.30400
H  33.86900 55.63000 22.03500
H  37.90900 50.02300 19.57700
H  37.35300 47.18100 20.24600
H  34.98800 49.19900 19.88700
H  36.08700 48.26200 18.67500
H  35.83100 49.97400 18.66500
H  39.42500 48.34000 19.16400
H  39.58800 46.79700 20.07500
H  40.13000 49.05500 21.89900
H  41.12300 48.97900 20.41200
H  41.20100 47.73900 21.62700
H  39.41500 44.47600 23.50300
H  39.29500 43.75700 25.14600
H  40.59600 44.81900 24.69000
H  38.28900 47.30600 29.43700
H  35.80300 44.73000 31.53000
H  34.59600 45.66400 30.91900
H  35.37700 46.31200 32.32900

