158

Mg 0.61000 7.74800 27.53800
C  1.33900 9.86900 30.10300
C  0.34000 5.20500 29.56000
C  -0.00800 5.97300 24.72400
C  1.04900 10.61300 25.29900
N  0.92300 7.62100 29.56100
C  1.18600 8.57900 30.51600
C  1.01700 8.05500 31.88700
C  1.17200 6.51000 31.63100
C  0.76500 6.40700 30.15500
C  2.61700 5.93000 31.83700
C  -0.42500 8.41400 32.37200
C  -0.42900 9.00500 33.76700
H  0.64100 8.66900 34.90000
N  0.34500 5.80000 27.21300
C  0.26900 4.85200 28.18300
C  0.13700 3.58100 27.62300
C  0.21700 3.72200 26.20900
C  0.16500 5.22000 25.99500
C  0.01500 2.36700 28.44400
C  0.34900 2.64100 25.05500
O  0.30400 3.00100 23.89300
C  0.32400 1.17400 25.42500
N  0.45600 8.27200 25.31300
C  0.06700 7.35400 24.43000
C  -0.13800 7.85200 23.01300
C  0.08100 9.43300 23.25800
C  0.55300 9.47100 24.70500
C  0.76300 7.40700 21.75000
C  -1.12300 10.42400 22.90600
C  -1.24400 10.90200 21.51700
N  1.05400 9.87600 27.56200
C  1.21300 10.87100 26.64700
C  1.52400 12.10700 27.32800
C  1.54300 11.77700 28.67800
C  1.24500 10.39200 28.84000
C  1.68400 13.47300 26.77600
C  1.73500 12.33500 29.96500
O  2.13800 13.46900 30.26800
C  1.64400 11.07400 30.99900
C  2.96700 10.90600 31.71900
O  4.01700 10.39100 31.32400
O  2.82100 11.60700 32.85700
C  3.77500 11.47400 33.93500
H  0.30200 4.38300 30.27800
H  -0.22200 5.37500 23.83600
H  1.15200 11.45300 24.60900
H  1.74000 8.49800 32.57100
H  0.46900 5.97500 32.26900
H  3.05700 5.75400 30.85500
H  2.48500 4.95200 32.29900
H  3.26400 6.60100 32.40100
H  -1.13800 7.59400 32.46300
H  -0.93800 8.99100 31.60300
H  -1.41800 8.89300 34.21100
H  -0.38000 10.06100 33.49900
H  -0.79300 1.67800 28.20000
H  -0.37400 2.60100 29.43500
H  0.92400 1.76800 28.49500
H  -0.56800 0.88500 25.98100
H  1.18800 0.98400 26.06300
H  0.47900 0.49500 24.58700
H  -1.19800 7.62600 22.89500
H  0.85100 9.86300 22.61700
H  1.15500 8.15900 21.06400
H  0.23200 6.68000 21.13600
H  1.72200 6.95700 22.00700
H  -0.95600 11.29900 23.53400
H  -2.04700 9.93200 23.20900
H  -2.14800 10.58400 20.99900
H  -0.44200 10.62100 20.83400
H  -1.29200 11.98400 21.64400
H  1.66700 13.51100 25.68700
H  2.61100 13.92200 27.13400
H  0.80600 14.00100 27.14800
H  0.79800 11.23800 31.66700
H  4.17100 12.47000 34.13400
H  4.59700 10.81700 33.65100
H  3.40300 10.93800 34.80800
Mg 6.59600 53.99400 40.29400
C  6.16600 50.49400 40.01900
C  9.74800 53.56900 39.09800
C  6.64800 57.24800 39.86400
C  3.09300 54.13600 40.85700
N  7.70800 52.23300 39.45200
C  7.33600 50.92800 39.44200
C  8.56300 50.06600 39.27000
C  9.77000 51.04800 39.23200
C  9.06200 52.36300 39.29700
C  10.76600 50.80600 40.36000
C  8.55500 49.32300 37.92600
C  8.45200 50.13900 36.66900
H  7.48300 49.74100 35.51000
N  8.06200 55.27700 39.71200
C  9.32800 54.88400 39.25500
C  10.09800 56.06400 39.05300
C  9.20900 57.15600 39.27500
C  7.92300 56.59200 39.60900
C  11.54800 56.11300 38.58200
C  9.64300 58.60400 39.32200
O  10.75500 58.89900 38.92400
C  8.74300 59.71900 39.80200
N  5.03500 55.42800 40.29500
C  5.40200 56.76400 40.20800
C  4.18600 57.67500 40.38200
C  3.00400 56.61000 40.51800
C  3.73800 55.28000 40.53100
C  4.42600 58.60900 41.70600
C  1.85000 56.62200 39.39900
C  0.57900 57.41700 39.64600
N  4.89400 52.65100 40.43100
C  3.58800 52.83200 40.96100
C  3.05200 51.53100 41.31800
C  3.99700 50.60400 40.91500
C  5.07700 51.32100 40.42300
C  1.75100 51.29200 42.01400
C  4.29100 49.23300 40.82700
O  3.49900 48.30700 41.10900
C  5.66000 49.02700 40.26100
C  5.44900 48.11400 39.08900
O  4.77000 48.33700 38.06500
O  6.25700 47.05700 39.13500
C  6.06700 46.05500 38.05800
H  10.78000 53.43500 38.76900
H  6.50700 58.33000 39.83000
H  2.03800 54.29700 41.08700
H  8.72200 49.38900 40.10900
H  10.39800 51.10600 38.34300
H  10.74600 49.76900 40.69300
H  10.54500 51.58000 41.09600
H  11.79400 50.97600 40.04000
H  7.65700 48.71200 37.83600
H  9.40200 48.64800 37.80300
H  9.47700 50.31500 36.34500
H  8.08800 51.11600 36.98700
H  11.91300 55.22100 38.07300
H  12.23700 56.46100 39.35100
H  11.64000 56.85600 37.78900
H  7.81600 59.83500 39.24200
H  9.28500 60.62400 39.52800
H  8.54100 59.56500 40.86200
H  4.07700 58.27100 39.47500
H  2.55500 56.68900 41.50800
H  4.37300 59.63700 41.34700
H  5.33500 58.40300 42.27100
H  3.61300 58.42200 42.40800
H  1.52500 55.60500 39.17800
H  2.26100 56.92700 38.43700
H  0.32800 58.18600 38.91600
H  0.57900 58.04700 40.53600
H  -0.17900 56.64600 39.51400
H  1.09700 50.76400 41.32000
H  1.33000 52.20400 42.43600
H  1.96100 50.72700 42.92200
H  6.19500 48.45500 41.02000
H  6.73000 46.20700 37.20600
H  5.08600 46.07400 37.58400
H  6.29400 45.05600 38.43200

