158

Mg 41.47600 41.45400 26.21500
C  40.59600 43.66000 28.80300
C  42.45400 39.19000 28.65200
C  42.39000 39.49300 23.85400
C  40.50800 43.91100 23.91500
N  41.50400 41.49700 28.45700
C  41.07200 42.44500 29.29800
C  41.11100 42.01800 30.78300
C  41.70100 40.54700 30.73000
C  41.93900 40.38400 29.20900
C  42.91200 40.30500 31.72000
C  39.77000 42.15800 31.50600
C  39.52000 41.34600 32.78900
H  38.92300 42.08300 34.01700
N  42.33600 39.56000 26.26000
C  42.54800 38.73500 27.29100
C  42.89000 37.37500 26.90900
C  42.78000 37.40000 25.46800
C  42.50600 38.83800 25.13000
C  43.18000 36.27800 27.86700
C  42.77000 36.32800 24.44900
O  42.73100 36.54300 23.20800
C  43.10100 34.99300 24.89800
N  41.60100 41.78100 24.24400
C  42.00000 40.77500 23.45100
C  41.71400 41.09400 21.90300
C  40.80100 42.39500 21.98400
C  40.88800 42.73600 23.48000
C  43.00900 41.14900 21.02500
C  39.25900 42.34900 21.54200
C  38.52000 41.10800 22.10100
N  40.63900 43.39000 26.29900
C  40.41600 44.30100 25.30500
C  40.10100 45.58800 25.85300
C  40.09500 45.35100 27.25400
C  40.40300 43.98800 27.42500
C  39.84400 46.85000 25.15400
C  39.83300 45.93100 28.52700
O  39.32100 46.98300 28.76700
C  39.99900 44.82200 29.59100
C  40.80000 45.36500 30.66400
O  41.99700 45.57600 30.60700
O  39.94800 45.52300 31.73100
C  40.53200 46.03000 32.96300
H  42.43900 38.44000 29.44600
H  42.65400 38.81600 23.04000
H  40.17500 44.63000 23.16400
H  41.73800 42.62600 31.43600
H  41.03800 39.71600 30.96900
H  43.84900 40.25100 31.16600
H  42.88100 39.40000 32.32600
H  42.95900 41.13300 32.42700
H  39.04600 41.83700 30.75600
H  39.47300 43.17100 31.77800
H  40.52600 41.01000 33.04300
H  38.82700 40.52200 32.62000
H  42.38700 35.53800 27.76300
H  43.11400 36.59300 28.90800
H  44.20800 35.92200 27.80900
H  44.15500 34.84100 25.13100
H  42.81700 34.25600 24.14600
H  42.39800 34.86200 25.72100
H  41.11600 40.26200 21.53100
H  41.29800 43.18500 21.42200
H  43.32600 42.19200 21.00100
H  42.95700 40.72100 20.02400
H  43.69900 40.60500 21.67000
H  39.31300 42.25800 20.45700
H  38.69900 43.25800 21.76200
H  37.84000 41.36200 22.91500
H  39.20800 40.43300 22.61100
H  38.05900 40.59300 21.25800
H  40.68200 47.52300 24.96900
H  39.17000 47.40000 25.80900
H  39.36700 46.74200 24.17900
H  38.96100 44.63300 29.86500
H  40.29500 47.08900 33.06100
H  41.61700 46.05200 33.06600
H  40.24600 45.56900 33.90800
Mg 0.53700 43.94500 25.84400
C  2.88200 43.46900 28.59400
C  -1.86300 42.59800 27.88700
C  -1.45000 43.77200 23.19000
C  3.33500 44.88700 23.93300
N  0.66300 43.08700 27.92600
C  1.62100 43.06400 28.90200
C  1.00400 42.88500 30.27600
C  -0.43600 42.44000 29.93600
C  -0.57600 42.72200 28.47900
C  -0.75700 40.96200 30.21000
C  1.02400 44.16900 31.21300
C  1.35400 43.81700 32.71300
H  0.80500 42.59500 33.41000
N  -1.40700 43.33100 25.62100
C  -2.24800 42.76300 26.50600
C  -3.56600 42.57700 25.89800
C  -3.43800 42.88100 24.50200
C  -2.08000 43.32100 24.38500
C  -4.72300 42.08600 26.72800
C  -4.49100 42.85000 23.49300
O  -4.27600 42.99600 22.31000
C  -5.86100 42.56200 23.93100
N  0.83800 44.23500 23.89100
C  -0.17100 44.27200 22.99000
C  0.26900 45.05900 21.70100
C  1.67200 45.58200 22.19700
C  2.02900 44.80600 23.42900
C  0.37100 44.24300 20.40400
C  1.60000 47.04500 22.52700
C  1.26900 47.90300 21.20000
N  2.68500 44.22800 26.13200
C  3.64700 44.65500 25.22800
C  4.97800 44.60500 25.91700
C  4.66600 44.29900 27.24200
C  3.31700 44.01000 27.32700
C  6.35500 44.81900 25.23000
C  5.30000 44.06800 28.55200
O  6.46000 44.03700 28.88600
C  4.07900 43.72500 29.54400
C  4.48100 42.52600 30.31000
O  4.99400 41.49900 29.83300
O  4.53300 42.80300 31.66400
C  5.22100 41.84100 32.57100
H  -2.64200 42.19800 28.54000
H  -2.02500 43.93500 22.27600
H  4.14500 45.26000 23.30300
H  1.46300 42.03700 30.78300
H  -1.10900 43.01800 30.56900
H  -1.53600 40.96900 30.97300
H  0.10400 40.38000 30.53800
H  -1.19500 40.48000 29.33600
H  0.07100 44.69500 31.26900
H  1.74400 44.90200 30.85000
H  0.99400 44.65300 33.31200
H  2.44000 43.91200 32.69600
H  -5.54400 42.80300 26.76100
H  -4.38000 42.03200 27.76100
H  -4.90900 41.08500 26.33900
H  -6.06800 41.64400 24.48000
H  -6.51500 42.64700 23.06300
H  -6.22700 43.40200 24.52100
H  -0.53500 45.77600 21.53200
H  2.46500 45.39600 21.47200
H  0.85500 44.91600 19.69500
H  -0.56700 43.92900 19.94500
H  0.91400 43.35300 20.72000
H  2.58600 47.35400 22.87600
H  0.88800 47.27400 23.32000
H  0.24800 48.24900 21.36100
H  1.18000 47.27000 20.31700
H  1.94200 48.75000 21.07200
H  6.20400 45.16900 24.20900
H  7.07500 44.03200 25.45000
H  6.80700 45.70200 25.68200
H  3.91100 44.64200 30.10900
H  5.51400 42.35700 33.48500
H  6.06700 41.42800 32.02200
H  4.59100 40.98100 32.79700

