158

Mg -1.63300 16.93900 25.81100
C  -2.27800 14.65400 28.44700
C  -2.67600 19.48000 27.78100
C  -1.53100 18.96100 23.04100
C  -1.24300 14.18300 23.69500
N  -2.37800 17.01800 27.81700
C  -2.42600 16.01300 28.81100
C  -2.93200 16.56000 30.13400
C  -3.24900 18.04600 29.85200
C  -2.72900 18.24400 28.39700
C  -4.70700 18.50500 30.19800
C  -2.01300 16.13300 31.33200
C  -1.95600 17.11600 32.52400
H  -1.76000 16.53800 33.87300
N  -1.81200 19.02400 25.55200
C  -2.29000 19.91100 26.46700
C  -2.16600 21.25200 25.95900
C  -1.91700 21.01500 24.50500
C  -1.82000 19.60400 24.29200
C  -2.28700 22.51800 26.73900
C  -1.69600 22.10600 23.39800
O  -1.42100 21.91400 22.24200
C  -1.76700 23.57300 23.74000
N  -1.30700 16.63100 23.60700
C  -1.28600 17.60700 22.73800
C  -1.12900 17.02600 21.31800
C  -0.72400 15.52300 21.57400
C  -1.08900 15.41200 23.02900
C  -2.38900 17.26700 20.40600
C  0.77900 15.16800 21.29400
C  1.73600 15.56900 22.47800
N  -1.78600 14.89000 25.99500
C  -1.54200 13.83600 25.06500
C  -1.58700 12.57800 25.71200
C  -1.95100 12.87400 27.02700
C  -1.94100 14.26400 27.14600
C  -1.41200 11.29200 25.04300
C  -2.27800 12.18600 28.25300
O  -2.33200 11.01100 28.54000
C  -2.57200 13.41400 29.22700
C  -1.62700 13.10900 30.29900
O  -0.38900 13.17300 30.23900
O  -2.34000 12.69300 31.37900
C  -1.69900 12.28700 32.60900
H  -2.91000 20.26400 28.50300
H  -1.68100 19.65700 22.21300
H  -1.04100 13.28200 23.11000
H  -3.89000 16.06300 30.28500
H  -2.64300 18.74800 30.42400
H  -4.60600 19.11700 31.09400
H  -5.35300 17.63800 30.33800
H  -5.07900 19.16500 29.41500
H  -0.98100 16.06400 30.98700
H  -2.44800 15.25500 31.80900
H  -2.94300 17.56600 32.63200
H  -1.20600 17.89200 32.37100
H  -2.37200 22.37600 27.81600
H  -3.23300 23.01100 26.51400
H  -1.46700 23.22000 26.58900
H  -1.14900 23.87400 24.58600
H  -2.78300 23.75000 24.09100
H  -1.66100 24.09700 22.79100
H  -0.30600 17.45900 20.74900
H  -1.34500 14.91400 20.91700
H  -2.04800 17.50900 19.39900
H  -2.92800 18.11400 20.82800
H  -2.87100 16.29800 20.27400
H  1.18200 15.66500 20.41200
H  0.94500 14.09600 21.18600
H  1.37200 16.46600 22.97800
H  2.75300 15.81500 22.17100
H  1.72000 14.75900 23.20700
H  -0.72500 10.69300 25.64100
H  -1.10100 11.41500 24.00600
H  -2.35200 10.75200 24.92600
H  -3.58900 13.48300 29.61400
H  -1.76700 13.03000 33.40300
H  -0.68500 11.92000 32.44500
H  -2.28100 11.45400 33.00300
Mg 25.16400 -7.81400 48.62300
C  27.52100 -5.53200 47.16500
C  23.14700 -7.04700 45.99400
C  23.53500 -10.31200 49.56800
C  27.90800 -8.69000 50.92400
N  25.34000 -6.34800 46.80900
C  26.32400 -5.49300 46.40600
C  25.91500 -4.66700 45.23100
C  24.39700 -5.00500 45.08500
C  24.28400 -6.21200 46.01800
C  23.36000 -3.96500 45.36800
C  26.74500 -5.13400 44.01000
C  27.48000 -4.02700 43.27300
H  27.28800 -3.80000 41.76900
N  23.56600 -8.62300 47.74800
C  22.83600 -8.17600 46.71900
C  21.63700 -9.01700 46.61800
C  21.81600 -10.09700 47.56600
C  22.98000 -9.74200 48.31900
C  20.58400 -8.77500 45.61600
C  20.98700 -11.25900 47.83600
O  20.01600 -11.48400 47.13700
C  21.24500 -12.40400 48.86900
N  25.77600 -9.31500 50.03200
C  24.70800 -10.16900 50.34800
C  25.07400 -11.00400 51.55900
C  26.56900 -10.73300 51.72500
C  26.79800 -9.49400 50.85700
C  24.18000 -10.68000 52.77400
C  27.56900 -11.83400 51.35300
C  28.73100 -12.03800 52.31000
N  27.25700 -7.21300 49.06400
C  28.20600 -7.68000 50.00000
C  29.41600 -6.88000 49.81300
C  29.15500 -6.01500 48.71100
C  27.84500 -6.26100 48.32100
C  30.67900 -7.01200 50.44800
C  29.74900 -5.00600 47.84300
O  30.87100 -4.53900 47.83600
C  28.68100 -4.56300 46.94000
C  28.27900 -3.25700 47.38300
O  27.87300 -2.95000 48.49900
O  28.37400 -2.28900 46.45000
C  28.04100 -0.95200 46.91300
H  22.28700 -6.67900 45.43100
H  22.77600 -10.85600 50.13400
H  28.79500 -8.97700 51.49300
H  26.04600 -3.66000 45.62600
H  24.28800 -5.37700 44.06700
H  22.74600 -3.89400 44.47000
H  23.92200 -3.03200 45.39800
H  22.88300 -4.22300 46.31400
H  26.10200 -5.64200 43.29100
H  27.49500 -5.87500 44.28600
H  28.52800 -4.30800 43.36700
H  27.20000 -3.12400 43.81600
H  20.51400 -7.71400 45.37600
H  19.58700 -8.92000 46.03400
H  20.72100 -9.38600 44.72500
H  22.22900 -12.86600 48.79600
H  20.53900 -13.16700 48.54100
H  20.87900 -12.07100 49.84000
H  24.90400 -12.07000 51.41000
H  26.81500 -10.50000 52.76100
H  23.97300 -11.59700 53.32500
H  23.22000 -10.38400 52.35000
H  24.64900 -9.90100 53.37500
H  28.11900 -11.48000 50.48100
H  26.99300 -12.75900 51.32800
H  29.39200 -12.80000 51.89900
H  28.18600 -12.34300 53.20300
H  29.27300 -11.10700 52.47600
H  31.33700 -6.37300 49.85800
H  30.97200 -8.05900 50.37700
H  30.63400 -6.76100 51.50700
H  28.90500 -4.42700 45.88200
H  28.82500 -0.54000 47.54800
H  27.05700 -0.86800 47.37500
H  28.14800 -0.34800 46.01300

