158

Mg 46.93000 16.33100 28.92500
C  44.78600 15.69500 31.56600
C  49.09600 17.62200 31.25700
C  49.01700 17.06600 26.43500
C  44.61300 15.02700 26.74300
N  46.71600 16.90800 31.06400
C  45.90700 16.33500 31.91900
C  46.18300 16.77100 33.37600
C  47.43000 17.73000 33.19400
C  47.82800 17.41900 31.73700
C  47.19600 19.25800 33.37700
C  46.53600 15.48700 34.19800
C  46.02100 15.50400 35.66400
H  46.04100 16.85300 36.36300
N  48.78700 17.22100 28.84300
C  49.56200 17.55900 29.91700
C  50.90300 17.74500 29.47900
C  50.95100 17.55300 28.01200
C  49.55800 17.23800 27.66700
C  52.06900 17.99400 30.39100
C  52.12800 17.73400 27.05700
O  51.98100 17.56500 25.86000
C  53.42500 18.31300 27.48100
N  46.82300 15.91000 26.82800
C  47.74400 16.49300 25.98800
C  47.26500 16.48900 24.53700
C  45.93200 15.62200 24.68100
C  45.74900 15.47500 26.14600
C  47.04100 17.94500 24.07600
C  46.08000 14.25100 23.93700
C  44.81400 13.80700 23.24700
N  45.04400 15.48900 29.04200
C  44.28700 14.94500 28.11100
C  43.11600 14.35900 28.74900
C  43.22000 14.63900 30.11700
C  44.45300 15.31800 30.24000
C  41.87800 13.75800 28.10000
C  42.61600 14.53400 31.45200
O  41.56700 14.05400 31.74700
C  43.63100 15.15200 32.43000
C  42.99900 16.12600 33.39700
O  42.86100 17.33800 33.12400
O  42.52500 15.48600 34.52100
C  41.78300 16.35800 35.44200
H  49.83200 17.92800 32.00400
H  49.70500 17.48500 25.69700
H  43.93800 14.59600 26.00000
H  45.37500 17.41300 33.72700
H  48.22500 17.48100 33.89700
H  46.17500 19.49100 33.68100
H  47.39100 19.88400 32.50600
H  47.83000 19.58700 34.20100
H  47.59700 15.24500 34.13500
H  46.06800 14.61600 33.74000
H  46.71500 14.85800 36.20000
H  45.04400 15.02500 35.59500
H  53.04400 18.23500 29.96700
H  52.21200 17.13400 31.04500
H  51.69000 18.85600 30.94000
H  54.02500 18.44100 26.58000
H  54.00500 17.74600 28.20900
H  53.22200 19.31200 27.86600
H  48.04700 16.03400 23.92900
H  45.08900 16.15600 24.24400
H  46.31800 17.96000 23.26000
H  48.02900 18.25400 23.73300
H  46.82600 18.64000 24.88800
H  46.54100 13.57100 24.65300
H  46.80200 14.48300 23.15400
H  44.77500 14.18400 22.22500
H  43.85600 14.02100 23.72000
H  44.82000 12.72500 23.11600
H  41.50500 14.28800 27.22400
H  41.08800 13.76900 28.85000
H  42.18400 12.73800 27.86700
H  44.02600 14.44200 33.15600
H  40.91800 16.73900 34.89800
H  42.46600 16.99700 36.00200
H  41.35600 15.64700 36.14900
Mg -0.22800 43.41000 26.24300
C  2.08100 42.83100 28.73800
C  -2.70000 42.29600 28.33400
C  -2.44300 43.65500 23.62600
C  2.37200 43.96300 23.99500
N  -0.22900 42.49800 28.26900
C  0.78400 42.58100 29.11800
C  0.26100 42.39800 30.58600
C  -1.15900 41.81600 30.36000
C  -1.41700 42.18300 28.89300
C  -1.41300 40.34400 30.59700
C  0.44700 43.71900 31.39900
C  1.07500 43.62200 32.76500
H  0.69500 42.34000 33.54400
N  -2.28400 43.07900 26.01900
C  -3.09400 42.62900 27.00000
C  -4.44800 42.69300 26.45200
C  -4.41200 43.16600 25.17700
C  -3.02800 43.27300 24.85700
C  -5.60800 42.19500 27.33500
C  -5.60000 43.50900 24.25300
O  -5.40200 43.81400 23.08900
C  -6.98000 43.50800 24.70400
N  -0.01700 43.53900 24.03200
C  -1.10500 43.83000 23.28800
C  -0.73600 44.33200 21.87300
C  0.76500 44.60800 22.00300
C  1.10400 44.00600 23.38800
C  -1.12700 43.34900 20.81800
C  1.20500 46.10500 22.00700
C  0.62900 47.06000 23.11000
N  1.87100 43.40400 26.28800
C  2.80300 43.63800 25.31600
C  4.10600 43.65400 25.93800
C  3.89800 43.34300 27.28400
C  2.54100 43.20200 27.40100
C  5.51600 43.81100 25.24500
C  4.52000 43.02500 28.55300
O  5.66300 42.77200 28.82800
C  3.31700 42.96700 29.58200
C  3.54200 41.76200 30.42400
O  3.57800 40.64300 29.95600
O  3.89100 42.17400 31.66200
C  4.45700 41.14600 32.60300
H  -3.54200 42.03600 28.97900
H  -3.12200 43.96900 22.83000
H  3.20700 44.19300 23.32900
H  0.82000 41.57500 31.03200
H  -1.75200 42.42300 31.04400
H  -2.02200 40.18700 31.48700
H  -0.42700 39.88100 30.63200
H  -1.82200 39.72500 29.79800
H  -0.54500 44.10500 31.63600
H  0.92100 44.48600 30.78700
H  0.61200 44.45500 33.29400
H  2.13800 43.77100 32.57800
H  -6.52700 41.96300 26.79700
H  -5.64800 42.87800 28.18300
H  -5.24800 41.26900 27.78300
H  -7.46600 42.53400 24.76400
H  -7.65000 44.10900 24.09000
H  -6.96400 43.98600 25.68400
H  -1.24800 45.24700 21.57600
H  1.40700 44.13000 21.26300
H  -0.38900 43.20200 20.03000
H  -2.01600 43.70500 20.29600
H  -1.37600 42.35300 21.18200
H  0.94700 46.60400 21.07300
H  2.29400 46.07400 22.03400
H  1.29500 47.36800 23.91600
H  -0.21300 46.59500 23.62000
H  0.31400 47.98300 22.62300
H  5.35000 44.73300 24.68800
H  5.97000 43.01500 24.65600
H  6.14700 44.11800 26.08000
H  3.48800 43.77600 30.29200
H  5.19300 40.53500 32.07900
H  3.69900 40.49900 33.04500
H  4.93100 41.79200 33.34200

