158

Mg 2.04000 -0.43000 44.15900
C  5.42900 0.13400 43.29000
C  1.26000 2.47800 42.52800
C  -1.12100 -1.47000 44.40700
C  3.11000 -3.70500 45.23800
N  3.18600 1.12600 43.03900
C  4.51700 1.11300 42.81700
C  4.87700 2.26900 41.88000
C  3.67300 3.26500 42.09800
C  2.59600 2.28500 42.58600
C  4.08200 4.36600 43.15300
C  5.05500 1.83500 40.42400
C  6.19800 2.48500 39.65300
H  5.74600 3.18400 38.36900
N  0.27900 0.55200 43.76300
C  0.11400 1.67800 43.03000
C  -1.27300 2.07000 42.85100
C  -1.91700 0.96800 43.51200
C  -0.92200 -0.07800 43.94700
C  -1.78200 3.31400 42.10400
C  -3.35200 0.84400 43.54400
O  -4.11900 1.68000 43.04600
C  -4.05100 -0.24600 44.28300
N  1.12600 -2.30700 44.78200
C  -0.22600 -2.41500 44.79700
C  -0.54800 -3.88900 44.96300
C  0.75200 -4.52100 45.54800
C  1.72400 -3.53400 45.06100
C  -1.89900 -4.26900 45.67900
C  0.93300 -5.97000 45.13300
C  1.66500 -6.91700 46.07500
N  3.87500 -1.58700 44.32200
C  4.13100 -2.83800 44.85100
C  5.62000 -3.00100 44.81600
C  6.13600 -1.84600 44.22000
C  5.03200 -1.02900 43.95800
C  6.39400 -4.19900 45.28000
C  7.35800 -1.14600 43.78500
O  8.52400 -1.32900 43.94600
C  6.95200 0.13400 43.10900
C  7.48400 1.28600 43.90500
O  6.88300 1.74500 44.90500
O  8.57400 1.85300 43.34000
C  9.13500 3.04200 43.92300
H  0.99900 3.33600 41.90600
H  -2.07800 -1.93400 44.16200
H  3.34000 -4.71900 45.57100
H  5.83300 2.62800 42.26300
H  3.48700 3.69100 41.11200
H  3.15800 4.64400 43.65900
H  4.57900 5.22800 42.70700
H  4.67400 3.88800 43.93400
H  4.20000 1.96000 39.76000
H  5.15200 0.75200 40.50400
H  6.94300 1.72900 39.40600
H  6.77300 3.11800 40.32900
H  -2.39300 2.79200 41.36800
H  -0.93100 3.76100 41.59000
H  -2.31700 4.04500 42.71000
H  -4.98500 0.05000 44.76100
H  -3.42100 -0.71700 45.03700
H  -4.22200 -0.94900 43.46700
H  -0.69500 -4.43200 44.02900
H  0.72100 -4.39800 46.63000
H  -2.65900 -4.50600 44.93500
H  -2.15300 -3.42600 46.32000
H  -1.70100 -5.19100 46.22600
H  1.56500 -5.93200 44.24600
H  0.01400 -6.44800 44.79200
H  2.40800 -7.42200 45.45800
H  0.89100 -7.56200 46.49100
H  2.09100 -6.47600 46.97600
H  6.30900 -4.31700 46.36100
H  7.44900 -4.04800 45.04800
H  6.06900 -5.09400 44.74900
H  7.37200 0.31900 42.12100
H  9.96200 3.39600 43.30700
H  9.48500 2.85700 44.93800
H  8.35100 3.80000 43.88900
Mg 41.97700 41.07700 27.13600
C  41.19800 43.54200 29.51400
C  42.64500 38.88200 29.61200
C  42.93300 38.89600 24.74000
C  41.09300 43.37700 24.58200
N  42.15900 41.32500 29.30700
C  41.70300 42.36000 30.10700
C  41.50800 41.84700 31.56200
C  42.35800 40.51400 31.53700
C  42.35100 40.19300 30.03100
C  43.73000 40.79500 32.14700
C  40.03500 41.72600 32.00500
C  39.52500 42.80700 32.96200
H  39.38000 42.51300 34.44400
N  42.72400 39.11900 27.22800
C  42.88900 38.35500 28.32900
C  43.32100 37.08100 27.92300
C  43.47900 37.07800 26.51100
C  43.08000 38.36600 26.09000
C  43.78300 36.02300 28.87100
C  44.07900 36.04500 25.58800
O  44.50500 36.24500 24.44700
C  44.25100 34.68300 26.04800
N  41.97200 41.11600 24.96400
C  42.43600 40.08000 24.23400
C  42.29000 40.40100 22.72900
C  41.68500 41.79700 22.69900
C  41.58100 42.13700 24.17800
C  43.67600 40.17100 21.97800
C  40.36600 41.90900 21.89100
C  39.10700 41.34000 22.54900
N  41.33800 43.04200 27.02700
C  41.01600 43.81700 25.91500
C  40.70900 45.15500 26.35300
C  40.68700 45.06900 27.79200
C  41.18300 43.81600 28.17400
C  40.41800 46.47300 25.49100
C  40.55600 45.83300 29.05100
O  40.37400 46.99400 29.19900
C  40.71800 44.79600 30.19500
C  41.73600 45.37500 31.11200
O  42.96900 45.28900 30.90700
O  41.10900 46.03600 32.13300
C  42.02300 46.80500 32.96500
H  42.75600 38.21400 30.46900
H  43.17900 38.15700 23.97400
H  40.93800 44.08800 23.76800
H  41.94300 42.50800 32.31100
H  41.92300 39.64800 32.03600
H  44.54400 40.47700 31.49500
H  43.83000 40.12700 33.00200
H  43.90500 41.80800 32.50800
H  39.82600 40.74200 32.42400
H  39.45200 41.97700 31.11900
H  38.55800 43.11500 32.56300
H  40.09500 43.72800 32.84600
H  43.20200 35.12000 28.68600
H  43.65700 36.39900 29.88700
H  44.83000 35.72200 28.86000
H  44.43800 33.94900 25.26400
H  43.29600 34.37800 26.47600
H  45.00300 34.71000 26.83700
H  41.61200 39.64500 22.33400
H  42.34900 42.50100 22.19900
H  44.15700 39.25200 22.31400
H  44.35300 40.97700 22.25900
H  43.46300 39.89700 20.94400
H  40.48900 41.39900 20.93600
H  40.26200 42.98900 21.78600
H  39.33500 40.88300 23.51100
H  38.55700 40.68900 21.87000
H  38.43500 42.18000 22.72400
H  39.72700 47.07000 26.08600
H  39.88700 46.27200 24.56100
H  41.34600 46.96400 25.20000
H  39.75300 44.57100 30.65000
H  43.07300 46.51500 32.99900
H  41.60000 46.62500 33.95300
H  41.81400 47.85900 32.78200

