158

Mg 26.95600 50.57500 26.40300
C  24.75400 51.75200 28.80000
C  29.34100 50.24600 28.87800
C  29.20300 50.08500 23.96900
C  24.57700 51.45700 23.94500
N  27.03800 51.03200 28.57300
C  25.96600 51.30700 29.35800
C  26.24900 51.15200 30.91400
C  27.75800 50.75100 30.88400
C  28.10600 50.67400 29.36400
C  28.78600 51.72400 31.61800
C  25.27300 50.11600 31.63300
C  24.73700 50.55500 33.04500
H  24.80600 49.64300 34.28200
N  28.97600 50.20800 26.43300
C  29.78900 50.03500 27.56700
C  31.11700 49.62500 27.20300
C  31.19800 49.60900 25.78500
C  29.70500 49.94400 25.33300
C  32.27800 49.41600 28.23800
C  32.42300 49.42200 24.88200
O  32.19800 49.59200 23.64200
C  33.78400 49.03800 25.46700
N  26.95400 50.72700 24.31100
C  27.97500 50.43700 23.50200
C  27.48400 50.35800 22.04000
C  26.02800 50.64700 22.04000
C  25.81000 50.93600 23.57400
C  28.34500 51.20700 21.04700
C  25.07900 49.59500 21.41800
C  24.07600 50.25400 20.53200
N  25.06900 51.47000 26.33500
C  24.22400 51.72400 25.26600
C  23.01200 52.38200 25.76700
C  23.16000 52.37600 27.17600
C  24.48500 51.84500 27.46500
C  21.93100 52.98300 24.91400
C  22.49500 52.64400 28.43400
O  21.38800 53.08200 28.65000
C  23.47500 52.22800 29.49100
C  23.70200 53.27000 30.51700
O  24.58000 54.08300 30.39200
O  22.81600 53.06500 31.59700
C  22.99200 54.14800 32.58500
H  30.04200 50.09200 29.70200
H  29.80500 49.85300 23.08800
H  23.85600 51.75600 23.18200
H  26.09300 52.14400 31.33700
H  27.81400 49.75000 31.31300
H  29.27200 52.42100 30.93500
H  29.53300 51.20900 32.22100
H  28.19400 52.19300 32.40400
H  25.83100 49.17900 31.63200
H  24.37600 49.99100 31.02800
H  23.67400 50.71800 32.87000
H  25.10600 51.55000 33.29800
H  33.01700 50.17800 27.99100
H  32.74100 48.44000 28.09400
H  31.94100 49.49200 29.27200
H  34.20900 49.81600 26.10300
H  34.50300 48.86500 24.66600
H  33.64200 48.12200 26.03900
H  27.60800 49.31100 21.76300
H  25.88200 51.62700 21.58700
H  29.17700 51.74900 21.49700
H  27.80100 51.93600 20.44600
H  28.74200 50.45000 20.37100
H  24.56800 49.07000 22.22500
H  25.65800 48.93200 20.77500
H  23.23800 50.58700 21.14400
H  23.62300 49.55500 19.82900
H  24.47800 51.09300 19.96400
H  22.39800 53.50900 24.08200
H  21.39900 53.69100 25.55000
H  21.21600 52.31400 24.43500
H  23.03300 51.46000 30.12600
H  23.11300 55.08300 32.03700
H  23.86100 54.03100 33.23300
H  22.11900 54.13700 33.23700
Mg 10.42500 46.34000 25.40300
C  8.26200 46.55900 28.11900
C  12.78700 47.79000 27.43000
C  12.41300 46.47300 22.73400
C  7.64200 45.72800 23.31500
N  10.50200 47.02800 27.64100
C  9.55600 46.97400 28.53700
C  9.97100 47.50700 29.86400
C  11.30000 48.25200 29.53900
C  11.61600 47.66400 28.11800
C  11.18200 49.78300 29.55500
C  9.99100 46.32500 30.96100
C  10.92900 46.32700 32.23700
H  10.68400 45.40000 33.39200
N  12.31100 46.95100 25.15400
C  13.15800 47.49700 26.09300
C  14.44200 47.72400 25.50800
C  14.40800 47.20000 24.18900
C  12.99500 46.84900 23.93500
C  15.49500 48.62900 26.17400
C  15.51900 46.82800 23.29700
O  15.38600 46.20100 22.24600
C  16.89700 47.28100 23.78500
N  10.09800 46.18600 23.31400
C  11.09700 46.14800 22.41800
C  10.61900 45.88100 20.99000
C  9.10000 45.74900 21.23500
C  8.89800 45.85000 22.69300
C  11.02000 47.01600 20.02300
C  8.52400 44.41700 20.60800
C  7.54700 44.72100 19.45500
N  8.38200 46.03100 25.68200
C  7.39100 45.85800 24.72100
C  6.13200 45.69300 25.39600
C  6.43700 45.85400 26.72000
C  7.79600 46.13100 26.87900
C  4.77900 45.51900 24.75200
C  5.86600 46.03400 28.02700
O  4.67900 45.91500 28.37500
C  7.01500 46.45600 28.97600
C  7.07900 45.47400 30.05600
O  7.53600 44.36100 29.96000
O  6.53200 45.98800 31.22300
C  6.50000 45.02400 32.28500
H  13.58700 48.26100 28.00400
H  12.97200 46.45800 21.79600
H  6.78800 45.64700 22.63900
H  9.25400 48.25700 30.19900
H  12.10900 47.89400 30.17600
H  10.16100 50.09800 29.76700
H  11.46700 50.13200 28.56200
H  11.95500 50.24000 30.17400
H  10.03600 45.35400 30.46800
H  9.03800 46.39700 31.48500
H  10.96200 47.36400 32.57100
H  11.94200 46.06200 31.93500
H  14.94300 49.28200 26.85000
H  16.03100 49.27900 25.48300
H  16.13100 47.99100 26.78900
H  17.76400 47.07900 23.15600
H  17.02600 46.76700 24.73700
H  16.78400 48.36500 23.76000
H  11.20900 45.04100 20.62400
H  8.56100 46.56900 20.76000
H  11.55400 47.80900 20.54600
H  10.12800 47.46300 19.58300
H  11.69500 46.57200 19.29200
H  7.93000 43.92000 21.37500
H  9.41800 43.86500 20.31600
H  7.04600 45.68700 19.38400
H  6.69600 44.04100 19.47300
H  8.10700 44.54000 18.53700
H  4.74800 44.54800 24.25800
H  4.64100 46.18500 23.90000
H  3.94100 45.61100 25.44300
H  6.74400 47.40000 29.44900
H  5.66200 45.34200 32.90500
H  7.45700 45.04600 32.80500
H  6.37800 43.99600 31.94200

