158

Mg 1.49800 -2.93300 45.07300
C  4.90600 -1.98200 44.28700
C  0.49900 -0.35400 42.90700
C  -1.55800 -4.04100 45.39500
C  2.78600 -5.42100 46.96300
N  2.57300 -1.48600 43.55900
C  3.88800 -1.21000 43.53400
C  4.14300 -0.01800 42.65500
C  2.72400 0.56800 42.35300
C  1.88500 -0.49000 43.00900
C  2.59100 1.98400 42.94000
C  5.01000 -0.43300 41.42400
C  6.10000 0.54300 40.99900
H  5.88500 1.39200 39.71900
N  -0.22700 -2.27300 44.23700
C  -0.47500 -1.21600 43.37800
C  -1.89900 -1.11800 43.17000
C  -2.49200 -2.24500 43.79900
C  -1.41800 -2.93700 44.49800
C  -2.65000 -0.10300 42.37600
C  -4.01500 -2.51800 43.75400
O  -4.86700 -1.79800 43.24200
C  -4.60200 -3.75800 44.40000
N  0.78900 -4.53600 45.87500
C  -0.52200 -4.80400 45.96500
C  -0.78300 -6.09200 46.76100
C  0.57800 -6.46200 47.42300
C  1.45600 -5.43000 46.69400
C  -1.93800 -6.04200 47.83100
C  1.03700 -7.97500 47.16200
C  1.44700 -8.66700 48.46300
N  3.41800 -3.68800 45.53500
C  3.78900 -4.63900 46.42900
C  5.22000 -4.77300 46.50900
C  5.67800 -3.69800 45.80800
C  4.56600 -3.10700 45.12600
C  6.00300 -5.87400 47.23900
C  6.83600 -2.99400 45.35500
O  8.00200 -3.13100 45.67100
C  6.40000 -1.74600 44.54500
C  6.51500 -0.50200 45.43400
O  5.76300 -0.35900 46.37800
O  7.47500 0.37500 44.97700
C  7.50200 1.71900 45.61300
H  0.14700 0.50100 42.32500
H  -2.54700 -4.43600 45.63800
H  3.24100 -6.12700 47.66100
H  4.80400 0.61600 43.24700
H  2.59800 0.54300 41.27100
H  3.52400 2.36600 43.35400
H  1.79000 2.13500 43.66400
H  2.46100 2.74100 42.16600
H  4.33700 -0.29600 40.57700
H  5.47200 -1.39300 41.65400
H  6.98300 -0.05000 40.76400
H  6.43500 1.21500 41.79000
H  -3.25700 0.45700 43.08800
H  -3.30500 -0.42700 41.56800
H  -2.02500 0.62300 41.85600
H  -4.55700 -3.58300 45.47500
H  -3.96100 -4.56800 44.05200
H  -5.58900 -3.90000 43.96000
H  -1.04800 -6.70800 45.90200
H  0.57500 -6.34400 48.50600
H  -2.32200 -5.02900 47.95200
H  -1.63600 -6.47600 48.78500
H  -2.67200 -6.66300 47.31600
H  1.77700 -7.98900 46.36100
H  0.25500 -8.58800 46.71400
H  1.54300 -7.94500 49.27400
H  2.36200 -9.19700 48.19800
H  0.79400 -9.47600 48.79000
H  5.66900 -5.69800 48.26200
H  7.07300 -5.75200 47.07500
H  5.75900 -6.89400 46.94200
H  6.94700 -1.56600 43.61900
H  7.76700 2.46800 44.86700
H  8.16200 1.69600 46.48100
H  6.52300 1.93300 46.04100
Mg 48.79200 45.20700 43.72700
C  45.26000 45.35700 42.61300
C  48.81000 41.90400 42.53800
C  52.19200 45.11200 43.51400
C  48.79900 48.58000 43.81800
N  47.17300 43.88900 42.56900
C  45.87100 44.08600 42.34600
C  45.30800 42.92200 41.54200
C  46.40300 41.77700 41.68600
C  47.54100 42.51300 42.35900
C  46.00000 40.50400 42.49600
C  44.90300 43.34600 40.07200
C  45.77200 44.30700 39.26000
H  45.31200 44.43600 37.81800
N  50.25600 43.71700 43.44300
C  50.01100 42.44000 43.06700
C  51.19900 41.67300 43.14600
C  52.26500 42.54800 43.28600
C  51.62500 43.85400 43.39600
C  51.34400 40.19000 42.66800
C  53.73900 42.21500 43.47000
O  54.11600 41.03400 43.48300
C  54.75200 43.27500 43.79700
N  50.33800 46.65000 43.75600
C  51.69600 46.41600 43.72300
C  52.47300 47.74400 43.76600
C  51.41800 48.76200 44.00000
C  50.08600 47.96400 43.88500
C  53.55900 47.78000 44.89800
C  51.48400 49.88800 42.96900
C  50.83800 51.23300 43.33500
N  47.34400 46.68300 43.53600
C  47.52100 48.07300 43.53800
C  46.22700 48.74500 43.34500
C  45.34100 47.69300 43.00700
C  46.06900 46.44900 43.13300
C  46.00400 50.29400 43.32700
C  43.95100 47.45300 42.67400
O  42.97200 48.13900 42.59800
C  43.93200 45.96600 42.28100
C  42.69400 45.34600 42.94300
O  41.81500 44.63000 42.45600
O  42.64400 45.64000 44.29300
C  41.34600 45.54400 44.91000
H  48.85600 40.83600 42.31300
H  53.26000 45.13800 43.29100
H  48.90200 49.66700 43.79900
H  44.32800 42.71800 41.97400
H  46.69800 41.43500 40.69400
H  45.87800 39.53000 42.02200
H  45.00900 40.75100 42.87600
H  46.58400 40.33400 43.40000
H  43.97000 43.85100 40.32200
H  44.66200 42.52000 39.40300
H  46.81100 43.98400 39.18200
H  45.61600 45.31200 39.65000
H  51.60200 39.49800 43.47000
H  52.07700 40.25800 41.86500
H  50.48800 39.69400 42.21000
H  55.60800 42.68500 44.12500
H  54.38000 43.81600 44.66600
H  55.07600 43.95600 43.01100
H  53.00800 47.85500 42.82300
H  51.46200 49.20000 44.99700
H  53.72700 46.75800 45.23700
H  53.49900 48.51100 45.70500
H  54.49800 48.05000 44.41600
H  51.02000 49.47400 42.07400
H  52.46700 50.19100 42.60800
H  51.67700 51.92900 43.34100
H  50.49600 51.24300 44.37000
H  50.07400 51.54800 42.62400
H  45.94900 50.55900 44.38300
H  45.07900 50.51300 42.79300
H  46.78800 50.95600 42.96200
H  43.82900 45.91400 41.19700
H  41.27000 44.59100 45.43300
H  40.47500 45.70100 44.27400
H  41.15500 46.30400 45.66700

