158

Mg 41.22300 9.51000 30.20400
C  43.39700 10.73200 32.70400
C  38.99100 8.55600 32.49700
C  39.56400 8.03200 27.76400
C  43.98300 9.94900 27.91100
N  41.28900 9.62100 32.36300
C  42.15600 10.26300 33.18900
C  41.62400 10.34100 34.61300
C  40.31500 9.50900 34.52000
C  40.13300 9.25200 33.00100
C  40.19400 8.22900 35.37700
C  41.43600 11.84800 34.97900
C  40.53800 12.08800 36.18100
H  41.12000 12.93400 37.34500
N  39.38400 8.51300 30.18500
C  38.59500 8.20200 31.21300
C  37.41200 7.52700 30.71000
C  37.46700 7.51600 29.28000
C  38.86000 7.95900 29.00000
C  36.36500 7.02500 31.56900
C  36.52300 7.01300 28.25300
O  36.76300 7.04000 27.07900
C  35.20400 6.58600 28.67100
N  41.70600 9.08600 28.17500
C  40.81900 8.41100 27.37400
C  41.30100 8.32700 25.91300
C  42.81800 8.74600 26.03800
C  42.85000 9.25400 27.49900
C  41.12800 6.91100 25.24000
C  43.21100 9.82400 24.90800
C  42.83800 11.29500 25.14300
N  43.22200 10.26800 30.22100
C  44.27800 10.30100 29.27700
C  45.42300 10.86500 29.86900
C  45.08200 11.13300 31.17600
C  43.78700 10.68500 31.37800
C  46.80200 11.12800 29.27300
C  45.58300 11.76600 32.39100
O  46.59800 12.38000 32.58900
C  44.48700 11.50400 33.46300
C  44.98800 10.71000 34.62200
O  45.07300 9.50300 34.59700
O  45.36300 11.58700 35.63900
C  45.71100 10.87400 36.80800
H  38.23800 8.47300 33.28300
H  38.98700 7.56100 26.96500
H  44.71300 9.97800 27.10000
H  42.41300 9.83800 35.17200
H  39.44700 10.11000 34.79200
H  40.76100 8.46400 36.27700
H  40.57400 7.36100 34.83800
H  39.17800 8.17700 35.76800
H  40.98300 12.37600 34.14000
H  42.38400 12.35900 35.15000
H  40.37900 11.10200 36.61700
H  39.58200 12.45100 35.80500
H  35.46700 7.64300 31.55500
H  36.67200 7.00300 32.61400
H  36.13800 5.99200 31.30800
H  34.85700 7.28900 29.42800
H  35.19300 5.58400 29.10000
H  34.45000 6.64400 27.88600
H  40.79500 9.00600 25.22600
H  43.37400 7.81000 25.97100
H  40.19700 6.47500 25.60300
H  41.94900 6.24900 25.51600
H  41.10000 7.04700 24.15900
H  42.65100 9.37900 24.08600
H  44.29900 9.76500 24.86900
H  42.13200 11.26900 25.97300
H  42.39600 11.85900 24.32200
H  43.68600 11.85900 25.53200
H  46.85000 10.55500 28.34700
H  47.57000 10.89400 30.01000
H  46.88700 12.19200 29.05400
H  44.05200 12.42800 33.84400
H  44.82600 10.78300 37.43900
H  46.37400 11.57000 37.32100
H  46.28400 9.96000 36.64900
Mg -2.28200 34.36000 27.61300
C  -3.88900 32.54800 30.11900
C  -0.80200 36.27100 30.12300
C  -0.84800 36.26700 25.15300
C  -4.17300 32.60200 25.19500
N  -2.38000 34.37800 29.82200
C  -3.16800 33.63700 30.65000
C  -2.91700 33.91600 32.22900
C  -2.04900 35.21900 32.10400
C  -1.61800 35.27500 30.60700
C  -2.58700 36.63800 32.50100
C  -2.34500 32.67700 33.00000
C  -3.08800 32.14600 34.27600
H  -2.33200 32.14700 35.63500
N  -1.04600 36.07000 27.66700
C  -0.51600 36.66700 28.75900
C  0.38700 37.69800 28.34100
C  0.48500 37.67400 26.89500
C  -0.52200 36.66400 26.49900
C  1.15500 38.54800 29.29400
C  1.34900 38.54900 25.98900
O  1.34700 38.40600 24.75700
C  2.00400 39.74800 26.47600
N  -2.51800 34.48800 25.46900
C  -1.75700 35.28700 24.71000
C  -2.15000 35.12600 23.25400
C  -2.93000 33.78600 23.25800
C  -3.23100 33.60800 24.73700
C  -3.00700 36.36000 22.81600
C  -2.05600 32.68600 22.77500
C  -2.22400 32.27800 21.31600
N  -3.62000 32.84000 27.57500
C  -4.36800 32.26000 26.51200
C  -5.24400 31.26600 27.03500
C  -5.08100 31.31700 28.45300
C  -4.08900 32.29200 28.75100
C  -6.14000 30.39000 26.18700
C  -5.60500 30.79600 29.71800
O  -6.36600 29.89500 29.98500
C  -4.82000 31.58600 30.83800
C  -5.87400 32.19000 31.73500
O  -6.76600 32.95400 31.36800
O  -5.67100 31.73000 33.02800
C  -6.82600 31.76400 33.90900
H  -0.38900 36.90200 30.91200
H  -0.45100 36.83800 24.31000
H  -4.81200 32.21700 24.39700
H  -3.89700 34.23100 32.58600
H  -1.25900 35.08400 32.84300
H  -1.79400 37.14200 33.05400
H  -3.46000 36.61900 33.15300
H  -2.79000 37.12000 31.54400
H  -1.36600 32.91000 33.41800
H  -2.20200 31.79800 32.37100
H  -3.31000 31.10500 34.04400
H  -3.99300 32.73400 34.43200
H  0.53400 38.75800 30.16500
H  1.56700 39.50000 28.95800
H  1.97700 37.94600 29.68000
H  1.35400 40.38200 27.07900
H  2.38200 40.31200 25.62400
H  2.81100 39.34300 27.08700
H  -1.29700 35.11300 22.57600
H  -3.93100 33.87600 22.83700
H  -2.59100 36.93600 21.99000
H  -3.06500 37.01700 23.68500
H  -3.98800 35.99200 22.51500
H  -2.09200 31.87600 23.50400
H  -1.00400 32.96900 22.81800
H  -1.26700 32.56200 20.87900
H  -3.07800 32.81800 20.90700
H  -2.47500 31.22500 21.19000
H  -5.42400 29.75100 25.67100
H  -6.56700 30.94600 25.35200
H  -6.80600 29.86100 26.86900
H  -4.24200 30.78800 31.30400
H  -7.07800 30.85300 34.45200
H  -7.66900 31.98700 33.25500
H  -6.74300 32.60600 34.59600

