158

Mg 17.23100 -2.09500 27.69100
C  15.86100 0.04800 30.23600
C  18.64400 -3.84300 30.23000
C  18.62900 -3.94800 25.40400
C  15.95000 0.09100 25.36000
N  17.35700 -1.76300 30.01900
C  16.66900 -0.89000 30.78100
C  16.87900 -1.15800 32.27800
C  17.87600 -2.32500 32.24100
C  18.06600 -2.63200 30.73000
C  19.27900 -2.08000 32.86200
C  15.54300 -1.53800 32.94300
C  15.22100 -0.80500 34.28900
H  16.36000 -0.25200 35.03500
N  18.41100 -3.70100 27.78400
C  18.86400 -4.31200 28.93100
C  19.54000 -5.50800 28.54800
C  19.54600 -5.56400 27.10500
C  18.90300 -4.31700 26.69800
C  20.04100 -6.50700 29.63200
C  20.27800 -6.48300 26.17500
O  20.49800 -6.27100 25.00600
C  20.88000 -7.75200 26.68100
N  17.36800 -1.87200 25.69100
C  17.93600 -2.79700 24.93700
C  17.65600 -2.51200 23.40100
C  16.67100 -1.19700 23.40600
C  16.61100 -1.00500 24.94100
C  18.91000 -2.27800 22.52500
C  15.15500 -1.50900 22.84800
C  14.41900 -0.33700 22.16500
N  16.18500 -0.27200 27.72300
C  15.71700 0.45400 26.68900
C  14.82200 1.49700 27.14500
C  14.83400 1.37100 28.56600
C  15.69900 0.30900 28.85000
C  14.07300 2.49400 26.31000
C  14.34900 1.94800 29.79200
O  13.52200 2.85400 30.01700
C  15.07400 1.11000 30.88900
C  15.83700 2.11400 31.73900
O  17.04000 2.33500 31.72000
O  15.00000 2.67600 32.60000
C  15.62500 3.80500 33.34000
H  18.79100 -4.41700 31.14700
H  18.90400 -4.67000 24.63300
H  15.51600 0.77000 24.62300
H  17.32500 -0.23100 32.63800
H  17.48400 -3.20800 32.74500
H  19.52100 -2.65800 33.75400
H  19.33300 -1.02800 33.14100
H  20.09500 -2.29500 32.17200
H  15.52300 -2.57100 33.29100
H  14.73700 -1.40900 32.22100
H  14.87600 -1.55400 35.00100
H  14.38700 -0.10500 34.23200
H  21.13000 -6.49200 29.60500
H  19.78200 -7.54200 29.41200
H  19.64900 -6.31400 30.63000
H  20.14600 -8.37300 27.19600
H  21.68000 -7.38000 27.32100
H  21.35900 -8.33000 25.89100
H  17.10400 -3.35500 22.98500
H  17.12800 -0.32200 22.94400
H  19.76800 -2.60300 23.11300
H  18.99700 -1.27200 22.11300
H  18.81300 -2.86300 21.61000
H  14.50400 -1.93800 23.60900
H  15.29500 -2.27200 22.08200
H  14.31400 -0.41600 21.08300
H  14.88700 0.63000 22.34800
H  13.42400 -0.20700 22.58900
H  13.58800 3.28200 26.88600
H  13.26100 1.97100 25.80400
H  14.77300 3.01700 25.65800
H  14.14300 0.77000 31.34100
H  14.97600 4.50900 33.86100
H  16.08600 4.48600 32.62400
H  16.33500 3.36400 34.04000
Mg 9.29200 48.60600 27.73100
C  7.61900 47.82200 30.70500
C  12.14600 48.96200 29.62500
C  10.93900 49.23300 24.93100
C  6.28900 48.64900 25.94000
N  9.76900 48.65900 29.97600
C  8.95400 48.22500 30.98500
C  9.60800 48.31800 32.35300
C  11.10200 48.79100 31.93000
C  11.03300 48.92400 30.43100
C  11.55400 50.05600 32.74000
C  9.59300 46.93900 33.19500
C  10.60200 46.62500 34.36200
H  10.08900 45.77800 35.58700
N  11.32100 48.82300 27.29800
C  12.34400 48.90600 28.20900
C  13.58900 48.77100 27.47100
C  13.21800 48.86200 26.02600
C  11.77200 49.02000 26.06800
C  14.94400 48.49200 28.06200
C  14.13500 48.66300 24.83100
O  13.85600 48.45800 23.66600
C  15.61700 48.62200 25.11100
N  8.65800 49.04100 25.78200
C  9.58500 49.31000 24.78100
C  8.99800 49.30000 23.31100
C  7.44000 49.37300 23.70400
C  7.40800 48.94000 25.22800
C  9.52200 50.41100 22.42300
C  6.59600 48.35000 22.74600
C  5.92200 48.96900 21.55000
N  7.33200 48.34600 28.22800
C  6.19700 48.39000 27.38400
C  4.99500 47.98400 28.19500
C  5.55200 47.71300 29.46300
C  6.96300 47.95600 29.46500
C  3.62900 47.94000 27.60000
C  5.19100 47.33700 30.84100
O  4.06200 47.05800 31.24700
C  6.50600 47.36600 31.64300
C  6.60700 46.04800 32.22400
O  7.22300 45.04700 31.84200
O  5.82000 46.11000 33.33900
C  5.73300 44.86100 34.05900
H  13.09800 48.95900 30.15900
H  11.52100 49.38200 24.01900
H  5.35600 48.68600 25.37400
H  9.10300 49.09300 32.92900
H  11.90600 48.09500 32.16600
H  11.06700 50.14900 33.71000
H  11.38900 50.99700 32.21500
H  12.58900 49.85000 33.01400
H  9.60300 46.07700 32.52900
H  8.62800 47.08800 33.68100
H  11.05200 47.54400 34.73900
H  11.41200 45.98100 34.02000
H  14.96100 48.40100 29.14800
H  15.57800 49.36600 27.91300
H  15.49400 47.72600 27.51500
H  15.97400 49.37900 25.80900
H  16.12200 48.95100 24.20300
H  15.96000 47.66700 25.50900
H  9.21200 48.33500 22.85300
H  7.02600 50.38100 23.71500
H  9.48100 49.91800 21.45100
H  10.55000 50.65400 22.69000
H  8.85600 51.27300 22.44400
H  5.81500 47.81100 23.28200
H  7.27600 47.61200 22.32100
H  6.69600 49.42900 20.93600
H  5.25300 49.78500 21.82300
H  5.33800 48.13400 21.16300
H  3.03100 47.13600 28.03000
H  3.62300 47.79300 26.52000
H  3.17600 48.91500 27.77800
H  6.48300 48.13800 32.41100
H  6.08300 44.98900 35.08400
H  6.23000 44.00600 33.60000
H  4.68100 44.57600 34.06200

