158

Mg 47.90400 35.70400 28.40600
C  46.18600 33.63400 30.56400
C  47.86800 38.16000 30.83700
C  49.22300 37.76100 26.17400
C  47.79600 33.14100 25.90500
N  47.36600 35.76800 30.49700
C  46.70600 34.77000 31.18600
C  46.79500 34.98600 32.64900
C  46.70700 36.59800 32.64000
C  47.39400 36.87900 31.27300
C  45.21000 37.10800 32.64400
C  48.11800 34.44400 33.24900
C  47.97400 33.87800 34.66600
H  47.25800 34.85700 35.64800
N  48.54300 37.73200 28.50300
C  48.37600 38.53400 29.55600
C  48.99000 39.79900 29.22400
C  49.39400 39.78500 27.87400
C  49.15400 38.37200 27.46300
C  49.07500 40.91800 30.25100
C  49.99500 40.88200 27.00600
O  50.17400 40.71500 25.79800
C  50.26600 42.20700 27.62800
N  48.14000 35.56600 26.20800
C  48.87500 36.60800 25.64200
C  49.51900 36.14400 24.32100
C  49.11700 34.61800 24.21700
C  48.24400 34.41100 25.47000
C  49.23500 36.98600 23.03700
C  50.36800 33.77300 24.21000
C  50.69600 33.00300 22.85100
N  47.16700 33.80600 28.20400
C  47.16000 32.88200 27.16000
C  46.53200 31.62500 27.65400
C  45.96900 31.96500 28.92600
C  46.47900 33.26300 29.23700
C  46.38100 30.47400 26.84300
C  45.17500 31.45300 29.95500
O  44.69800 30.33100 30.14100
C  45.20500 32.56200 31.08000
C  45.54700 32.01500 32.40100
O  46.48500 31.28100 32.66600
O  44.57500 32.49200 33.30400
C  44.57100 32.15900 34.71500
H  47.69300 38.86800 31.65000
H  49.71500 38.39800 25.43600
H  47.91200 32.30500 25.21200
H  45.94300 34.61000 33.21600
H  47.23300 37.14200 33.42400
H  44.50100 36.28100 32.61300
H  45.18300 37.76000 31.77100
H  44.90300 37.72000 33.49200
H  48.93900 35.16100 33.27100
H  48.55100 33.66300 32.62300
H  48.96400 33.95500 35.11700
H  47.64200 32.84400 34.57400
H  50.10900 41.26400 30.26100
H  48.71600 40.60700 31.23200
H  48.51100 41.81500 29.99600
H  50.85100 42.76000 26.89400
H  50.89300 42.24600 28.51800
H  49.37000 42.79300 27.83700
H  50.59600 36.24700 24.45700
H  48.49000 34.57400 23.32600
H  48.65900 37.87400 23.29900
H  48.82200 36.53600 22.13400
H  50.18700 37.37100 22.67200
H  50.24400 33.05700 25.02300
H  51.25100 34.37000 24.44000
H  50.61500 31.92400 22.98500
H  51.71100 33.19800 22.50500
H  50.05700 33.17000 21.98300
H  46.81900 30.54800 25.84800
H  45.31800 30.29300 26.68200
H  46.61200 29.54400 27.36300
H  44.20700 32.99900 31.13300
H  43.58400 31.73900 34.90800
H  44.46900 33.05500 35.32700
H  45.45300 31.54000 34.88300
Mg -12.20900 40.01600 41.98200
C  -10.81000 36.90200 41.20000
C  -9.61000 41.56300 40.10300
C  -13.87800 42.97100 42.19800
C  -14.99900 38.37500 43.26600
N  -10.48600 39.25700 40.70000
C  -10.07800 37.95000 40.65600
C  -8.71800 37.89200 39.87600
C  -8.34200 39.34900 39.65200
C  -9.52300 40.11900 40.17700
C  -6.96400 39.75900 40.23300
C  -8.70400 36.92900 38.69900
C  -7.63900 35.82500 38.63900
H  -7.07800 35.33800 37.28300
N  -11.82500 42.04300 41.24700
C  -10.67900 42.38000 40.54800
C  -10.67400 43.82800 40.39800
C  -11.87100 44.30500 40.98500
C  -12.62400 43.11600 41.53600
C  -9.57800 44.65700 39.75400
C  -12.37100 45.66200 41.12200
O  -11.57800 46.61300 40.81600
C  -13.62400 46.01300 41.73800
N  -14.30300 40.53100 42.48300
C  -14.71000 41.82600 42.54100
C  -16.15300 41.93800 42.98500
C  -16.56500 40.39500 43.29200
C  -15.17600 39.70200 42.94500
C  -16.54600 42.92000 44.19200
C  -17.72800 39.81700 42.41100
C  -19.07900 39.69600 43.09500
N  -12.80700 38.07000 42.25600
C  -13.89400 37.57300 42.89200
C  -13.71300 36.09600 43.07900
C  -12.43900 35.81300 42.38600
C  -12.02700 37.00200 41.85900
C  -14.57500 35.18600 43.86700
C  -11.54700 34.74400 42.16200
O  -11.63300 33.60900 42.56800
C  -10.42700 35.39500 41.19300
C  -9.17700 35.04200 41.84700
O  -8.59800 33.95600 41.73100
O  -8.59300 36.08300 42.41600
C  -7.37900 35.90800 43.18700
H  -8.63000 41.87700 39.73700
H  -14.43600 43.82100 42.59600
H  -15.81800 37.84300 43.75500
H  -7.97000 37.47000 40.54700
H  -8.39800 39.66700 38.61100
H  -6.74900 38.99900 40.98400
H  -6.87800 40.69800 40.77900
H  -6.09800 39.73400 39.57100
H  -8.37500 37.41700 37.78200
H  -9.70000 36.51200 38.55200
H  -8.20400 34.98700 39.04700
H  -6.83100 35.91700 39.36500
H  -9.89700 45.06700 38.79500
H  -8.78800 43.97700 39.43500
H  -9.05100 45.39300 40.36100
H  -14.40400 45.62800 41.08100
H  -13.65300 47.10100 41.79200
H  -13.60200 45.71800 42.78700
H  -16.74600 42.18100 42.10300
H  -16.88500 40.23400 44.32200
H  -17.08000 43.80200 43.84100
H  -15.64400 43.16500 44.75300
H  -17.19300 42.41200 44.90700
H  -17.47000 38.80600 42.09800
H  -17.85000 40.38300 41.48800
H  -19.48200 38.68400 43.05700
H  -19.86400 40.17800 42.51300
H  -19.02700 40.12100 44.09700
H  -14.30600 34.15900 43.62300
H  -15.57100 35.28900 43.43600
H  -14.42800 35.48500 44.90500
H  -10.41800 34.87400 40.23600
H  -6.86400 36.86800 43.14700
H  -6.66300 35.23600 42.71400
H  -7.44900 35.67300 44.24900

