158

Mg 47.46600 34.63000 27.61800
C  45.72500 32.89700 30.14900
C  47.62300 37.29300 29.61800
C  48.45700 36.51300 24.97900
C  46.62600 32.01200 25.46400
N  46.81400 34.93600 29.57900
C  46.28700 34.10300 30.51500
C  46.36400 34.61300 31.92500
C  46.75500 36.12800 31.68400
C  47.04700 36.20200 30.18900
C  45.81100 37.23900 32.16300
C  47.54400 33.89000 32.76400
C  47.81000 34.33900 34.22400
H  46.80300 35.30300 34.91600
N  48.18000 36.60900 27.35300
C  48.20900 37.56900 28.33200
C  48.69900 38.84100 27.72500
C  48.88900 38.55200 26.33500
C  48.48500 37.16700 26.18300
C  48.81900 40.07300 28.48700
C  49.36600 39.49400 25.18800
O  49.36500 39.26500 23.97500
C  49.93800 40.78600 25.62900
N  47.50100 34.30400 25.52300
C  48.14400 35.14000 24.68400
C  48.31700 34.53500 23.25000
C  47.61800 33.19000 23.42100
C  47.27400 33.12900 24.88600
C  47.79900 35.37100 22.06500
C  48.54500 32.01900 22.93900
C  49.63500 31.39400 23.88400
N  46.44500 32.77000 27.74800
C  46.19200 31.82800 26.77700
C  45.47000 30.69100 27.37600
C  45.22800 31.09800 28.70900
C  45.85100 32.38400 28.86400
C  44.99400 29.41100 26.59900
C  44.56800 30.71600 29.91400
O  43.80100 29.79800 30.18700
C  44.75200 31.99600 30.87400
C  45.11700 31.56800 32.24300
O  45.94600 30.72000 32.53600
O  44.20700 32.02900 33.09900
C  44.24000 31.54400 34.46000
H  47.64500 38.18800 30.24300
H  48.70300 37.09300 24.08700
H  46.40900 31.19300 24.77500
H  45.39300 34.52700 32.41200
H  47.67400 36.36500 32.22000
H  46.40800 37.90000 32.79100
H  44.98700 36.84700 32.75900
H  45.41900 37.83300 31.33700
H  48.48300 33.96500 32.21600
H  47.27600 32.83300 32.75200
H  48.85300 34.60900 34.38800
H  47.61200 33.37400 34.69000
H  48.43600 40.01100 29.50600
H  48.38400 40.89800 27.92300
H  49.87100 40.29400 28.66800
H  49.16100 41.43000 26.04100
H  50.43400 41.33200 24.82700
H  50.60800 40.60400 26.46900
H  49.37700 34.36500 23.06400
H  46.66500 33.19800 22.89200
H  47.43500 36.38900 22.20300
H  46.99800 34.87400 21.51800
H  48.55700 35.63900 21.32900
H  49.01200 32.26200 21.98500
H  47.76800 31.27800 22.75000
H  50.60900 31.17700 23.44400
H  49.28800 30.44600 24.29500
H  49.71700 32.10200 24.70800
H  43.96700 29.53500 26.25700
H  44.95200 28.47100 27.14800
H  45.54500 29.32500 25.66200
H  43.76900 32.46800 30.84500
H  44.87200 30.67500 34.64400
H  43.24600 31.20200 34.75000
H  44.48600 32.36300 35.13500
Mg -12.65400 38.89800 42.87600
C  -10.87400 35.92100 41.87600
C  -10.32800 40.72300 41.05800
C  -14.49800 41.56900 43.51600
C  -15.33100 36.76200 43.77500
N  -10.67200 38.33800 41.66000
C  -10.19400 37.07500 41.42400
C  -8.95600 37.20800 40.54300
C  -8.73800 38.72700 40.39400
C  -9.97400 39.31500 41.09700
C  -7.40900 39.21500 41.04400
C  -9.07500 36.64000 39.12800
C  -7.75000 36.15500 38.56100
H  -7.00300 36.95700 37.49000
N  -12.42100 40.83900 42.46500
C  -11.40300 41.40000 41.74500
C  -11.60400 42.81600 41.58900
C  -12.77000 43.12500 42.32200
C  -13.30400 41.85600 42.79500
C  -10.60400 43.66300 40.83800
C  -13.27300 44.52700 42.53500
O  -12.73600 45.49500 41.97200
C  -14.43000 44.67000 43.47500
N  -14.65700 39.09500 43.54300
C  -15.12800 40.34000 43.79000
C  -16.57800 40.23100 44.24100
C  -16.99100 38.72400 44.15100
C  -15.53000 38.14200 43.86300
C  -16.82100 40.79500 45.71100
C  -17.95900 38.33900 43.01300
C  -19.38300 38.68500 43.31300
N  -13.02100 36.70600 42.97900
C  -14.15900 36.11400 43.35400
C  -13.87600 34.63900 43.28900
C  -12.61300 34.54200 42.69200
C  -12.14600 35.87200 42.46600
C  -14.67000 33.39100 43.74100
C  -11.61700 33.63300 42.19200
O  -11.61800 32.41400 42.05800
C  -10.42300 34.49600 41.64900
C  -9.14200 34.13500 42.36400
O  -9.00900 34.25200 43.57800
O  -8.21500 33.74300 41.50000
C  -6.89000 33.72300 42.11500
H  -9.69200 41.29000 40.37400
H  -15.04200 42.45500 43.84800
H  -16.23000 36.14900 43.86300
H  -8.07400 36.77600 41.01500
H  -8.65300 39.06800 39.36200
H  -6.94800 38.50600 41.73100
H  -7.64300 40.07900 41.66600
H  -6.61900 39.49600 40.34800
H  -9.08900 37.38300 38.33100
H  -9.86000 35.89100 39.02300
H  -7.87300 35.11600 38.25400
H  -6.99300 36.13500 39.34400
H  -10.71400 44.73000 41.03000
H  -10.65100 43.49300 39.76200
H  -9.59600 43.49800 41.22000
H  -14.19000 44.38100 44.49800
H  -15.35600 44.26000 43.07300
H  -14.42800 45.76000 43.44500
H  -17.08900 40.82000 43.48000
H  -17.26900 38.30000 45.11600
H  -17.61500 41.53900 45.64500
H  -15.91700 41.23100 46.13600
H  -17.26400 40.06000 46.38300
H  -17.86100 37.26200 42.87300
H  -17.64600 38.89800 42.13100
H  -19.93500 37.75500 43.44400
H  -19.82200 39.30200 42.52900
H  -19.53500 39.34500 44.16700
H  -15.12400 32.90400 42.87800
H  -15.46700 33.71000 44.41200
H  -13.95100 32.72700 44.22100
H  -10.28600 34.36700 40.57500
H  -6.78200 32.99900 42.92300
H  -6.75300 34.71500 42.54600
H  -6.18000 33.51200 41.31500

