158

Mg 30.13900 57.35600 40.60600
C  27.30700 55.23600 39.48200
C  32.19900 55.00300 39.21400
C  32.53300 59.56200 41.01200
C  27.74600 59.88600 41.34400
N  29.72800 55.39000 39.24900
C  28.54300 54.69300 39.06500
C  28.76900 53.25100 38.47900
C  30.32900 53.11700 38.58600
C  30.82900 54.57100 39.12600
C  30.67200 51.99300 39.46300
C  28.24500 53.11800 37.01100
C  28.95500 54.11300 36.02500
H  28.09200 55.13100 35.32400
N  32.14500 57.27100 40.26400
C  32.77100 56.25100 39.68100
C  34.19200 56.59600 39.75000
C  34.40200 57.89400 40.28000
C  33.01600 58.28400 40.55100
C  35.22800 55.59900 39.30700
C  35.78300 58.56800 40.59500
O  36.74500 58.01000 40.06400
C  35.86500 59.81900 41.57500
N  30.14300 59.45200 41.20600
C  31.30400 60.12500 41.35100
C  31.08700 61.63800 41.69200
C  29.57400 61.64700 41.84100
C  29.11600 60.24800 41.42700
C  31.93100 62.31600 42.88400
C  28.73300 62.90100 41.13600
C  27.65700 63.58400 41.98200
N  27.99900 57.51500 40.47600
C  27.21800 58.60800 40.85500
C  25.83200 58.15400 40.84100
C  25.80600 56.85400 40.35400
C  27.12700 56.50800 40.14800
C  24.63300 58.98500 41.14900
C  24.93600 55.72400 39.99100
O  23.70000 55.62000 40.08900
C  25.92500 54.62100 39.46500
C  25.84100 53.40200 40.28400
O  26.33200 53.29800 41.40700
O  25.05400 52.49500 39.57000
C  24.71200 51.23300 40.27900
H  32.87800 54.22100 38.86500
H  33.37000 60.25700 41.10100
H  27.06800 60.56700 41.86300
H  28.22100 52.53700 39.09300
H  30.73500 52.90600 37.59600
H  30.29300 52.21400 40.46000
H  31.76100 51.94400 39.48200
H  30.22400 51.07400 39.08500
H  27.18900 53.38500 36.97600
H  28.34500 52.07000 36.72800
H  29.41100 53.57600 35.19300
H  29.78700 54.73800 36.35000
H  36.15400 56.00500 38.90000
H  34.81100 55.02800 38.47800
H  35.59100 54.97000 40.12000
H  35.57500 60.72700 41.04700
H  36.89600 59.99700 41.88000
H  35.22700 59.61600 42.43600
H  31.28500 62.21000 40.78600
H  29.28800 61.73900 42.88900
H  32.71100 61.62800 43.21100
H  31.23200 62.57800 43.67800
H  32.32100 63.27600 42.54400
H  28.24400 62.43400 40.28100
H  29.28200 63.81000 40.89200
H  27.91300 64.58400 42.33200
H  27.44400 63.02600 42.89400
H  26.69600 63.55100 41.46800
H  24.74200 59.88900 40.54900
H  24.65700 59.39400 42.15900
H  23.71700 58.40400 41.03800
H  25.53600 54.36800 38.47900
H  25.61500 50.62300 40.27200
H  23.91300 50.74700 39.72000
H  24.20800 51.48300 41.21200
Mg 0.45000 43.20800 26.15200
C  2.71300 43.72100 28.93400
C  -2.02000 42.31900 28.32400
C  -1.34400 42.00000 23.56100
C  3.38300 43.29900 24.07200
N  0.43800 42.91500 28.29000
C  1.38000 43.22300 29.26900
C  0.81800 43.03000 30.68700
C  -0.59000 42.39000 30.41500
C  -0.78200 42.57500 28.91000
C  -0.72800 40.88600 30.68900
C  0.71700 44.41100 31.44300
C  0.73900 44.32500 32.97100
H  0.66000 42.95500 33.68900
N  -1.49800 42.51000 25.96300
C  -2.39300 42.24900 26.95900
C  -3.71600 41.94000 26.34400
C  -3.54700 42.04900 24.95900
C  -2.08200 42.14600 24.78800
C  -4.92500 41.75200 27.21400
C  -4.55200 41.89700 23.82300
O  -4.22300 41.86500 22.66100
C  -6.03800 41.68500 24.22600
N  0.92800 42.68900 24.15200
C  -0.00300 42.11200 23.33000
C  0.67000 41.76500 21.94900
C  1.97900 42.66000 21.98100
C  2.13900 42.92200 23.48200
C  0.79400 40.21400 21.78700
C  1.88500 43.97700 21.28800
C  3.18600 44.37700 20.61100
N  2.60700 43.45400 26.42800
C  3.58000 43.64400 25.45300
C  4.75000 44.12700 26.06700
C  4.44100 44.18500 27.41600
C  3.17700 43.77500 27.63700
C  6.01700 44.40900 25.28400
C  5.01700 44.42400 28.72200
O  6.16900 44.74200 29.15700
C  3.86000 44.13200 29.75400
C  4.31000 43.05700 30.77900
O  4.25100 41.84900 30.55900
O  4.64700 43.70700 31.99200
C  4.97400 42.73300 33.07700
H  -2.85700 42.08900 28.98600
H  -1.94100 41.68600 22.70200
H  4.13300 43.48100 23.29900
H  1.51500 42.38900 31.22700
H  -1.38800 42.94000 30.91500
H  -1.66800 40.69600 31.20600
H  0.07900 40.55900 31.34500
H  -0.60900 40.23500 29.82200
H  -0.22000 44.94100 31.27000
H  1.56800 45.01100 31.12200
H  0.08300 45.08300 33.39800
H  1.71700 44.77000 33.15300
H  -5.81100 42.34400 26.98300
H  -4.73800 42.19300 28.19300
H  -5.02700 40.66900 27.15300
H  -6.70400 41.39300 23.41400
H  -6.36300 42.65500 24.60500
H  -5.98900 40.92300 25.00300
H  0.04300 42.11800 21.13100
H  2.84800 42.08200 21.66500
H  0.38700 39.79500 22.70800
H  1.80900 39.98300 21.46300
H  0.12100 40.02100 20.95200
H  1.53400 44.70400 22.02100
H  1.07200 43.89200 20.56700
H  3.96800 43.69700 20.94900
H  3.34900 45.42000 20.88200
H  3.07000 44.28300 19.53200
H  5.86400 45.35600 24.76800
H  6.05500 43.65800 24.49500
H  6.91400 44.35600 25.90100
H  3.73600 45.07200 30.29200
H  5.78300 42.04700 32.82500
H  4.04400 42.17300 33.18200
H  5.16700 43.28900 33.99400

