158

Mg 41.16500 8.90100 28.94300
C  42.80200 10.27700 31.67800
C  38.88800 7.63800 31.10600
C  39.58000 7.64800 26.22300
C  43.92900 9.78800 26.88200
N  40.93800 8.94100 31.19000
C  41.58900 9.78500 32.05200
C  41.00200 9.83300 33.44500
C  39.78100 8.79900 33.24700
C  39.85000 8.40900 31.71400
C  39.86500 7.52500 34.08500
C  40.58000 11.23400 33.96900
C  39.96000 11.35100 35.39800
H  40.79600 11.89900 36.59500
N  39.50300 7.78600 28.65900
C  38.68800 7.39500 29.73800
C  37.61600 6.59100 29.19100
C  37.82900 6.43600 27.76500
C  38.97700 7.36300 27.50100
C  36.49000 6.05700 30.13900
C  37.03600 5.71500 26.70400
O  37.41400 5.76300 25.54300
C  35.82300 5.01800 27.18000
N  41.64700 8.70700 26.78600
C  40.81300 8.23000 25.85500
C  41.30500 8.40700 24.41700
C  42.72500 9.04300 24.67500
C  42.84200 9.20400 26.23200
C  41.29700 7.13300 23.61400
C  42.91700 10.34300 23.90600
C  42.54000 11.67100 24.55600
N  43.04700 9.64800 29.13400
C  44.02600 10.05200 28.26500
C  45.00900 10.95200 28.92300
C  44.55600 10.92000 30.27800
C  43.40900 10.17600 30.41200
C  46.18400 11.67000 28.33000
C  44.89000 11.43900 31.54100
O  45.75500 12.21500 31.87500
C  43.74400 11.12700 32.58300
C  44.35000 10.36600 33.64100
O  45.14200 9.42000 33.46200
O  43.98600 10.82300 34.87600
C  44.70000 10.31600 36.08900
H  38.16800 7.21700 31.81100
H  39.05800 7.51600 25.27200
H  44.85300 10.08100 26.37800
H  41.72300 9.49300 34.18800
H  38.86500 9.30300 33.55600
H  40.66800 7.66600 34.81000
H  40.02700 6.67600 33.42200
H  39.00200 7.40900 34.74100
H  39.84500 11.68400 33.30200
H  41.48100 11.84600 33.95500
H  39.65800 10.37300 35.77200
H  39.01700 11.89500 35.33800
H  35.61700 6.04700 29.48700
H  36.28600 6.72000 30.98000
H  36.80500 5.12500 30.60800
H  36.09100 4.18900 27.83500
H  35.45700 4.48900 26.30000
H  35.07000 5.66200 27.63400
H  40.68900 9.13000 23.88400
H  43.44500 8.26600 24.41400
H  41.09100 6.37100 24.36500
H  42.16400 6.85900 23.01200
H  40.43900 7.17900 22.94300
H  42.29400 10.31800 23.01200
H  43.93000 10.30700 23.50500
H  43.31100 12.07700 25.21100
H  41.60800 11.43700 25.07000
H  42.28400 12.49500 23.88900
H  47.14000 11.16400 28.46800
H  46.31000 12.62100 28.84700
H  46.01900 11.83500 27.26500
H  43.27500 12.03200 32.96900
H  43.91700 10.63800 36.77500
H  45.70800 10.72900 36.11300
H  44.62200 9.22900 36.12000
Mg 0.13200 43.48700 25.21100
C  2.33800 43.14700 27.90800
C  -2.54300 42.55500 27.31900
C  -1.91400 43.56800 22.57900
C  2.91800 44.38900 23.24900
N  -0.02200 42.80900 27.32100
C  0.98800 42.93700 28.26400
C  0.43700 42.82600 29.70200
C  -1.12800 42.52200 29.46600
C  -1.26400 42.65900 27.92000
C  -1.60800 41.17300 30.06200
C  0.73100 44.04900 30.72300
C  1.22300 43.66200 32.11700
H  0.75300 42.33700 32.71400
N  -1.95200 42.96500 24.91100
C  -2.87600 42.68500 25.92500
C  -4.20700 42.71200 25.27900
C  -4.02500 43.20100 23.96800
C  -2.61500 43.24800 23.75900
C  -5.46000 42.26000 26.03400
C  -5.01000 43.46200 22.91000
O  -4.71300 43.99100 21.82200
C  -6.51600 43.30600 23.14300
N  0.48200 43.81700 23.16900
C  -0.56300 43.77900 22.24800
C  0.04100 43.89400 20.83400
C  1.39400 44.60300 21.08200
C  1.71200 44.30000 22.55100
C  0.16200 42.56900 20.10600
C  1.47800 46.19200 20.79000
C  0.55700 47.03200 21.63700
N  2.14700 43.68200 25.47300
C  3.18400 44.11300 24.57300
C  4.47900 43.84900 25.17800
C  4.19200 43.57700 26.47100
C  2.78200 43.45100 26.59900
C  5.81000 43.92500 24.53600
C  4.78100 43.33500 27.77400
O  5.88700 43.34800 28.16000
C  3.57200 43.04000 28.76800
C  3.80100 41.66500 29.24700
O  3.36100 40.61800 28.82300
O  4.64400 41.74800 30.29800
C  4.62400 40.52600 31.14200
H  -3.45900 42.24200 27.82400
H  -2.55200 43.71800 21.70500
H  3.74000 44.62500 22.57100
H  0.75300 41.89300 30.16900
H  -1.74300 43.29900 29.92300
H  -1.95100 41.44700 31.05900
H  -0.83200 40.41600 30.17400
H  -2.37300 40.73800 29.41900
H  -0.16900 44.66400 30.70800
H  1.54100 44.62100 30.27100
H  1.06100 44.48800 32.80900
H  2.31100 43.62700 32.07000
H  -5.73900 43.09800 26.67400
H  -5.15700 41.47400 26.72600
H  -6.24900 41.89000 25.37900
H  -7.02800 43.54900 22.21200
H  -6.94200 44.03700 23.83100
H  -6.72900 42.29500 23.49100
H  -0.59200 44.58800 20.28000
H  2.21500 44.22900 20.47000
H  -0.53300 41.81200 20.46900
H  1.15700 42.17900 20.31600
H  0.11400 42.72200 19.02800
H  1.41700 46.47300 19.73800
H  2.45500 46.53800 21.12700
H  0.99400 47.06900 22.63500
H  -0.44200 46.59500 21.63900
H  0.33800 47.97900 21.14300
H  6.52200 44.11500 25.34000
H  5.99000 44.56500 23.67200
H  5.98100 42.94500 24.08900
H  3.70000 43.69400 29.63000
H  5.59400 40.03100 31.10200
H  3.82700 39.82600 30.89100
H  4.51100 40.82100 32.18500

