158

Mg 45.31700 4.55000 47.24600
C  43.63100 7.56700 46.43600
C  42.45200 2.92400 46.10900
C  47.03900 1.71000 47.36900
C  48.22500 6.38600 47.65600
N  43.28900 5.19400 46.23600
C  42.80900 6.45100 46.14400
C  41.34100 6.52500 45.68400
C  40.98100 5.02200 45.68400
C  42.33400 4.33100 46.00400
C  39.85400 4.65000 46.69600
C  41.11800 7.05400 44.24600
C  40.08300 8.16200 44.10100
H  39.37900 8.03100 42.73600
N  44.77200 2.56000 46.95500
C  43.56500 2.08400 46.43400
C  43.61400 0.63000 46.32600
C  44.96600 0.28600 46.73900
C  45.66800 1.50400 47.01500
C  42.50700 -0.23800 45.90300
C  45.51300 -1.13800 46.76700
O  44.75600 -2.03400 46.28000
C  46.83500 -1.61900 47.30700
N  47.37400 4.12800 47.42200
C  47.81900 2.91700 47.42500
C  49.37700 2.88000 47.73000
C  49.76600 4.34600 47.63000
C  48.33500 5.01800 47.60700
C  49.75200 2.11500 48.97000
C  50.51300 4.76100 46.39000
C  51.80000 5.43800 46.73900
N  45.90900 6.63300 47.16500
C  47.08200 7.22400 47.42100
C  46.91500 8.67600 47.32400
C  45.54000 8.82100 46.95000
C  44.98900 7.56100 46.83700
C  47.95400 9.69500 47.43300
C  44.46600 9.79800 46.64600
O  44.50000 11.00300 46.57000
C  43.18600 8.97700 46.46400
C  42.12900 9.09800 47.46500
O  41.74000 8.36000 48.35700
O  41.50300 10.37200 47.37900
C  40.18500 10.48200 47.97800
H  41.53500 2.36200 45.92400
H  47.56400 0.75500 47.30800
H  49.13700 6.93900 47.88900
H  40.65000 6.96700 46.40200
H  40.58700 4.74300 44.70700
H  40.26800 4.00200 47.46800
H  39.04300 4.08900 46.23100
H  39.30300 5.51700 47.05900
H  40.90400 6.30300 43.48600
H  42.02800 7.55700 43.91900
H  40.60300 9.11700 44.16800
H  39.26300 8.00300 44.80200
H  42.61200 -0.36700 44.82600
H  41.53700 0.20200 46.13200
H  42.52300 -1.16500 46.47600
H  46.76700 -2.69400 47.47500
H  46.94500 -1.05700 48.23400
H  47.66700 -1.56100 46.60600
H  49.86900 2.30200 46.94800
H  50.23900 4.68200 48.55300
H  48.84600 1.99400 49.56200
H  50.51000 2.64700 49.54600
H  50.15100 1.11200 48.81400
H  49.89500 5.48000 45.85300
H  50.71100 3.84300 45.83600
H  52.53400 4.81300 47.24900
H  51.47800 6.35500 47.23300
H  52.33700 5.91000 45.91600
H  48.39900 9.81800 48.42000
H  47.49900 10.63400 47.11600
H  48.66100 9.40000 46.65700
H  42.66600 9.17700 45.52600
H  39.48100 11.12300 47.44900
H  40.40300 10.99600 48.91400
H  39.71100 9.52200 48.18400
Mg 49.24400 45.99400 42.74500
C  45.78500 46.10900 42.37200
C  49.27000 42.71400 41.64900
C  52.70300 46.11200 42.27500
C  49.28600 49.37400 43.36900
N  47.77600 44.64800 41.94300
C  46.41800 44.87700 42.00300
C  45.59800 43.60200 41.55000
C  46.68500 42.45900 41.73000
C  47.96700 43.31900 41.78500
C  46.54100 41.67000 43.03800
C  45.08100 43.77600 40.10500
C  43.61000 43.36800 39.90600
H  43.03800 43.78100 38.54200
N  50.82200 44.57300 42.17100
C  50.57200 43.27200 41.82400
C  51.78200 42.64900 41.56400
C  52.80100 43.59900 41.68800
C  52.12000 44.80300 42.07500
C  51.85800 41.20300 41.14000
C  54.32300 43.33600 41.31600
O  54.66300 42.19800 41.10300
C  55.26000 44.38500 41.14900
N  50.80400 47.44900 42.79400
C  52.07500 47.26600 42.71000
C  52.92600 48.60100 42.85600
C  51.81900 49.56300 43.38700
C  50.56000 48.74700 43.10200
C  54.08200 48.54600 43.88100
C  51.86000 50.91900 42.66700
C  51.74800 52.21100 43.48900
N  47.85500 47.49700 42.77700
C  48.02200 48.81600 43.22300
C  46.74500 49.42500 43.33000
C  45.81700 48.39500 43.04600
C  46.53900 47.25500 42.73400
C  46.46900 50.85900 43.59600
C  44.42700 48.06300 42.89400
O  43.40600 48.67900 43.01500
C  44.35300 46.52200 42.50900
C  43.58700 45.80300 43.50500
O  43.98500 45.53900 44.61900
O  42.40500 45.48600 42.96400
C  41.51400 44.70400 43.87300
H  49.25200 41.64300 41.43700
H  53.77100 46.24800 42.09300
H  49.36000 50.36600 43.82100
H  44.75100 43.48400 42.22600
H  46.68200 41.69200 40.95500
H  45.78300 42.13700 43.66800
H  47.51100 41.69400 43.53400
H  46.18300 40.65900 42.84400
H  45.79000 43.17400 39.53700
H  45.11000 44.82700 39.81400
H  43.01200 43.73400 40.74100
H  43.49500 42.30000 40.09100
H  52.79500 40.64600 41.16500
H  51.35300 41.08600 40.18100
H  51.16300 40.60900 41.73300
H  54.93200 44.87800 40.23400
H  56.25600 44.03000 40.88400
H  55.23300 44.95500 42.07800
H  53.20000 48.71100 41.80700
H  51.77600 49.81400 44.44700
H  54.00500 49.42800 44.51700
H  55.02400 48.52700 43.33300
H  54.10300 47.64200 44.49000
H  50.95600 50.83300 42.06200
H  52.70300 50.90100 41.97600
H  52.68300 52.76900 43.44300
H  51.47200 51.94600 44.51000
H  50.95000 52.82100 43.06600
H  47.18200 51.15100 44.36700
H  45.44100 50.98200 43.93700
H  46.52200 51.52300 42.73300
H  43.88900 46.36800 41.53500
H  40.62500 44.43000 43.30400
H  41.27400 45.43400 44.64600
H  42.10400 43.82600 44.13600

