158

Mg 17.49500 -1.04300 26.89500
C  16.57200 0.82000 29.77000
C  19.69900 -2.91700 29.04400
C  18.92300 -2.44100 24.20500
C  15.52100 0.86400 24.99400
N  18.13000 -0.97600 29.16100
C  17.54500 -0.17600 30.11500
C  17.91900 -0.61600 31.53700
C  19.04300 -1.75100 31.22800
C  18.95000 -1.92400 29.71500
C  20.42500 -1.32100 31.79400
C  16.70000 -1.12800 32.32800
C  16.30900 -0.42300 33.69200
H  17.39100 0.22700 34.50700
N  19.10000 -2.41200 26.62600
C  19.81900 -3.05900 27.63900
C  20.73200 -3.99400 26.98300
C  20.39400 -4.04100 25.59700
C  19.46400 -2.89500 25.38000
C  21.66900 -4.91000 27.63000
C  20.85700 -5.04800 24.46000
O  20.22000 -5.09000 23.41400
C  22.07400 -6.01600 24.62500
N  17.20000 -0.97500 24.93700
C  17.87500 -1.60600 23.99100
C  17.30600 -1.33500 22.59600
C  16.16600 -0.32700 22.90700
C  16.25100 -0.12900 24.39200
C  18.34900 -0.97900 21.42900
C  14.72400 -0.81100 22.45300
C  13.83000 -1.64100 23.35000
N  16.35800 0.57700 27.22500
C  15.58600 1.28100 26.31500
C  14.85500 2.32900 26.98100
C  15.23400 2.14100 28.36700
C  16.13700 1.06800 28.41700
C  14.00700 3.47900 26.31400
C  14.97100 2.61800 29.66200
O  14.25700 3.53400 30.06600
C  15.86300 1.82400 30.71100
C  16.69800 2.87300 31.40500
O  17.87000 3.19800 31.21000
O  15.87900 3.35400 32.44900
C  16.44700 4.37600 33.35500
H  20.33800 -3.55100 29.66300
H  19.25500 -2.98900 23.32100
H  14.86400 1.25200 24.21200
H  18.40700 0.24400 31.99700
H  18.81100 -2.75200 31.59000
H  20.53500 -2.01700 32.62600
H  20.46100 -0.27000 32.08300
H  21.14500 -1.52300 31.00200
H  16.79100 -2.19100 32.55300
H  15.81500 -0.94400 31.71900
H  15.73500 -1.09300 34.33300
H  15.60600 0.39800 33.55200
H  21.39600 -5.86600 27.18300
H  21.61000 -4.95100 28.71700
H  22.69600 -4.69000 27.34000
H  22.49000 -6.17200 23.63000
H  21.85200 -6.93500 25.16700
H  22.83600 -5.45700 25.16900
H  16.81700 -2.25200 22.26800
H  16.24700 0.65600 22.44400
H  19.35800 -0.80500 21.80100
H  17.93400 -0.21700 20.77000
H  18.52000 -1.81800 20.75500
H  14.94300 -1.45400 21.60000
H  14.30500 0.13500 22.11000
H  12.99300 -0.97700 23.56600
H  14.31200 -1.96100 24.27400
H  13.34900 -2.48100 22.85000
H  14.53800 3.91700 25.46900
H  13.82700 4.17000 27.13700
H  13.05300 3.00400 26.08200
H  15.36000 1.27700 31.50900
H  16.42100 4.24600 34.43700
H  15.72400 5.17400 33.18500
H  17.42200 4.73300 33.02300
Mg 47.57400 33.84100 26.74900
C  45.71400 32.69000 29.64000
C  48.25500 36.74200 28.65100
C  48.71500 35.37500 24.04900
C  46.40500 31.27700 24.90400
N  46.97800 34.67100 28.89300
C  46.36300 33.94600 29.86500
C  46.60400 34.64900 31.25800
C  47.07900 36.15400 30.85100
C  47.52100 35.84500 29.43500
C  45.98100 37.30900 30.88700
C  47.74500 33.87000 31.97600
C  48.04000 34.14600 33.47200
H  46.96200 35.04300 34.20400
N  48.34900 35.70300 26.40100
C  48.56500 36.77600 27.32000
C  49.28200 37.83800 26.64100
C  49.45800 37.45300 25.29200
C  48.86800 36.10300 25.18300
C  49.77000 39.11700 27.33100
C  50.05100 38.22200 24.10500
O  50.19300 37.74700 23.02400
C  50.40400 39.73000 24.24800
N  47.67800 33.36700 24.84000
C  48.17100 34.14900 23.83700
C  48.27700 33.38700 22.53100
C  47.64500 32.06000 22.81400
C  47.18500 32.21200 24.28900
C  47.82400 34.02400 21.19100
C  48.67400 30.91600 22.63100
C  49.49800 30.12400 23.69300
N  46.47200 32.23500 27.21600
C  46.02900 31.31600 26.31600
C  45.10200 30.39700 26.96400
C  45.00200 30.93800 28.26100
C  45.74000 32.09700 28.34300
C  44.39400 29.27100 26.29400
C  44.33500 30.69900 29.50600
O  43.55300 29.80200 29.81400
C  44.77900 31.83600 30.50600
C  45.54000 31.14500 31.56400
O  46.66300 30.64200 31.48400
O  44.79300 31.14500 32.67500
C  45.34100 30.30700 33.79400
H  48.44700 37.64800 29.22900
H  49.07500 35.77300 23.09800
H  46.02900 30.42100 24.34100
H  45.69800 34.67700 31.86400
H  47.88400 36.39600 31.54500
H  45.06600 36.91600 31.33100
H  45.85600 37.84800 29.94800
H  46.30800 38.04800 31.61900
H  48.62300 34.22100 31.43300
H  47.72500 32.79000 31.83100
H  48.99000 34.67900 33.51400
H  48.19100 33.20200 33.99600
H  50.80500 39.35500 27.08500
H  49.74000 38.94500 28.40700
H  49.03600 39.88900 27.10400
H  50.88400 39.98100 23.30200
H  51.07700 39.90500 25.08700
H  49.52300 40.36700 24.32100
H  49.36200 33.34800 22.44200
H  46.70400 31.83200 22.31400
H  46.98100 34.68500 21.39400
H  47.56900 33.30100 20.41600
H  48.61700 34.61700 20.73500
H  49.43300 31.25600 21.92700
H  48.17900 30.13300 22.05600
H  49.21800 30.59600 24.63500
H  50.57000 30.24700 23.53600
H  49.17700 29.08500 23.62400
H  43.41600 29.13600 26.75700
H  45.08600 28.49400 26.62000
H  44.22400 29.44100 25.23100
H  43.88900 32.40900 30.76900
H  46.40700 30.34800 34.02100
H  45.17300 29.23000 33.77000
H  44.91700 30.76100 34.68900

