158

Mg -2.44200 16.94100 25.73900
C  -2.68000 14.82200 28.63500
C  -3.30300 19.55500 27.80100
C  -2.51100 18.89300 22.98500
C  -1.85700 14.06400 23.72800
N  -3.20900 17.08600 27.94800
C  -3.07900 16.17400 28.94600
C  -3.33100 16.82400 30.37300
C  -3.60700 18.34100 30.00500
C  -3.34800 18.37500 28.48600
C  -5.11400 18.76100 30.23100
C  -2.39600 16.49300 31.49200
C  -2.51600 17.26900 32.77100
H  -2.19400 16.43500 34.02600
N  -2.83400 18.95900 25.48700
C  -3.07100 19.86300 26.43900
C  -3.17400 21.10500 25.87500
C  -3.00000 21.05400 24.43600
C  -2.79600 19.57900 24.26900
C  -3.45300 22.42700 26.73900
C  -2.98000 22.15300 23.34000
O  -2.83400 21.96200 22.11500
C  -3.20100 23.65500 23.68600
N  -2.29700 16.53600 23.61900
C  -2.34300 17.56100 22.68500
C  -2.05300 17.02600 21.26700
C  -1.79400 15.45800 21.50800
C  -1.91600 15.36800 23.06100
C  -3.14400 17.33300 20.19900
C  -0.46700 14.91800 21.03600
C  0.76900 15.24900 21.93700
N  -2.35800 14.93700 26.06600
C  -2.08900 13.86600 25.11300
C  -2.00500 12.65600 25.80700
C  -2.09200 13.05000 27.20900
C  -2.40000 14.38600 27.34500
C  -1.69200 11.33400 25.34200
C  -1.97600 12.45700 28.53500
O  -1.65400 11.34900 28.89900
C  -2.39600 13.62300 29.52300
C  -1.33500 13.72500 30.49600
O  -0.28000 14.29300 30.23400
O  -1.60800 13.01300 31.59500
C  -0.63600 13.10300 32.73500
H  -3.38000 20.47400 28.38600
H  -2.38500 19.57900 22.14500
H  -1.61400 13.15500 23.17500
H  -4.29100 16.38600 30.64400
H  -2.85800 18.96200 30.49600
H  -5.74100 19.10300 29.40700
H  -5.06500 19.53800 30.99400
H  -5.70800 17.97300 30.69500
H  -1.41900 16.61200 31.02400
H  -2.59000 15.44400 31.71500
H  -3.48300 17.71500 33.00600
H  -1.79700 18.08800 32.74300
H  -4.15400 23.03900 26.17200
H  -2.52500 22.97600 26.89800
H  -3.84200 22.25600 27.74300
H  -2.81200 24.36400 22.95500
H  -2.73700 23.91800 24.63600
H  -4.26800 23.87600 23.71200
H  -1.10000 17.45200 20.95200
H  -2.65100 14.84400 21.23200
H  -3.92700 18.05400 20.43400
H  -3.66900 16.45000 19.83600
H  -2.63900 17.79200 19.34800
H  -0.32200 15.28200 20.01900
H  -0.49300 13.82900 21.04500
H  1.23600 14.35300 22.34800
H  0.43800 15.82400 22.80200
H  1.55900 15.76900 21.39500
H  -1.22600 10.79900 26.16900
H  -1.07900 11.28900 24.44200
H  -2.63600 10.81100 25.18900
H  -3.33200 13.37400 30.02200
H  0.38500 12.89100 32.42000
H  -0.93200 12.41800 33.52900
H  -0.67900 14.15200 33.03000
Mg 16.88000 -1.76000 27.19800
C  16.26800 0.39500 29.94100
C  18.88500 -3.67000 29.22800
C  17.66400 -3.55200 24.60400
C  15.10000 0.52900 25.14500
N  17.55000 -1.63800 29.29100
C  17.06500 -0.75400 30.21300
C  17.60600 -1.03300 31.63200
C  18.54300 -2.28100 31.33600
C  18.35800 -2.57600 29.87700
C  19.98300 -1.95200 31.75400
C  16.50200 -1.34700 32.71900
C  16.64700 -0.61600 34.00200
H  18.07000 -0.04200 34.47400
N  18.01100 -3.40600 26.94400
C  18.73500 -4.12500 27.93100
C  19.28700 -5.43000 27.34500
C  18.90300 -5.32400 25.96200
C  18.10900 -4.07600 25.77800
C  20.08500 -6.52900 28.03900
C  19.09800 -6.40100 24.87000
O  18.68500 -6.24200 23.73700
C  19.88600 -7.52200 25.05700
N  16.29300 -1.63700 25.17900
C  16.98100 -2.36500 24.31100
C  16.80900 -1.85100 22.86300
C  15.77100 -0.73500 23.04200
C  15.67200 -0.62300 24.49600
C  18.16900 -1.44600 22.10600
C  14.27500 -1.07300 22.49000
C  13.82400 -0.12500 21.41700
N  15.89100 0.10500 27.44300
C  15.16300 0.87800 26.51400
C  14.52400 1.93900 27.19600
C  14.93300 1.82600 28.61400
C  15.79900 0.71000 28.59900
C  13.56200 2.79100 26.54100
C  14.81200 2.38700 29.90600
O  14.13100 3.31100 30.35200
C  15.68200 1.47200 30.81000
C  16.71700 2.33400 31.55800
O  17.84900 2.50900 31.19300
O  16.04700 2.94600 32.60400
C  16.84400 3.99500 33.35300
H  19.37800 -4.43300 29.83300
H  17.98200 -4.09600 23.71200
H  14.74100 1.28600 24.44400
H  18.17500 -0.17400 31.98700
H  18.34500 -3.11900 32.00500
H  20.04900 -1.37400 32.67600
H  20.48500 -1.42600 30.94100
H  20.43500 -2.91900 31.97600
H  16.43700 -2.41200 32.94300
H  15.58600 -1.00500 32.23900
H  16.29800 -1.27600 34.79600
H  15.90600 0.18200 33.95900
H  20.56200 -6.05300 28.89600
H  20.85500 -6.88300 27.35400
H  19.41400 -7.34300 28.31400
H  19.51200 -8.18500 25.83700
H  20.90700 -7.15200 25.15900
H  19.70200 -8.10800 24.15700
H  16.45900 -2.69000 22.26100
H  16.20000 0.18000 22.63200
H  18.16100 -0.43200 21.70600
H  18.41100 -1.95400 21.17300
H  18.97700 -1.59300 22.82300
H  13.54800 -0.98400 23.29700
H  14.31200 -2.05200 22.01100
H  13.25700 0.69000 21.86700
H  13.25200 -0.68200 20.67500
H  14.62800 0.37900 20.88000
H  12.70900 2.20500 26.19900
H  14.07200 3.37600 25.77600
H  13.11900 3.51200 27.22800
H  15.07100 1.10000 31.63300
H  17.61000 4.48900 32.75500
H  17.34400 3.67200 34.26700
H  16.20000 4.81400 33.67000

