158

Mg 1.78000 -1.92900 44.12700
C  5.05300 -0.77500 43.74800
C  0.70600 0.91700 42.53000
C  -1.23400 -3.42500 43.80500
C  3.15400 -5.04200 45.28600
N  2.85800 -0.16000 43.20000
C  4.15500 0.10300 43.17000
C  4.44500 1.40400 42.46100
C  3.00000 2.12300 42.48700
C  2.10000 0.89100 42.78400
C  2.90300 3.24800 43.57500
C  5.03700 1.26800 40.99400
C  6.23500 2.18500 40.64500
H  7.01400 1.94900 39.35600
N  0.01300 -1.26500 43.40700
C  -0.21500 -0.08300 42.72700
C  -1.65300 0.01300 42.46100
C  -2.27400 -1.22700 42.97400
C  -1.11500 -2.06100 43.43300
C  -2.29200 1.27900 41.87000
C  -3.82000 -1.47000 42.93600
O  -4.55800 -0.68700 42.36700
C  -4.48900 -2.72400 43.51400
N  0.99500 -3.95100 44.44300
C  -0.33400 -4.23700 44.37100
C  -0.46500 -5.71300 44.81100
C  0.93000 -6.21500 45.16000
C  1.76900 -4.99900 45.02800
C  -1.54700 -5.98400 45.83000
C  1.29000 -7.43800 44.26300
C  1.41900 -8.83500 44.99500
N  3.69400 -2.77500 44.52400
C  4.06900 -4.00200 45.04400
C  5.51800 -3.96500 45.20200
C  5.93400 -2.73500 44.69400
C  4.77800 -2.04600 44.32900
C  6.31900 -5.06000 45.72200
C  7.09500 -1.91000 44.39900
O  8.25200 -2.09300 44.72700
C  6.54400 -0.57800 43.73900
C  6.88600 0.60500 44.60300
O  6.17900 0.97900 45.50200
O  8.14100 1.01800 44.36800
C  8.50300 2.34300 44.95900
H  0.28800 1.78400 42.01400
H  -2.24800 -3.81600 43.69900
H  3.59300 -5.96700 45.66500
H  5.12800 2.04400 43.02100
H  2.77600 2.47600 41.48100
H  3.88700 3.53400 43.94400
H  2.29600 2.87300 44.39900
H  2.42100 4.14800 43.19200
H  4.21700 1.34800 40.28100
H  5.44100 0.26800 40.84000
H  6.93400 2.24900 41.48000
H  5.76100 3.16700 40.65500
H  -3.34600 1.21300 41.60200
H  -1.65200 1.65700 41.07300
H  -2.24600 1.98300 42.70000
H  -4.44900 -3.41000 42.66700
H  -5.48700 -2.30100 43.63300
H  -3.89600 -3.01900 44.37900
H  -0.83800 -6.30900 43.97700
H  0.91400 -6.55300 46.19600
H  -2.02300 -6.87500 45.42200
H  -2.21400 -5.12300 45.88000
H  -1.31400 -6.13800 46.88300
H  2.23000 -7.26600 43.73900
H  0.69200 -7.53200 43.35600
H  2.46600 -9.09800 45.15000
H  0.97300 -9.56000 44.31400
H  1.01200 -8.73400 46.00100
H  5.92900 -5.61700 46.57400
H  7.24200 -4.65800 46.14000
H  6.69000 -5.69900 44.92100
H  6.98100 -0.45900 42.74800
H  7.78800 3.15500 44.82400
H  9.37500 2.86300 44.56200
H  8.79400 2.27000 46.00700
Mg 46.58600 25.27700 28.71500
C  47.88200 27.67800 31.05000
C  45.57800 23.31800 31.31000
C  45.30400 23.12800 26.43300
C  47.88400 27.17700 26.18900
N  46.79500 25.54300 30.95100
C  47.19600 26.58400 31.66000
C  46.81100 26.37300 33.15300
C  46.38500 24.88600 33.11400
C  46.25400 24.53000 31.63800
C  47.31800 24.02300 34.04600
C  45.70700 27.33300 33.65500
C  46.14200 28.33700 34.75800
H  45.24400 28.29000 36.04700
N  45.67500 23.42700 28.88600
C  45.23400 22.84200 30.05900
C  44.47300 21.62000 29.71600
C  44.36600 21.54900 28.31500
C  45.15100 22.73200 27.82300
C  43.85300 20.67700 30.77000
C  43.58200 20.64500 27.40200
O  43.59600 20.74600 26.22400
C  42.68700 19.46200 27.88900
N  46.81600 25.09800 26.62800
C  46.01400 24.22300 25.92500
C  46.04800 24.44600 24.40400
C  46.71400 25.83800 24.41200
C  47.18000 26.06100 25.79700
C  47.02600 23.44800 23.63500
C  45.75200 26.97800 24.08500
C  46.23200 28.12900 23.23000
N  47.73500 27.04000 28.60800
C  48.15100 27.74900 27.49300
C  48.68500 29.03600 27.88200
C  48.59600 29.00000 29.28300
C  48.05800 27.81900 29.65300
C  49.11400 30.02800 26.98400
C  48.91500 29.77700 30.49400
O  49.50100 30.84900 30.61900
C  48.44600 28.91300 31.64100
C  49.53300 28.54700 32.56400
O  50.55000 27.93000 32.29400
O  49.23900 28.79900 33.84900
C  50.04500 28.26600 34.95300
H  45.23800 22.77000 32.19100
H  44.84200 22.57900 25.61000
H  48.20700 27.77000 25.33100
H  47.58100 26.73000 33.83600
H  45.40300 24.76800 33.57000
H  46.65900 23.36400 34.61100
H  47.89000 24.59400 34.77700
H  47.92900 23.44500 33.35300
H  44.80900 26.82900 34.01400
H  45.42200 27.82300 32.72300
H  46.19300 29.32700 34.30500
H  47.13100 28.15100 35.17500
H  44.00200 21.01000 31.79700
H  44.41000 19.76100 30.57500
H  42.78000 20.62300 30.58500
H  41.91700 19.71700 28.61700
H  43.30100 18.62800 28.22900
H  42.08700 19.07400 27.06600
H  45.08800 24.31400 23.90500
H  47.58200 26.01500 23.77700
H  47.34900 22.66200 24.31800
H  47.90200 23.94900 23.22400
H  46.45400 23.01800 22.81300
H  45.46100 27.43400 25.03100
H  44.89700 26.46700 23.64200
H  46.11800 29.09700 23.71800
H  45.76000 28.18600 22.24900
H  47.28300 28.08400 22.94600
H  48.83700 31.00000 27.39000
H  48.46200 29.98400 26.11200
H  50.14700 30.03200 26.63600
H  47.63600 29.47100 32.11000
H  50.73600 27.47600 34.66100
H  49.42300 27.90000 35.77000
H  50.49700 29.17500 35.34900

