158

Mg 47.63700 16.11900 28.98900
C  45.54300 15.96000 31.71000
C  49.60400 18.25000 30.90400
C  49.70000 16.49200 26.35400
C  45.18100 14.67200 26.96200
N  47.65700 16.88300 31.07300
C  46.65900 16.66200 31.99100
C  46.95600 17.26300 33.38300
C  48.07000 18.30400 32.94400
C  48.46600 17.87900 31.54700
C  47.61200 19.79400 32.83300
C  47.44700 16.18200 34.37600
C  47.49900 16.62500 35.81100
H  47.26400 18.12700 36.30900
N  49.41200 17.12300 28.72700
C  50.03600 17.96600 29.56100
C  51.31700 18.39800 29.08300
C  51.44800 17.80500 27.75100
C  50.18700 17.09400 27.54800
C  52.45600 19.10200 29.87700
C  52.64300 17.74100 26.79000
O  52.63900 17.11300 25.75100
C  53.86600 18.49300 27.15800
N  47.51100 15.63300 26.95100
C  48.46000 15.85400 26.05000
C  48.11800 15.32400 24.61800
C  46.70000 14.60800 24.83800
C  46.41500 15.04600 26.32100
C  47.94000 16.49600 23.56800
C  46.76000 13.10200 24.53000
C  47.49100 12.12200 25.49200
N  45.75700 15.47400 29.18700
C  44.86400 14.78800 28.31200
C  43.72800 14.38800 29.05300
C  43.98300 14.73000 30.42000
C  45.20800 15.43100 30.47400
C  42.49500 13.75400 28.43100
C  43.44700 14.67200 31.73200
O  42.35500 14.24600 32.15700
C  44.42900 15.49700 32.64900
C  43.66900 16.56600 33.38200
O  43.34100 17.69000 32.98700
O  43.42400 16.13600 34.68000
C  42.87800 17.10500 35.64700
H  50.27200 18.93800 31.42600
H  50.37500 16.52600 25.49600
H  44.42400 14.16800 26.35800
H  46.06400 17.74800 33.77700
H  48.94200 18.27300 33.59700
H  47.42100 20.05400 31.79200
H  48.43300 20.47000 33.07400
H  46.73300 20.05700 33.42100
H  48.44400 15.83400 34.10500
H  46.74000 15.36100 34.49200
H  48.56600 16.57600 36.03100
H  46.84700 15.97200 36.39100
H  53.22600 18.47800 30.33100
H  52.07600 19.62500 30.75400
H  52.86500 19.84000 29.18800
H  54.31100 18.26100 28.12500
H  53.82000 19.58000 27.21600
H  54.67700 18.35700 26.44300
H  48.86200 14.62600 24.23400
H  45.83700 15.03200 24.32500
H  47.92800 16.17300 22.52700
H  48.92100 16.97000 23.54700
H  47.18500 17.24200 23.81600
H  47.28400 13.00300 23.57900
H  45.70800 12.82400 24.47800
H  47.71500 12.56100 26.46500
H  48.30000 11.53500 25.05700
H  46.80300 11.33800 25.80900
H  42.13700 14.33100 27.57900
H  41.64100 13.80500 29.10500
H  42.70200 12.75400 28.04900
H  44.82200 14.72800 33.31300
H  42.02700 17.62100 35.20300
H  43.55500 17.88800 35.98800
H  42.66400 16.60800 36.59300
Mg 31.23600 58.78400 41.29700
C  28.22100 57.41500 40.01000
C  32.88000 56.10600 39.97000
C  33.99400 60.50800 41.82800
C  29.25100 61.73900 42.02400
N  30.63100 57.06900 39.94300
C  29.31800 56.64900 39.63100
C  29.37600 55.23500 39.00800
C  30.86700 54.75700 39.33200
C  31.55400 56.06700 39.79000
C  30.98200 53.62200 40.37500
C  28.96800 55.38900 37.49900
C  27.63900 54.74400 36.98900
H  27.50400 54.48900 35.49900
N  33.15300 58.33500 41.05100
C  33.59400 57.17600 40.43800
C  35.02100 57.23700 40.46400
C  35.44100 58.50000 40.97400
C  34.14800 59.17500 41.25800
C  35.80800 56.08600 39.83300
C  36.87000 59.00800 41.16700
O  37.76100 58.19200 40.95000
C  37.20100 60.28000 41.74600
N  31.59800 60.85700 41.91400
C  32.86500 61.29100 42.13200
C  32.84100 62.81200 42.37800
C  31.32600 63.18100 42.63000
C  30.67300 61.84500 42.19100
C  33.74200 63.36000 43.44600
C  30.80800 64.36600 41.79900
C  29.87800 65.33500 42.55200
N  29.18100 59.53000 41.17300
C  28.51400 60.66800 41.52800
C  27.09800 60.54700 41.33900
C  26.94800 59.28700 40.85200
C  28.22300 58.66100 40.70400
C  26.00700 61.49200 41.78100
C  25.95500 58.42100 40.39400
O  24.73400 58.55600 40.31100
C  26.69000 57.10400 39.85800
C  26.29500 55.88800 40.53300
O  26.87600 55.30900 41.48300
O  25.16300 55.32500 40.01100
C  24.61000 54.01200 40.54300
H  33.45100 55.29500 39.51500
H  34.88400 61.13800 41.89200
H  28.67400 62.59400 42.38400
H  28.62200 54.67100 39.55700
H  31.31500 54.37900 38.41300
H  30.07300 53.36500 40.91900
H  31.82600 53.82500 41.03400
H  31.31100 52.78200 39.76300
H  29.81300 55.35700 36.81100
H  28.74900 56.45000 37.37900
H  26.95400 55.57000 37.17500
H  27.20000 53.92400 37.55800
H  35.62200 56.00300 38.76200
H  35.44200 55.18300 40.32100
H  36.83900 56.21800 40.16100
H  36.70600 60.48000 42.69600
H  36.84600 61.05900 41.07100
H  38.24400 60.39400 42.04100
H  33.12700 63.33000 41.46300
H  30.99100 63.32700 43.65700
H  34.11700 62.61400 44.14600
H  33.22200 64.08800 44.06800
H  34.56400 63.82400 42.90000
H  30.25900 64.01200 40.92700
H  31.66600 64.89900 41.38900
H  28.91500 64.82400 42.56400
H  29.72300 66.30400 42.07800
H  30.32800 65.53400 43.52500
H  25.83400 62.19800 40.96900
H  26.32900 61.93400 42.72400
H  25.08900 60.96800 42.04600
H  26.47400 56.90800 38.80800
H  23.91300 54.13700 41.37200
H  25.36500 53.28700 40.84700
H  24.08200 53.54600 39.71100

