158

Mg 9.91400 46.77800 25.39200
C  7.50300 47.09000 27.74300
C  12.32600 47.75600 27.51900
C  12.42100 46.40800 22.82300
C  7.54100 46.22200 22.89300
N  9.86300 47.31600 27.37000
C  8.78900 47.34100 28.20500
C  9.23300 47.50700 29.67600
C  10.56400 48.24000 29.38800
C  10.96200 47.86300 27.91400
C  10.66200 49.72600 29.67800
C  9.43200 46.22800 30.57300
C  10.11800 46.51700 31.94600
H  9.44100 45.93300 33.15700
N  12.12700 46.91500 25.25700
C  12.87900 47.33000 26.30800
C  14.27500 47.33200 25.93800
C  14.38100 46.82600 24.59200
C  12.95700 46.66800 24.14700
C  15.39100 47.96600 26.77200
C  15.60800 46.58300 23.74100
O  15.47900 46.22500 22.58500
C  17.02600 46.72400 24.25600
N  10.05500 46.46600 23.20400
C  11.09600 46.45500 22.36800
C  10.73000 46.26500 20.87600
C  9.23000 46.15600 20.94200
C  8.87200 46.27700 22.42900
C  11.37100 47.42400 19.98600
C  8.71800 44.79700 20.41400
C  8.10200 44.79600 19.05000
N  7.88100 46.62500 25.24700
C  7.01600 46.39600 24.21700
C  5.60500 46.35000 24.79500
C  5.78200 46.47000 26.18500
C  7.16700 46.78900 26.37600
C  4.32700 46.17100 24.00500
C  5.07500 46.47600 27.43800
O  3.86000 46.31400 27.73100
C  6.21400 46.87100 28.48200
C  6.35500 45.71600 29.51200
O  6.86100 44.61000 29.34100
O  5.78900 46.13400 30.66300
C  5.54400 45.11500 31.70500
H  12.87400 48.12200 28.38900
H  13.12200 46.36100 21.98700
H  6.75300 45.97800 22.17800
H  8.60800 48.26300 30.15100
H  11.35400 47.77500 29.97900
H  9.85200 50.04900 30.33100
H  10.72600 50.23200 28.71500
H  11.58100 49.86600 30.24700
H  10.07100 45.57000 29.98400
H  8.48500 45.71900 30.75600
H  10.35100 47.57200 32.09000
H  11.09300 46.05100 31.80200
H  15.81300 48.83800 26.27300
H  16.04600 47.14000 27.04900
H  15.08100 48.31700 27.75700
H  17.08600 47.77200 24.55000
H  17.78700 46.45400 23.52300
H  17.16500 46.03500 25.08800
H  11.14900 45.28500 20.64500
H  8.80600 46.91300 20.28200
H  11.78200 48.18000 20.65500
H  10.63100 47.76300 19.26100
H  12.12700 46.92000 19.38400
H  7.98300 44.32300 21.06400
H  9.51500 44.05700 20.35900
H  8.53600 45.54600 18.38900
H  7.01900 44.91500 19.04500
H  8.28000 43.82800 18.58100
H  4.16200 45.09500 23.96200
H  4.68000 46.50500 23.02900
H  3.49800 46.69500 24.48000
H  5.95600 47.73800 29.09000
H  4.50900 45.03500 32.03700
H  6.17600 45.47800 32.51600
H  5.84900 44.09800 31.45800
Mg -11.82700 38.11300 41.34100
C  -9.55400 35.45800 40.96500
C  -9.48800 40.17900 39.86300
C  -14.27400 40.32600 40.89500
C  -14.15100 35.81000 42.66200
N  -9.83800 37.75300 40.35200
C  -9.05400 36.64800 40.33100
C  -7.69400 36.85700 39.66200
C  -7.64900 38.38500 39.77100
C  -9.04600 38.84200 39.96200
C  -6.57900 38.94100 40.75800
C  -7.61900 36.20100 38.21500
C  -6.24800 35.53700 37.88200
H  -5.42000 36.16000 36.83100
N  -11.88700 40.02100 40.38200
C  -10.80900 40.75700 40.04700
C  -11.21100 42.11000 39.79400
C  -12.63000 42.19900 40.03800
C  -12.98500 40.77000 40.45200
C  -10.23700 43.25100 39.45500
C  -13.47900 43.46800 39.95400
O  -13.00600 44.53400 39.58600
C  -14.99700 43.42100 40.05600
N  -13.92500 38.03000 41.73400
C  -14.72100 39.10100 41.44100
C  -16.20400 38.87200 41.77600
C  -16.10400 37.37500 42.32500
C  -14.65200 37.01600 42.22400
C  -16.85000 39.87000 42.74800
C  -16.94900 36.40900 41.48200
C  -18.44500 36.50700 41.65200
N  -11.85100 36.05200 41.87900
C  -12.80800 35.26600 42.54700
C  -12.21000 33.95000 42.82000
C  -10.95900 34.00700 42.16700
C  -10.82000 35.21700 41.54000
C  -12.95700 32.91300 43.60000
C  -9.75400 33.26900 41.92400
O  -9.42300 32.13300 42.31500
C  -8.81100 34.16700 41.05900
C  -7.58500 34.19300 41.83100
O  -6.74900 33.30300 41.79500
O  -7.41900 35.36300 42.49100
C  -6.31000 35.22000 43.38100
H  -8.70200 40.88600 39.59100
H  -15.04600 41.07100 40.69000
H  -14.86200 35.12800 43.13400
H  -6.82600 36.52300 40.23000
H  -7.29000 38.85200 38.85400
H  -5.99600 38.13800 41.21000
H  -7.16800 39.38500 41.56100
H  -5.97000 39.69900 40.26600
H  -7.84800 36.99800 37.50800
H  -8.37400 35.41700 38.15700
H  -6.47600 34.50400 37.61700
H  -5.62800 35.44300 38.77400
H  -10.42900 43.61100 38.44400
H  -9.19400 43.04100 39.21800
H  -10.28600 44.04100 40.20400
H  -15.51000 44.37200 39.91200
H  -15.22100 42.98100 41.02800
H  -15.31100 42.66800 39.33400
H  -16.83700 38.85300 40.88800
H  -16.28500 37.32400 43.39800
H  -17.28500 39.34200 43.59700
H  -17.56400 40.48200 42.19700
H  -16.12000 40.57400 43.14800
H  -16.60600 35.37600 41.54700
H  -16.75900 36.71800 40.45400
H  -18.73600 35.46700 41.80000
H  -18.97100 36.92900 40.79600
H  -18.66900 37.09900 42.54000
H  -12.42400 32.56400 44.48500
H  -13.14100 32.02700 42.99300
H  -13.87000 33.36500 43.98900
H  -8.73500 33.65200 40.10100
H  -5.42100 35.20200 42.75100
H  -6.33900 34.29900 43.96300
H  -6.29200 36.07300 44.06000

