158

Mg 47.57800 24.54100 28.02400
C  48.34700 26.82100 30.58700
C  46.72400 22.18700 30.61200
C  47.00300 22.17700 25.81500
C  48.97400 26.59800 25.68900
N  47.49300 24.56800 30.31800
C  47.75900 25.61900 31.06300
C  47.50100 25.24100 32.61500
C  47.08800 23.76900 32.57500
C  47.09900 23.47100 31.09000
C  47.98200 22.84300 33.44800
C  46.58400 26.30900 33.25700
C  45.75700 25.81100 34.42000
H  45.55800 26.65900 35.70600
N  46.98000 22.44300 28.15700
C  46.59700 21.70600 29.25200
C  45.96800 20.49800 28.86700
C  46.11200 20.41500 27.48500
C  46.80600 21.65300 27.09500
C  45.39200 19.45800 29.75800
C  45.61600 19.35500 26.48900
O  45.76200 19.42600 25.27700
C  44.89700 18.11700 26.94600
N  48.05100 24.32500 26.06300
C  47.51000 23.39400 25.28400
C  47.60400 23.65300 23.81700
C  48.12000 25.11600 23.83300
C  48.39000 25.35700 25.27400
C  48.60000 22.70700 23.03900
C  47.08000 26.15000 23.35000
C  47.58400 26.98800 22.21100
N  48.42600 26.38200 28.09700
C  48.91700 27.11000 27.05900
C  49.38100 28.39600 27.63500
C  49.17800 28.25900 29.03000
C  48.63000 27.01900 29.25400
C  50.10000 29.54100 26.95300
C  49.45700 29.02200 30.23900
O  49.95200 30.09000 30.46100
C  48.76600 28.12500 31.28300
C  49.74900 28.07800 32.44500
O  50.82600 27.58400 32.40200
O  49.18400 28.57100 33.55100
C  49.91000 28.58600 34.81700
H  46.34500 21.51000 31.38000
H  46.67400 21.49000 25.03200
H  49.13000 27.45200 25.02700
H  48.47000 25.33700 33.10600
H  46.01600 23.72700 32.76400
H  48.74100 23.35900 34.03600
H  48.41900 22.12600 32.75400
H  47.41300 22.13800 34.05300
H  45.87500 26.51700 32.45600
H  47.07800 27.24000 33.53900
H  46.22800 24.87500 34.72000
H  44.75200 25.66400 34.02500
H  44.36600 19.32500 29.41400
H  45.31900 19.82800 30.78000
H  45.94800 18.52700 29.64500
H  44.33000 17.67700 26.12600
H  44.04300 18.52900 27.48400
H  45.55500 17.51000 27.56800
H  46.56800 23.56900 23.48600
H  49.06000 25.19300 23.28700
H  48.04200 21.79900 22.80800
H  49.49600 22.40900 23.58300
H  48.90600 23.30500 22.18100
H  46.78200 26.80600 24.16800
H  46.13000 25.70800 23.05100
H  48.62300 26.81700 21.93000
H  47.41100 28.03200 22.47400
H  47.01700 26.81200 21.29700
H  49.68000 29.65800 25.95300
H  51.17100 29.34400 26.99700
H  50.05100 30.49000 27.48800
H  47.88500 28.67100 31.62100
H  49.92100 29.57700 35.27100
H  50.90100 28.15200 34.95300
H  49.41700 27.91700 35.52200
Mg 16.63700 51.45600 26.32100
C  18.50500 49.97700 28.89900
C  14.45900 52.63600 28.78100
C  14.78300 52.71800 23.92600
C  18.97900 50.18000 24.03800
N  16.35700 51.07200 28.50000
C  17.32800 50.60200 29.33100
C  17.06600 50.98300 30.85200
C  15.56400 51.41400 30.77400
C  15.44100 51.71400 29.24200
C  14.50100 50.38500 31.23500
C  18.05900 52.11400 31.33100
C  18.59600 51.96700 32.78300
H  17.75600 51.12700 33.74600
N  14.83200 52.44700 26.33300
C  14.09500 52.92400 27.42500
C  12.91700 53.66900 26.95100
C  13.05000 53.75600 25.59700
C  14.28700 52.94000 25.23800
C  12.01800 54.33700 27.97500
C  12.10800 54.39600 24.60600
O  12.37200 54.39500 23.41200
C  10.84900 54.91300 25.01300
N  16.78200 51.36700 24.26300
C  15.98300 52.15100 23.50300
C  16.39700 52.08000 22.05600
C  17.83400 51.41900 22.11200
C  17.90000 50.95100 23.55900
C  15.39800 51.42400 21.02100
C  19.06200 52.37800 21.78400
C  20.35700 51.68400 21.34400
N  18.34200 50.17800 26.32000
C  19.18100 49.77400 25.35200
C  20.30400 49.04200 25.93500
C  20.01700 49.03600 27.31400
C  18.82800 49.74600 27.51200
C  21.53200 48.51900 25.21600
C  20.47700 48.51600 28.58400
O  21.46800 47.78300 28.82700
C  19.49600 49.24000 29.71400
C  19.03900 48.33100 30.84000
O  18.22300 47.41700 30.75900
O  19.87200 48.52400 31.89700
C  19.99100 47.49600 32.87900
H  13.90200 52.94800 29.66700
H  14.29400 53.35200 23.18400
H  19.76600 49.94800 23.31800
H  17.12700 50.09700 31.48400
H  15.45200 52.31600 31.37500
H  13.85400 50.83100 31.99100
H  14.93500 49.54900 31.78400
H  13.97200 49.93200 30.39700
H  17.52000 53.06100 31.33000
H  18.81200 52.10900 30.54300
H  18.67300 53.01700 33.06200
H  19.63400 51.63200 32.80800
H  12.28800 53.97500 28.96700
H  10.98800 54.03600 27.78500
H  12.09600 55.42200 27.92200
H  11.04300 55.81600 25.59100
H  10.35900 54.34200 25.80200
H  10.18500 54.93400 24.14900
H  16.69400 53.08600 21.75900
H  17.83300 50.47600 21.56500
H  15.04400 50.45700 21.37900
H  16.10800 51.20000 20.22500
H  14.65300 52.05900 20.54100
H  19.28500 52.87400 22.72900
H  18.75800 53.05400 20.98400
H  21.07000 51.84100 22.15300
H  20.71100 52.15200 20.42600
H  20.30600 50.61000 21.16500
H  21.82200 49.15900 24.38300
H  21.28700 47.48900 24.95700
H  22.33800 48.52200 25.95000
H  20.15100 50.01500 30.11300
H  20.46500 46.54600 32.63200
H  19.02900 47.19800 33.29500
H  20.51400 47.96200 33.71400

