158

Mg 36.07500 0.56400 29.43700
C  33.76000 1.85400 31.84500
C  38.51400 0.65700 32.05200
C  38.43300 -0.08800 27.15200
C  33.71900 1.10600 26.98500
N  36.11700 1.22200 31.66700
C  35.05700 1.62000 32.40700
C  35.36500 1.76200 33.86100
C  36.97300 1.60600 33.87000
C  37.26800 1.17900 32.43500
C  37.79600 2.77800 34.33100
C  34.67600 0.74300 34.78900
C  34.68500 1.03300 36.33000
H  35.18100 2.35800 36.85000
N  38.12000 0.19300 29.59200
C  38.97900 0.34600 30.68700
C  40.36500 0.00200 30.31900
C  40.37200 -0.26200 28.97500
C  38.91100 -0.02900 28.48500
C  41.42200 -0.07700 31.35500
C  41.49200 -0.71300 28.07500
O  41.32100 -0.86200 26.87200
C  42.85200 -0.87400 28.57000
N  36.05800 0.38400 27.33200
C  37.18300 0.07500 26.61600
C  36.91300 -0.01000 25.06000
C  35.30600 0.30400 25.03700
C  35.01500 0.64700 26.50100
C  37.74100 0.95500 24.28700
C  34.44600 -0.83700 24.51700
C  33.03600 -0.46700 23.95000
N  34.16900 1.33500 29.38900
C  33.32000 1.41700 28.26900
C  32.01900 1.85100 28.72500
C  32.19600 2.04200 30.14400
C  33.48000 1.74600 30.47600
C  30.77900 2.03400 27.90700
C  31.43900 2.45100 31.33800
O  30.32100 2.88800 31.45900
C  32.41800 2.35800 32.52500
C  32.44200 3.74400 33.06700
O  33.21000 4.63200 32.71000
O  31.58300 3.96700 34.07300
C  31.18700 5.31000 34.51800
H  39.20200 0.65500 32.89900
H  39.22700 -0.12700 26.40400
H  32.95400 1.39500 26.26100
H  34.98400 2.72500 34.20100
H  37.32800 0.79400 34.50400
H  37.20000 3.66500 34.54600
H  38.66300 2.95800 33.69500
H  38.32700 2.56800 35.25900
H  35.21400 -0.15100 34.47500
H  33.65500 0.72800 34.40800
H  35.14700 0.23100 36.90500
H  33.63800 0.96800 36.62600
H  42.13400 -0.88600 31.19100
H  41.09400 -0.28600 32.37200
H  41.94300 0.87400 31.24500
H  43.54300 -0.92500 27.72800
H  42.90100 -1.77300 29.18600
H  43.20900 -0.05600 29.19500
H  37.22000 -0.92400 24.55200
H  35.18100 1.19100 24.41600
H  38.47400 1.40800 24.95600
H  37.20600 1.83500 23.93000
H  38.39500 0.42800 23.59300
H  34.33100 -1.57100 25.31500
H  35.03700 -1.38700 23.78500
H  32.97300 -0.87900 22.94300
H  32.91500 0.61500 24.00300
H  32.26500 -0.83000 24.63000
H  29.92200 2.29000 28.53100
H  30.57500 1.08800 27.40500
H  30.88700 2.82500 27.16400
H  31.99100 1.65400 33.23900
H  30.58500 5.30100 35.42600
H  30.57200 5.73200 33.72300
H  32.04200 5.97900 34.62400
Mg 47.87000 14.51500 28.84400
C  45.73400 14.52300 31.42500
C  49.98500 16.66400 30.64800
C  49.86300 14.80200 26.17500
C  45.44600 13.06400 26.66800
N  47.87100 15.56200 30.81700
C  46.91700 15.24100 31.80600
C  47.41200 15.82000 33.18400
C  48.72000 16.66300 32.82800
C  48.79900 16.35000 31.31400
C  48.64900 18.16400 33.06400
C  47.55600 14.71400 34.29500
C  46.84700 15.18600 35.64600
H  47.02700 16.68100 36.06000
N  49.74500 15.47000 28.51400
C  50.41200 16.25100 29.39500
C  51.65900 16.60000 28.80800
C  51.72200 16.03500 27.46800
C  50.41500 15.38200 27.30800
C  52.69800 17.45100 29.51800
C  52.77200 16.07000 26.47600
O  52.77000 15.37700 25.48200
C  54.02000 16.86800 26.60900
N  47.66600 14.02500 26.68300
C  48.65000 14.17500 25.83600
C  48.27300 13.88200 24.37400
C  47.04300 13.04800 24.65800
C  46.64000 13.39300 26.10300
C  47.89900 15.12400 23.49600
C  47.14300 11.48700 24.46800
C  48.38000 10.91100 25.24600
N  45.97100 13.91000 28.94700
C  45.10000 13.33700 28.05900
C  43.85300 12.97600 28.76200
C  43.99500 13.48200 30.02900
C  45.34400 13.97800 30.12600
C  42.73300 12.17300 28.21000
C  43.40800 13.59300 31.33700
O  42.27700 13.26300 31.66700
C  44.43600 14.28400 32.24500
C  43.81600 15.56400 32.83000
O  43.53200 16.55200 32.16100
O  43.77800 15.41900 34.19900
C  43.33500 16.67900 34.85500
H  50.70000 17.21100 31.26700
H  50.38700 14.91000 25.22300
H  44.82000 12.44700 26.02000
H  46.56900 16.41200 33.53900
H  49.56800 16.19100 33.32400
H  48.88800 18.64500 32.11500
H  49.42100 18.49600 33.75800
H  47.70800 18.62400 33.36700
H  48.55600 14.49000 34.66500
H  47.09000 13.90800 33.72700
H  47.16600 14.58600 36.49900
H  45.76900 15.03500 35.60000
H  52.38900 17.88800 30.46700
H  53.02400 18.31300 28.93600
H  53.50000 16.74700 29.73600
H  53.75300 17.91300 26.76900
H  54.50600 16.81400 25.63500
H  54.66500 16.52700 27.41900
H  49.05200 13.26700 23.92100
H  46.34400 13.36700 23.88500
H  46.86700 15.47300 23.51500
H  48.08900 14.73600 22.49500
H  48.54500 15.94000 23.82100
H  47.16600 11.25600 23.40300
H  46.31900 10.96400 24.95300
H  49.07700 10.63200 24.45500
H  48.09500 10.16900 25.99200
H  48.93400 11.67000 25.79800
H  42.98200 11.91400 27.18100
H  41.80000 12.73700 28.18700
H  42.50300 11.32500 28.85500
H  44.61300 13.58900 33.06600
H  43.53300 16.53200 35.91700
H  42.24600 16.72000 34.83600
H  43.74400 17.63100 34.51700

