158

Mg -2.05800 17.41700 26.25000
C  -2.28700 15.36100 29.03300
C  -2.79900 20.17200 28.22500
C  -2.07700 19.43700 23.49400
C  -2.07500 14.56100 24.28600
N  -2.52600 17.71000 28.36800
C  -2.37500 16.75500 29.34600
C  -2.51800 17.42000 30.79300
C  -3.05200 18.89800 30.42000
C  -2.70300 18.96700 28.87400
C  -4.52700 19.30300 30.62100
C  -1.21800 17.42700 31.68300
C  -1.35400 18.06900 33.09600
H  -1.31100 17.16900 34.37800
N  -2.32200 19.51700 25.95900
C  -2.57200 20.48700 26.87200
C  -2.62900 21.74400 26.33100
C  -2.26100 21.55700 24.97800
C  -2.27700 20.07800 24.75200
C  -2.65800 23.09700 27.04100
C  -1.89500 22.58800 23.89500
O  -1.80700 22.28500 22.75200
C  -1.82600 24.00400 24.22200
N  -2.30100 17.03200 24.12600
C  -2.10900 18.02400 23.24900
C  -1.99800 17.38100 21.88300
C  -1.86100 15.85800 22.11000
C  -2.02600 15.80100 23.64500
C  -3.25000 17.73500 20.97400
C  -0.51700 15.14400 21.59900
C  0.80700 15.75300 22.11000
N  -2.07600 15.37300 26.57400
C  -2.12800 14.33300 25.65000
C  -2.17800 13.09900 26.31100
C  -2.29200 13.41800 27.71300
C  -2.11400 14.82500 27.77500
C  -2.25500 11.69900 25.72500
C  -2.44400 12.97200 29.13400
O  -2.57700 11.85100 29.61800
C  -2.45300 14.19600 29.94200
C  -1.42600 14.05500 30.93300
O  -0.22700 14.27500 30.79500
O  -2.04000 13.47400 32.03000
C  -1.25000 13.00100 33.21700
H  -3.20000 21.05200 28.73200
H  -1.99900 20.02000 22.57400
H  -2.04700 13.65100 23.68100
H  -3.40100 16.93900 31.21200
H  -2.56000 19.64800 31.03900
H  -4.87800 19.80000 29.71600
H  -4.62200 20.02100 31.43600
H  -5.12000 18.42800 30.88600
H  -0.36600 17.85000 31.14900
H  -0.91600 16.40100 31.89500
H  -2.35700 18.44200 33.30600
H  -0.67600 18.91600 33.20100
H  -2.70500 23.07700 28.13000
H  -3.46400 23.74000 26.69100
H  -1.73300 23.63100 26.82300
H  -2.66600 24.41100 24.78500
H  -1.87500 24.50500 23.25600
H  -0.91100 24.13200 24.80100
H  -1.19200 17.87900 21.34500
H  -2.65200 15.25900 21.65700
H  -3.89400 18.31400 21.63600
H  -3.84800 16.88200 20.65200
H  -3.00600 18.38500 20.13400
H  -0.42100 15.12800 20.51400
H  -0.47600 14.10600 21.92800
H  1.38000 15.01200 22.66700
H  0.57600 16.55900 22.80600
H  1.40500 16.07100 21.25500
H  -3.18700 11.19800 25.98900
H  -1.42100 11.15900 26.17400
H  -1.95800 11.68300 24.67600
H  -3.44400 14.26600 30.38900
H  -0.24300 13.36700 33.01700
H  -1.20500 11.91200 33.22200
H  -1.61800 13.35400 34.18100
Mg 28.71900 60.01600 41.87400
C  25.89000 58.12000 41.02900
C  30.64500 57.74400 40.03200
C  31.50300 62.13700 42.14600
C  26.61000 62.47100 43.03900
N  28.28500 58.30700 40.55500
C  27.08300 57.69300 40.46900
C  27.10600 56.55400 39.49800
C  28.72100 56.28200 39.27900
C  29.24000 57.47400 40.05000
C  29.31300 54.90800 39.63900
C  26.28100 56.90300 38.19200
C  25.45500 55.76400 37.69600
H  25.96500 55.29000 36.38400
N  30.81100 59.91300 41.28300
C  31.34400 58.82800 40.61100
C  32.78500 58.99800 40.57800
C  33.11100 60.22100 41.23400
C  31.79500 60.87100 41.55400
C  33.76200 58.09500 39.92700
C  34.55700 60.83800 41.47600
O  35.58700 60.14200 41.13900
C  34.71100 62.19400 42.05400
N  29.01900 62.00000 42.30000
C  30.24500 62.67500 42.39000
C  30.05500 64.06100 43.02900
C  28.58900 64.05600 43.51400
C  27.97700 62.78600 42.83400
C  30.98300 64.57200 44.24200
C  27.64600 65.33800 43.26900
C  27.39700 66.15200 44.55900
N  26.68400 60.29300 42.16000
C  25.95400 61.28000 42.62800
C  24.55500 60.96000 42.67100
C  24.54100 59.73100 42.10400
C  25.81500 59.36300 41.73100
C  23.43000 61.80100 43.23800
C  23.58100 58.68100 41.78200
O  22.33600 58.57300 42.02700
C  24.46700 57.66100 41.07600
C  24.27700 56.38300 41.81600
O  24.62600 56.25800 42.97600
O  23.56700 55.45900 41.13500
C  23.48400 54.01800 41.64800
H  31.19300 56.95300 39.51600
H  32.31700 62.85000 42.29100
H  25.95100 63.17200 43.55600
H  26.59100 55.71000 39.95800
H  29.06600 56.35800 38.24800
H  29.87000 55.27300 40.50200
H  30.07700 54.44500 39.01500
H  28.52600 54.22200 39.95300
H  27.04300 57.22800 37.48400
H  25.59100 57.73200 38.35100
H  24.39800 55.98800 37.55300
H  25.46900 54.84800 38.28600
H  34.35900 58.70600 39.25000
H  33.40600 57.21200 39.39600
H  34.44900 57.65500 40.65000
H  34.33400 62.89500 41.31000
H  35.78000 62.27900 42.24600
H  34.17700 62.35400 42.99000
H  30.10800 64.78300 42.21500
H  28.55200 63.76400 44.56400
H  31.63300 65.39000 43.93200
H  31.68300 63.74100 44.32200
H  30.52700 64.86700 45.18700
H  26.67900 65.22400 42.78100
H  28.28400 65.97500 42.65600
H  26.33800 66.39700 44.64500
H  27.89700 67.11600 44.46700
H  27.63500 65.57900 45.45500
H  23.20700 62.48900 42.42300
H  23.78400 62.34700 44.11300
H  22.54300 61.19700 43.42800
H  24.01300 57.60100 40.08600
H  24.40400 53.70000 42.13800
H  23.31400 53.25600 40.88800
H  22.73900 53.97300 42.44300

