158

Mg 41.49500 41.56200 26.65300
C  40.70800 43.88700 29.02900
C  42.38500 39.28600 29.01500
C  42.55400 39.51800 24.07100
C  40.70000 43.99100 24.13100
N  41.62400 41.59900 28.73000
C  41.08400 42.61800 29.54300
C  41.13100 42.22600 31.02200
C  41.70900 40.77900 31.03700
C  41.86900 40.49600 29.48100
C  42.99800 40.62600 31.79700
C  39.87200 42.42600 31.78000
C  39.97900 43.24700 33.09400
H  39.46600 42.83000 34.42900
N  42.42800 39.74000 26.52000
C  42.70700 38.93300 27.65800
C  43.36000 37.73700 27.26100
C  43.32200 37.77600 25.84100
C  42.73800 39.07000 25.40300
C  43.74800 36.63900 28.17300
C  43.69500 36.63400 24.86200
O  43.64000 36.77400 23.65700
C  44.07700 35.30200 25.35800
N  41.55600 41.75700 24.43800
C  41.99600 40.69400 23.63400
C  41.74900 41.06600 22.11400
C  40.79500 42.32100 22.17400
C  41.02000 42.77200 23.64000
C  43.08200 41.28800 21.28500
C  39.28000 42.08200 21.76600
C  38.57600 40.91000 22.37500
N  40.98100 43.47900 26.52900
C  40.64100 44.37900 25.50600
C  40.28700 45.68300 26.00000
C  40.36500 45.58400 27.38300
C  40.74000 44.19200 27.66000
C  39.75600 46.74800 25.12600
C  40.08300 46.16900 28.61900
O  39.66100 47.31700 28.82500
C  40.39000 45.14300 29.74200
C  41.42400 45.64500 30.72800
O  42.56800 45.24800 30.79100
O  40.75300 46.58300 31.57800
C  41.53400 46.93700 32.80300
H  42.70400 38.59800 29.80100
H  42.97200 38.83200 23.33100
H  40.42900 44.71700 23.36100
H  41.86500 42.89500 31.47000
H  41.01100 40.02900 31.40800
H  43.31900 41.55600 32.26500
H  43.82300 40.37100 31.13100
H  42.87400 39.84300 32.54500
H  39.42600 41.47200 32.05900
H  39.16700 42.88400 31.08600
H  39.49700 44.19800 32.86600
H  40.99900 43.57500 33.29800
H  43.13500 35.76800 27.94000
H  43.51200 36.96000 29.18700
H  44.75700 36.22800 28.15800
H  43.24400 34.82300 25.87300
H  44.96000 35.37400 25.99200
H  44.30900 34.72500 24.46300
H  41.20000 40.29300 21.57500
H  41.05600 43.16800 21.54100
H  43.36400 42.31500 21.05100
H  42.98300 40.77200 20.32900
H  43.92900 40.83600 21.80100
H  39.30600 41.85700 20.70000
H  38.74100 43.00100 21.99700
H  38.15800 40.35600 21.53400
H  37.76200 41.33400 22.96300
H  39.22400 40.28600 22.99000
H  39.07900 46.31200 24.39100
H  40.51000 47.23800 24.51000
H  39.19100 47.43800 25.75300
H  39.43500 44.94800 30.23000
H  42.56800 46.59300 32.78500
H  41.11000 46.39900 33.65100
H  41.51200 48.00600 33.01300
Mg 16.11200 52.45300 25.46600
C  18.28400 51.51500 27.92500
C  13.79200 53.31300 27.73900
C  13.92200 53.42500 22.94600
C  18.35500 51.40600 23.07700
N  16.08600 52.44500 27.63500
C  17.10500 51.99500 28.44500
C  16.70800 52.25200 29.99500
C  15.19000 52.69900 29.85600
C  15.02100 52.86600 28.34700
C  14.15200 51.72100 30.43700
C  17.57700 53.35600 30.70300
C  17.61500 53.38400 32.26300
H  16.67200 52.57800 33.18100
N  14.17300 53.43000 25.35200
C  13.32500 53.63500 26.41100
C  12.13000 54.25400 25.97200
C  12.21000 54.34200 24.54400
C  13.52100 53.82000 24.19400
C  10.93400 54.66900 26.90300
C  11.11400 54.71000 23.51100
O  11.27900 54.67700 22.28100
C  9.68500 55.03200 24.00200
N  16.16600 52.59600 23.30900
C  15.14100 52.89000 22.56200
C  15.48700 52.55800 21.06200
C  16.88200 52.03400 21.11900
C  17.17900 51.99100 22.60100
C  14.44500 51.62200 20.31700
C  17.97700 52.81400 20.30100
C  18.65500 51.99300 19.18000
N  17.97700 51.72800 25.40500
C  18.78200 51.41300 24.35500
C  19.94100 50.77100 24.86900
C  19.84500 50.85400 26.22000
C  18.62800 51.46500 26.52400
C  21.00600 50.02600 24.10200
C  20.44500 50.36100 27.46100
O  21.42000 49.63800 27.64400
C  19.54400 50.92700 28.60500
C  19.22100 49.83600 29.56900
O  18.68700 48.79400 29.42000
O  19.70800 50.16000 30.76600
C  19.42400 49.29900 31.94800
H  13.12800 53.58200 28.56400
H  13.42300 53.86800 22.08200
H  18.73700 50.82500 22.23500
H  16.81800 51.29900 30.51300
H  15.06900 53.67600 30.32400
H  14.67900 50.81500 30.73500
H  13.52300 51.38800 29.61200
H  13.61800 52.04200 31.33100
H  17.17800 54.31800 30.38200
H  18.61800 53.31100 30.38300
H  17.70200 54.39000 32.67200
H  18.56500 52.85100 32.29600
H  10.05800 54.02100 26.90200
H  10.54700 55.67900 26.77000
H  11.39800 54.64100 27.88900
H  9.06400 54.95800 23.10900
H  9.83400 56.04700 24.36900
H  9.32900 54.36700 24.78900
H  15.42500 53.52900 20.57200
H  16.94300 50.99500 20.79400
H  14.85400 50.76800 19.77600
H  13.83900 52.14000 19.57400
H  13.81900 51.19900 21.10300
H  18.76100 53.15300 20.97800
H  17.49800 53.71800 19.92600
H  18.79000 52.51500 18.23200
H  18.06800 51.11700 18.90100
H  19.64400 51.66700 19.50000
H  21.46800 50.81100 23.50300
H  20.53300 49.34100 23.39800
H  21.69900 49.52700 24.77900
H  20.11700 51.75100 29.02900
H  18.34400 49.18100 32.04400
H  19.96500 49.74200 32.78400
H  19.82500 48.28900 31.86700

