158

Mg 44.91600 3.80900 46.69500
C  42.63800 6.31200 46.01400
C  42.27900 1.55400 46.85300
C  47.21900 1.49200 47.11500
C  47.49500 6.24000 46.10300
N  42.72300 3.94700 46.36300
C  42.01000 5.03800 46.00900
C  40.51700 4.68400 45.72800
C  40.41800 3.19100 46.30400
C  41.88700 2.87500 46.49100
C  39.67500 3.01800 47.65100
C  40.20900 4.65000 44.17700
C  39.26000 5.70300 43.63000
H  39.50100 6.55900 42.27600
N  44.82200 1.78600 46.90500
C  43.63700 1.06900 46.96800
C  44.03500 -0.31800 47.00200
C  45.46200 -0.42600 47.17000
C  45.93300 0.95200 47.03300
C  43.04000 -1.48300 46.98600
C  46.35300 -1.72400 47.24100
O  45.83100 -2.80000 47.09100
C  47.83000 -1.71400 47.58300
N  47.05900 3.82000 46.52300
C  47.81700 2.76100 46.91600
C  49.29400 3.13500 47.12000
C  49.37400 4.49000 46.35400
C  47.88300 4.92100 46.27600
C  49.77900 3.09500 48.63800
C  50.06100 4.44400 45.01000
C  51.59800 4.67900 44.96900
N  45.10300 5.87600 46.26400
C  46.18300 6.71300 46.06200
C  45.70700 8.08900 45.96400
C  44.30000 8.01600 45.91600
C  44.00200 6.58200 46.09600
C  46.54900 9.29700 45.84200
C  43.07900 8.70000 45.82600
O  42.89900 9.87400 45.64200
C  41.95400 7.71600 45.93700
C  41.12000 8.12400 47.09300
O  41.63200 8.39100 48.20200
O  39.80100 8.31600 46.69300
C  38.90500 8.61300 47.78700
H  41.47400 0.81700 46.80600
H  47.88400 0.72200 47.51100
H  48.35000 6.91800 46.15500
H  39.97700 5.42100 46.32300
H  39.87500 2.46400 45.70100
H  38.80400 2.36400 47.64000
H  39.43600 4.00900 48.03900
H  40.37200 2.54800 48.34600
H  39.61100 3.74900 44.03600
H  41.12000 4.52300 43.59200
H  39.06800 6.43300 44.41600
H  38.36100 5.14200 43.37800
H  42.88900 -1.85800 47.99800
H  43.35600 -2.32000 46.36200
H  42.10300 -1.11400 46.56900
H  48.11900 -1.00900 48.36300
H  48.33100 -1.50500 46.63800
H  48.12000 -2.73800 47.81800
H  49.87300 2.35700 46.62200
H  49.93900 5.25200 46.89100
H  50.33700 2.18600 48.86200
H  48.95300 3.19100 49.34200
H  50.46300 3.90100 48.90600
H  49.57300 5.09200 44.28100
H  49.79100 3.43400 44.70100
H  51.87500 5.01600 43.97000
H  52.05900 3.74400 45.28600
H  51.86400 5.45700 45.68500
H  47.50400 9.04600 46.30300
H  45.95400 10.15400 46.15700
H  46.72100 9.56900 44.80000
H  41.29000 7.81000 45.07800
H  38.98900 7.69000 48.36000
H  37.87400 8.77800 47.47500
H  39.11300 9.54300 48.31600
Mg 41.17200 41.73100 27.21800
C  39.85200 43.94600 29.75200
C  42.02700 39.56600 29.71800
C  42.01300 39.70200 24.90300
C  40.18500 44.19600 24.86500
N  41.10300 41.87900 29.48600
C  40.39800 42.75100 30.27100
C  40.33800 42.32300 31.76900
C  41.13400 40.98400 31.67100
C  41.46100 40.80200 30.18300
C  42.40300 40.82900 32.60100
C  38.86900 42.27100 32.21800
C  38.59400 41.55900 33.49600
H  37.96000 42.44700 34.63200
N  42.05600 39.89700 27.32700
C  42.33900 39.16000 28.43400
C  42.91200 37.91700 28.01900
C  42.94300 37.95100 26.55400
C  42.36800 39.23100 26.18100
C  43.42800 36.89300 28.99500
C  43.51600 36.88600 25.65800
O  43.51100 36.98300 24.40000
C  44.07800 35.66200 26.25400
N  41.11000 41.91300 25.16900
C  41.47300 40.87400 24.41500
C  41.11800 41.10600 23.01400
C  40.26700 42.48000 22.99400
C  40.47900 42.88300 24.43800
C  42.32500 40.97400 22.00600
C  38.75900 42.29700 22.60400
C  37.88000 41.47100 23.46400
N  40.32300 43.70700 27.25400
C  40.04200 44.58000 26.23900
C  39.52500 45.86300 26.78200
C  39.39700 45.61100 28.14800
C  39.88900 44.33500 28.40200
C  39.17200 47.01300 25.93800
C  39.02100 46.25800 29.37500
O  38.56500 47.39000 29.57900
C  39.32400 45.14300 30.42400
C  40.34200 45.71800 31.31700
O  41.46800 46.10800 31.05200
O  39.88300 45.90100 32.59100
C  40.84900 46.65400 33.47400
H  42.31200 38.85000 30.49200
H  42.14800 38.98100 24.09400
H  39.82000 44.84500 24.06700
H  40.86400 43.05900 32.37800
H  40.48300 40.14100 31.90000
H  42.81700 41.76800 32.96900
H  43.16300 40.40000 31.94700
H  42.36600 40.11200 33.42100
H  38.36100 41.72800 31.42200
H  38.51200 43.29700 32.31500
H  39.53300 41.33800 34.00300
H  37.93400 40.71500 33.29800
H  42.90800 35.97300 28.72800
H  43.23600 37.13100 30.04100
H  44.49000 36.83800 28.75800
H  44.96400 35.90300 26.84100
H  44.36300 35.06000 25.39100
H  43.28800 35.28000 26.89900
H  40.39100 40.31900 22.81500
H  40.79300 43.17500 22.34000
H  42.19900 40.00700 21.51900
H  43.23200 40.86500 22.60100
H  42.38000 41.83400 21.33900
H  38.85900 41.84900 21.61500
H  38.35800 43.24900 22.25800
H  38.25300 41.02500 24.38600
H  37.59300 40.62000 22.84700
H  37.10600 42.21900 23.63400
H  38.97900 47.91300 26.52100
H  38.31500 46.72400 25.32900
H  39.96500 47.26300 25.23300
H  38.41400 44.93100 30.98500
H  41.82300 46.90200 33.05300
H  40.96100 46.10000 34.40700
H  40.39000 47.63500 33.58900

