158

Mg 1.65400 -2.89300 44.84800
C  4.96100 -1.93300 44.01800
C  0.64800 0.04400 43.09300
C  -1.41200 -3.98400 45.01400
C  2.87700 -5.92400 45.92300
N  2.77100 -1.13000 43.68600
C  4.13600 -0.99500 43.52300
C  4.41100 0.38800 42.79800
C  3.02200 1.11100 42.87000
C  2.05900 -0.04800 43.18600
C  2.89200 2.32100 43.77800
C  4.84000 0.14300 41.32900
C  6.06800 0.81000 40.90200
H  6.58000 0.48400 39.49600
N  -0.16100 -2.09400 44.24400
C  -0.36000 -0.92000 43.57200
C  -1.72800 -0.72500 43.42000
C  -2.39900 -1.96600 43.84900
C  -1.34500 -2.75800 44.41800
C  -2.36500 0.52800 42.74500
C  -3.93700 -2.22400 43.89100
O  -4.75100 -1.34100 43.61200
C  -4.56200 -3.46500 44.38600
N  0.82500 -4.86100 45.38200
C  -0.47200 -4.96300 45.44800
C  -0.94700 -6.29200 46.16700
C  0.49000 -6.98500 46.24700
C  1.46800 -5.90600 45.84500
C  -1.66000 -6.15300 47.52400
C  0.66600 -8.26100 45.40800
C  0.00600 -9.46800 45.98300
N  3.53000 -3.80000 45.00700
C  3.88300 -5.01600 45.54100
C  5.37100 -5.23500 45.61300
C  5.83700 -4.00300 45.00700
C  4.67300 -3.19000 44.64700
C  6.20100 -6.37500 46.19100
C  6.99700 -3.17500 44.70600
O  8.22400 -3.43600 44.70200
C  6.45900 -1.84500 44.04400
C  6.97800 -0.71900 45.02400
O  6.46200 -0.38900 46.10400
O  7.95300 -0.08900 44.30300
C  8.20000 1.21800 44.85900
H  0.25900 0.94000 42.60500
H  -2.40700 -4.41200 45.15500
H  3.36700 -6.79000 46.37300
H  5.25700 0.83200 43.32400
H  2.66400 1.46800 41.90400
H  3.73300 2.29600 44.47100
H  1.95500 2.31100 44.33500
H  2.90800 3.24500 43.20000
H  4.00600 0.47100 40.70800
H  4.97700 -0.90300 41.05800
H  6.90300 0.51400 41.53800
H  5.84600 1.87400 40.98400
H  -2.01400 0.80000 41.74900
H  -2.09400 1.42700 43.29900
H  -3.45300 0.57300 42.70800
H  -4.06400 -4.38200 44.07200
H  -5.49900 -3.64000 43.85900
H  -4.75800 -3.57800 45.45200
H  -1.61000 -6.88100 45.53300
H  0.67400 -7.28100 47.28000
H  -1.03200 -6.60500 48.29200
H  -2.64100 -6.62600 47.54300
H  -1.80400 -5.09600 47.75000
H  1.71100 -8.57300 45.39400
H  0.49600 -8.06100 44.35000
H  -0.86800 -9.27600 46.60400
H  0.73800 -10.00900 46.58300
H  -0.39700 -10.02000 45.13300
H  6.27000 -7.29100 45.60500
H  5.71400 -6.65900 47.12300
H  7.23800 -6.04200 46.23200
H  6.91100 -1.61800 43.07800
H  7.20700 1.64600 44.99000
H  8.73200 1.94300 44.24200
H  8.73800 1.11600 45.80200
Mg -0.85500 5.99900 26.53400
C  0.11100 8.30700 29.03700
C  -0.47600 3.42500 28.89800
C  -1.83700 3.74000 24.20400
C  -0.86100 8.55600 24.15700
N  -0.40600 5.92400 28.83000
C  0.02500 6.99600 29.56200
C  0.30800 6.54200 30.96100
C  0.46900 5.01100 30.80800
C  -0.18800 4.74800 29.43300
C  1.98100 4.42700 30.85900
C  -0.74800 7.08000 31.89300
C  -0.40900 6.88600 33.41100
H  0.79400 5.92300 33.73300
N  -1.19000 3.84800 26.58100
C  -0.98800 3.02400 27.67100
C  -1.30500 1.68700 27.27400
C  -1.87000 1.75900 25.94900
C  -1.67200 3.12700 25.48900
C  -1.08100 0.47900 28.14900
C  -2.50600 0.66500 25.04700
O  -2.92700 0.93600 23.94700
C  -2.62800 -0.80500 25.59300
N  -1.01800 6.15200 24.51800
C  -1.54000 5.06900 23.78900
C  -1.89900 5.50900 22.33000
C  -1.81100 7.06000 22.41300
C  -1.20400 7.31400 23.72900
C  -0.89000 4.79600 21.27100
C  -3.15100 7.85800 22.26000
C  -3.24300 9.20900 21.59400
N  -0.47400 7.99000 26.52100
C  -0.42600 8.87000 25.48600
C  0.05900 10.17100 25.90700
C  0.24800 10.03400 27.33700
C  -0.12600 8.71100 27.68100
C  0.45300 11.39900 25.01400
C  0.61300 10.68600 28.64200
O  0.87000 11.81500 28.89200
C  0.47700 9.58800 29.69900
C  1.74500 9.48100 30.57900
O  2.83400 8.99100 30.29300
O  1.48600 9.91600 31.81000
C  2.51500 9.87000 32.81000
H  -0.13800 2.72900 29.66800
H  -2.34800 3.16600 23.42700
H  -0.90200 9.37200 23.43200
H  1.30100 6.89100 31.24500
H  -0.12200 4.44900 31.53100
H  2.23100 3.67300 30.11300
H  2.07700 3.96100 31.84000
H  2.75000 5.19500 30.77500
H  -1.59500 6.41100 31.74000
H  -1.18000 8.05900 31.68300
H  -1.35300 6.58700 33.86700
H  -0.05000 7.80400 33.87600
H  -0.28800 -0.09500 27.67000
H  -1.94300 -0.15000 28.36900
H  -0.61400 0.71000 29.10700
H  -1.60600 -1.06800 25.86600
H  -2.83300 -1.53100 24.80600
H  -3.33600 -1.05500 26.38300
H  -2.88800 5.10100 22.12100
H  -1.16600 7.48500 21.64400
H  -0.20200 5.61200 21.05000
H  -1.56600 4.47400 20.47900
H  -0.34000 4.00000 21.77300
H  -3.53000 7.96100 23.27700
H  -3.94800 7.26200 21.81600
H  -2.52600 9.24500 20.77300
H  -3.10200 10.08800 22.22200
H  -4.23000 9.30400 21.14200
H  -0.42000 11.67500 24.42200
H  1.21000 11.17600 24.26200
H  0.87500 12.18400 25.64100
H  -0.36600 9.88100 30.32400
H  3.57300 10.04400 32.61300
H  2.46900 8.93100 33.36100
H  2.33400 10.73300 33.45100

