158

Mg 30.12700 58.90300 38.56300
C  27.24100 57.05100 37.76800
C  32.05000 56.28700 37.64800
C  32.88700 60.95100 38.52100
C  28.01900 61.76600 38.85100
N  29.63100 57.04400 37.64500
C  28.41000 56.37000 37.47400
C  28.52400 54.96000 37.04300
C  30.09000 54.68300 37.36700
C  30.65700 56.11000 37.60100
C  30.39900 53.77000 38.56500
C  28.24200 54.78700 35.49800
C  26.87500 54.17900 35.05400
H  26.18100 55.06100 33.94200
N  32.21000 58.59900 38.30700
C  32.78000 57.46800 37.93400
C  34.24500 57.63300 37.88000
C  34.46000 58.97100 38.24700
C  33.16000 59.54700 38.39400
C  35.19900 56.55400 37.50000
C  35.81300 59.62100 38.50100
O  36.91900 59.08200 38.24400
C  35.92400 60.86800 39.22900
N  30.40600 61.01400 38.63800
C  31.63700 61.60900 38.56500
C  31.45700 63.11800 38.67300
C  29.93500 63.37900 38.87100
C  29.40600 61.95200 38.68800
C  32.44300 63.95500 39.59000
C  29.40200 64.42900 37.81600
C  28.45000 65.49400 38.32900
N  28.09000 59.39200 38.36900
C  27.38700 60.55600 38.66400
C  25.93700 60.35800 38.53700
C  25.83100 59.00600 38.18400
C  27.14200 58.46300 38.14300
C  24.86300 61.42700 38.75200
C  24.94200 57.90400 37.97500
O  23.69800 57.86300 38.06800
C  25.75000 56.64300 37.57700
C  25.30100 55.61000 38.44400
O  25.76100 55.44000 39.56900
O  24.33500 54.80300 37.87600
C  23.66300 53.85900 38.73500
H  32.66400 55.38500 37.60200
H  33.68800 61.65900 38.30000
H  27.35300 62.58100 39.14100
H  27.92700 54.35300 37.72400
H  30.55500 54.19600 36.51000
H  31.09400 52.94400 38.40900
H  29.52900 53.13800 38.74600
H  30.62800 54.17000 39.55200
H  29.02200 54.24700 34.96100
H  28.47000 55.79400 35.14700
H  26.34200 53.90600 35.96500
H  27.15200 53.20800 34.64200
H  35.97000 56.59400 38.27000
H  35.69000 56.90100 36.59000
H  34.75000 55.56600 37.40000
H  36.92700 61.13400 39.56400
H  35.17100 60.99300 40.00700
H  35.63400 61.60000 38.47500
H  31.78300 63.42700 37.67900
H  29.68000 63.69200 39.88400
H  31.83300 64.24500 40.44600
H  32.92400 64.82000 39.13300
H  33.19200 63.21800 39.87900
H  28.88300 64.05100 36.93600
H  30.30400 64.96800 37.52600
H  28.90600 66.42600 38.66300
H  27.85900 65.18400 39.19100
H  27.65700 65.83300 37.66300
H  23.95900 61.04900 38.27500
H  25.06800 62.44700 38.42700
H  24.80100 61.41400 39.84000
H  25.62400 56.37700 36.52800
H  23.27000 54.40000 39.59600
H  24.30700 53.08700 39.15600
H  22.96800 53.26500 38.14200
Mg 26.43300 51.37300 25.99800
C  24.00500 52.56800 28.26500
C  28.56300 50.67000 28.43300
C  28.63800 51.08700 23.61900
C  24.14700 52.83800 23.40000
N  26.36600 51.69900 28.09000
C  25.27200 52.03000 28.85800
C  25.38700 51.60300 30.33100
C  26.83600 50.96600 30.34000
C  27.35400 51.19400 28.89400
C  27.71600 51.59800 31.50300
C  24.25800 50.60700 30.74000
C  23.40100 51.02900 31.86500
H  23.36600 50.19500 33.13400
N  28.34300 50.74200 26.07800
C  29.10500 50.52600 27.15700
C  30.44400 50.16600 26.74600
C  30.47400 50.34000 25.32300
C  29.10500 50.76700 24.92500
C  31.53100 49.76800 27.69500
C  31.65900 50.22900 24.39700
O  31.60200 50.74000 23.26700
C  32.95900 49.70300 24.93800
N  26.30700 51.74000 23.81100
C  27.38800 51.42800 23.11900
C  27.14600 51.43300 21.59800
C  25.65000 51.88600 21.52600
C  25.38400 52.20400 22.94200
C  28.13600 52.40300 20.74200
C  24.67200 50.83200 20.95700
C  24.09100 51.18300 19.61200
N  24.48700 52.42000 25.82500
C  23.71500 52.93000 24.72600
C  22.43300 53.39200 25.21700
C  22.48100 53.27800 26.59300
C  23.78600 52.76200 26.90500
C  21.34900 53.97900 24.35600
C  21.77500 53.56700 27.78100
O  20.71000 54.03600 28.04700
C  22.75700 53.07600 28.88600
C  22.97600 54.16000 29.87100
O  23.70600 55.13200 29.74100
O  22.03200 54.10500 30.92900
C  22.32600 55.05300 32.01100
H  29.19700 50.25900 29.22100
H  29.33900 50.97600 22.78900
H  23.42100 53.15300 22.64800
H  25.44500 52.47900 30.97600
H  26.76500 49.89200 30.51500
H  27.21600 51.69100 32.46700
H  27.92200 52.65800 31.36000
H  28.62100 51.00900 31.65200
H  24.67700 49.64400 31.03100
H  23.65600 50.55100 29.83300
H  22.36300 50.99300 31.53300
H  23.67100 52.02400 32.21900
H  32.35800 50.47600 27.63100
H  31.87800 48.74400 27.56100
H  31.13200 49.86300 28.70400
H  32.84000 48.70900 25.36800
H  33.38000 50.40700 25.65600
H  33.48800 49.71000 23.98500
H  27.22500 50.43300 21.17000
H  25.55800 52.80400 20.94600
H  28.71600 52.98500 21.45800
H  27.71100 53.15100 20.07300
H  28.83500 51.76700 20.19700
H  23.89100 50.74600 21.71200
H  25.26400 49.92900 20.80900
H  24.47200 52.13000 19.23100
H  23.00200 51.16200 19.55900
H  24.36700 50.44300 18.86100
H  20.84700 53.37800 23.59700
H  21.68800 54.86300 23.81600
H  20.54000 54.21400 25.04800
H  22.23800 52.28700 29.43000
H  22.46500 54.42600 32.89100
H  21.48800 55.68400 32.30700
H  23.14000 55.76600 31.87900

