158

Mg 40.30800 8.35900 29.65900
C  42.28400 9.71500 32.23200
C  37.95900 7.53700 31.98000
C  38.55700 6.78800 27.19100
C  42.90700 9.03100 27.45000
N  40.27500 8.51100 31.82900
C  41.10300 9.24500 32.70600
C  40.50200 9.36200 34.03800
C  39.31100 8.40400 34.09500
C  39.12800 8.14500 32.50300
C  39.54200 7.07300 34.84900
C  40.04300 10.82800 34.47900
C  39.60000 10.93500 35.97000
H  40.52300 11.68500 36.86200
N  38.45500 7.35200 29.64600
C  37.61500 7.19200 30.67100
C  36.44800 6.37900 30.20700
C  36.57000 6.38600 28.80700
C  37.90600 6.86900 28.48900
C  35.32500 6.00200 31.12500
C  35.54900 6.00300 27.67000
O  35.71700 6.17500 26.48400
C  34.23100 5.39200 28.10000
N  40.74400 7.84100 27.63700
C  39.88200 7.16600 26.85400
C  40.36300 7.14300 25.38100
C  41.70900 7.95600 25.40700
C  41.83100 8.36000 26.94700
C  40.59300 5.65200 24.90200
C  41.74800 9.14400 24.39000
C  40.90300 10.28200 24.58900
N  42.26800 9.13000 29.72800
C  43.19900 9.42700 28.75600
C  44.39100 9.95400 29.31600
C  44.03700 10.24100 30.69300
C  42.72300 9.64900 30.88900
C  45.61300 10.20700 28.57100
C  44.46800 10.76200 31.96400
O  45.53100 11.27300 32.34300
C  43.30600 10.52100 32.90900
C  43.83700 9.81100 34.08500
O  44.28600 8.68100 33.94400
O  43.59400 10.51600 35.22400
C  44.01900 9.87700 36.45400
H  37.22400 7.43800 32.78200
H  38.11000 6.20800 26.38200
H  43.68800 9.17900 26.70100
H  41.27300 9.00700 34.72300
H  38.43400 8.89900 34.51100
H  40.49100 7.05400 35.38500
H  39.51500 6.16600 34.24500
H  38.86800 7.07000 35.70600
H  39.28100 11.20400 33.79600
H  40.89100 11.46200 34.22300
H  39.48900 9.94300 36.40900
H  38.62300 11.41700 35.94500
H  35.57400 6.23900 32.15900
H  35.22900 4.91600 31.10200
H  34.40500 6.53100 30.87700
H  33.77200 6.09000 28.80000
H  34.54400 4.47800 28.60400
H  33.59100 5.25600 27.22800
H  39.56300 7.39800 24.68600
H  42.57200 7.37800 25.07800
H  40.58700 5.69800 23.81300
H  39.74500 5.03500 25.20000
H  41.48700 5.21100 25.34200
H  41.69200 8.56000 23.47100
H  42.75500 9.53100 24.54700
H  40.16200 10.13500 23.80300
H  41.40700 11.21000 24.31800
H  40.46800 10.34400 25.58600
H  45.56800 11.17400 28.07000
H  45.74100 9.46600 27.78200
H  46.45300 10.25700 29.26400
H  42.83200 11.41100 33.32400
H  45.06700 10.08300 36.67300
H  43.80600 8.81200 36.54400
H  43.41300 10.29300 37.25900
Mg -8.87800 40.22600 42.47400
C  -7.92900 36.99300 41.57500
C  -6.27100 41.47400 40.57500
C  -10.09700 43.22700 42.98600
C  -11.70000 38.90200 44.06200
N  -7.31800 39.26900 41.09300
C  -7.04800 37.96700 40.99600
C  -5.77300 37.68000 40.12500
C  -5.25400 39.14400 39.77600
C  -6.35100 40.05600 40.50300
C  -3.81100 39.47800 40.13300
C  -6.01100 36.81500 38.92800
C  -4.86100 35.80000 38.63600
H  -3.92000 36.11800 37.40400
N  -8.16800 42.13000 41.89900
C  -7.04700 42.45400 41.14700
C  -6.91800 43.92800 41.07800
C  -8.14800 44.45700 41.61900
C  -8.90200 43.27000 42.22200
C  -5.83500 44.62600 40.30100
C  -8.59600 45.94000 41.65600
O  -7.94200 46.79300 41.02600
C  -9.81400 46.40800 42.23100
N  -10.79300 41.02900 43.19200
C  -10.95800 42.31500 43.51800
C  -12.31300 42.59100 44.24200
C  -12.62000 41.13400 44.77900
C  -11.63700 40.29700 43.91200
C  -12.15300 43.64400 45.39100
C  -14.17200 40.74900 44.59100
C  -14.85200 40.24800 45.89100
N  -9.74400 38.35800 42.85200
C  -10.87100 37.94900 43.44800
C  -10.96200 36.55200 43.52400
C  -9.84000 36.08600 42.76600
C  -9.14100 37.22100 42.33600
C  -12.15000 35.75400 44.06700
C  -9.01400 34.90200 42.33500
O  -9.19400 33.73800 42.60800
C  -7.81300 35.44800 41.51300
C  -6.53900 34.94500 42.11800
O  -6.17400 35.26000 43.24000
O  -5.92000 34.17100 41.18100
C  -4.58000 33.62700 41.50900
H  -5.34200 41.59200 40.01500
H  -10.45500 44.21700 43.27600
H  -12.64000 38.62700 44.54300
H  -5.01900 37.30400 40.81600
H  -5.28000 39.38200 38.71200
H  -3.27600 38.53200 40.21800
H  -3.82900 39.95100 41.11500
H  -3.38800 40.02800 39.29300
H  -6.16800 37.41200 38.03000
H  -6.97600 36.31900 39.03600
H  -5.25500 34.81900 38.36800
H  -4.24400 35.71500 39.53000
H  -5.38600 45.26200 41.06300
H  -6.25500 45.17100 39.45600
H  -5.07200 43.87100 40.10900
H  -9.82700 47.48300 42.04900
H  -9.70500 46.30000 43.31000
H  -10.57700 46.04900 41.54100
H  -13.16500 42.91900 43.64800
H  -12.27400 41.00600 45.80400
H  -12.16200 43.26900 46.41500
H  -13.02000 44.25400 45.13800
H  -11.20900 44.16500 45.23300
H  -14.31300 40.03600 43.77900
H  -14.80800 41.59100 44.31700
H  -15.24300 39.26400 45.62900
H  -15.58600 40.92500 46.32700
H  -14.16400 40.06200 46.71500
H  -12.76200 36.39400 44.70300
H  -11.78000 34.91900 44.66100
H  -12.86100 35.40800 43.31600
H  -8.03600 35.11500 40.50000
H  -4.46800 33.03400 42.41600
H  -3.86800 34.44900 41.58100
H  -4.32100 33.08600 40.59800

