158

Mg -2.76700 34.94700 26.47500
C  -3.60300 33.40000 29.50500
C  -0.88500 37.20400 28.26900
C  -2.45500 36.83300 23.67800
C  -5.20700 32.94900 24.81300
N  -2.36400 35.19300 28.68500
C  -2.87200 34.52800 29.74700
C  -2.31000 35.18200 31.09600
C  -1.37200 36.32400 30.66100
C  -1.58100 36.30200 29.11900
C  -1.55900 37.66300 31.30000
C  -1.61700 34.17000 32.10200
C  -2.26200 34.22000 33.59200
H  -1.36400 34.16800 34.80700
N  -1.64700 36.60800 25.98700
C  -0.98300 37.39300 26.89600
C  -0.39700 38.52300 26.24500
C  -0.80200 38.48700 24.80200
C  -1.69000 37.27200 24.78100
C  0.39000 39.49400 27.02100
C  -0.49500 39.34800 23.57200
O  -0.83100 39.09300 22.42300
C  0.30300 40.62500 23.77400
N  -3.64900 34.78700 24.57400
C  -3.29500 35.73700 23.53600
C  -4.18300 35.47200 22.23600
C  -4.69600 34.00300 22.54100
C  -4.57300 33.95800 24.07500
C  -5.25400 36.59400 21.99800
C  -3.89100 32.83800 21.84800
C  -4.28600 32.63700 20.39400
N  -4.12800 33.47800 26.98100
C  -4.98800 32.70100 26.19000
C  -5.53000 31.62700 26.98900
C  -5.05200 31.88700 28.28100
C  -4.16400 32.99700 28.22700
C  -6.51400 30.56600 26.55800
C  -5.05200 31.40200 29.59800
O  -5.51900 30.40500 30.09900
C  -4.35300 32.47700 30.51300
C  -5.37800 33.11700 31.47500
O  -6.07000 34.06800 31.21800
O  -5.34100 32.42900 32.65300
C  -6.10200 32.98600 33.78800
H  -0.23300 37.80200 28.90900
H  -2.39800 37.27100 22.67900
H  -5.91800 32.28300 24.32100
H  -3.16600 35.54400 31.66600
H  -0.34200 36.13900 30.96600
H  -1.63500 38.48900 30.59300
H  -0.81300 37.97100 32.03300
H  -2.42000 37.68900 31.96800
H  -0.54400 34.31200 32.23100
H  -1.73500 33.15200 31.73100
H  -3.01500 33.43200 33.59900
H  -2.73400 35.20100 33.64500
H  1.00700 40.09800 26.35400
H  1.10700 39.15600 27.77000
H  -0.31100 40.25600 27.35900
H  0.03900 41.28000 24.60500
H  0.53100 41.15300 22.84800
H  1.23500 40.16200 24.09900
H  -3.58200 35.46200 21.32600
H  -5.77200 34.04200 22.36900
H  -5.16500 37.26800 22.85000
H  -6.26600 36.18900 22.01300
H  -5.07400 37.12600 21.06400
H  -3.89300 31.90900 22.41700
H  -2.84600 33.11400 21.70800
H  -5.13200 33.27300 20.13200
H  -4.72300 31.64000 20.32900
H  -3.43900 32.81100 19.73100
H  -6.10300 29.55600 26.53400
H  -7.06800 30.78600 25.64600
H  -7.28900 30.63600 27.32200
H  -3.55700 32.01900 31.10000
H  -7.01300 33.43100 33.38800
H  -5.44600 33.79900 34.10000
H  -6.37100 32.24800 34.54400
Mg -5.85600 25.06100 27.04100
C  -4.04600 26.71800 29.54600
C  -6.65700 22.61600 29.40700
C  -7.36900 23.49400 24.63600
C  -4.36300 27.30500 24.62200
N  -5.26600 24.67200 29.22300
C  -4.60700 25.55100 30.07400
C  -4.65100 25.05500 31.52400
C  -5.33400 23.62500 31.41200
C  -5.74700 23.58100 29.89600
C  -4.34100 22.39900 31.82400
C  -5.41900 26.07000 32.48000
C  -5.03100 26.02900 33.94100
H  -6.25100 26.28800 34.85400
N  -6.83500 23.29400 27.04800
C  -7.13100 22.46000 28.05500
C  -8.15900 21.52000 27.60500
C  -8.31700 21.71900 26.20200
C  -7.47500 22.87800 25.91400
C  -8.68700 20.52600 28.55700
C  -9.00600 20.78600 25.17600
O  -8.92500 20.93100 23.94700
C  -9.65900 19.51400 25.60700
N  -5.71300 25.27800 24.79700
C  -6.61900 24.59900 24.13500
C  -6.57000 24.92900 22.56100
C  -5.72900 26.28000 22.57300
C  -5.22700 26.30700 24.04100
C  -6.03900 23.76900 21.73600
C  -6.62400 27.41000 22.16700
C  -5.89400 28.49200 21.26800
N  -4.57700 26.67400 27.00500
C  -4.10800 27.48700 25.96700
C  -3.25300 28.53800 26.48700
C  -3.29700 28.37900 27.92300
C  -4.02200 27.12500 28.17200
C  -2.45100 29.57600 25.65800
C  -2.76900 28.82900 29.20500
O  -2.05400 29.73900 29.53300
C  -3.38500 27.85300 30.31700
C  -2.31900 27.38900 31.21400
O  -1.47100 26.53100 30.89300
O  -2.39600 28.08300 32.41800
C  -1.28000 27.76700 33.31200
H  -7.05500 21.98200 30.20300
H  -7.99400 23.00800 23.88400
H  -3.93900 28.01500 23.90900
H  -3.63900 24.98300 31.92100
H  -6.19800 23.55200 32.07400
H  -4.37100 22.19300 32.89400
H  -3.30600 22.60500 31.55400
H  -4.62100 21.43200 31.40500
H  -6.49700 26.02300 32.32700
H  -5.24000 27.07900 32.10800
H  -4.36700 26.87200 34.12600
H  -4.47000 25.13300 34.20700
H  -9.65200 20.14200 28.22600
H  -8.57400 20.84600 29.59300
H  -7.95700 19.71800 28.52100
H  -8.94400 19.05500 26.29000
H  -9.76500 18.92700 24.69500
H  -10.68000 19.69100 25.94700
H  -7.63600 25.06900 22.38500
H  -4.85500 26.03800 21.96900
H  -5.03900 23.51600 22.08900
H  -5.89300 23.97700 20.67600
H  -6.66400 22.92600 22.03200
H  -6.83800 27.96100 23.08300
H  -7.51400 27.08700 21.62700
H  -5.71100 29.43200 21.78700
H  -6.51600 28.63500 20.38400
H  -4.91000 28.14200 20.95500
H  -1.99000 30.29200 26.33800
H  -3.12300 30.13000 25.00200
H  -1.70000 29.06700 25.05300
H  -4.02500 28.42100 30.99200
H  -1.56200 28.32000 34.20800
H  -0.31900 28.14100 32.95800
H  -1.31600 26.69000 33.47300

