158

Mg 45.23000 3.47100 47.25800
C  42.88100 5.89000 46.64900
C  42.89300 1.03700 46.71100
C  47.73900 1.23300 46.99800
C  47.60900 6.04200 47.67300
N  43.16100 3.50000 46.65500
C  42.33500 4.57900 46.45900
C  40.83200 4.19400 46.13300
C  40.90000 2.64000 46.53300
C  42.41300 2.34800 46.59300
C  40.16200 2.27800 47.80100
C  40.47900 4.60300 44.72300
C  39.22300 5.54900 44.57600
H  38.51200 5.50400 43.20400
N  45.32500 1.46100 47.03700
C  44.22500 0.56200 46.91100
C  44.58500 -0.77400 46.71900
C  46.02000 -0.69800 46.68500
C  46.42400 0.72700 46.87600
C  43.62400 -1.99900 46.66200
C  46.85300 -1.89800 46.54600
O  46.33400 -2.97500 46.42600
C  48.34400 -1.81200 46.37200
N  47.39800 3.63400 47.26200
C  48.17000 2.55200 47.21000
C  49.65900 2.85900 47.44700
C  49.63200 4.46900 47.66200
C  48.16800 4.75000 47.48700
C  50.33300 1.87700 48.52200
C  50.38500 5.34000 46.69100
C  51.89400 5.11500 46.46300
N  45.27700 5.58900 47.20300
C  46.27000 6.45700 47.50200
C  45.78900 7.86100 47.54200
C  44.43300 7.67100 47.20900
C  44.19200 6.22900 46.97500
C  46.68300 9.11100 47.72800
C  43.12200 8.27100 46.87000
O  42.79100 9.44300 46.75500
C  42.10200 7.13100 46.61400
C  41.01200 7.23500 47.67100
O  41.18100 6.91300 48.80300
O  39.89900 7.82400 47.14800
C  38.78200 7.83800 48.11700
H  42.19500 0.20400 46.60800
H  48.59900 0.56200 47.03600
H  48.36600 6.75000 48.01700
H  40.20800 4.65000 46.90200
H  40.58000 1.95400 45.74800
H  39.32200 2.93000 48.04000
H  40.93300 2.32800 48.57000
H  39.82600 1.24400 47.88000
H  40.28300 3.72800 44.10400
H  41.27300 5.07200 44.14100
H  39.68900 6.52600 44.70600
H  38.60800 5.46000 45.47100
H  44.00100 -2.90500 47.13600
H  43.31900 -2.13200 45.62400
H  42.71100 -1.82800 47.23300
H  48.74700 -1.54700 47.35000
H  48.42100 -1.11500 45.53800
H  48.72400 -2.74500 45.95500
H  50.20700 2.77500 46.50900
H  49.86300 4.72000 48.69800
H  49.68400 1.30900 49.18900
H  51.06600 2.41000 49.12600
H  50.78600 1.13900 47.86000
H  50.30400 6.31700 47.16700
H  49.81200 5.24900 45.76800
H  52.18000 5.17000 45.41300
H  52.20300 4.09100 46.67700
H  52.54500 5.84500 46.94400
H  46.13700 9.96700 47.33000
H  47.60800 8.99500 47.16400
H  47.02400 9.27700 48.75000
H  41.56900 7.42200 45.70900
H  39.10800 8.33100 49.03200
H  38.49300 6.84300 48.45700
H  37.91800 8.33600 47.67600
Mg 47.01400 16.57500 28.21100
C  44.95900 16.07500 31.16900
C  49.10400 18.41900 30.12000
C  48.54600 17.56000 25.46100
C  44.45700 15.19700 26.32100
N  46.89700 17.23800 30.43200
C  46.06300 16.85800 31.42000
C  46.67500 17.18000 32.78800
C  47.83900 18.17800 32.39100
C  47.95000 18.02600 30.86900
C  47.54700 19.67000 32.81300
C  47.12200 15.98400 33.61900
C  47.54800 16.21200 35.09500
H  46.89700 17.37600 35.80700
N  48.79100 17.63500 27.86500
C  49.55100 18.26200 28.82000
C  50.73800 18.71900 28.20400
C  50.52100 18.66200 26.78500
C  49.24200 17.93700 26.62500
C  51.93600 19.04300 29.07100
C  51.29300 19.14900 25.64400
O  50.94800 18.99400 24.46000
C  52.49500 19.86400 25.89300
N  46.59800 16.30000 26.23700
C  47.41100 16.81300 25.31300
C  46.78100 16.70400 23.88900
C  45.56800 15.63500 24.13300
C  45.46900 15.71900 25.64200
C  46.31600 17.94800 23.18900
C  45.91500 14.25400 23.66100
C  45.31800 13.97300 22.26800
N  45.12900 15.75500 28.60800
C  44.21400 15.21300 27.70900
C  43.09000 14.64900 28.42800
C  43.38300 14.90500 29.80300
C  44.59500 15.65300 29.83900
C  41.88200 14.04100 27.75800
C  42.82500 14.83900 31.15200
O  41.79000 14.25300 31.48200
C  43.87600 15.57100 32.14500
C  43.10800 16.70400 32.83800
O  42.47500 17.55400 32.26200
O  43.33100 16.66900 34.19700
C  42.65200 17.66300 34.98100
H  49.78300 18.93500 30.80200
H  48.82600 18.09300 24.55000
H  43.71900 14.76800 25.63900
H  45.89300 17.70000 33.34200
H  48.81600 17.94100 32.81200
H  46.76100 19.73100 33.56600
H  47.27700 20.26000 31.93800
H  48.41500 20.13400 33.28100
H  47.83100 15.47100 32.96800
H  46.27800 15.29300 33.62500
H  48.63500 16.26500 35.03600
H  47.44800 15.38500 35.79800
H  51.97100 18.51300 30.02200
H  52.04600 20.11300 29.25000
H  52.82100 18.63700 28.58200
H  53.37100 19.29200 26.19900
H  52.21300 20.49800 26.73300
H  52.86100 20.43700 25.04100
H  47.56600 16.27600 23.26400
H  44.60400 16.00400 23.78400
H  45.33900 17.71300 22.76700
H  47.05500 18.14000 22.41100
H  46.37200 18.79500 23.87300
H  45.60500 13.46300 24.34400
H  47.00300 14.23400 23.60600
H  46.01000 14.10500 21.43700
H  44.58700 14.74600 22.03100
H  44.83100 13.00100 22.18000
H  41.70400 14.66800 26.88500
H  40.94000 14.20800 28.28100
H  42.05100 12.99900 27.48300
H  44.28200 14.87100 32.87500
H  43.10900 17.49700 35.95700
H  41.63600 17.27700 35.06700
H  42.65300 18.67100 34.56500

