158

Mg 40.48600 9.45000 29.88300
C  42.43300 10.54000 32.65900
C  38.15800 8.33800 32.15300
C  38.74400 8.24800 27.23900
C  43.17400 10.32200 27.75900
N  40.37800 9.37700 32.14800
C  41.18500 9.99700 33.00300
C  40.72700 9.95800 34.47600
C  39.36300 9.18100 34.31100
C  39.28100 8.94400 32.78600
C  39.34900 7.80100 35.13000
C  40.64900 11.36300 35.13000
C  39.63700 11.48000 36.31600
H  40.08300 12.44800 37.39000
N  38.70100 8.39100 29.71300
C  37.85000 8.13000 30.78800
C  36.57600 7.61300 30.18700
C  36.72800 7.69600 28.80300
C  38.11000 8.10400 28.52000
C  35.42200 7.16500 31.05300
C  35.70700 7.44100 27.71200
O  35.93400 7.51100 26.52500
C  34.41400 7.03900 28.14600
N  40.92200 9.33600 27.84300
C  39.96400 8.85300 26.89300
C  40.52100 9.06400 25.43200
C  41.84600 9.88600 25.68400
C  41.99300 9.87100 27.21200
C  40.79300 7.75600 24.62100
C  41.85800 11.32900 25.12100
C  41.18500 12.40400 25.90900
N  42.47800 10.25500 30.08800
C  43.40700 10.48600 29.14700
C  44.51100 11.12800 29.84100
C  44.15300 11.18000 31.16900
C  42.94400 10.56200 31.25600
C  45.82700 11.60700 29.21700
C  44.65300 11.66200 32.45800
O  45.70100 12.25000 32.80300
C  43.56400 11.20800 33.50000
C  44.14900 10.25800 34.47600
O  44.34300 9.09400 34.34600
O  44.50900 10.94400 35.63500
C  45.54800 10.35400 36.51300
H  37.39000 8.00500 32.85400
H  38.25400 7.81200 26.36500
H  43.93500 10.66800 27.05800
H  41.37600 9.30100 35.05500
H  38.58000 9.87700 34.61300
H  39.97600 7.91600 36.01300
H  39.66600 6.95000 34.52700
H  38.34200 7.60700 35.50100
H  40.51600 12.12500 34.36200
H  41.59000 11.61300 35.61900
H  39.31200 10.55500 36.79100
H  38.81300 12.00500 35.83200
H  35.40900 7.43900 32.10800
H  35.43700 6.08500 31.20300
H  34.42100 7.45800 30.73800
H  33.84700 7.80300 28.67600
H  34.45900 6.11100 28.71600
H  33.83000 6.84200 27.24600
H  39.78400 9.58900 24.82300
H  42.73100 9.39000 25.28500
H  40.85000 6.93200 25.33300
H  41.77900 7.73500 24.15800
H  39.95700 7.65000 23.93000
H  41.29700 11.28100 24.18900
H  42.87900 11.57900 24.83200
H  40.81400 12.11700 26.89300
H  40.33300 12.80500 25.36100
H  41.89300 13.19700 26.15100
H  45.77400 11.94300 28.18100
H  46.59900 10.83800 29.24500
H  46.30900 12.42500 29.75100
H  43.29200 12.10000 34.06400
H  46.46400 10.02600 36.02000
H  45.09000 9.48500 36.98500
H  45.90800 10.99900 37.31500
Mg 6.09300 54.84800 42.03400
C  3.07500 52.89400 41.60700
C  7.81800 52.28800 40.55600
C  8.44800 56.87900 41.47000
C  3.87700 57.40100 42.97800
N  5.47900 52.92600 41.04300
C  4.25200 52.31400 41.06400
C  4.36800 50.88800 40.48400
C  5.89800 50.62800 40.48700
C  6.46500 52.00500 40.76700
C  6.41700 49.57100 41.53400
C  3.78600 50.91200 38.99000
C  3.23800 49.58100 38.41200
H  3.98000 48.84400 37.31100
N  7.91100 54.64900 41.11700
C  8.48400 53.50000 40.70100
C  9.89500 53.71700 40.37500
C  10.08000 55.15000 40.47400
C  8.84100 55.64200 40.99600
C  10.69200 52.65100 39.79700
C  11.41500 55.94700 40.12700
O  12.40200 55.32400 39.70900
C  11.40500 57.45900 40.14400
N  6.06200 56.85300 42.03900
C  7.25500 57.40800 42.00800
C  7.30100 58.74100 42.82200
C  5.79800 59.07700 43.00000
C  5.17400 57.70300 42.69900
C  8.06500 58.68200 44.15600
C  5.13100 60.19100 42.08700
C  4.40000 61.32500 42.86300
N  3.90800 55.09400 42.40500
C  3.22300 56.15600 42.89100
C  1.77400 55.81000 43.09500
C  1.70500 54.51900 42.57500
C  3.00500 54.13100 42.20400
C  0.71400 56.68600 43.67400
C  0.74900 53.42700 42.35600
O  -0.44000 53.32200 42.66300
C  1.70200 52.23000 41.83600
C  1.01700 51.48800 40.77100
O  0.57800 51.92600 39.69000
O  0.77500 50.24700 41.28000
C  -0.01800 49.37900 40.45600
H  8.36100 51.40000 40.22700
H  9.33800 57.42400 41.79100
H  3.23700 58.21700 43.32100
H  3.94100 50.16400 41.17800
H  6.27500 50.33900 39.50600
H  7.06900 48.86200 41.02400
H  5.58700 49.06800 42.02900
H  7.09400 49.95300 42.29900
H  4.53700 51.32400 38.31600
H  2.94400 51.60400 39.00700
H  2.20300 49.69800 38.09100
H  3.35500 48.84500 39.20800
H  11.71400 53.01700 39.69900
H  10.32900 52.44700 38.79000
H  10.56400 51.76400 40.41700
H  10.50100 57.83600 39.66500
H  12.22000 57.90800 39.57600
H  11.33400 57.71000 41.20200
H  7.70300 59.51100 42.16400
H  5.61500 59.45900 44.00500
H  9.00900 59.20000 43.99000
H  8.42500 57.73000 44.54500
H  7.40700 59.11200 44.91100
H  4.39900 59.77400 41.39500
H  5.97700 60.57900 41.52200
H  4.38400 61.14800 43.93800
H  3.33000 61.39200 42.66400
H  4.80600 62.31900 42.67400
H  1.17300 57.15600 44.54400
H  -0.12900 56.02000 43.85800
H  0.32700 57.43600 42.98400
H  1.80100 51.61800 42.73200
H  -0.36300 49.70900 39.47600
H  -0.94900 49.12600 40.96400
H  0.51800 48.43700 40.34000

