158

Mg 36.58100 49.21300 25.55000
C  36.49400 47.24900 28.52700
C  35.25800 51.84700 27.41700
C  36.32200 50.98700 22.68700
C  37.45300 46.36700 23.81400
N  35.88100 49.42000 27.64600
C  36.14700 48.55200 28.70000
C  35.96200 49.29000 30.06300
C  35.31500 50.65400 29.69800
C  35.50800 50.64200 28.18600
C  33.84100 50.86300 30.10300
C  37.32500 49.46400 30.92900
C  37.20200 49.65500 32.48200
H  35.81300 49.70000 33.01000
N  35.93400 51.16200 25.09600
C  35.43400 52.10200 25.99300
C  35.33300 53.35200 25.28800
C  35.65300 53.15800 23.90800
C  36.05900 51.73800 23.84000
C  34.87200 54.55000 26.00100
C  35.80200 54.24000 22.72600
O  36.19600 53.89600 21.64100
C  35.64200 55.72000 22.86500
N  36.66900 48.66100 23.52300
C  36.63700 49.64100 22.50900
C  36.99500 49.03300 21.16500
C  37.57600 47.66700 21.67300
C  37.23200 47.54500 23.04700
C  35.77800 49.14600 20.15300
C  39.10900 47.55300 21.31300
C  40.16600 48.34400 22.06100
N  36.86500 47.14300 26.01700
C  37.24700 46.14200 25.17600
C  37.59900 44.99900 26.04000
C  37.31800 45.38500 27.36800
C  36.82300 46.67000 27.31100
C  38.28400 43.77200 25.66800
C  37.29300 44.89900 28.71900
O  37.74500 43.83800 29.25700
C  36.65100 46.07200 29.51400
C  35.25700 45.80000 30.01600
O  34.28700 45.72500 29.31000
O  35.24200 45.83900 31.39500
C  33.94400 45.37600 31.97300
H  34.87100 52.67000 28.02100
H  36.27500 51.48900 21.71800
H  37.87700 45.41000 23.50500
H  35.30800 48.69000 30.69600
H  35.91000 51.48900 30.06700
H  33.81100 51.78600 30.68300
H  33.50800 50.03100 30.72300
H  33.14800 50.98300 29.27000
H  37.90100 50.29900 30.53100
H  37.92900 48.56500 30.80700
H  37.84900 50.47600 32.79000
H  37.66000 48.79100 32.96400
H  35.63400 55.30600 26.19400
H  34.33500 54.37600 26.93300
H  34.11000 55.06600 25.41700
H  35.16800 56.19100 23.72600
H  35.04100 56.00300 22.00100
H  36.66600 56.08600 22.79300
H  37.86300 49.58100 20.79800
H  37.03400 46.81700 21.25800
H  35.67300 48.17800 19.66400
H  36.03900 49.88800 19.39800
H  34.92400 49.46200 20.75200
H  39.04500 47.74000 20.24100
H  39.27500 46.48000 21.40300
H  39.82100 49.13800 22.72400
H  40.93100 48.75600 21.40200
H  40.71700 47.65100 22.69700
H  38.80100 43.97500 24.73100
H  37.58200 42.94200 25.59000
H  39.14000 43.58100 26.31600
H  37.19200 46.47000 30.37200
H  33.85400 45.71800 33.00400
H  34.02000 44.29200 32.05500
H  33.10300 45.74100 31.38300
Mg 17.06300 52.51400 25.73600
C  19.02500 50.78000 28.15500
C  14.86600 53.17800 28.36400
C  15.18400 53.81300 23.39500
C  19.10200 50.93300 23.31600
N  17.06300 52.12100 28.05000
C  17.95000 51.44100 28.77400
C  17.60600 51.53400 30.26000
C  16.11100 51.93900 30.25300
C  16.02200 52.48100 28.81900
C  15.01200 50.87200 30.61400
C  18.53900 52.46100 30.93800
C  18.90200 52.23600 32.44500
H  17.75300 51.78100 33.34500
N  15.30000 53.50300 25.85800
C  14.51800 53.60500 26.98100
C  13.43200 54.52400 26.58800
C  13.46900 54.75600 25.17100
C  14.70300 54.09400 24.73100
C  12.41000 54.97900 27.60700
C  12.42000 55.41100 24.20700
O  12.67000 55.60600 22.99900
C  11.13600 55.86400 24.73500
N  17.16800 52.36300 23.65900
C  16.28700 53.06800 22.90800
C  16.41800 52.79000 21.45600
C  17.84800 52.10800 21.43600
C  18.03200 51.73000 22.86200
C  15.27900 51.98300 20.68800
C  19.05200 52.92000 20.81100
C  20.06600 53.51300 21.77900
N  18.73800 51.24400 25.71100
C  19.44700 50.74400 24.66400
C  20.61400 50.01500 25.13000
C  20.44900 49.92500 26.49900
C  19.32800 50.72700 26.84300
C  21.60500 49.32400 24.26800
C  21.05900 49.39900 27.73100
O  21.94500 48.59000 27.91300
C  20.16600 50.07400 28.89100
C  19.74900 49.03400 29.86700
O  18.84600 48.25000 29.60500
O  20.40000 49.21800 31.05000
C  20.00400 48.27100 32.05400
H  14.14500 53.34500 29.16800
H  14.48300 54.11200 22.61200
H  19.80900 50.55800 22.57200
H  17.60700 50.49100 30.57900
H  16.02800 52.77400 30.94800
H  15.42100 49.87600 30.78100
H  14.31400 50.94300 29.77900
H  14.53100 51.20400 31.53400
H  18.05800 53.43200 30.81300
H  19.48600 52.43400 30.40000
H  19.19200 53.22000 32.81200
H  19.71600 51.51500 32.51900
H  12.66600 54.90100 28.66300
H  11.50200 54.39000 27.48000
H  12.15300 56.01900 27.40500
H  10.36100 55.94800 23.97300
H  11.29300 56.82500 25.22400
H  10.68500 55.21500 25.48500
H  16.39200 53.80200 21.05100
H  17.85200 51.19200 20.84500
H  14.54300 51.84400 21.48000
H  15.78000 51.10000 20.29100
H  14.99600 52.58200 19.82300
H  18.56000 53.60500 20.12100
H  19.60900 52.20200 20.20900
H  19.84500 53.45300 22.84500
H  20.02100 54.58500 21.58800
H  21.07300 53.14100 21.59100
H  22.39600 48.81900 24.82300
H  22.04500 50.15600 23.71900
H  21.08300 48.63500 23.60300
H  20.71400 50.79900 29.49300
H  20.18900 47.27000 31.66500
H  18.98800 48.41900 32.41900
H  20.68000 48.47700 32.88400

