158

Mg 24.04700 -6.80300 46.26000
C  26.29500 -4.68900 44.64400
C  21.60500 -5.93100 44.03300
C  22.05700 -9.33600 47.49100
C  26.81600 -8.14800 48.00200
N  23.92700 -5.39100 44.56500
C  24.98500 -4.56200 44.13100
C  24.53900 -3.87600 42.91400
C  23.01200 -4.23500 42.85600
C  22.81100 -5.23300 43.91100
C  22.02200 -3.07000 42.94300
C  25.31600 -4.25400 41.64200
C  25.80700 -3.05200 40.77900
H  25.40400 -3.22400 39.26800
N  22.00500 -7.43700 45.92500
C  21.18000 -6.94600 44.99100
C  19.88900 -7.62300 44.99000
C  19.96300 -8.57000 46.08500
C  21.42600 -8.56600 46.54200
C  18.65800 -7.24700 44.12900
C  18.82200 -9.46500 46.60700
O  17.74800 -9.59200 46.06200
C  18.93200 -10.31700 47.88600
N  24.42000 -8.63700 47.46100
C  23.41800 -9.51100 47.82200
C  23.95800 -10.56700 48.83300
C  25.52100 -10.26800 48.82700
C  25.60800 -8.90400 48.13800
C  23.33700 -10.46600 50.26400
C  26.38600 -11.28500 48.02300
C  27.31400 -12.26300 48.80300
N  26.07000 -6.50800 46.36400
C  27.06700 -7.06100 47.20600
C  28.32500 -6.38900 47.05500
C  28.00000 -5.42100 46.04200
C  26.64000 -5.55900 45.65500
C  29.62400 -6.74600 47.74600
C  28.68400 -4.34600 45.31100
O  29.80900 -3.84100 45.35800
C  27.59700 -3.86700 44.27500
C  27.32000 -2.36500 44.58800
O  26.68500 -1.95000 45.53000
O  27.83800 -1.58200 43.58300
C  27.48600 -0.13200 43.69300
H  20.76600 -5.68000 43.38000
H  21.41900 -10.05000 48.01600
H  27.72200 -8.53200 48.47400
H  24.67800 -2.80500 43.06000
H  22.79100 -4.64300 41.87000
H  21.06300 -3.24900 42.45600
H  22.38300 -2.16300 42.45900
H  21.84700 -2.77400 43.97700
H  24.72300 -4.96500 41.06700
H  26.20300 -4.80700 41.95200
H  26.86600 -2.86800 40.96000
H  25.37700 -2.08000 41.02100
H  17.99000 -6.68700 44.78300
H  17.92100 -8.00500 43.86300
H  18.98800 -6.67500 43.26200
H  19.52000 -9.83200 48.66500
H  19.47300 -11.22500 47.62200
H  18.00200 -10.53200 48.41300
H  23.87500 -11.56000 48.39300
H  25.77700 -10.13900 49.87800
H  22.82800 -9.50500 50.33700
H  24.09000 -10.69300 51.01900
H  22.58300 -11.25300 50.28400
H  27.02500 -10.70700 47.35500
H  25.80900 -11.93400 47.36400
H  27.39600 -11.95500 49.84600
H  28.30300 -12.06200 48.39200
H  27.12200 -13.32900 48.68500
H  29.75500 -7.76700 47.38500
H  29.39000 -6.74000 48.81100
H  30.50300 -6.15600 47.49000
H  28.01900 -4.09900 43.29700
H  26.45200 0.04900 43.98700
H  27.68900 0.41000 42.77000
H  28.19700 0.22200 44.44000
Mg -10.85500 17.27500 42.92900
C  -7.54100 18.22800 42.95900
C  -11.66200 20.65800 42.53100
C  -14.21300 16.42400 42.60200
C  -10.04500 13.93900 43.02500
N  -9.73100 19.13700 42.74800
C  -8.34000 19.31200 42.75100
C  -7.94100 20.80100 42.56700
C  -9.28800 21.55200 42.97000
C  -10.33300 20.42600 42.80400
C  -9.23200 22.16200 44.34300
C  -7.55700 21.17200 41.16600
C  -6.24800 21.87800 40.94100
H  -5.24100 21.25800 39.94000
N  -12.71900 18.38300 42.47600
C  -12.77500 19.75900 42.45600
C  -14.09800 20.15900 42.10700
C  -14.90600 18.93900 42.13300
C  -13.97800 17.83900 42.36000
C  -14.41200 21.58000 41.96100
C  -16.39500 18.91600 41.88900
O  -16.97600 19.89400 41.44200
C  -17.19000 17.64400 42.09800
N  -11.95600 15.49700 42.79200
C  -13.31600 15.38600 42.81700
C  -13.76500 14.02300 43.25100
C  -12.43100 13.16500 42.92200
C  -11.36500 14.26800 42.85500
C  -14.29200 13.87000 44.72900
C  -12.39100 12.42800 41.55200
C  -11.93400 10.93200 41.58800
N  -9.14800 16.23300 42.95500
C  -8.94300 14.86100 43.03400
C  -7.48300 14.67900 43.08500
C  -6.89800 15.94300 43.11400
C  -7.94000 16.84600 43.06300
C  -6.70500 13.39800 43.30700
C  -5.64500 16.65800 43.11400
O  -4.52900 16.32800 43.06800
C  -6.10300 18.16200 43.21200
C  -5.78300 18.56500 44.62300
O  -6.25900 18.22300 45.69700
O  -4.72800 19.39300 44.55500
C  -3.97700 19.78600 45.84100
H  -11.98300 21.69800 42.61700
H  -15.23300 16.04000 42.66900
H  -9.88100 12.86000 42.97100
H  -7.14300 21.00200 43.28200
H  -9.48400 22.31800 42.22000
H  -8.26900 21.95900 44.81100
H  -9.89200 21.61700 45.01800
H  -9.37100 23.24300 44.35800
H  -8.23900 21.91600 40.75400
H  -7.77800 20.33400 40.50500
H  -5.69400 22.01500 41.87000
H  -6.45900 22.90600 40.64500
H  -15.27000 21.82200 41.33300
H  -13.54800 22.15900 41.63500
H  -14.69200 21.94900 42.94700
H  -18.27900 17.63900 42.15400
H  -16.76600 17.19200 42.99400
H  -16.85500 16.98900 41.29400
H  -14.60100 13.73200 42.61600
H  -12.30000 12.47100 43.75200
H  -14.40300 14.88200 45.11900
H  -13.61200 13.34800 45.40300
H  -15.26500 13.38100 44.77000
H  -11.69600 12.98600 40.92500
H  -13.34800 12.52800 41.04100
H  -10.90900 10.95200 41.21600
H  -12.61000 10.45600 40.87700
H  -12.06500 10.53400 42.59500
H  -6.13800 13.38300 44.23800
H  -6.03100 13.26700 42.46100
H  -7.35400 12.52200 43.31500
H  -5.47500 18.73100 42.52600
H  -3.95300 20.86300 46.00700
H  -2.96400 19.38800 45.79600
H  -4.56100 19.36700 46.66000

