158

Mg 40.81700 9.90700 30.07500
C  42.38300 10.95200 32.94500
C  38.04600 8.90300 31.87900
C  39.52000 8.66700 27.15800
C  43.49900 11.23900 28.21200
N  40.35900 9.71800 32.21000
C  41.09300 10.34200 33.14600
C  40.31800 10.51200 34.45000
C  39.09900 9.63700 34.19400
C  39.09000 9.45500 32.63000
C  38.90700 8.28300 34.98300
C  40.05600 11.99900 34.76200
C  39.56300 12.20500 36.15500
H  40.44600 13.02100 37.09700
N  39.02700 8.94900 29.59300
C  38.00200 8.56800 30.45900
C  37.04700 7.69300 29.67500
C  37.46000 7.66700 28.33500
C  38.69400 8.48700 28.28400
C  35.86300 7.06900 30.28700
C  36.82200 6.96900 27.15500
O  37.24100 7.15600 26.06600
C  35.61200 6.26300 27.30400
N  41.47300 9.89200 27.95100
C  40.67000 9.37600 26.98900
C  41.27100 9.69200 25.64400
C  42.40600 10.77900 25.99200
C  42.48000 10.69400 27.45200
C  41.73000 8.47900 24.72800
C  42.13000 12.21400 25.43600
C  41.01600 12.97500 26.14100
N  42.68500 10.69900 30.44900
C  43.63500 11.20400 29.59500
C  44.74400 11.67700 30.40300
C  44.30100 11.64400 31.71200
C  43.02800 11.09600 31.71600
C  45.98500 12.26600 29.85300
C  44.57600 12.03200 33.05200
O  45.58400 12.57600 33.56000
C  43.33500 11.60000 33.91600
C  43.80400 10.66300 34.94300
O  44.49600 9.64800 34.65500
O  43.40800 11.13800 36.21800
C  43.66700 10.21100 37.31900
H  37.10100 8.63200 32.35400
H  39.29200 8.16400 26.21500
H  44.27600 11.63700 27.55700
H  40.80100 10.02200 35.29500
H  38.22800 10.17500 34.56900
H  39.84600 8.16000 35.52200
H  38.76500 7.42300 34.32800
H  38.09100 8.44500 35.68800
H  39.31200 12.40800 34.07800
H  40.96800 12.58000 34.62800
H  39.44800 11.31900 36.78000
H  38.59800 12.70600 36.07400
H  35.09700 7.83500 30.17600
H  35.99300 6.88900 31.35500
H  35.66700 6.06600 29.90600
H  35.42100 5.98400 26.26700
H  34.85400 7.02200 27.49400
H  35.62300 5.34100 27.88400
H  40.56300 10.30300 25.08400
H  43.38500 10.42800 25.66500
H  41.30700 7.54400 25.09600
H  42.80600 8.31600 24.66000
H  41.31700 8.73100 23.75100
H  41.92500 12.01500 24.38400
H  43.03400 12.81300 25.54100
H  41.31900 13.99300 26.38800
H  40.55200 12.48100 26.99500
H  40.23600 13.07100 25.38700
H  46.66400 12.44500 30.68700
H  45.64800 13.05400 29.18000
H  46.51600 11.54800 29.22900
H  43.03100 12.53300 34.39100
H  44.46600 9.49200 37.13900
H  42.74000 9.74900 37.65800
H  43.99600 10.86100 38.13000
Mg 54.46500 23.41800 45.01500
C  51.96200 25.72000 44.12700
C  52.15500 20.85700 44.44100
C  56.98100 21.06400 45.33700
C  56.62900 26.04100 45.47000
N  52.35000 23.33400 44.27700
C  51.51500 24.43000 43.97000
C  50.13100 23.86800 43.44200
C  50.20600 22.31700 43.71700
C  51.64500 22.15200 44.18300
C  49.21700 21.72100 44.63800
C  50.01400 24.22700 41.87200
C  48.61600 24.79200 41.62900
H  48.17300 24.73700 40.15500
N  54.50300 21.23900 44.92400
C  53.39300 20.41700 44.82700
C  53.89900 19.06400 44.88100
C  55.24900 19.11900 45.27500
C  55.65800 20.51200 45.19100
C  52.98300 17.86800 44.63000
C  56.11900 17.85700 45.80800
O  55.48500 16.80300 45.85500
C  57.60600 17.87700 46.35700
N  56.59400 23.55100 45.08200
C  57.36000 22.44800 45.33700
C  58.80500 22.93600 45.46700
C  58.75000 24.47800 45.65600
C  57.22300 24.74100 45.44100
C  59.53200 22.29100 46.71700
C  59.68600 25.31200 44.75000
C  60.76600 26.15500 45.58600
N  54.42000 25.59500 44.78900
C  55.32700 26.49600 45.24000
C  54.71500 27.83500 45.17200
C  53.37500 27.57900 44.74100
C  53.25100 26.20900 44.48100
C  55.38300 29.16300 45.45000
C  52.07200 28.14300 44.47300
O  51.72900 29.30200 44.45500
C  51.18800 26.98400 43.83700
C  50.92500 27.39300 42.40400
O  51.68300 27.12100 41.46100
O  49.88200 28.31900 42.38600
C  49.69000 28.98100 41.07200
H  51.42200 20.05100 44.36800
H  57.79300 20.36100 45.53300
H  57.35500 26.80800 45.74700
H  49.30500 24.29600 44.01000
H  50.12200 21.77000 42.77900
H  49.61000 21.13300 45.46600
H  48.59100 21.14200 43.95900
H  48.44000 22.39900 44.99100
H  50.07400 23.35800 41.21700
H  50.82200 24.92600 41.65400
H  48.56000 25.87200 41.76100
H  47.83800 24.36900 42.26400
H  53.50400 17.09400 44.06800
H  52.11300 18.07200 44.00500
H  52.67400 17.52800 45.61900
H  57.87400 16.83700 46.54700
H  57.64600 18.52900 47.22900
H  58.26000 18.31000 45.60100
H  59.41700 22.70700 44.59400
H  58.91200 24.77800 46.69100
H  58.89000 22.18000 47.59100
H  60.32300 23.01400 46.91500
H  59.98700 21.41500 46.25500
H  59.23900 26.00400 44.03600
H  60.35400 24.64000 44.21200
H  61.18000 25.55900 46.40000
H  60.24100 27.00300 46.02600
H  61.52400 26.47700 44.87300
H  56.31000 29.11500 44.87800
H  55.35900 29.33100 46.52600
H  54.86100 29.97500 44.94500
H  50.20300 26.94800 44.30200
H  49.49100 28.18200 40.35800
H  50.57200 29.59800 40.89500
H  48.77100 29.56300 41.01200

