158

Mg 40.91400 9.25000 29.50700
C  42.60400 10.53000 32.32900
C  38.83500 7.73200 31.71800
C  39.39500 7.83800 26.97100
C  43.44100 10.34600 27.50400
N  40.71200 9.21300 31.83200
C  41.46300 9.81600 32.70800
C  40.97500 9.75800 34.15800
C  39.83600 8.70400 33.92300
C  39.78300 8.48100 32.42400
C  40.09100 7.38500 34.66300
C  40.64000 11.07400 34.78700
C  40.12600 10.76300 36.19000
H  40.47700 11.71700 37.28200
N  39.29200 7.94400 29.33900
C  38.58300 7.46600 30.37500
C  37.44000 6.75000 29.83300
C  37.50600 6.88400 28.44600
C  38.80000 7.55300 28.16500
C  36.34200 6.04200 30.64100
C  36.43500 6.44900 27.42300
O  36.67600 6.66500 26.27600
C  35.08500 6.11900 27.79900
N  41.43500 9.01600 27.59800
C  40.60000 8.46400 26.67400
C  41.05500 8.68100 25.25000
C  42.44800 9.37000 25.34800
C  42.44800 9.62400 26.89700
C  41.09900 7.33600 24.36600
C  42.56600 10.61000 24.35500
C  41.87700 11.94100 24.75400
N  42.73500 10.21100 29.79800
C  43.64300 10.66000 28.84700
C  44.69700 11.28800 29.53300
C  44.35000 11.35500 30.93400
C  43.14200 10.60800 31.02900
C  45.71400 11.91200 28.87400
C  44.78800 11.80400 32.24400
O  45.70500 12.45100 32.69000
C  43.66400 11.28800 33.12300
C  44.28000 10.64400 34.32700
O  44.80400 9.54200 34.42300
O  44.13500 11.48700 35.46900
C  44.54700 10.91700 36.76200
H  38.15500 7.13300 32.32700
H  38.72600 7.60100 26.14100
H  44.29200 10.60400 26.87000
H  41.77400 9.26200 34.70900
H  38.89500 9.16500 34.22300
H  39.87500 6.55600 33.99000
H  39.43000 7.27900 35.52300
H  41.10200 7.25700 35.05000
H  39.84600 11.59700 34.25400
H  41.44700 11.77100 35.01200
H  40.53400 9.76700 36.35900
H  39.03600 10.74300 36.16800
H  36.24900 5.09200 30.11400
H  35.46500 6.68400 30.73100
H  36.73700 5.70000 31.59700
H  34.43400 6.29900 26.94400
H  34.67600 6.66400 28.65000
H  35.20500 5.06300 28.04200
H  40.23500 9.28100 24.85600
H  43.19700 8.60500 25.14500
H  41.10800 6.44200 24.98800
H  41.88800 7.27800 23.61700
H  40.13100 7.18400 23.88900
H  42.11800 10.39700 23.38400
H  43.64400 10.75500 24.28900
H  41.01100 12.06700 24.10500
H  42.47400 12.83100 24.56000
H  41.44200 12.01100 25.75100
H  45.44000 12.21700 27.86400
H  46.58300 11.27300 28.71700
H  46.11600 12.78800 29.38300
H  43.17700 12.14800 33.58300
H  45.49900 10.39100 36.68900
H  43.80300 10.47800 37.42600
H  44.77300 11.80500 37.35200
Mg 53.23900 24.37600 45.27400
C  50.83600 26.68600 44.20700
C  51.22800 21.90100 44.05200
C  55.85800 22.24300 45.34500
C  55.39600 27.03700 45.91000
N  51.20500 24.38100 44.32900
C  50.40800 25.45400 43.95000
C  49.29000 24.89700 43.04500
C  49.30900 23.40700 43.32900
C  50.71300 23.18700 43.89300
C  48.20900 22.99800 44.38400
C  49.42800 25.09800 41.49900
C  48.23300 25.65200 40.66200
H  48.02000 25.06700 39.30300
N  53.51000 22.25900 44.79200
C  52.55900 21.40700 44.33700
C  52.99600 20.04000 44.35100
C  54.34200 20.09600 44.74700
C  54.66100 21.55800 44.93100
C  52.20500 18.84400 43.90900
C  55.33900 18.87400 44.91200
O  55.05500 17.72600 44.54100
C  56.63800 18.94600 45.48900
N  55.35000 24.65200 45.39000
C  56.15800 23.53500 45.60600
C  57.48900 23.89800 46.18400
C  57.39400 25.43100 46.45900
C  56.03800 25.77900 45.81900
C  58.08400 23.03500 47.35100
C  58.46700 26.36300 45.97900
C  59.49400 26.67400 47.09600
N  53.19400 26.39200 45.33100
C  54.05100 27.35600 45.66500
C  53.46000 28.63200 45.64200
C  52.20000 28.42400 45.07300
C  52.10300 27.03400 44.87100
C  54.07500 29.89200 46.16300
C  51.01700 29.09400 44.66000
O  50.68700 30.25700 44.78300
C  50.16900 27.99900 43.86400
C  50.17000 28.41700 42.42700
O  51.07400 28.22600 41.58900
O  48.91000 28.93200 42.08600
C  48.81500 29.53900 40.75500
H  50.60600 21.04200 43.79300
H  56.64800 21.51500 45.54300
H  55.92100 27.91400 46.29400
H  48.36500 25.38600 43.35100
H  49.17500 22.73600 42.48000
H  48.22300 23.77500 45.14900
H  48.59500 22.11300 44.88900
H  47.23600 22.82800 43.92400
H  49.76900 24.11800 41.16500
H  50.19600 25.80000 41.17400
H  48.37400 26.70900 40.43900
H  47.25100 25.56000 41.12500
H  51.40700 19.22100 43.26900
H  51.71700 18.30000 44.71700
H  52.87200 18.20500 43.33000
H  57.28800 19.64000 44.95600
H  57.06000 17.94100 45.48800
H  56.54300 19.37600 46.48700
H  58.18800 23.79300 45.35400
H  57.13500 25.39400 47.51700
H  57.36700 22.26600 47.63900
H  58.44100 23.54300 48.24700
H  58.93000 22.45900 46.97700
H  58.08400 27.27600 45.52400
H  58.99800 25.85200 45.17600
H  59.73700 27.73300 47.18800
H  60.45400 26.23100 46.83000
H  59.33900 26.50500 48.16100
H  53.48600 30.75200 45.84600
H  55.11800 29.78700 45.86600
H  53.97100 29.89700 47.24800
H  49.12800 27.98800 44.18700
H  48.73100 30.59300 41.01800
H  47.82900 29.33400 40.33700
H  49.58400 29.34200 40.00800

