158

Mg 8.62200 4.45000 27.58600
C  10.12000 2.72000 30.24700
C  6.70500 6.20600 29.77000
C  7.18200 5.94400 24.92200
C  10.22000 2.32800 25.43700
N  8.41000 4.42300 29.73600
C  9.11500 3.67200 30.67800
C  8.69000 3.89600 32.14900
C  7.51400 4.90200 31.89200
C  7.53300 5.25000 30.40300
C  6.12400 4.33000 32.33400
C  9.86100 4.43200 32.94700
C  9.61800 5.08300 34.38700
H  10.09400 4.38200 35.66100
N  7.17900 5.99300 27.35300
C  6.57200 6.64100 28.41400
C  5.68600 7.61300 27.88300
C  5.81600 7.57900 26.44700
C  6.73500 6.48600 26.15800
C  4.80800 8.54800 28.81500
C  5.03300 8.38200 25.43600
O  5.16500 8.09300 24.26300
C  4.10800 9.49900 25.82400
N  8.52000 4.07100 25.47500
C  7.94700 4.88200 24.58200
C  8.24200 4.47300 23.12800
C  9.33100 3.38700 23.35100
C  9.37000 3.21500 24.84200
C  6.90000 4.01700 22.41500
C  10.63000 3.51000 22.52500
C  11.15300 2.25700 21.79600
N  9.88100 2.88500 27.78300
C  10.43600 2.09600 26.77900
C  11.31500 1.10900 27.36700
C  11.23900 1.30400 28.74600
C  10.38200 2.41500 28.90200
C  12.04900 0.07100 26.65400
C  11.66600 0.89200 30.00100
O  12.38600 -0.04200 30.31500
C  10.90000 1.74300 31.11400
C  10.21900 0.90600 31.99500
O  9.21300 0.29400 31.66800
O  10.77300 0.94300 33.26300
C  10.11500 0.07400 34.34100
H  6.15800 6.83800 30.47300
H  6.78000 6.55500 24.11100
H  10.72400 1.58700 24.81300
H  8.41700 2.91600 32.54000
H  7.60800 5.86400 32.39400
H  5.58600 4.98500 33.01800
H  6.26100 3.36200 32.81500
H  5.69000 4.06900 31.36900
H  10.36100 5.22300 32.38900
H  10.69400 3.73300 33.01100
H  8.53400 5.18700 34.44800
H  9.98200 6.10900 34.33300
H  5.08800 9.59800 28.73700
H  4.97500 8.29300 29.86200
H  3.75100 8.47000 28.56000
H  3.91300 10.06700 24.91400
H  4.59100 10.13300 26.56700
H  3.18500 9.02900 26.16600
H  8.54100 5.36600 22.58000
H  8.86800 2.45200 23.03400
H  7.05400 3.09000 21.86100
H  6.58900 4.74700 21.66800
H  6.10500 3.96100 23.15800
H  11.38800 3.86800 23.22100
H  10.45000 4.12300 21.64100
H  10.49700 2.30500 20.92600
H  10.89700 1.39700 22.41500
H  12.17700 2.39900 21.45200
H  11.43100 -0.78900 26.39700
H  12.75100 -0.35000 27.37300
H  12.69400 0.49700 25.88600
H  11.62200 2.32500 31.68700
H  9.25700 -0.47500 33.95300
H  9.85300 0.78000 35.12900
H  10.79600 -0.69300 34.71000
Mg 41.34700 40.56000 26.54700
C  40.98000 42.99600 29.02400
C  42.30800 38.30100 28.90500
C  42.28100 38.39000 24.14100
C  40.64900 43.00500 24.22600
N  41.65700 40.68600 28.66700
C  41.31000 41.72000 29.56000
C  41.40200 41.33300 31.06600
C  42.29400 39.99900 30.92500
C  42.10700 39.60300 29.39200
C  43.76700 40.22400 31.42900
C  40.03400 41.04300 31.62800
C  39.62600 41.84600 32.90300
H  39.06300 41.03700 34.06700
N  42.09000 38.50400 26.56700
C  42.36500 37.72900 27.62600
C  42.78400 36.38000 27.24000
C  42.87000 36.41100 25.85100
C  42.41600 37.81000 25.42700
C  43.17200 35.33800 28.24200
C  43.26700 35.31400 24.80900
O  43.38600 35.54800 23.62300
C  43.40100 33.91900 25.35200
N  41.63300 40.71900 24.43700
C  41.88800 39.66100 23.64900
C  41.68600 39.95500 22.17100
C  40.85300 41.35700 22.16800
C  41.08100 41.77100 23.67500
C  43.05900 40.00200 21.36200
C  39.36900 41.29300 21.74400
C  38.50200 40.07400 22.18000
N  40.88000 42.61300 26.56400
C  40.66100 43.49400 25.53600
C  40.36400 44.82900 25.99900
C  40.47100 44.70700 27.39000
C  40.80200 43.31100 27.65500
C  40.15700 46.04700 25.14700
C  40.29500 45.35000 28.65100
O  40.04200 46.47000 28.89300
C  40.64400 44.31800 29.74400
C  41.66500 44.92700 30.63200
O  42.82200 45.21800 30.34700
O  41.09700 45.17800 31.78500
C  41.88300 45.64900 32.87100
H  42.43000 37.56400 29.70100
H  42.55000 37.77400 23.28000
H  40.20500 43.67600 23.48700
H  41.86000 42.17400 31.58600
H  41.85600 39.15000 31.45100
H  44.52500 39.66700 30.87700
H  43.75100 39.85600 32.45500
H  44.11400 41.24600 31.58100
H  39.79700 39.99700 31.82300
H  39.30500 41.13800 30.82300
H  38.92600 42.62400 32.59800
H  40.38800 42.49900 33.32800
H  44.15900 34.97900 27.94800
H  42.53800 34.46300 28.09800
H  43.09800 35.65300 29.28300
H  42.39500 33.59700 25.62000
H  44.09000 34.00000 26.19300
H  43.70900 33.26600 24.53600
H  41.04900 39.19200 21.72600
H  41.26800 42.10700 21.49400
H  43.86700 39.95900 22.09200
H  43.13600 40.86400 20.69900
H  43.08100 39.12400 20.71600
H  39.27500 41.39600 20.66300
H  38.82000 42.11400 22.20400
H  37.62000 40.38500 22.73900
H  39.21300 39.46300 22.73600
H  38.12600 39.48700 21.34100
H  39.37900 45.74100 24.44700
H  41.03300 46.29900 24.54900
H  39.96300 47.00500 25.62900
H  39.73000 44.11200 30.30000
H  42.95500 45.47200 32.78100
H  41.50700 45.37700 33.85800
H  41.66600 46.71700 32.88200

