158

Mg 8.86500 3.05700 26.73000
C  10.11100 1.64300 29.72800
C  7.11100 5.31700 28.69700
C  7.35100 4.17900 24.02200
C  10.55200 0.59200 24.92200
N  8.63900 3.42000 29.01500
C  9.40400 2.78500 30.00500
C  9.02400 3.41100 31.37700
C  7.89700 4.45800 31.02600
C  7.83000 4.43800 29.46100
C  6.48900 4.15000 31.66600
C  10.20100 4.04200 32.20000
C  9.81700 4.58000 33.55200
H  10.25600 3.83800 34.81900
N  7.42700 4.59400 26.42500
C  6.93600 5.42400 27.33600
C  6.04100 6.40200 26.65400
C  6.06500 6.03700 25.29500
C  6.96900 4.87600 25.19000
C  5.19000 7.44600 27.31200
C  5.36800 6.76900 24.08600
O  5.30000 6.27800 22.96700
C  4.55900 8.09600 24.27200
N  8.88900 2.46300 24.76600
C  8.20700 3.09900 23.78500
C  8.30200 2.38600 22.45200
C  9.45600 1.42000 22.70400
C  9.65100 1.45400 24.21900
C  6.94400 1.64500 22.09000
C  10.73400 1.67000 21.97300
C  11.62000 0.48700 21.43700
N  10.06700 1.40400 27.21000
C  10.68200 0.50900 26.35800
C  11.41600 -0.47700 27.16300
C  11.32400 0.01200 28.50900
C  10.36000 1.06600 28.47000
C  12.30600 -1.46200 26.56500
C  11.72300 -0.19500 29.85900
O  12.52800 -0.92400 30.47500
C  11.00400 0.89500 30.67200
C  10.25200 0.24800 31.77900
O  9.18000 -0.35700 31.65500
O  10.81400 0.53600 32.97200
C  10.13600 0.04200 34.18500
H  6.55100 6.02200 29.31600
H  6.95900 4.59300 23.09100
H  11.07000 -0.15000 24.31000
H  8.63200 2.61100 32.00400
H  8.17500 5.49300 31.22200
H  5.76900 3.78900 30.93200
H  6.05300 5.08000 32.03000
H  6.56400 3.38500 32.44000
H  10.67100 4.91100 31.74200
H  11.09900 3.42500 32.19400
H  8.73800 4.67200 33.43000
H  10.34600 5.52200 33.69800
H  5.78500 8.35500 27.40600
H  4.89500 7.10100 28.30300
H  4.27000 7.78400 26.83500
H  3.62400 7.96400 24.81600
H  4.30700 8.54200 23.31000
H  5.28100 8.81200 24.66400
H  8.58700 3.11500 21.69400
H  9.18600 0.40200 22.42300
H  6.12300 1.90300 22.75900
H  7.10100 0.56700 22.14100
H  6.72200 1.85700 21.04500
H  11.49200 2.20600 22.54400
H  10.56900 2.36100 21.14700
H  11.19600 -0.49400 21.65200
H  12.58600 0.64200 21.91800
H  11.89000 0.59900 20.38700
H  11.67400 -2.04800 25.89700
H  12.75300 -2.05900 27.36000
H  13.10900 -0.94400 26.04200
H  11.72300 1.52000 31.20100
H  9.11900 0.43000 34.23900
H  10.67400 0.43900 35.04600
H  10.14800 -1.04700 34.15100
Mg 46.61200 16.00600 28.35500
C  44.30100 15.53900 31.00700
C  48.70900 17.47700 30.62900
C  48.49900 16.53200 25.79600
C  43.88400 14.87700 26.15900
N  46.49000 16.54000 30.52400
C  45.49300 16.06800 31.38100
C  45.85500 16.50300 32.85500
C  47.23500 17.22900 32.73900
C  47.48800 17.09000 31.21900
C  47.20300 18.76900 33.12100
C  46.06600 15.23800 33.73000
C  45.38400 15.40200 35.13500
H  45.23000 16.79500 35.71700
N  48.35800 16.88000 28.15900
C  49.14600 17.37500 29.24000
C  50.42800 17.86400 28.79100
C  50.41800 17.61700 27.38900
C  49.07900 16.95700 27.05300
C  51.39700 18.43200 29.79500
C  51.54700 17.66700 26.39600
O  51.31100 17.47000 25.23200
C  52.90400 18.17000 26.74200
N  46.30700 15.70500 26.30400
C  47.27200 16.00000 25.40500
C  46.70300 15.86400 24.00600
C  45.31100 15.14600 24.16200
C  45.14100 15.31500 25.60500
C  46.52600 17.28600 23.34000
C  45.36000 13.68200 23.61900
C  44.22600 13.31300 22.71100
N  44.58800 15.14600 28.50400
C  43.69000 14.68700 27.52700
C  42.58700 14.02300 28.19200
C  42.76900 14.39600 29.56500
C  43.97400 15.09300 29.64500
C  41.35500 13.48300 27.58700
C  42.14100 14.44700 30.88700
O  41.05800 14.08700 31.27500
C  43.14900 15.12600 31.85800
C  42.48300 16.22500 32.57400
O  42.47000 17.39900 32.24600
O  41.85300 15.76800 33.72400
C  41.23200 16.66000 34.76400
H  49.42000 17.81100 31.38700
H  49.07100 16.51500 24.86600
H  43.12000 14.51100 25.46900
H  45.04100 17.18400 33.10400
H  48.04400 16.76700 33.30500
H  46.21700 18.97000 33.53900
H  47.31100 19.39100 32.23200
H  47.95000 19.15500 33.81500
H  47.12500 14.99300 33.81000
H  45.67200 14.43200 33.11000
H  46.04900 14.76700 35.72000
H  44.43100 14.87400 35.16800
H  52.45200 18.39100 29.52300
H  51.44500 17.86300 30.72300
H  51.13800 19.43900 30.12300
H  53.20600 17.39300 27.44500
H  52.82900 19.07700 27.34200
H  53.57200 18.40000 25.91200
H  47.45200 15.28400 23.46700
H  44.53000 15.69300 23.63400
H  46.36400 17.21400 22.26500
H  47.33200 17.99000 23.55100
H  45.65400 17.63100 23.89600
H  45.54000 12.96900 24.42400
H  46.24600 13.65400 22.98400
H  44.44500 12.53900 21.97600
H  44.00600 14.24300 22.18700
H  43.38100 13.03600 23.34300
H  41.63200 12.65300 26.93700
H  40.84500 14.24200 26.99300
H  40.56700 13.12400 28.24900
H  43.60400 14.40800 32.53900
H  40.26300 16.18200 34.90400
H  41.13400 17.70500 34.46800
H  41.88100 16.70600 35.63900

