158

Mg 35.01800 2.66700 30.09700
C  32.56300 3.53300 32.57100
C  37.36300 2.66200 32.52600
C  37.45200 2.27800 27.79100
C  32.59800 3.00600 27.70500
N  34.91800 2.91400 32.23700
C  33.86000 3.21900 33.03800
C  34.27700 3.27700 34.47900
C  35.80500 3.42600 34.44600
C  36.04700 2.92500 32.97000
C  36.39300 4.79800 34.97900
C  33.69800 2.14000 35.42400
C  33.23500 2.55800 36.87300
H  33.88400 3.76200 37.62700
N  37.05300 2.30700 30.19900
C  37.84200 2.37500 31.29500
C  39.29500 2.27500 30.93100
C  39.36400 2.17700 29.51900
C  37.93900 2.27100 29.07500
C  40.42600 2.35800 31.91500
C  40.58600 1.94900 28.58500
O  40.51300 1.83800 27.36800
C  42.04600 1.71900 29.05400
N  35.04500 2.54700 28.07300
C  36.12300 2.32500 27.31200
C  35.73100 2.24700 25.82100
C  34.19700 2.48800 25.81900
C  33.93700 2.68200 27.30400
C  36.48600 3.26100 24.92200
C  33.32300 1.34600 25.16400
C  32.50200 1.69500 23.93700
N  33.05200 3.18900 30.05400
C  32.15000 3.28100 29.07600
C  30.85700 3.68400 29.49300
C  30.99000 3.88600 30.89800
C  32.33100 3.46000 31.19200
C  29.64400 3.98200 28.61700
C  30.29600 4.26700 32.12000
O  29.15200 4.73300 32.30300
C  31.34900 4.09300 33.25000
C  31.55700 5.40500 33.90000
O  32.37800 6.23400 33.53000
O  30.65800 5.58800 34.94200
C  30.57900 6.94600 35.48100
H  38.06600 2.81800 33.34700
H  38.22600 2.24400 27.02000
H  31.91200 3.27600 26.89900
H  33.79900 4.18900 34.83800
H  36.22900 2.65600 35.09100
H  35.81600 5.46300 35.62200
H  36.60000 5.48900 34.16200
H  37.20900 4.50300 35.63900
H  34.35600 1.28000 35.54500
H  32.78700 1.82700 34.91300
H  33.23800 1.64000 37.46100
H  32.16800 2.76400 36.78700
H  41.00600 1.43800 31.84200
H  40.01600 2.33800 32.92500
H  41.04300 3.24000 31.74700
H  42.59500 1.14100 28.31100
H  42.10300 1.14200 29.97700
H  42.63000 2.63000 29.18800
H  35.86700 1.19200 25.58000
H  33.87800 3.36900 25.26200
H  36.79500 4.16400 25.44900
H  35.91200 3.44600 24.01400
H  37.37700 2.82500 24.46900
H  32.70500 0.96000 25.97500
H  33.99300 0.54300 24.85700
H  32.72200 2.69800 23.57200
H  31.44900 1.72200 24.21900
H  32.65400 0.96200 23.14400
H  29.70800 4.89300 28.02100
H  28.81800 4.08200 29.32000
H  29.49500 3.12400 27.96200
H  31.02900 3.50800 34.11200
H  30.42900 7.66600 34.67600
H  31.49500 7.30100 35.95500
H  29.72900 7.09000 36.14700
Mg -11.58100 17.21000 40.47000
C  -8.52900 15.40900 40.33700
C  -9.84000 20.11700 39.73200
C  -14.48700 18.77400 39.80800
C  -13.19500 14.06300 40.19700
N  -9.43600 17.64900 39.80300
C  -8.44600 16.78200 39.91700
C  -7.10300 17.48900 39.49700
C  -7.55200 19.00100 39.35700
C  -9.03100 18.96600 39.67700
C  -6.63700 19.92300 40.21400
C  -6.46900 16.91800 38.19500
C  -5.02600 16.34900 38.30000
H  -4.68900 15.13000 37.38600
N  -12.06500 19.19200 39.99400
C  -11.19800 20.24000 39.81300
C  -11.94500 21.46400 39.56500
C  -13.35200 21.09200 39.64100
C  -13.35000 19.62400 39.86400
C  -11.39200 22.85200 39.25600
C  -14.49000 22.09100 39.47600
O  -14.31500 23.29900 39.34600
C  -15.96400 21.65700 39.38800
N  -13.52700 16.51300 40.06100
C  -14.55700 17.34900 39.88800
C  -15.86900 16.61100 39.70800
C  -15.43400 15.15800 39.87900
C  -13.95400 15.22000 40.00400
C  -17.16300 17.03700 40.60000
C  -16.02100 14.22000 38.82900
C  -16.43800 12.84300 39.39700
N  -11.04300 15.16000 40.55600
C  -11.81000 13.97500 40.42200
C  -10.96000 12.80700 40.61000
C  -9.65800 13.37200 40.73000
C  -9.79000 14.78200 40.55400
C  -11.34100 11.39800 40.63100
C  -8.21300 13.05200 40.91400
O  -7.63900 12.01700 41.09300
C  -7.44200 14.38700 40.73100
C  -6.75300 14.79600 41.97600
O  -7.03000 15.62800 42.79600
O  -5.61900 13.98900 42.10600
C  -4.79200 14.24600 43.27600
H  -9.23300 21.01200 39.58500
H  -15.47300 19.22100 39.66000
H  -13.64200 13.07000 40.12000
H  -6.44900 17.23000 40.33000
H  -7.47000 19.34700 38.32700
H  -6.64800 19.47800 41.20900
H  -6.91400 20.96600 40.37000
H  -5.65500 19.94200 39.74100
H  -6.41900 17.74600 37.48800
H  -7.07500 16.10100 37.80200
H  -4.94600 15.97000 39.31800
H  -4.35800 17.18500 38.09200
H  -11.87200 23.63700 39.84100
H  -11.52800 22.94300 38.17800
H  -10.32200 22.85600 39.46000
H  -16.02900 21.08500 38.46200
H  -16.61700 22.52800 39.33700
H  -16.30600 21.06200 40.23500
H  -16.26200 16.84700 38.71900
H  -15.78700 14.78600 40.84100
H  -17.32300 18.11400 40.54200
H  -17.03600 16.68900 41.62600
H  -18.06100 16.60900 40.15500
H  -15.34800 14.14200 37.97500
H  -16.97900 14.52700 38.40900
H  -17.50600 12.77600 39.60300
H  -15.76500 12.64200 40.23000
H  -16.13200 12.12800 38.63200
H  -12.17500 11.20100 39.95600
H  -11.63100 11.21000 41.66500
H  -10.48000 10.80200 40.32900
H  -6.68000 14.40300 39.95200
H  -4.16300 15.13600 43.27900
H  -4.25100 13.31800 43.46600
H  -5.41200 14.31800 44.16900

