158

Mg 16.63500 51.96100 26.31100
C  18.80700 50.62200 28.70100
C  14.56400 52.89700 28.84600
C  14.52100 53.14800 23.90600
C  18.72900 50.87000 23.84400
N  16.68000 51.69100 28.49600
C  17.66900 51.08900 29.27300
C  17.36500 51.17000 30.82000
C  15.86400 51.72100 30.74000
C  15.63600 52.08500 29.26300
C  14.77900 50.74100 31.25200
C  18.32200 52.14000 31.65500
C  18.85100 51.74600 33.05300
H  17.96000 52.20900 34.25900
N  14.76600 52.80000 26.33800
C  14.06900 53.11100 27.52000
C  12.94000 53.96000 27.10300
C  12.85300 53.93100 25.69400
C  14.10500 53.28700 25.22800
C  11.96400 54.70500 28.20600
C  11.79000 54.53800 24.86300
O  11.73000 54.23900 23.66800
C  10.56400 55.26400 25.45100
N  16.63600 52.06500 24.21600
C  15.69500 52.58300 23.39500
C  15.95900 52.49100 21.89400
C  17.40000 51.90900 21.99500
C  17.63000 51.63700 23.46300
C  14.91700 51.52800 21.19900
C  18.50400 52.84900 21.33900
C  18.87800 54.19100 22.11700
N  18.39500 50.87800 26.23400
C  19.15100 50.50300 25.14300
C  20.29700 49.84000 25.58400
C  20.15600 49.74500 26.97800
C  19.03200 50.48200 27.37800
C  21.37500 49.21800 24.83300
C  20.83600 49.29200 28.21400
O  21.81000 48.72900 28.52300
C  19.91400 49.84200 29.39800
C  19.40600 48.59500 30.07800
O  18.56700 47.83400 29.59700
O  19.78600 48.61600 31.35600
C  19.15500 47.65100 32.20100
H  13.92800 53.21200 29.67600
H  13.92900 53.66400 23.14700
H  19.30800 50.56900 22.96900
H  17.27400 50.17900 31.26500
H  15.74400 52.64600 31.30400
H  13.81400 51.24700 31.28000
H  15.10800 50.45700 32.25200
H  14.60500 49.88000 30.60600
H  17.78300 53.07900 31.78000
H  19.19600 52.45300 31.08400
H  19.90000 52.04000 33.06700
H  18.68700 50.67000 33.00100
H  12.27900 55.74800 28.18700
H  12.31600 54.45100 29.20500
H  10.89500 54.50100 28.14300
H  10.95500 56.17500 25.90400
H  9.93200 54.63800 26.08100
H  9.89400 55.62700 24.67100
H  15.86300 53.49000 21.46700
H  17.42100 50.90900 21.56100
H  15.47600 50.62700 20.94500
H  14.54300 51.93600 20.26000
H  14.17900 51.38100 21.98700
H  18.03100 53.13100 20.39800
H  19.43800 52.29200 21.26500
H  18.37000 54.27000 23.07800
H  18.66400 55.02300 21.44700
H  19.93600 53.97700 22.26600
H  21.89500 50.00400 24.28600
H  20.89000 48.55000 24.12100
H  22.09200 48.67600 25.45000
H  20.44200 50.49400 30.09400
H  19.31800 46.63200 31.85000
H  18.11100 47.95700 32.26200
H  19.38100 47.83600 33.25100
Mg 9.75000 47.82000 26.51700
C  8.08500 47.61200 29.48300
C  12.45000 48.99200 28.37400
C  11.30100 48.24800 23.54900
C  6.60700 47.45500 24.74800
N  10.20600 48.23400 28.70800
C  9.32400 48.15000 29.71500
C  9.93500 48.67800 31.03400
C  11.09300 49.59400 30.56900
C  11.30100 48.89200 29.12700
C  10.84100 51.22000 30.58900
C  10.35500 47.49200 31.93300
C  9.88600 47.55500 33.38600
H  9.98400 46.19200 34.11800
N  11.68400 48.32100 26.07900
C  12.60800 48.76900 27.00600
C  13.82100 48.74400 26.31700
C  13.51200 48.51200 24.92600
C  12.07600 48.37300 24.76700
C  15.17400 48.97800 27.03200
C  14.47900 48.50600 23.73100
O  14.17900 48.19600 22.60700
C  15.91300 48.66900 23.92400
N  9.01300 47.90100 24.39200
C  9.87400 48.03000 23.40800
C  9.21300 48.06700 22.01000
C  7.68200 47.79400 22.42200
C  7.74400 47.61800 23.97600
C  9.45500 49.30900 21.03700
C  7.01200 46.62100 21.65900
C  6.57300 46.99000 20.20200
N  7.74700 47.46700 26.99600
C  6.64500 47.37300 26.22900
C  5.51900 47.19600 27.09700
C  5.99400 47.27600 28.39400
C  7.38500 47.46400 28.22700
C  4.14800 46.97000 26.58300
C  5.71100 47.17700 29.80500
O  4.69800 46.99300 30.43600
C  7.06000 47.43100 30.50900
C  7.27800 46.18500 31.28300
O  7.73500 45.11700 30.92400
O  6.75900 46.31200 32.51400
C  6.42100 45.07800 33.28200
H  13.32700 49.33700 28.92700
H  11.81800 48.34000 22.59200
H  5.63600 47.30500 24.27200
H  9.18200 49.24600 31.58000
H  11.94400 49.51700 31.24600
H  10.98800 51.40000 29.52400
H  11.76600 51.53600 31.07300
H  9.93300 51.56900 31.08100
H  11.44300 47.46200 31.97800
H  10.18400 46.51300 31.48400
H  8.85500 47.90200 33.32900
H  10.33900 48.40300 33.90000
H  15.27300 48.77400 28.09800
H  15.46500 49.95400 26.64300
H  15.84200 48.18100 26.70300
H  16.43100 48.77800 22.97100
H  16.19600 47.74700 24.43100
H  16.29800 49.49800 24.51900
H  9.52800 47.21600 21.40600
H  7.07500 48.69000 22.29300
H  8.52300 49.72400 20.65400
H  10.02300 49.03300 20.14900
H  10.00800 50.06800 21.59100
H  6.09800 46.37600 22.19900
H  7.65200 45.74400 21.76000
H  6.71700 48.05200 20.00200
H  5.54000 46.75900 19.94100
H  7.13800 46.37500 19.50200
H  4.07000 46.36400 25.68100
H  3.61700 47.91100 26.43800
H  3.48600 46.48600 27.30000
H  6.93800 48.21600 31.25500
H  6.87300 45.13200 34.27200
H  6.65000 44.11100 32.83400
H  5.34500 45.12600 33.44500

