158

Mg 0.49800 43.00600 25.56700
C  2.61500 42.72900 28.42800
C  -2.00400 41.84600 27.36400
C  -1.10900 42.59000 22.63100
C  3.45900 43.51600 23.59100
N  0.39200 42.36900 27.62000
C  1.26500 42.53700 28.66900
C  0.61200 42.59400 29.99300
C  -0.84200 42.06000 29.68400
C  -0.84300 42.01400 28.13200
C  -1.12400 40.66000 30.40900
C  0.74700 44.05100 30.65700
C  1.25700 44.00300 32.13900
H  1.16600 42.70500 32.97500
N  -1.31700 42.45500 25.06000
C  -2.26300 41.92900 25.97400
C  -3.44200 41.49800 25.28600
C  -3.22700 41.91100 23.95200
C  -1.81900 42.31200 23.81800
C  -4.58600 40.92100 26.00200
C  -4.23000 41.98100 22.73400
O  -4.00100 42.38300 21.60600
C  -5.66300 41.54800 22.97400
N  1.02200 43.24200 23.34800
C  0.21800 42.97700 22.31000
C  0.86000 43.21300 20.95600
C  2.29200 43.72800 21.30400
C  2.25600 43.47700 22.84100
C  0.89500 41.87600 20.13400
C  2.49900 45.22400 21.03000
C  3.63500 45.50700 20.05800
N  2.62600 43.13400 25.83200
C  3.62900 43.33400 24.99100
C  4.91000 43.19400 25.68100
C  4.54300 43.09500 27.01700
C  3.14400 42.97800 27.10200
C  6.31200 43.24100 25.07200
C  5.06000 43.00400 28.41200
O  6.17300 43.15900 28.81100
C  3.78200 42.87100 29.35700
C  3.92700 41.72100 30.31500
O  3.39100 40.57000 30.19100
O  4.84500 42.03400 31.21600
C  5.12300 41.23700 32.46900
H  -2.92200 41.71400 27.94000
H  -1.69800 42.33000 21.74900
H  4.40500 43.70700 23.07900
H  1.25400 41.96000 30.60500
H  -1.65600 42.74500 29.92200
H  -0.21200 40.06600 30.46300
H  -1.78500 40.04300 29.80000
H  -1.58700 40.79100 31.38800
H  -0.17200 44.63500 30.69500
H  1.44600 44.66900 30.09400
H  0.73800 44.82200 32.63600
H  2.32800 44.20200 32.18500
H  -4.26900 40.33000 26.86200
H  -5.17300 40.25900 25.36500
H  -5.23100 41.73900 26.32200
H  -5.73200 40.47000 22.83400
H  -6.34800 42.09400 22.32500
H  -5.96100 41.80800 23.99000
H  0.28900 44.01900 20.49600
H  3.08700 43.13300 20.85300
H  1.79300 41.37400 20.49400
H  1.08300 42.06500 19.07700
H  0.07300 41.19500 20.35400
H  2.74000 45.83100 21.90200
H  1.60000 45.72400 20.66900
H  4.18600 44.70300 19.57100
H  4.36100 46.09200 20.62300
H  3.27200 46.15100 19.25700
H  6.35500 42.87800 24.04500
H  7.00600 42.63800 25.65700
H  6.69100 44.26000 24.99000
H  3.60700 43.76600 29.95500
H  4.45000 40.38000 32.50300
H  5.05900 41.77700 33.41400
H  6.14600 40.86300 32.46400
Mg -2.60700 34.37500 26.01800
C  -4.08900 32.75300 28.78200
C  -1.44700 36.64200 28.42500
C  -1.22300 36.01500 23.60700
C  -4.35900 32.33400 23.93000
N  -3.00300 34.79300 28.45400
C  -3.40600 33.82400 29.29300
C  -3.11800 34.19800 30.79100
C  -2.41000 35.58200 30.67000
C  -2.21400 35.67000 29.08000
C  -3.30200 36.75200 31.08200
C  -2.35300 33.10000 31.55700
C  -2.80100 32.89700 32.97900
H  -2.34300 33.99900 33.98500
N  -1.48300 36.04200 26.01900
C  -1.06200 36.77000 27.10900
C  -0.16400 37.82900 26.65000
C  -0.13300 37.69000 25.20700
C  -0.97600 36.54500 24.90400
C  0.34500 38.92600 27.51900
C  0.67000 38.53300 24.15800
O  0.75000 38.30700 22.97300
C  1.41600 39.69400 24.80000
N  -2.88700 34.23900 24.03700
C  -2.18700 35.05000 23.20900
C  -2.55800 34.70500 21.71100
C  -3.49600 33.50100 21.80800
C  -3.61900 33.31900 23.39400
C  -3.16300 35.92800 21.00300
C  -3.00000 32.26500 21.10700
C  -2.25700 31.21300 21.92000
N  -4.03700 32.89500 26.22000
C  -4.62700 32.06300 25.28000
C  -5.30900 30.99700 25.92200
C  -5.11600 31.23100 27.32200
C  -4.41900 32.42700 27.43900
C  -6.12500 29.91300 25.22100
C  -5.47400 30.74100 28.63800
O  -6.04500 29.76500 28.98000
C  -4.79900 31.67700 29.61000
C  -5.83200 32.28900 30.54300
O  -6.75700 33.06200 30.26700
O  -5.84200 31.68200 31.80600
C  -6.69200 32.19700 32.90400
H  -0.92900 37.24500 29.17400
H  -0.76400 36.60200 22.80900
H  -4.82400 31.73100 23.14700
H  -4.09100 34.24700 31.28100
H  -1.43300 35.65900 31.14700
H  -2.71900 37.37100 31.76300
H  -4.16000 36.37000 31.63600
H  -3.71500 37.33000 30.25500
H  -1.33700 33.47700 31.67300
H  -2.28300 32.18500 30.97000
H  -2.47200 31.91700 33.32200
H  -3.88900 32.96400 32.98800
H  1.41300 38.89500 27.73100
H  -0.16800 38.90500 28.48100
H  0.05000 39.84400 27.01000
H  2.08100 39.32600 25.58100
H  0.72600 40.49900 25.05400
H  2.09900 40.11700 24.06400
H  -1.63000 34.42100 21.21500
H  -4.50100 33.64900 21.41300
H  -2.48300 36.33100 20.25300
H  -3.36500 36.72000 21.72500
H  -4.06600 35.82600 20.40000
H  -2.39200 32.43100 20.21800
H  -3.90400 31.79900 20.71400
H  -1.74600 31.73100 22.73100
H  -1.52600 30.63500 21.35500
H  -3.00800 30.47100 22.19400
H  -6.22000 29.13500 25.97900
H  -5.73200 29.39900 24.34300
H  -7.07500 30.37200 24.94700
H  -4.09000 31.07600 30.18000
H  -6.33300 31.80800 33.85700
H  -7.77100 32.13900 32.75800
H  -6.38600 33.24300 32.89000

