158

Mg -2.89200 17.47200 26.60200
C  -3.30200 15.42600 29.43700
C  -3.61400 20.19100 28.67100
C  -2.91100 19.46700 24.00300
C  -3.03900 14.64900 24.67900
N  -3.22600 17.68400 28.80400
C  -3.23600 16.78500 29.84600
C  -3.50500 17.39500 31.26400
C  -3.90200 18.83400 30.85700
C  -3.56700 18.91400 29.29900
C  -5.34800 19.37300 31.18000
C  -2.29600 17.27200 32.18700
C  -2.71900 16.86400 33.57100
H  -1.84000 16.99500 34.92300
N  -2.98500 19.57100 26.42000
C  -3.26200 20.51900 27.34700
C  -3.17800 21.82600 26.70300
C  -2.85600 21.64200 25.36300
C  -2.98300 20.19900 25.14900
C  -3.44700 23.07600 27.40600
C  -2.51200 22.59200 24.27700
O  -2.61000 22.25700 23.08400
C  -1.96200 24.05700 24.57200
N  -2.98000 17.10200 24.66400
C  -2.95800 18.11500 23.74000
C  -3.01300 17.58800 22.26100
C  -2.93700 16.01700 22.57400
C  -2.91700 15.88000 24.06800
C  -4.30500 18.04000 21.55500
C  -1.64900 15.46100 21.97200
C  -0.28800 15.53700 22.68000
N  -3.07500 15.46900 26.94000
C  -3.13800 14.42600 26.03900
C  -3.17800 13.20200 26.70300
C  -3.26500 13.52400 28.07400
C  -3.22700 14.96500 28.13500
C  -3.30000 11.86800 26.02900
C  -3.40600 12.94900 29.35200
O  -3.37700 11.75400 29.73200
C  -3.57300 14.22300 30.26600
C  -2.73300 13.99800 31.45800
O  -1.50500 13.94700 31.43400
O  -3.50400 13.68000 32.56300
C  -2.80800 13.26600 33.75400
H  -3.67500 21.00200 29.40000
H  -2.72400 19.91200 23.02400
H  -3.08700 13.75200 24.05900
H  -4.34400 16.87500 31.72700
H  -3.26200 19.54600 31.37900
H  -5.78000 18.65100 31.87300
H  -6.06200 19.45600 30.36000
H  -5.42600 20.29100 31.76200
H  -1.92600 18.27400 32.40400
H  -1.59600 16.61600 31.66900
H  -3.13900 15.85900 33.62900
H  -3.53000 17.56000 33.78600
H  -2.45300 23.38500 27.72900
H  -4.14000 22.85400 28.21600
H  -3.89600 23.86700 26.80500
H  -1.11200 24.02400 25.25300
H  -2.65000 24.71800 25.09900
H  -1.79400 24.59700 23.64000
H  -2.11600 17.83600 21.69300
H  -3.88800 15.54700 22.32400
H  -4.84100 18.63900 22.29100
H  -4.96000 17.20800 21.29900
H  -4.13100 18.71600 20.71700
H  -1.58100 15.88900 20.97200
H  -1.89200 14.41600 21.78000
H  -0.10100 14.62700 23.24900
H  -0.16800 16.48500 23.20600
H  0.49500 15.60200 21.92500
H  -2.49600 11.14000 26.13600
H  -3.59400 11.88000 24.98000
H  -4.15800 11.48000 26.57800
H  -4.59500 14.17800 30.64200
H  -1.77400 13.00000 33.53500
H  -3.18400 12.31400 34.12800
H  -2.79800 13.95200 34.60200
Mg 16.07200 -2.00500 27.73000
C  15.07800 0.35100 30.21500
C  18.00100 -3.48500 30.14800
C  17.13400 -3.94200 25.25200
C  14.34000 0.18600 25.31500
N  16.44300 -1.58900 29.92900
C  15.92500 -0.60900 30.75200
C  16.51800 -0.67200 32.13800
C  17.70900 -1.68500 32.00800
C  17.41600 -2.25200 30.57200
C  19.20100 -1.23000 32.31300
C  15.44200 -1.13100 33.11700
C  15.31400 -0.49500 34.51000
H  16.47200 0.35800 35.05000
N  17.28700 -3.62600 27.68700
C  17.95600 -4.12800 28.76300
C  18.62600 -5.31500 28.29100
C  18.49600 -5.36900 26.88000
C  17.61500 -4.32600 26.49800
C  19.42900 -6.07700 29.28700
C  19.20700 -6.33100 25.98400
O  18.89400 -6.33900 24.78900
C  20.36600 -7.13600 26.52600
N  15.99400 -1.83800 25.68800
C  16.50000 -2.78400 24.82100
C  16.24800 -2.35900 23.34000
C  15.32200 -1.14900 23.43700
C  15.22600 -0.89400 24.94900
C  17.59400 -2.08300 22.50100
C  13.92500 -1.35400 22.76200
C  13.63500 -0.36700 21.61500
N  14.92500 -0.20200 27.71900
C  14.25800 0.55300 26.66300
C  13.63200 1.66100 27.29000
C  13.85400 1.53000 28.66800
C  14.65000 0.40900 28.84400
C  13.06800 2.79200 26.49000
C  13.61500 2.28800 29.84200
O  12.86600 3.25800 30.04900
C  14.33500 1.47600 30.95400
C  15.17900 2.38600 31.72100
O  16.35000 2.49900 31.63100
O  14.40100 3.07800 32.56100
C  14.85500 4.11500 33.56300
H  18.78000 -3.84000 30.82600
H  17.53800 -4.50000 24.40400
H  13.93900 0.87400 24.56700
H  16.93200 0.31400 32.35100
H  17.44500 -2.57200 32.58400
H  19.68900 -1.70000 33.16700
H  18.99000 -0.19300 32.57700
H  19.92500 -1.26000 31.49900
H  15.62300 -2.20000 33.22800
H  14.53000 -0.94700 32.54800
H  15.02300 -1.19100 35.29600
H  14.44800 0.15100 34.36600
H  20.51000 -5.93100 29.28100
H  19.13500 -7.12200 29.19600
H  19.16900 -5.81000 30.31100
H  21.16400 -6.45700 26.82500
H  20.79000 -7.66600 25.67300
H  19.96000 -7.87400 27.21800
H  15.73700 -3.17100 22.82100
H  15.87500 -0.33400 22.97100
H  18.46200 -2.42800 23.06300
H  17.89300 -1.04200 22.37300
H  17.53200 -2.63800 21.56500
H  13.19800 -1.09000 23.52900
H  13.70900 -2.41300 22.61900
H  13.14400 -0.82500 20.75700
H  14.54500 0.00100 21.14100
H  13.04900 0.46300 22.01000
H  12.00000 2.58000 26.43600
H  13.58700 2.96700 25.54700
H  13.24800 3.80100 26.85900
H  13.65400 0.98800 31.65100
H  15.63300 4.74300 33.12800
H  15.08000 3.78600 34.57700
H  14.00100 4.76500 33.75800

