158

Mg -2.13700 17.17300 26.43300
C  -2.77300 15.16800 29.21800
C  -2.40900 20.03800 28.68500
C  -1.99500 19.28800 23.83400
C  -2.21000 14.54300 24.46500
N  -2.84000 17.53700 28.64000
C  -2.74100 16.57000 29.57500
C  -2.55700 17.15300 30.96800
C  -2.74100 18.66500 30.86000
C  -2.61200 18.81700 29.29800
C  -3.96000 19.20800 31.52000
C  -1.18700 16.85400 31.63200
C  -0.90500 17.62400 32.95200
H  -0.70600 16.69800 34.20200
N  -2.21100 19.35500 26.27100
C  -2.37800 20.35300 27.29200
C  -2.48300 21.63000 26.64800
C  -2.21800 21.49800 25.26100
C  -2.07300 20.01500 25.02800
C  -2.66400 22.86100 27.55000
C  -2.12500 22.58600 24.22300
O  -1.93300 22.38000 23.04700
C  -2.21300 24.02300 24.66400
N  -2.04800 16.96800 24.45600
C  -2.08000 17.93600 23.54600
C  -2.19300 17.41400 22.12800
C  -1.94900 15.90900 22.34800
C  -2.12200 15.75300 23.85500
C  -3.45700 17.90600 21.40700
C  -0.53300 15.36100 21.85200
C  -0.45500 14.39200 20.67500
N  -2.40500 15.22900 26.74100
C  -2.39500 14.23000 25.77300
C  -2.45000 12.95400 26.44600
C  -2.59800 13.24100 27.83600
C  -2.57900 14.65900 27.90500
C  -2.53200 11.60600 25.75600
C  -2.72600 12.64700 29.16300
O  -2.87800 11.47400 29.52000
C  -2.79100 13.92400 30.12900
C  -1.53100 13.64000 30.86000
O  -0.39800 13.97200 30.39900
O  -1.72500 13.00100 31.97200
C  -0.51500 12.86300 32.79800
H  -2.40000 20.80900 29.45800
H  -2.09600 19.93800 22.96200
H  -2.06800 13.63300 23.87800
H  -3.34100 16.68800 31.56500
H  -1.89400 19.25000 31.21900
H  -3.63900 20.19300 31.86000
H  -4.33900 18.58200 32.32800
H  -4.73600 19.42800 30.78700
H  -0.41200 17.05300 30.89100
H  -1.28900 15.78200 31.79600
H  -1.57000 18.39100 33.34900
H  0.03700 18.15600 32.82100
H  -3.36100 23.54200 27.06200
H  -1.72400 23.29100 27.89700
H  -3.09400 22.55800 28.50500
H  -3.19600 24.31300 25.03500
H  -2.08200 24.67800 23.80200
H  -1.46700 24.19000 25.44000
H  -1.30200 17.79200 21.62500
H  -2.80600 15.42500 21.87800
H  -3.23000 18.07200 20.35400
H  -3.75300 18.88000 21.79700
H  -4.22900 17.13700 21.45000
H  0.02700 14.93600 22.68500
H  0.07000 16.17200 21.44300
H  -0.05600 13.46500 21.08700
H  0.10100 14.92800 19.90600
H  -1.51200 14.27900 20.43400
H  -1.79900 10.96200 26.24200
H  -2.51000 11.58000 24.66600
H  -3.49000 11.16100 26.02700
H  -3.58900 13.88100 30.87100
H  -0.83700 12.77700 33.83600
H  0.13900 13.73200 32.86100
H  -0.02500 11.90300 32.63400
Mg 1.72100 42.49200 25.45000
C  3.87100 42.40800 28.08700
C  -0.89100 41.15400 27.47900
C  -0.17000 41.81800 22.74500
C  4.41300 43.33300 23.31300
N  1.56400 41.78200 27.53400
C  2.57200 42.01300 28.39700
C  2.02600 41.67000 29.85100
C  0.59900 41.14200 29.57000
C  0.33600 41.48900 28.13100
C  0.26800 39.61200 30.00800
C  2.12900 42.95800 30.72900
C  2.49300 42.69300 32.25200
H  2.22700 41.31500 32.90700
N  -0.37400 41.76500 25.17300
C  -1.24400 41.27200 26.08300
C  -2.50500 40.97500 25.35900
C  -2.31200 41.27100 23.95600
C  -0.90700 41.60400 23.92700
C  -3.68800 40.34200 26.15800
C  -3.24500 41.17700 22.76700
O  -2.97800 41.49600 21.60900
C  -4.61500 40.64400 23.01100
N  2.08700 42.54800 23.33500
C  1.12100 42.24200 22.44600
C  1.65400 42.47700 21.02600
C  3.03900 43.34100 21.27900
C  3.14500 43.16000 22.71100
C  1.89000 41.15400 20.34100
C  3.02100 44.78300 20.73300
C  2.18100 45.74900 21.57500
N  3.76200 42.92400 25.61700
C  4.73600 43.21900 24.69500
C  6.00600 43.23400 25.36500
C  5.72800 42.95300 26.69000
C  4.38300 42.79000 26.77900
C  7.36200 43.61700 24.75300
C  6.29500 42.76200 28.01400
O  7.47900 42.81900 28.33300
C  5.07100 42.41800 28.99500
C  5.43400 41.15600 29.66500
O  5.23000 40.12000 29.19800
O  5.92800 41.39900 30.85700
C  5.83000 40.28400 31.78100
H  -1.67100 40.85400 28.18300
H  -0.70900 41.63400 21.81300
H  5.24000 43.44800 22.61000
H  2.65900 40.90700 30.30400
H  -0.05000 41.77500 30.17400
H  -0.03800 38.98100 29.17400
H  -0.47600 39.70100 30.80000
H  1.21600 39.20100 30.35200
H  1.22300 43.56100 30.65700
H  2.89000 43.66300 30.39600
H  1.92200 43.44200 32.80000
H  3.53200 43.02000 32.28500
H  -3.34200 40.34700 27.19200
H  -3.86600 39.28400 25.96500
H  -4.59300 40.92400 25.98300
H  -5.26300 40.87600 22.16600
H  -5.14300 41.09500 23.85200
H  -4.57400 39.56100 23.12600
H  1.00800 43.15200 20.46400
H  3.94800 42.87700 20.89600
H  1.19200 40.43700 20.77400
H  2.92600 40.89600 20.56000
H  1.68300 41.37300 19.29300
H  2.60900 44.75200 19.72400
H  3.99700 45.23600 20.55900
H  1.42700 46.05000 20.84700
H  2.73600 46.62300 21.91800
H  1.66600 45.18000 22.34900
H  7.21700 44.33400 23.94400
H  7.95000 42.80500 24.32600
H  7.95300 44.08800 25.53800
H  4.93500 43.29600 29.62600
H  6.81000 39.82000 31.66600
H  5.10600 39.48500 31.61900
H  5.71600 40.68100 32.79000

