158

Mg 54.06900 23.99500 44.06600
C  51.38400 26.18100 43.25600
C  52.15000 21.39500 42.82900
C  56.77000 22.15800 43.90300
C  55.69400 26.71700 45.45400
N  52.17400 23.92400 42.88000
C  51.25900 24.86700 42.69800
C  50.05100 24.31100 41.92300
C  50.08100 22.77500 42.27700
C  51.53400 22.67500 42.75400
C  49.00700 22.07300 43.10000
C  50.01100 24.67800 40.39500
C  51.35300 24.89500 39.57400
H  51.22900 25.85600 38.42500
N  54.35000 21.99100 43.67700
C  53.43000 21.09100 43.20000
C  54.00200 19.76800 43.21500
C  55.36400 19.94400 43.58500
C  55.57900 21.38800 43.69400
C  53.31200 18.59900 42.63500
C  56.37300 18.83400 43.72200
O  56.06000 17.69700 43.44100
C  57.81700 19.08400 44.20100
N  56.00000 24.42700 44.31900
C  57.08000 23.50900 44.26000
C  58.36000 24.05900 44.89200
C  57.91600 25.39500 45.47200
C  56.42300 25.53200 45.16500
C  59.00400 23.20000 46.02800
C  58.65700 26.70400 44.97000
C  58.13600 27.41500 43.72900
N  53.78600 26.12100 44.23900
C  54.43900 27.05700 44.91600
C  53.65400 28.29300 45.05000
C  52.48000 28.01000 44.36100
C  52.54200 26.68400 43.88700
C  54.07400 29.58000 45.68500
C  51.22700 28.58300 43.92300
O  50.74600 29.66400 44.13200
C  50.46000 27.40300 43.32100
C  49.88800 27.82400 42.03000
O  50.47000 27.78800 40.99100
O  48.65200 28.15600 42.17100
C  47.94200 28.34100 40.92000
H  51.42800 20.59800 42.63800
H  57.71500 21.61700 43.97700
H  56.29400 27.45400 45.99200
H  49.25400 24.91900 42.35100
H  50.09100 22.26400 41.31400
H  48.09200 22.40200 42.61000
H  49.03900 22.46800 44.11600
H  48.99900 20.98400 43.14400
H  49.34900 25.53400 40.26300
H  49.48600 23.88800 39.85800
H  51.83300 23.96300 39.27500
H  52.04300 25.41600 40.23800
H  53.99700 18.11000 41.94200
H  52.51300 18.84200 41.93500
H  52.83000 17.92300 43.34100
H  57.67200 19.55000 45.17600
H  58.34900 19.76800 43.54000
H  58.41200 18.17900 44.32400
H  59.13800 24.18900 44.14000
H  58.02200 25.50200 46.55100
H  58.41600 22.32700 46.31100
H  59.24900 23.78900 46.91200
H  59.89100 22.71800 45.61700
H  59.71000 26.51500 44.76500
H  58.69300 27.43600 45.77700
H  57.94600 28.47400 43.90300
H  57.37200 26.88300 43.16200
H  58.89100 27.48900 42.94600
H  55.03800 29.33100 46.12900
H  53.31500 29.82300 46.42800
H  54.27100 30.37800 44.96900
H  49.70400 27.14900 44.06400
H  48.04900 27.53100 40.19900
H  48.21500 29.30500 40.49200
H  46.88700 28.33500 41.19500
Mg 16.31600 51.53700 26.90000
C  18.28800 50.34200 29.52700
C  13.98400 52.48600 29.11900
C  14.43700 52.55700 24.25600
C  18.94500 50.66900 24.70900
N  16.18700 51.47300 29.05300
C  17.12600 50.98400 29.92000
C  16.66900 51.22400 31.39900
C  15.14800 51.57800 31.31300
C  15.09600 51.86100 29.76100
C  14.04900 50.45600 31.68100
C  17.60300 52.38200 32.01500
C  17.93500 52.33300 33.57000
H  17.02500 51.40500 34.46000
N  14.42100 52.40000 26.69100
C  13.65900 52.76300 27.74400
C  12.59100 53.52100 27.21700
C  12.60900 53.48000 25.83500
C  13.82200 52.74300 25.47700
C  11.64700 54.23600 28.08200
C  11.68200 54.12100 24.86700
O  11.81500 53.99900 23.67000
C  10.56900 55.04200 25.35500
N  16.66100 51.59800 24.83000
C  15.67300 52.02200 23.88500
C  16.34900 52.21000 22.53900
C  17.73100 51.60600 22.70700
C  17.81700 51.29400 24.19200
C  15.50800 51.80300 21.28100
C  18.88800 52.44900 22.11100
C  20.03100 51.73400 21.29800
N  18.22100 50.58300 27.00500
C  19.19900 50.32900 26.09400
C  20.38800 49.67100 26.70600
C  20.04900 49.77400 28.06600
C  18.75100 50.27800 28.21200
C  21.72600 49.23700 26.01400
C  20.58000 49.51500 29.32500
O  21.70800 49.10900 29.65000
C  19.46800 49.89400 30.37900
C  19.17500 48.54000 30.95300
O  19.14200 47.42800 30.40200
O  18.92600 48.66300 32.34400
C  18.11900 47.56600 32.86800
H  13.18200 52.82400 29.77900
H  13.81200 53.02600 23.49300
H  19.73000 50.38100 24.00800
H  16.59400 50.35200 32.04800
H  15.01500 52.43200 31.97600
H  13.41800 50.59700 32.55800
H  14.55900 49.49500 31.75900
H  13.40900 50.53400 30.80300
H  17.05500 53.32300 31.96600
H  18.56100 52.36400 31.49500
H  17.96200 53.35700 33.94200
H  18.93800 51.92600 33.69600
H  11.72700 54.11700 29.16200
H  10.70100 53.71800 27.92400
H  11.34100 55.24100 27.78800
H  9.96900 55.43100 24.53200
H  10.77700 55.98100 25.86800
H  9.93800 54.48800 26.05000
H  16.55200 53.28100 22.51200
H  17.80700 50.59300 22.31200
H  15.47500 52.65100 20.59700
H  14.46300 51.54400 21.45100
H  16.03100 51.00100 20.75900
H  19.40600 52.87100 22.97200
H  18.42200 53.24700 21.53300
H  20.43800 52.47000 20.60400
H  19.77700 50.78300 20.83000
H  20.84300 51.54600 22.00100
H  22.47500 48.90500 26.73300
H  22.13900 50.09300 25.47800
H  21.53000 48.39800 25.34600
H  19.86100 50.55700 31.15000
H  17.64200 47.91300 33.78500
H  18.63600 46.62800 33.06900
H  17.21600 47.43800 32.27100

