158

Mg 42.71100 41.65100 26.68800
C  41.62100 43.67100 29.19300
C  43.98000 39.50800 28.97500
C  43.64700 39.73900 24.07100
C  41.95700 44.19800 24.20200
N  42.87500 41.66700 28.83600
C  42.06400 42.40200 29.64300
C  42.13900 41.95900 31.09000
C  43.07400 40.75800 30.98800
C  43.40900 40.68300 29.51200
C  44.29000 40.79900 31.96800
C  40.75400 41.70400 31.73200
C  40.45200 42.46800 33.05900
H  39.67400 41.80300 34.14700
N  43.66400 39.82900 26.48700
C  44.05800 39.06800 27.62400
C  44.49100 37.77200 27.10700
C  44.31500 37.77800 25.69800
C  43.88300 39.17800 25.36500
C  45.12100 36.76100 27.98800
C  44.52000 36.67900 24.69700
O  44.32800 36.83300 23.49300
C  44.95800 35.24200 25.18600
N  42.89000 41.96300 24.46100
C  43.32500 41.03700 23.68000
C  43.08400 41.29600 22.21800
C  42.60400 42.79500 22.22300
C  42.44500 43.01200 23.74400
C  44.34500 41.04700 21.41200
C  41.40700 42.92400 21.34700
C  40.11600 42.49700 22.06800
N  42.08200 43.52800 26.64900
C  41.73700 44.44800 25.60000
C  41.17500 45.64300 26.18900
C  41.10700 45.38500 27.59600
C  41.65500 44.11100 27.81800
C  40.54000 46.83800 25.47000
C  40.66000 45.93700 28.82200
O  40.13400 47.01200 29.07500
C  40.93300 44.79700 29.93600
C  41.79200 45.44100 30.95600
O  42.97500 45.54500 30.90000
O  41.05100 45.92400 31.97100
C  41.52600 46.60600 33.17300
H  44.35200 38.82500 29.74200
H  43.93300 39.12000 23.21900
H  41.65300 44.93700 23.45900
H  42.64200 42.80100 31.56500
H  42.52300 39.85100 31.23600
H  44.11100 41.47700 32.80300
H  45.10100 41.18000 31.34700
H  44.61600 39.79900 32.25300
H  40.67000 40.67900 32.09400
H  39.94100 41.77600 31.00900
H  39.87100 43.36500 32.84600
H  41.42600 42.83500 33.38200
H  44.42000 35.94400 28.15900
H  45.39400 37.21200 28.94200
H  45.96700 36.40900 27.39800
H  45.96500 35.07200 25.56800
H  44.78500 34.76100 24.22300
H  44.19400 34.91700 25.89300
H  42.34200 40.57600 21.87000
H  43.33800 43.53000 21.89400
H  45.22200 40.92300 22.04800
H  44.64900 41.93900 20.86400
H  44.19200 40.24300 20.69200
H  41.62500 42.33500 20.45600
H  41.37600 43.95600 20.99900
H  39.70700 41.76500 21.37200
H  39.46800 43.36700 22.17500
H  40.23900 41.95100 23.00300
H  39.84500 46.44100 24.73000
H  41.23900 47.54100 25.01800
H  39.99800 47.43300 26.20600
H  40.03500 44.55500 30.50400
H  42.08000 45.86900 33.75400
H  40.63200 47.01000 33.64700
H  42.31200 47.33900 32.98700
Mg 6.50200 54.96400 40.84100
C  5.29700 51.86100 40.31500
C  9.40700 54.14200 39.06500
C  7.44600 58.17400 40.98800
C  3.42400 55.77300 42.43100
N  7.08800 53.30500 39.49900
C  6.40200 52.11800 39.57900
C  7.21700 51.05100 38.70100
C  8.68300 51.66200 38.83100
C  8.41600 53.15900 39.04900
C  9.79300 50.97600 39.75400
C  6.59700 50.99100 37.19700
C  6.67600 49.54000 36.52900
H  5.53400 48.96000 35.73900
N  8.21500 56.05100 40.11900
C  9.27000 55.46900 39.43200
C  10.18600 56.53400 39.15800
C  9.67300 57.72400 39.80500
C  8.37200 57.40600 40.35200
C  11.48500 56.34500 38.45400
C  10.43700 59.00600 39.95300
O  11.45500 59.29800 39.31000
C  9.97500 60.02100 40.96300
N  5.43300 56.73100 41.45300
C  6.11900 57.92100 41.45100
C  5.13700 59.07700 41.96700
C  3.88800 58.26500 42.48400
C  4.21600 56.84500 42.18400
C  5.61100 60.14900 43.04900
C  2.56900 58.73400 41.83800
C  1.57100 59.42300 42.74800
N  4.63800 54.03200 41.29900
C  3.57300 54.40200 42.06400
C  2.60600 53.29300 42.17000
C  3.32200 52.22000 41.51900
C  4.50200 52.80100 41.01300
C  1.28900 53.24300 42.99000
C  3.19900 50.88200 41.23600
O  2.35000 50.09400 41.49900
C  4.53100 50.53900 40.46700
C  4.05600 49.88400 39.18000
O  3.16100 50.30400 38.40800
O  4.65400 48.66500 39.08200
C  4.01200 47.84500 38.17500
H  10.39300 53.75400 38.80000
H  7.62200 59.25100 40.96700
H  2.48200 56.03700 42.91700
H  7.31800 50.07700 39.18100
H  9.08100 51.64700 37.81600
H  9.87600 51.62700 40.62400
H  10.72700 50.88600 39.19900
H  9.37600 50.03900 40.12100
H  7.17600 51.64700 36.54800
H  5.53700 51.23900 37.24800
H  6.76400 48.83500 37.35500
H  7.50400 49.45600 35.82500
H  11.41200 55.42300 37.87600
H  12.12900 56.33000 39.33300
H  11.86900 57.24900 37.98100
H  10.79100 60.69600 41.22100
H  9.63000 59.43400 41.81300
H  9.14200 60.68900 40.74000
H  4.90000 59.75800 41.15000
H  3.77500 58.35800 43.56400
H  5.67600 61.16800 42.66700
H  6.65800 59.88100 43.19700
H  5.01700 60.14800 43.96300
H  2.02000 57.89400 41.41300
H  2.78400 59.41800 41.01600
H  0.65500 58.84100 42.84100
H  1.44100 60.41800 42.32200
H  1.95800 59.43800 43.76700
H  0.76500 54.19200 42.88300
H  1.46200 52.86000 43.99600
H  0.65000 52.51900 42.48400
H  5.17700 49.93000 41.09800
H  3.37800 47.20200 38.78500
H  4.71900 47.08100 37.85000
H  3.41000 48.24000 37.35700

