158

Mg 47.25200 25.07200 27.99700
C  48.06700 27.25500 30.59800
C  46.45800 22.70500 30.34900
C  46.77900 22.84300 25.56400
C  48.71000 27.32100 25.78400
N  47.61500 24.96900 30.30000
C  47.47500 26.04100 31.06300
C  47.17800 25.68800 32.52900
C  46.69800 24.20500 32.39200
C  46.99200 23.91600 30.93100
C  47.35300 23.20200 33.40500
C  46.19600 26.70700 33.27400
C  45.65200 26.28200 34.67400
H  45.94700 27.25900 35.83700
N  46.59700 23.06800 27.96400
C  46.25400 22.26500 29.03500
C  45.90300 20.92100 28.51800
C  46.22800 20.92000 27.12700
C  46.54900 22.33400 26.85500
C  45.32900 19.89100 29.51000
C  46.49500 19.69300 26.22000
O  47.02300 19.76900 25.08200
C  46.07700 18.30100 26.65600
N  47.60100 25.12700 26.04400
C  47.23000 24.12500 25.23900
C  47.29400 24.61300 23.71300
C  47.90700 26.03000 23.78500
C  48.16500 26.15000 25.27400
C  47.97000 23.63200 22.63900
C  47.01600 27.15300 23.22000
C  47.86500 28.23400 22.42500
N  48.19000 26.89400 28.10300
C  48.76100 27.70300 27.15300
C  49.12900 28.94800 27.75500
C  48.83600 28.76700 29.06900
C  48.28100 27.54300 29.26300
C  49.78800 30.05100 27.02200
C  48.93100 29.51300 30.31800
O  49.34900 30.61300 30.53800
C  48.31300 28.56200 31.32900
C  49.28800 28.36400 32.49900
O  50.18900 27.53900 32.48900
O  48.87300 29.10100 33.60400
C  49.58000 28.71200 34.86200
H  46.14200 22.02200 31.14000
H  46.59100 22.16600 24.72800
H  49.08800 27.98800 25.00600
H  48.10500 25.63700 33.10000
H  45.60900 24.15200 32.39800
H  48.14700 22.64000 32.91300
H  46.66000 22.43600 33.75400
H  47.91300 23.65700 34.22200
H  45.33700 27.07300 32.71100
H  46.81100 27.58100 33.49200
H  45.95400 25.25300 34.86700
H  44.57800 26.21400 34.50400
H  45.87700 19.90600 30.45200
H  45.01300 18.92200 29.12400
H  44.35700 20.32600 29.74200
H  45.94800 17.67100 25.77500
H  45.08700 18.65400 26.94100
H  46.67400 17.95600 27.50000
H  46.24600 24.68700 23.42400
H  48.90200 26.06700 23.34200
H  47.38000 23.46400 21.73800
H  48.29400 22.63000 22.92300
H  48.82800 24.19900 22.27800
H  46.51800 27.78400 23.95600
H  46.34800 26.64100 22.52700
H  47.88000 29.21100 22.90700
H  47.45200 28.36200 21.42400
H  48.92300 27.98600 22.33900
H  49.70300 29.97400 25.93800
H  50.85400 30.08100 27.24500
H  49.30500 30.99800 27.26200
H  47.34200 28.90000 31.69000
H  50.66800 28.75300 34.80300
H  49.35800 27.73600 35.29300
H  49.19800 29.45100 35.56700
Mg -1.69600 34.03800 26.45600
C  -3.55300 32.84200 29.26300
C  -0.65900 36.61500 28.57600
C  -0.15000 35.28700 23.91700
C  -3.38200 31.72100 24.60800
N  -1.92300 34.56600 28.62900
C  -2.66100 33.90500 29.58100
C  -2.65300 34.54000 31.02300
C  -1.70200 35.79000 30.71100
C  -1.40600 35.67500 29.19700
C  -2.25300 37.20600 31.11400
C  -2.12300 33.63000 32.11200
C  -2.93000 33.54500 33.40000
H  -2.57200 34.60800 34.43500
N  -0.52000 35.72100 26.24500
C  -0.29400 36.72400 27.18800
C  0.50500 37.74700 26.58400
C  0.83400 37.26000 25.29000
C  0.08900 36.00700 25.11600
C  0.97300 39.07000 27.34200
C  1.66000 37.88500 24.25200
O  1.84500 37.37700 23.12900
C  2.48000 39.15200 24.59200
N  -1.81900 33.55600 24.49000
C  -0.98600 34.17200 23.65100
C  -1.12800 33.50100 22.29500
C  -2.08300 32.27200 22.46500
C  -2.40000 32.46800 23.93000
C  -1.55400 34.53900 21.17700
C  -1.39900 30.86400 22.15200
C  -2.46900 29.89500 21.58800
N  -3.07600 32.51600 26.83700
C  -3.65300 31.60400 25.99700
C  -4.54400 30.80700 26.64600
C  -4.54300 31.24700 27.94000
C  -3.64000 32.31400 28.00700
C  -5.39800 29.66400 26.08200
C  -5.17200 31.01700 29.22800
O  -5.94800 30.19200 29.59700
C  -4.50700 32.07100 30.20200
C  -5.50000 32.93100 30.79300
O  -5.85300 34.04500 30.40300
O  -6.09000 32.26500 31.87600
C  -7.06000 33.05800 32.61000
H  -0.43200 37.49500 29.18200
H  0.45000 35.63300 23.07300
H  -4.00600 31.07200 23.99000
H  -3.68800 34.85200 31.16600
H  -0.77800 35.72100 31.28500
H  -3.08500 37.07400 31.80500
H  -2.58900 37.84800 30.30000
H  -1.53700 37.74400 31.73400
H  -1.12300 33.97600 32.37300
H  -2.03500 32.59800 31.77100
H  -2.76100 32.56800 33.85200
H  -4.00600 33.68900 33.30000
H  0.84500 39.89200 26.63800
H  1.97800 38.89800 27.72800
H  0.23600 39.08300 28.14500
H  1.78600 39.97900 24.74100
H  3.10300 39.53000 23.78100
H  3.03000 38.87100 25.49000
H  -0.10400 33.17600 22.10900
H  -2.99400 32.48800 21.90800
H  -2.21700 34.06900 20.45100
H  -0.59800 34.81700 20.73400
H  -2.06800 35.44300 21.50400
H  -0.88800 30.42500 23.00900
H  -0.71800 31.08800 21.33000
H  -2.32300 28.99700 22.18800
H  -2.27300 29.73800 20.52700
H  -3.47900 30.27300 21.75200
H  -5.26000 29.53500 25.00900
H  -6.36800 29.86700 26.53600
H  -5.01400 28.76600 26.56600
H  -3.94500 31.39200 30.84300
H  -7.12200 32.49700 33.54200
H  -7.84100 32.93300 31.86000
H  -6.63300 34.04900 32.76400

