158

Mg 53.55700 24.22700 43.85900
C  50.58500 26.22000 43.51500
C  51.68300 21.56400 42.72300
C  56.34400 22.53800 43.35700
C  55.25700 27.08400 44.46300
N  51.38100 23.91200 43.18200
C  50.35200 24.86800 43.06300
C  49.18700 24.29700 42.20500
C  49.48700 22.78700 42.44800
C  50.95000 22.70500 42.72500
C  48.66300 22.05500 43.56600
C  49.11600 24.74000 40.66800
C  50.52100 24.96600 39.87100
H  50.39500 25.69600 38.59400
N  53.89000 22.27600 43.33100
C  53.01700 21.31400 43.01700
C  53.59500 20.05700 42.91100
C  55.02000 20.30400 42.97100
C  55.15400 21.73600 43.26900
C  52.82000 18.77500 42.76300
C  56.05500 19.24600 42.81900
O  55.83700 18.04900 42.67100
C  57.48800 19.61300 42.69900
N  55.63800 24.77800 43.58500
C  56.57100 23.91600 43.62800
C  57.93300 24.61700 43.79600
C  57.51400 26.11400 44.11300
C  56.03700 26.01200 44.06300
C  58.91000 24.02400 44.84300
C  58.02300 27.16500 43.11600
C  58.72400 28.42200 43.70000
N  53.02300 26.13900 44.24700
C  53.85900 27.20600 44.59200
C  53.11600 28.38100 44.86200
C  51.83800 28.03200 44.38900
C  51.84600 26.65500 44.05900
C  53.67400 29.50900 45.49700
C  50.53500 28.53000 44.14100
O  50.08000 29.66000 44.25900
C  49.62200 27.34000 43.68400
C  48.74900 27.76400 42.63000
O  49.09600 28.40600 41.64300
O  47.41800 27.32700 42.85100
C  46.32900 27.67600 41.88400
H  51.05900 20.69800 42.49200
H  57.26000 21.94400 43.34400
H  55.82400 27.92900 44.85900
H  48.15500 24.46400 42.51500
H  49.29800 22.32800 41.47700
H  48.05400 22.70500 44.19500
H  49.29800 21.59000 44.32000
H  48.03400 21.30200 43.09000
H  48.50100 25.63800 40.61300
H  48.42500 24.05500 40.17600
H  50.78500 23.94200 39.60500
H  51.40400 25.19500 40.46700
H  52.70200 18.67100 41.68500
H  51.81400 18.71700 43.17800
H  53.26300 17.89300 43.22600
H  58.04000 19.84700 43.60900
H  57.51200 20.46900 42.02400
H  57.98400 18.83300 42.12200
H  58.28900 24.53800 42.76900
H  57.85900 26.42400 45.09900
H  59.90100 24.11300 44.39900
H  58.66200 23.02000 45.18800
H  58.85000 24.67700 45.71400
H  57.23400 27.46700 42.42700
H  58.82500 26.63000 42.60600
H  58.26700 29.34900 43.35400
H  59.74200 28.30200 43.33000
H  58.76600 28.41400 44.79000
H  54.43800 30.01400 44.90600
H  54.02800 29.08800 46.43900
H  52.85400 30.21900 45.60000
H  49.05000 27.39600 44.61000
H  46.62100 27.29600 40.90500
H  46.24900 28.74400 41.68000
H  45.40800 27.26600 42.29800
Mg 47.10900 33.79900 27.53400
C  45.33600 32.50200 30.09400
C  47.65600 36.69800 29.37300
C  48.24500 35.37600 24.74600
C  46.36100 31.03600 25.57000
N  46.53000 34.42300 29.52700
C  45.94600 33.73700 30.48900
C  46.11900 34.34400 31.90000
C  46.55900 35.83300 31.45200
C  47.00800 35.60600 30.03600
C  45.45000 36.95700 31.42000
C  47.27100 33.53600 32.71000
C  47.23800 33.70300 34.26400
H  46.31400 34.71400 34.93600
N  47.81400 35.74500 27.08900
C  48.10100 36.75800 28.02400
C  48.84000 37.81200 27.40700
C  48.88100 37.54200 25.99100
C  48.23100 36.17500 25.87500
C  49.27200 39.15500 28.12100
C  49.57700 38.30900 24.89200
O  49.61900 37.96900 23.73100
C  50.43900 39.50500 25.34400
N  47.22300 33.33100 25.45100
C  47.70400 34.11600 24.52700
C  47.96800 33.41200 23.18800
C  47.54000 31.91700 23.51400
C  46.93600 32.08900 24.94900
C  47.18200 34.01700 21.96500
C  48.68100 30.93400 23.61200
C  48.42400 29.50700 23.15100
N  46.11000 32.07100 27.78900
C  45.99400 30.98800 26.95300
C  45.28400 29.88500 27.67000
C  45.02700 30.47900 28.92700
C  45.51000 31.82000 28.90400
C  44.73100 28.52500 27.04100
C  44.35500 30.30400 30.17100
O  43.77800 29.26500 30.51500
C  44.36300 31.66200 30.84400
C  44.56500 31.51600 32.33900
O  45.39700 30.78800 32.85700
O  43.51700 32.03300 33.07200
C  43.38000 31.57200 34.46700
H  47.85600 37.55500 30.01800
H  48.82700 35.72300 23.88900
H  45.98300 30.22100 24.94900
H  45.18000 34.46000 32.44100
H  47.41800 36.14100 32.04900
H  45.17800 37.22600 30.39900
H  45.83900 37.84800 31.91300
H  44.53500 36.58800 31.88200
H  48.25000 33.77600 32.29700
H  47.13800 32.46700 32.53900
H  48.24700 33.88600 34.63300
H  47.09500 32.77100 34.81000
H  50.35400 39.21800 28.23600
H  48.81100 39.15400 29.10800
H  48.93000 40.01800 27.55000
H  51.21600 39.25000 26.06500
H  49.82000 40.33700 25.67700
H  50.81800 39.96400 24.43100
H  49.03700 33.44900 22.98000
H  46.80800 31.55800 22.79100
H  46.58800 34.86200 22.31400
H  46.64900 33.21600 21.45300
H  47.95200 34.49100 21.35600
H  48.91000 30.79400 24.66900
H  49.60400 31.26600 23.13700
H  47.36100 29.33100 22.98700
H  48.75000 28.85800 23.96400
H  49.02100 29.18900 22.29600
H  44.61700 28.67400 25.96700
H  43.84600 28.07400 27.49100
H  45.54600 27.80200 27.05500
H  43.45200 32.25500 30.75800
H  43.81700 30.60600 34.72000
H  42.31200 31.37300 34.55900
H  43.78000 32.35600 35.11000

