158

Mg 24.39900 -4.77600 45.39700
C  26.46400 -2.53500 43.82200
C  21.77200 -3.52700 43.48000
C  22.67900 -7.77800 45.92400
C  27.17000 -6.23000 47.00100
N  24.17400 -3.23700 43.82000
C  25.16600 -2.41000 43.44100
C  24.59900 -1.47200 42.41000
C  23.10300 -1.48200 42.72800
C  23.00900 -2.82700 43.41700
C  22.52200 -0.34800 43.59000
C  24.92300 -1.92100 40.96900
C  25.20700 -0.70300 40.03400
H  24.90500 -0.85600 38.53700
N  22.39200 -5.52300 44.85100
C  21.52100 -4.88600 44.00000
C  20.30400 -5.68400 44.03800
C  20.55700 -6.89500 44.65500
C  21.94400 -6.78800 45.21900
C  19.00900 -5.17900 43.37400
C  19.61900 -8.02000 44.90600
O  18.52000 -7.92600 44.32300
C  19.91000 -9.27900 45.86700
N  24.71800 -6.63500 46.55400
C  23.84400 -7.70900 46.58600
C  24.46100 -8.93100 47.31700
C  25.81700 -8.35800 47.75100
C  25.92900 -6.93200 47.08500
C  23.58500 -9.57600 48.41300
C  27.10300 -9.33100 47.70900
C  27.72900 -9.71200 49.12800
N  26.38800 -4.35200 45.55100
C  27.41300 -5.01000 46.26300
C  28.67100 -4.32700 46.01700
C  28.37100 -3.38100 45.05100
C  26.96300 -3.46200 44.84100
C  30.02300 -4.78300 46.53700
C  28.85400 -2.41600 44.12800
O  30.04700 -2.09400 43.92400
C  27.64300 -1.79400 43.28200
C  27.62900 -0.34000 43.59900
O  27.29300 0.08400 44.72500
O  28.03800 0.38300 42.48700
C  27.97400 1.81500 42.77800
H  20.92800 -3.07300 42.95500
H  22.34700 -8.80900 45.78700
H  27.92100 -6.74600 47.60300
H  25.06200 -0.49800 42.57200
H  22.49500 -1.65700 41.84000
H  21.84300 0.28100 43.01400
H  23.38600 0.27400 43.82200
H  22.12800 -0.70900 44.54000
H  24.06000 -2.48400 40.61200
H  25.77900 -2.59600 40.99900
H  26.26600 -0.44800 40.01700
H  24.64900 0.17500 40.36100
H  18.28000 -5.97200 43.20700
H  19.22500 -4.72400 42.40700
H  18.67600 -4.37100 44.02700
H  20.29700 -9.02900 46.85500
H  20.63800 -9.84800 45.29000
H  18.97300 -9.80700 46.04600
H  24.61700 -9.71200 46.57300
H  25.68300 -8.08600 48.79800
H  23.34800 -10.62800 48.24900
H  22.65400 -9.06600 48.65700
H  24.14400 -9.53700 49.34800
H  27.88100 -9.06600 46.99200
H  26.68900 -10.22100 47.23400
H  28.81200 -9.62200 49.04400
H  27.47700 -10.71900 49.46000
H  27.51400 -8.95900 49.88600
H  30.74500 -4.56200 45.75100
H  29.96800 -5.87000 46.46700
H  30.20800 -4.39000 47.53600
H  27.82100 -2.06600 42.24200
H  27.27500 2.21000 42.04000
H  28.95700 2.26900 42.65900
H  27.56600 2.20200 43.71200
Mg 17.38200 52.99800 27.40100
C  19.23600 51.52000 29.90300
C  14.95300 53.88200 29.60900
C  15.49500 54.06400 24.72600
C  19.87000 51.90200 25.08000
N  17.16900 52.73000 29.41200
C  18.08900 52.20000 30.29800
C  17.60700 52.35400 31.75600
C  16.11500 52.77400 31.59200
C  16.07100 53.21800 30.14900
C  15.13700 51.56400 31.75500
C  18.46800 53.49900 32.34600
C  18.83700 53.32700 33.85100
H  17.94400 52.53800 34.81800
N  15.48100 53.91400 27.15400
C  14.69000 54.22200 28.22500
C  13.52600 54.94800 27.74700
C  13.63800 55.07400 26.27400
C  14.94300 54.32500 25.96900
C  12.42300 55.25000 28.69100
C  12.87600 55.87200 25.27100
O  13.16400 56.08700 24.12000
C  11.63200 56.43600 25.84100
N  17.64100 52.92600 25.19300
C  16.66700 53.41900 24.35000
C  17.18200 53.22300 22.90800
C  18.62700 52.68500 23.04200
C  18.74400 52.52400 24.56000
C  16.23700 52.43400 22.02700
C  19.76800 53.59900 22.51200
C  19.73800 55.13700 23.04600
N  19.05500 51.76800 27.43100
C  20.01500 51.53200 26.46800
C  21.06800 50.69600 26.99000
C  20.83000 50.68400 28.39100
C  19.56800 51.28600 28.55100
C  22.29100 50.16200 26.20600
C  21.25300 50.13800 29.70200
O  22.15200 49.41700 30.04300
C  20.29200 50.77200 30.76000
C  19.79900 49.59900 31.57900
O  19.29100 48.58600 31.09500
O  19.94700 49.86600 32.91300
C  19.92500 48.70100 33.81500
H  14.24000 54.05600 30.41800
H  14.96800 54.37600 23.82200
H  20.64500 51.70800 24.33500
H  17.74100 51.39700 32.26100
H  15.81600 53.61600 32.21700
H  14.66300 51.34600 30.79800
H  14.35600 51.72200 32.49800
H  15.68700 50.66400 32.02800
H  18.02200 54.49400 32.34700
H  19.36300 53.41000 31.73000
H  18.89400 54.27500 34.38500
H  19.87900 53.00800 33.88600
H  12.50000 54.76100 29.66200
H  11.44800 55.01200 28.26600
H  12.39500 56.33100 28.82600
H  10.89300 55.66600 26.06400
H  11.09600 57.00300 25.08100
H  11.91100 57.12500 26.63800
H  17.15700 54.15900 22.35100
H  18.68400 51.66200 22.66900
H  16.69100 51.54600 21.58700
H  15.71600 53.12700 21.36600
H  15.38800 51.98400 22.54100
H  19.58300 53.64100 21.43800
H  20.76500 53.16400 22.58200
H  18.82500 55.36100 23.59800
H  19.93900 55.77300 22.18400
H  20.57300 55.23900 23.73900
H  22.59400 50.83500 25.40400
H  22.09900 49.12600 25.92600
H  23.10200 50.06000 26.92800
H  20.76400 51.44400 31.47700
H  20.10300 49.02300 34.84100
H  20.64500 47.90300 33.63400
H  18.93600 48.24400 33.77300

