158

Mg 35.96200 48.63400 24.62500
C  36.41500 46.83700 27.58500
C  34.77600 51.32600 26.44100
C  35.65200 50.32200 21.81500
C  37.31200 45.94500 22.92100
N  35.52600 48.93400 26.80900
C  35.85800 48.10100 27.84200
C  35.59600 48.77500 29.14700
C  34.90400 50.11700 28.74800
C  35.06900 50.17800 27.27200
C  33.36600 50.25900 29.02100
C  36.86000 48.98800 30.04000
C  36.76000 48.73800 31.53500
H  35.43700 48.82200 32.29600
N  35.24100 50.47000 24.19000
C  34.82700 51.42800 25.06500
C  34.54800 52.65700 24.33700
C  34.70300 52.28600 23.00100
C  35.18200 50.95200 22.94000
C  34.18900 53.92600 25.07300
C  34.39900 53.21200 21.78800
O  34.59300 52.89600 20.62200
C  34.02100 54.60500 21.98600
N  36.44600 48.23100 22.67000
C  36.09400 49.04800 21.67900
C  36.46800 48.49900 20.33600
C  37.00500 47.07100 20.66600
C  36.90800 47.06400 22.17600
C  35.40200 48.53900 19.25700
C  38.45800 46.59300 20.13200
C  39.67300 47.05300 20.93300
N  36.72700 46.77700 25.05700
C  37.10800 45.72400 24.29100
C  37.59200 44.64000 25.07600
C  37.31600 45.03600 26.38200
C  36.71800 46.36600 26.30200
C  38.24600 43.41700 24.50200
C  37.44300 44.56500 27.73700
O  37.86700 43.52300 28.16200
C  36.72800 45.66600 28.60500
C  35.46100 45.27600 29.15900
O  34.43800 44.86000 28.57400
O  35.62100 45.35200 30.56400
C  34.54300 44.68000 31.33000
H  34.46000 52.16900 27.05900
H  35.73500 50.95400 20.92800
H  37.72600 45.10500 22.36000
H  35.04600 48.00300 29.68600
H  35.44500 50.97600 29.14700
H  32.86900 49.43600 29.53400
H  32.74300 50.42300 28.14200
H  33.25000 51.03200 29.78100
H  37.27400 49.98500 29.88600
H  37.59400 48.26500 29.68400
H  37.47900 49.41500 31.99700
H  37.03200 47.70300 31.74300
H  33.37400 54.48000 24.60600
H  35.13300 54.45100 25.21900
H  33.75400 53.78200 26.06200
H  34.56700 55.14400 22.76000
H  33.01500 54.57900 22.40400
H  34.00200 55.17100 21.05500
H  37.32900 49.10300 20.04800
H  36.22000 46.42200 20.27800
H  34.43600 48.53800 19.76000
H  35.31900 47.66000 18.61800
H  35.58900 49.44200 18.67500
H  38.54800 46.94900 19.10600
H  38.62500 45.52100 20.02700
H  39.40200 48.00200 21.39600
H  40.59200 47.35100 20.42900
H  39.99900 46.36600 21.71400
H  38.28200 42.52100 25.12200
H  39.10500 43.78500 23.94200
H  37.55300 42.97200 23.78800
H  37.34100 46.03200 29.42900
H  34.86500 44.79600 32.36400
H  34.50400 43.62800 31.04700
H  33.58900 45.18400 31.17700
Mg 10.07900 47.90600 26.74500
C  8.35300 47.78400 29.90300
C  12.76600 48.85100 28.41200
C  11.63200 47.62700 23.73700
C  7.01500 46.92500 25.31100
N  10.45100 48.34300 28.91500
C  9.69400 48.18500 30.00800
C  10.38900 48.49200 31.32500
C  11.63500 49.31700 30.72900
C  11.66100 48.87400 29.28400
C  11.68000 50.81600 30.77500
C  10.84700 47.17700 32.17500
C  10.50000 47.24200 33.71200
H  10.41400 45.95600 34.56600
N  11.88900 48.33000 26.13000
C  12.92700 48.64500 26.98600
C  14.17900 48.64100 26.22100
C  13.74800 48.39300 24.84600
C  12.32200 48.12200 24.82000
C  15.52700 48.95600 26.86800
C  14.62700 48.31300 23.65200
O  14.21600 48.16400 22.46700
C  16.14500 48.33900 23.66500
N  9.40100 47.39800 24.87700
C  10.21000 47.25200 23.75400
C  9.44300 47.05700 22.52000
C  8.01500 46.58500 23.08900
C  8.15700 46.96100 24.51100
C  9.37800 48.36300 21.63300
C  7.88900 45.00900 22.96900
C  9.06100 44.10300 23.43700
N  8.03800 47.68700 27.34300
C  6.91700 47.25600 26.65200
C  5.71200 47.31800 27.48900
C  6.33200 47.41700 28.78700
C  7.69400 47.62300 28.65400
C  4.24900 46.83400 27.13900
C  5.95600 47.23400 30.11900
O  4.96100 46.79600 30.57900
C  7.31800 47.57300 30.98300
C  7.47300 46.33100 31.83300
O  7.98800 45.29600 31.42200
O  6.80800 46.50200 32.94900
C  6.60000 45.28300 33.78600
H  13.61500 49.23700 28.98100
H  12.09100 47.49800 22.75500
H  6.07300 46.73700 24.79200
H  9.82900 49.16100 31.97900
H  12.56600 48.87900 31.09000
H  12.57400 51.16800 31.29000
H  10.88300 51.41500 31.21600
H  11.73000 51.21900 29.76300
H  11.89700 46.89300 32.10200
H  10.39200 46.24800 31.83200
H  9.53900 47.73600 33.85000
H  11.26100 47.84600 34.20500
H  15.51200 48.87300 27.95500
H  15.81600 49.97900 26.63000
H  16.30400 48.36700 26.38000
H  16.61000 49.24700 24.04900
H  16.43400 48.10400 22.64100
H  16.39600 47.50200 24.31600
H  9.89100 46.26400 21.92100
H  7.20900 47.09300 22.56000
H  10.08400 49.11700 21.98200
H  8.39000 48.82200 21.66600
H  9.62700 48.08200 20.61000
H  7.75200 44.58300 21.97500
H  7.01200 44.72300 23.55000
H  9.44600 43.54400 22.58500
H  8.54900 43.40100 24.09600
H  9.85600 44.53400 24.04500
H  4.05200 46.89900 26.06900
H  3.54400 47.39900 27.74800
H  4.08300 45.79600 27.42600
H  7.08000 48.40900 31.64100
H  6.75700 45.57200 34.82500
H  7.08000 44.35600 33.47100
H  5.52400 45.11400 33.74200

