158

Mg 53.36700 23.48300 44.78500
C  50.61100 25.40400 43.84900
C  51.71600 20.59300 43.86300
C  56.33000 22.00900 44.93400
C  54.88500 26.52000 45.79000
N  51.40500 23.06500 43.86800
C  50.42200 23.99500 43.59900
C  49.21300 23.32200 42.98700
C  49.43000 21.82100 43.47500
C  50.92200 21.78600 43.77600
C  48.37500 21.47700 44.53500
C  49.27200 23.49400 41.47400
C  47.88000 23.43500 40.73900
H  47.70700 23.44300 39.23200
N  53.98100 21.56300 44.36100
C  53.16500 20.52400 44.03800
C  53.97500 19.35500 44.10500
C  55.36100 19.71000 44.32500
C  55.32000 21.18600 44.51700
C  53.51100 17.90000 43.76300
C  56.53500 18.75500 44.38600
O  56.50000 17.63300 43.89400
C  57.86100 19.19900 45.06700
N  55.34300 24.13000 45.39900
C  56.43500 23.38000 45.32600
C  57.72700 24.06100 45.73100
C  57.15100 25.41700 46.26700
C  55.73100 25.35100 45.78500
C  58.56000 23.34600 46.81100
C  58.04200 26.56100 45.70500
C  59.52300 26.79500 46.21300
N  52.92500 25.55400 44.76600
C  53.60500 26.61700 45.25000
C  52.83100 27.83200 45.28500
C  51.64300 27.44900 44.68900
C  51.78100 26.08100 44.31100
C  53.31100 29.19000 45.74100
C  50.30700 27.84900 44.34400
O  49.63000 28.85600 44.55800
C  49.66800 26.60100 43.70300
C  49.41000 27.08300 42.32900
O  50.26300 27.62100 41.61100
O  48.13000 26.80400 41.97300
C  47.71700 27.28900 40.68200
H  51.14400 19.67600 43.70800
H  57.32200 21.57200 44.80400
H  55.28100 27.46500 46.16800
H  48.30700 23.80000 43.35900
H  49.19700 21.14600 42.65100
H  47.75000 20.69000 44.11500
H  47.70500 22.26000 44.89100
H  48.84300 21.13200 45.45700
H  49.79400 22.61000 41.10600
H  49.77500 24.42400 41.21000
H  47.34900 24.30000 41.13800
H  47.47600 22.52200 41.17700
H  53.62700 17.68500 42.70100
H  52.44800 17.73100 43.93200
H  54.06400 17.12600 44.29600
H  58.42800 19.79100 44.35000
H  58.42400 18.27700 45.21600
H  57.62100 19.65200 46.02900
H  58.34400 24.12600 44.83500
H  57.17000 25.52700 47.35200
H  58.67500 23.98200 47.68900
H  59.59100 23.14600 46.51800
H  57.94100 22.51700 47.15100
H  57.70000 27.58400 45.86800
H  58.21900 26.40400 44.64100
H  59.60700 26.29800 47.18000
H  59.85100 27.82800 46.33200
H  60.24400 26.31400 45.55300
H  52.51900 29.91400 45.55000
H  54.07600 29.49700 45.02700
H  53.63300 29.05700 46.77400
H  48.73000 26.37700 44.21000
H  47.84500 26.52000 39.92100
H  48.21600 28.21300 40.39000
H  46.64100 27.46200 40.70500
Mg 46.37300 44.33900 42.67200
C  43.08200 43.15700 42.35400
C  47.32700 40.96600 42.15700
C  49.46500 45.42100 42.12400
C  45.18400 47.64100 42.63900
N  45.35300 42.29600 42.23400
C  43.98000 42.07600 42.23000
C  43.62800 40.61300 41.86100
C  44.96300 39.88500 42.23600
C  45.96900 41.11800 42.17900
C  44.91900 39.13300 43.62200
C  42.95700 40.42200 40.40000
C  43.53900 41.31500 39.29600
H  44.32800 40.66300 38.08800
N  48.13800 43.29100 42.27800
C  48.34200 41.94700 42.09600
C  49.77700 41.67700 41.79400
C  50.35000 42.95100 41.62100
C  49.31800 43.95400 42.02200
C  50.38900 40.31200 41.67500
C  51.74900 43.24900 41.04400
O  52.35400 42.29500 40.52200
C  52.36800 44.58100 40.84200
N  47.15800 46.22200 42.44500
C  48.49700 46.37900 42.37500
C  48.95100 47.87800 42.55400
C  47.56900 48.62600 42.41900
C  46.59400 47.42700 42.46800
C  49.57600 48.15900 43.95200
C  47.36600 49.45700 41.10900
C  47.47200 50.97500 41.17700
N  44.50500 45.33300 42.50500
C  44.14700 46.66600 42.67200
C  42.61800 46.69900 42.85800
C  42.20900 45.32100 42.73000
C  43.41600 44.58400 42.45500
C  41.80500 47.91000 43.10300
C  41.01700 44.54600 42.77100
O  39.82500 44.80500 42.90700
C  41.51900 43.08000 42.38900
C  41.04200 42.25900 43.57300
O  40.02500 41.56500 43.68200
O  41.80500 42.58200 44.64700
C  41.51200 41.99600 45.99500
H  47.57100 39.91400 41.99600
H  50.45000 45.89000 42.08500
H  44.94800 48.66300 42.94400
H  42.93400 40.38100 42.66800
H  45.19000 39.21500 41.40700
H  43.92900 38.76600 43.89500
H  45.15900 39.81900 44.43400
H  45.59500 38.28500 43.73000
H  41.90900 40.69800 40.51600
H  42.94000 39.40400 40.00900
H  44.41500 41.84600 39.66900
H  42.79500 42.06100 39.01400
H  50.45100 39.98100 40.63900
H  49.80600 39.56700 42.21600
H  51.37900 40.23700 42.12600
H  51.79300 45.21100 40.16300
H  53.38300 44.45400 40.46400
H  52.51800 45.04100 41.81800
H  49.72600 48.12200 41.82600
H  47.50000 49.25400 43.30700
H  48.83400 47.95200 44.72300
H  49.88600 49.20200 44.01300
H  50.48400 47.56000 44.02100
H  46.39300 49.27100 40.65400
H  48.14900 49.26400 40.37600
H  47.70400 51.42400 40.21100
H  48.24200 51.23800 41.90300
H  46.60500 51.48700 41.59600
H  41.34400 48.32800 42.20900
H  42.34600 48.72000 43.59200
H  40.93200 47.55900 43.65400
H  41.14000 42.70600 41.43700
H  41.78600 42.81100 46.66600
H  42.04500 41.11000 46.33900
H  40.49000 41.79300 46.31700

