158

Mg 35.99600 48.81000 24.27200
C  36.34400 47.09500 27.30700
C  34.75100 51.53500 25.93900
C  35.69500 50.40000 21.26600
C  37.27900 45.95400 22.58200
N  35.43900 49.18200 26.33700
C  35.69300 48.37400 27.46400
C  35.48900 49.17300 28.79000
C  34.69800 50.48100 28.29000
C  34.98100 50.40500 26.77300
C  33.25100 50.64400 28.71400
C  36.77700 49.43700 29.59000
C  36.74800 49.09100 31.13500
H  35.38400 49.00100 31.91600
N  35.43200 50.74000 23.66500
C  34.93300 51.71000 24.50300
C  34.51900 52.81400 23.70800
C  34.89100 52.55100 22.37700
C  35.36800 51.18100 22.35700
C  33.87700 54.02600 24.31600
C  34.72600 53.48300 21.17300
O  35.20700 53.13900 20.09800
C  34.01400 54.82400 21.25600
N  36.15500 48.12100 22.13100
C  36.07300 49.04400 21.21800
C  36.25400 48.30400 19.85800
C  37.07200 47.02500 20.22000
C  36.80300 47.00100 21.69800
C  34.89400 48.03200 19.20200
C  38.50100 47.08000 19.67500
C  39.74100 47.24600 20.69500
N  36.54700 46.87200 24.80300
C  37.10700 45.85600 24.00200
C  37.70100 44.87100 24.85400
C  37.41700 45.33000 26.18300
C  36.60400 46.49300 26.06200
C  38.44600 43.69400 24.34500
C  37.53300 45.02600 27.63900
O  38.09300 44.09100 28.24800
C  36.87000 46.18100 28.37300
C  35.82900 45.72100 29.38000
O  34.67600 45.50600 29.13900
O  36.45200 45.55100 30.55700
C  35.59400 44.82100 31.57000
H  34.41000 52.40200 26.50900
H  35.51100 50.81100 20.27100
H  37.70800 45.07000 22.10600
H  34.81200 48.60700 29.43000
H  35.13100 51.38000 28.72900
H  32.92800 49.92600 29.46800
H  32.58800 50.51000 27.85900
H  33.03600 51.63600 29.11100
H  37.13400 50.45600 29.44000
H  37.55500 48.72800 29.30600
H  37.32100 49.88200 31.62000
H  37.31800 48.20100 31.40100
H  34.46800 54.91300 24.54100
H  33.49500 53.82300 25.31700
H  33.02900 54.29000 23.68500
H  32.93800 54.68300 21.35500
H  34.16900 55.35800 20.31900
H  34.34100 55.52200 22.02700
H  36.77600 48.99200 19.19300
H  36.52500 46.18100 19.80000
H  34.01800 48.19300 19.83000
H  34.73700 47.04800 18.76000
H  34.81400 48.68500 18.33300
H  38.67300 47.83200 18.90600
H  38.69300 46.16800 19.10900
H  40.36900 46.35600 20.72600
H  39.37000 47.61500 21.65200
H  40.25900 48.14700 20.36700
H  38.94600 43.93500 23.40600
H  37.97700 42.71100 24.29800
H  39.17800 43.43300 25.10800
H  37.70700 46.61300 28.92200
H  35.33000 43.79000 31.33500
H  34.67800 45.36000 31.81300
H  36.15700 44.81200 32.50400
Mg -11.70100 37.53900 42.44300
C  -9.33500 34.99000 41.66300
C  -9.56400 39.77100 40.85500
C  -14.05800 39.89700 42.43900
C  -13.74500 35.08300 43.66000
N  -9.69300 37.37700 41.35200
C  -8.97700 36.20600 41.06300
C  -7.73900 36.57200 40.24800
C  -7.71800 38.13100 40.18500
C  -9.14100 38.43400 40.81000
C  -6.39800 38.76000 40.85600
C  -7.86300 35.84600 38.89000
C  -6.67100 34.95600 38.39100
H  -5.66700 35.38700 37.26400
N  -11.71100 39.60900 41.92800
C  -10.72700 40.34200 41.36400
C  -11.12600 41.73000 41.32900
C  -12.49200 41.83600 41.70300
C  -12.79900 40.45500 42.03500
C  -10.29500 42.86000 40.84500
C  -13.35500 43.04400 41.87300
O  -12.79300 44.12300 41.67000
C  -14.78200 43.04200 42.34300
N  -13.67800 37.42800 42.83200
C  -14.47900 38.60500 42.78700
C  -15.88900 38.21200 43.25900
C  -15.79700 36.67700 43.67900
C  -14.35200 36.36700 43.36500
C  -16.44000 39.22600 44.28600
C  -16.89700 35.78700 42.94000
C  -18.04300 35.41800 43.82800
N  -11.62900 35.49900 42.65700
C  -12.49500 34.64200 43.27200
C  -11.91100 33.34200 43.46000
C  -10.70600 33.40300 42.80900
C  -10.56300 34.76600 42.33000
C  -12.53800 32.19500 44.15000
C  -9.50300 32.70700 42.46600
O  -9.06700 31.60400 42.72000
C  -8.55500 33.66700 41.65100
C  -7.24600 33.76900 42.26600
O  -6.23400 33.15600 41.96300
O  -7.11500 34.84700 43.14800
C  -5.77700 35.03100 43.75900
H  -8.89300 40.40400 40.27000
H  -14.84200 40.64500 42.57500
H  -14.37100 34.40000 44.23700
H  -6.84300 36.15300 40.70700
H  -7.68400 38.51800 39.16700
H  -5.84500 39.40000 40.16900
H  -5.72500 37.98400 41.21900
H  -6.79500 39.41600 41.63100
H  -7.95600 36.58700 38.09600
H  -8.81400 35.31600 38.96000
H  -7.18200 34.06500 38.02800
H  -6.16400 34.46500 39.22200
H  -9.52100 42.41000 40.22400
H  -9.83600 43.38200 41.68400
H  -10.84600 43.52900 40.18400
H  -15.34700 42.30100 41.77600
H  -14.97900 44.10600 42.21300
H  -14.67700 42.91300 43.42100
H  -16.50600 38.36900 42.37500
H  -15.88400 36.68000 44.76500
H  -16.51800 38.72600 45.25200
H  -17.41400 39.58600 43.95500
H  -15.89800 40.16600 44.38500
H  -16.32100 34.96500 42.51500
H  -17.36100 36.40400 42.17100
H  -19.01600 35.70400 43.42900
H  -18.09200 35.80500 44.84600
H  -18.02500 34.34600 44.02900
H  -13.44000 32.45700 44.70300
H  -11.76900 31.89300 44.86200
H  -12.71300 31.52100 43.31100
H  -8.42400 33.25200 40.65200
H  -5.04200 35.05500 42.95400
H  -5.45800 34.30500 44.50700
H  -5.84100 36.01600 44.22200

