158

Mg 47.92300 15.13800 27.95600
C  45.50800 14.95300 30.57300
C  49.66800 17.34000 29.81200
C  50.03600 15.46100 25.28600
C  45.49200 13.59700 25.84800
N  47.55200 16.13000 29.86300
C  46.58700 15.79100 30.82900
C  46.87000 16.36500 32.20900
C  47.95000 17.47200 31.79700
C  48.53600 16.84500 30.48300
C  47.39400 19.00800 31.63000
C  47.33700 15.20900 33.08700
C  47.03300 15.45400 34.61700
H  48.20800 15.24600 35.64100
N  49.67500 16.22900 27.60800
C  50.23500 17.05600 28.57900
C  51.49800 17.49300 28.12400
C  51.55800 17.08400 26.77300
C  50.39100 16.17100 26.49400
C  52.34700 18.42500 28.86000
C  52.68600 17.36100 25.80300
O  52.53600 16.95400 24.65500
C  53.92800 18.24900 26.06500
N  47.78200 14.65000 25.85900
C  48.84200 14.76700 25.01100
C  48.43100 14.29100 23.54500
C  47.04900 13.60100 23.78800
C  46.71300 14.06700 25.23200
C  48.25400 15.37800 22.52100
C  47.03500 12.06300 23.77900
C  45.86300 11.34000 23.11300
N  45.98600 14.28400 28.08400
C  45.12300 13.69900 27.19900
C  43.98500 13.12300 27.95400
C  44.17600 13.53100 29.22200
C  45.30200 14.33200 29.29200
C  42.83600 12.29500 27.47500
C  43.63000 13.50100 30.55500
O  42.72500 12.89200 30.93400
C  44.46300 14.40600 31.52400
C  43.58000 15.49000 32.00600
O  42.93700 16.30400 31.32900
O  43.41300 15.37600 33.35600
C  42.59700 16.42200 33.94300
H  50.08000 18.11800 30.45800
H  50.67500 15.52700 24.40300
H  44.66100 13.20500 25.25800
H  46.02000 16.86000 32.67900
H  48.80300 17.51800 32.47500
H  47.27900 19.17600 30.56000
H  48.18700 19.68600 31.94400
H  46.37100 19.16800 31.97300
H  48.42300 15.14500 33.02000
H  47.13600 14.26200 32.58700
H  46.25600 14.71400 34.81200
H  46.72600 16.49700 34.69600
H  52.27700 18.47200 29.94700
H  52.20900 19.45400 28.52900
H  53.38000 18.15200 28.64000
H  53.71600 19.24700 26.45000
H  54.47300 18.32700 25.12400
H  54.42600 17.67800 26.84900
H  49.19600 13.60300 23.18500
H  46.24200 13.96200 23.15000
H  48.59300 16.29900 22.99400
H  47.27900 15.49300 22.04700
H  48.91200 15.20200 21.67000
H  47.25600 11.69500 24.78100
H  47.89000 11.69700 23.21100
H  45.17100 11.97400 22.55800
H  45.21700 10.97100 23.91000
H  46.11900 10.53400 22.42500
H  43.15200 11.90500 26.50700
H  42.05400 13.05400 27.48800
H  42.62900 11.62300 28.30700
H  44.95600 13.89800 32.35300
H  43.15800 17.35500 33.87800
H  42.44900 16.32700 35.01900
H  41.64600 16.45100 33.41200
Mg 25.53600 51.02300 26.39100
C  23.28200 52.09700 28.91600
C  27.57200 49.68200 28.81600
C  27.93200 50.76200 24.04700
C  23.61500 52.76500 24.15800
N  25.45600 51.13000 28.65400
C  24.40400 51.41800 29.48700
C  24.72300 51.03400 30.95000
C  26.12900 50.36900 30.82700
C  26.36300 50.36500 29.30300
C  27.21800 50.94300 31.80200
C  23.63900 50.13100 31.57600
C  23.76500 49.69400 33.08500
H  24.36800 50.66300 34.14400
N  27.36900 50.07500 26.38600
C  28.04500 49.58800 27.43900
C  29.31500 48.90500 26.93300
C  29.44800 49.34900 25.58900
C  28.25700 50.15800 25.30000
C  30.17500 48.06900 27.85800
C  30.60700 49.01300 24.59700
O  30.57600 49.35100 23.40500
C  31.72000 48.13800 24.99200
N  25.91500 51.96900 24.43500
C  26.85600 51.59600 23.56800
C  26.63000 52.17400 22.15600
C  25.12900 52.45400 22.22500
C  24.85300 52.37500 23.73000
C  27.52000 53.42000 21.93300
C  24.14200 51.50700 21.45700
C  24.10500 51.76100 19.86100
N  23.88700 52.23400 26.41100
C  23.10200 52.73300 25.42800
C  21.81800 53.10800 25.80500
C  21.89200 53.01000 27.19000
C  23.11000 52.36500 27.53500
C  20.70100 53.68000 24.98900
C  21.17300 53.26100 28.45000
O  20.03800 53.64000 28.62900
C  22.12900 52.74700 29.58400
C  22.59000 53.82500 30.46000
O  23.18200 54.87300 30.21900
O  22.21300 53.48700 31.74400
C  22.43400 54.41200 32.89000
H  28.17800 49.14500 29.54900
H  28.65200 50.40800 23.30700
H  22.95900 53.21800 23.41100
H  24.68100 51.98400 31.48200
H  25.96300 49.38200 31.25900
H  27.86200 51.60600 31.22400
H  27.89200 50.11000 32.00300
H  26.79500 51.57800 32.58100
H  23.89200 49.21100 31.04900
H  22.58000 50.28500 31.36500
H  24.33300 48.76300 33.08900
H  22.71800 49.58100 33.36700
H  29.90800 48.10900 28.91400
H  31.18700 48.47400 27.81900
H  30.21100 47.07100 27.42100
H  31.13100 47.22300 25.05700
H  32.16000 48.32700 25.97100
H  32.47900 48.09600 24.21100
H  26.87200 51.39400 21.43500
H  24.97200 53.45300 21.81900
H  27.78200 53.67000 22.96100
H  26.92900 54.27700 21.60900
H  28.43500 53.19300 21.38500
H  23.10400 51.45300 21.78400
H  24.64700 50.54900 21.58200
H  23.53700 50.98900 19.34200
H  25.08900 51.83300 19.39700
H  23.61400 52.72800 19.75300
H  20.84700 53.69700 23.90900
H  20.71800 54.70500 25.35800
H  19.73200 53.24500 25.23100
H  21.62900 51.96800 30.16000
H  23.37600 54.07800 33.32600
H  21.59200 54.31000 33.57400
H  22.40300 55.45200 32.56600

