158

Mg 46.39300 24.62200 28.53200
C  46.90800 26.60900 31.11400
C  45.70100 21.93200 30.70400
C  46.29200 22.51200 25.77100
C  47.74100 27.07400 26.44900
N  46.25500 24.28100 30.63200
C  46.51500 25.29300 31.53500
C  46.16800 24.81200 33.00600
C  45.90500 23.31000 32.85700
C  45.98000 23.14900 31.33100
C  46.87700 22.34700 33.58900
C  45.00900 25.59200 33.67600
C  44.62300 25.09800 35.11400
H  44.72800 26.24000 36.15000
N  46.04300 22.56800 28.29400
C  45.76100 21.66000 29.32100
C  45.52900 20.42200 28.73500
C  45.80900 20.51700 27.35800
C  46.02800 21.91600 27.04500
C  45.02800 19.16900 29.47300
C  45.92100 19.45700 26.28900
O  46.16300 19.69800 25.09100
C  45.72100 17.96600 26.64800
N  47.05500 24.70900 26.37100
C  46.78800 23.76900 25.48900
C  46.88700 24.29400 23.98400
C  47.19800 25.80000 24.25400
C  47.42400 25.85200 25.74000
C  47.82500 23.53600 23.03300
C  45.88800 26.74200 23.89100
C  44.47800 26.37700 24.38600
N  47.17200 26.48000 28.65600
C  47.75300 27.38700 27.81200
C  48.04100 28.61800 28.44900
C  47.74600 28.41900 29.77000
C  47.21800 27.09400 29.82000
C  48.76300 29.78200 27.85600
C  47.74400 28.96000 31.07300
O  48.12100 30.03800 31.47400
C  47.16700 27.85000 32.04900
C  48.13700 27.69100 33.13900
O  49.26800 27.19700 33.03600
O  47.73800 28.40200 34.23400
C  48.72200 28.51200 35.32500
H  45.57900 21.14900 31.45700
H  46.17900 21.95300 24.83900
H  47.99000 27.83500 25.70700
H  47.08500 24.98900 33.56800
H  44.92000 23.03800 33.23900
H  46.79800 21.44600 32.98100
H  46.60900 22.07300 34.61000
H  47.87900 22.76800 33.50300
H  44.21900 25.34300 32.96700
H  45.13500 26.67000 33.57300
H  45.34700 24.34600 35.42800
H  43.58200 24.78000 35.16600
H  44.82400 19.41900 30.51400
H  45.74300 18.34700 29.48600
H  44.11300 18.81800 28.99600
H  46.05000 17.24600 25.89900
H  44.69400 17.74700 26.93800
H  46.34800 17.73700 27.50900
H  45.88200 24.28900 23.56000
H  48.12600 26.13100 23.78900
H  47.18500 23.44500 22.15600
H  47.97900 22.56800 23.50800
H  48.71700 24.09300 22.74400
H  45.79300 26.75600 22.80600
H  46.06900 27.78600 24.14800
H  44.56200 25.62700 25.17300
H  43.92100 25.93400 23.56000
H  44.01900 27.25600 24.83700
H  49.15400 30.36000 28.69400
H  48.10100 30.43600 27.28900
H  49.48600 29.45200 27.11100
H  46.31800 28.41200 32.43700
H  49.63900 27.98600 35.06200
H  48.36300 27.96500 36.19700
H  48.94000 29.55500 35.55400
Mg 46.97400 34.17000 27.40700
C  45.29700 32.88100 30.11400
C  47.70500 36.80200 29.21200
C  48.26000 35.60600 24.61800
C  45.98300 31.39700 25.52800
N  46.76600 34.51900 29.64700
C  46.00400 33.97500 30.53100
C  45.96200 34.72500 31.81900
C  46.57700 36.08200 31.44600
C  47.13600 35.83400 30.02900
C  45.70200 37.27700 31.70600
C  46.69100 33.91900 32.98300
C  46.18800 34.01700 34.38100
H  45.78500 35.38800 34.92700
N  47.76400 36.04800 26.92000
C  47.98100 37.00400 27.85700
C  48.73900 38.06600 27.29000
C  48.91600 37.83300 25.90200
C  48.30600 36.45200 25.74500
C  49.19000 39.25300 28.05000
C  49.55400 38.65600 24.72700
O  49.84800 38.07700 23.67900
C  49.86400 40.19500 24.92100
N  47.16500 33.53500 25.45700
C  47.78400 34.30300 24.49400
C  47.78900 33.57900 23.14900
C  47.32900 32.16700 23.55200
C  46.73000 32.38300 24.93000
C  46.78900 34.07300 21.92700
C  48.48600 31.03600 23.50100
C  49.07800 30.80900 22.12200
N  46.00400 32.43800 27.71000
C  45.62300 31.42300 26.88000
C  44.78100 30.46900 27.61400
C  44.62500 31.02200 28.79500
C  45.34100 32.21300 28.85200
C  44.22600 29.26400 27.08500
C  43.98200 30.82600 30.15100
O  43.35000 29.89600 30.56000
C  44.17000 32.13000 30.91500
C  44.42600 31.79300 32.40900
O  45.30900 31.07000 32.78700
O  43.34800 32.27700 33.12300
C  43.04600 31.71000 34.48600
H  47.91000 37.75600 29.70300
H  48.72600 36.01800 23.72100
H  45.61200 30.51700 24.99900
H  44.91800 34.90200 32.07900
H  47.38500 36.33200 32.13400
H  44.82300 37.05300 32.31100
H  45.39900 37.75200 30.77300
H  46.18700 37.95800 32.40500
H  47.66700 34.40000 33.05700
H  46.87000 32.88700 32.68000
H  46.95400 33.61700 35.04500
H  45.34300 33.33800 34.48900
H  50.27700 39.28100 28.12100
H  48.71700 39.35600 29.02600
H  48.93000 40.07300 27.38000
H  48.92500 40.74900 24.92200
H  50.48300 40.51700 24.08400
H  50.46800 40.40300 25.80400
H  48.82500 33.53800 22.81300
H  46.51100 31.75200 22.96300
H  45.88300 33.49300 21.75200
H  47.21200 34.03100 20.92400
H  46.64000 35.14600 21.81000
H  48.05100 30.18000 24.01600
H  49.24500 31.26800 24.24900
H  50.15500 30.68500 22.24100
H  49.07800 31.60700 21.38000
H  48.61700 29.90500 21.72200
H  44.37200 28.45800 27.80400
H  44.74700 28.86100 26.21700
H  43.21500 29.52700 26.77700
H  43.24200 32.68900 30.78900
H  43.91500 31.36400 35.04500
H  42.45500 30.81700 34.28100
H  42.45400 32.35100 35.13800

