158

Mg -2.01700 17.26400 27.44500
C  -2.62300 14.90700 30.10500
C  -2.35100 19.75900 29.86100
C  -1.67300 19.44400 24.99300
C  -1.92400 14.60300 25.23900
N  -2.33200 17.26100 29.80600
C  -2.49100 16.21700 30.62800
C  -2.62700 16.73800 32.01300
C  -2.94600 18.31100 31.84400
C  -2.56100 18.48900 30.39100
C  -4.35500 18.82400 32.28700
C  -1.46500 16.28900 32.97300
C  -1.01200 17.17800 34.11700
H  -0.49600 16.57300 35.40400
N  -1.91500 19.31700 27.43500
C  -2.08000 20.12300 28.54400
C  -2.01300 21.48800 28.05800
C  -1.75700 21.48700 26.64700
C  -1.76300 20.07300 26.30600
C  -2.27400 22.66500 28.97200
C  -1.64700 22.58200 25.68200
O  -1.38500 22.43100 24.52900
C  -1.95900 23.95300 26.18000
N  -1.78000 17.04900 25.34800
C  -1.71700 18.11800 24.57000
C  -1.82900 17.70900 23.11700
C  -1.64100 16.20200 23.19800
C  -1.79800 15.92100 24.65000
C  -3.08100 18.27300 22.41400
C  -0.27000 15.64400 22.72900
C  0.98300 16.34000 23.34400
N  -2.26300 15.20300 27.56700
C  -2.22400 14.24900 26.57000
C  -2.42100 12.95700 27.11400
C  -2.51000 13.15300 28.53100
C  -2.46100 14.53000 28.75600
C  -2.46600 11.68900 26.34900
C  -2.76400 12.53500 29.77200
O  -3.08600 11.35600 29.95200
C  -2.77900 13.62300 30.82600
C  -1.60300 13.26800 31.71900
O  -0.42600 13.54200 31.50400
O  -1.98900 12.68300 32.89500
C  -0.98000 12.40300 33.92600
H  -2.60200 20.43900 30.67800
H  -1.63400 20.11500 24.13200
H  -1.92600 13.72000 24.59600
H  -3.51400 16.30200 32.47300
H  -2.15700 18.82000 32.39600
H  -4.39600 19.79300 32.78300
H  -4.85800 18.09600 32.92400
H  -5.01300 19.01400 31.43800
H  -0.58500 15.90400 32.45700
H  -1.85700 15.44700 33.54400
H  -1.90700 17.63500 34.53900
H  -0.59900 18.15800 33.87700
H  -1.44300 23.36900 28.93500
H  -2.33900 22.40000 30.02800
H  -3.20100 23.22000 28.82100
H  -2.96700 24.10500 26.56400
H  -1.73500 24.59100 25.32500
H  -1.25100 24.25900 26.95000
H  -0.93700 17.93700 22.53300
H  -2.44300 15.79900 22.57900
H  -3.85700 17.53500 22.20800
H  -2.80700 18.68900 21.44400
H  -3.61600 19.03200 22.98400
H  -0.19900 15.68500 21.64200
H  -0.47000 14.60100 22.97200
H  1.55500 16.87800 22.58800
H  1.67700 15.73500 23.92800
H  0.73000 17.17600 23.99600
H  -1.87800 11.66700 25.43100
H  -3.51900 11.44600 26.21000
H  -2.09200 10.92100 27.02600
H  -3.66700 13.54600 31.45300
H  -1.02200 13.18200 34.68700
H  -0.04900 12.19200 33.40000
H  -1.31500 11.45800 34.35500
Mg -10.18000 16.73900 40.89400
C  -6.74500 16.25400 41.24000
C  -9.67600 19.99300 40.01100
C  -13.41400 16.87900 40.11300
C  -10.61600 13.11300 41.25400
N  -8.34700 17.88000 40.49100
C  -7.05600 17.54600 40.81900
C  -6.14600 18.60100 40.37700
C  -7.08000 19.87900 40.38400
C  -8.46100 19.27000 40.30500
C  -6.83300 20.92000 41.52900
C  -5.58000 18.22000 39.00700
C  -4.13000 17.61000 38.99700
H  -3.92300 16.20600 38.40500
N  -11.37700 18.28000 40.10800
C  -10.98200 19.53900 39.87200
C  -12.21900 20.30200 39.55000
C  -13.31500 19.42100 39.38700
C  -12.73200 18.12000 39.83200
C  -12.06900 21.77900 39.15200
C  -14.69100 19.67200 38.90300
O  -14.87300 20.79400 38.40600
C  -15.94500 18.74000 38.86600
N  -11.79800 15.19300 40.86700
C  -13.01100 15.60500 40.58300
C  -14.00800 14.42400 40.46400
C  -13.20600 13.31400 41.04500
C  -11.76400 13.90800 40.97000
C  -15.27500 14.61400 41.38500
C  -13.35700 11.95000 40.26500
C  -13.87100 10.81200 41.12400
N  -9.01000 15.02100 41.30600
C  -9.32500 13.64800 41.36900
C  -8.09900 12.93800 41.69500
C  -7.09100 13.92000 41.73100
C  -7.68900 15.11300 41.32500
C  -8.01300 11.41600 41.94400
C  -5.73200 14.12900 42.01400
O  -4.91300 13.37700 42.47700
C  -5.39900 15.63200 41.71500
C  -5.10000 16.28400 42.99800
O  -5.74300 16.12400 44.02600
O  -4.01200 17.14300 42.86600
C  -3.40500 17.41600 44.17700
H  -9.64200 21.06700 39.81800
H  -14.47800 16.98800 39.89200
H  -10.72200 12.03000 41.34300
H  -5.39000 18.71900 41.15300
H  -7.01900 20.41300 39.43500
H  -7.68300 20.97200 42.21000
H  -6.63600 21.90600 41.10700
H  -5.95500 20.69000 42.13200
H  -5.50600 19.06200 38.31900
H  -6.29600 17.53700 38.55100
H  -3.68300 17.65200 39.99000
H  -3.58200 18.26300 38.31800
H  -11.33900 22.34800 39.72800
H  -12.92400 22.37700 39.46700
H  -11.88000 21.91600 38.08700
H  -16.83100 19.18600 38.41400
H  -16.25500 18.53700 39.89100
H  -15.58800 17.86300 38.32600
H  -14.19400 14.37300 39.39100
H  -13.37500 13.19300 42.11500
H  -15.41900 13.82500 42.12300
H  -16.15400 14.59300 40.74100
H  -15.14000 15.55800 41.91200
H  -12.40800 11.54900 39.91000
H  -14.01700 12.09900 39.41100
H  -14.85800 10.45700 40.82700
H  -13.91900 11.11800 42.16900
H  -13.15100 9.99600 41.17700
H  -8.92500 10.87000 42.18500
H  -7.24200 11.12000 42.65600
H  -7.67600 10.98000 41.00400
H  -4.62500 15.83200 40.97300
H  -3.97500 18.12900 44.77300
H  -2.58700 18.06000 43.85300
H  -3.11600 16.53400 44.74800

