158

Mg 6.21200 53.29500 41.23300
C  5.33500 49.85000 40.99000
C  9.04500 52.63400 39.91300
C  6.48300 56.65300 40.72500
C  2.79500 53.86900 41.76100
N  7.00300 51.38400 40.22800
C  6.54300 50.11500 40.40200
C  7.63300 49.20500 39.78900
C  8.94200 50.01800 39.99200
C  8.27900 51.45000 39.96800
C  9.84100 49.74000 41.21600
C  7.27300 48.85700 38.34900
C  7.74200 49.68600 37.12900
H  6.88700 49.76700 35.85800
N  7.60200 54.45000 40.48400
C  8.79200 53.96000 40.05400
C  9.72900 55.07700 39.82300
C  9.05200 56.25200 40.15300
C  7.66100 55.86500 40.49600
C  11.08600 54.91800 39.21800
C  9.66100 57.71300 40.15600
O  10.88800 57.75900 39.85400
C  8.95600 58.93100 40.54200
N  4.81500 55.00600 41.17700
C  5.21900 56.26600 41.04700
C  4.10100 57.27600 41.06500
C  2.88500 56.35400 41.42800
C  3.50300 54.97300 41.36900
C  4.32900 58.42600 42.14200
C  1.68700 56.62200 40.44700
C  1.56100 55.71200 39.27500
N  4.52700 52.12300 41.64200
C  3.19300 52.49200 41.83200
C  2.30200 51.35800 42.13900
C  3.16100 50.25400 41.88600
C  4.43800 50.81300 41.46700
C  0.87300 51.38800 42.63300
C  3.23400 48.81200 41.71600
O  2.38600 47.92400 41.94400
C  4.67000 48.50600 41.23000
C  4.63900 47.61200 39.97300
O  4.08500 47.87000 38.92100
O  5.34100 46.40400 40.25600
C  5.25800 45.47600 39.08900
H  10.08500 52.39600 39.68000
H  6.63600 57.72700 40.59900
H  1.75900 54.19000 41.89100
H  7.88000 48.37200 40.44700
H  9.56100 50.01000 39.09500
H  10.83900 49.68400 40.78000
H  9.59100 48.76100 41.62500
H  9.81300 50.54000 41.95500
H  6.20200 48.66200 38.29500
H  7.75800 47.89500 38.17900
H  8.72100 49.35000 36.78900
H  7.77000 50.74100 37.40300
H  11.23200 55.74300 38.52000
H  11.17700 53.96100 38.70400
H  11.81400 54.93500 40.02900
H  9.60800 59.79600 40.42200
H  8.63800 58.69800 41.55800
H  8.15300 59.02300 39.81100
H  3.88700 57.69100 40.08000
H  2.65200 56.40000 42.49200
H  3.59600 58.48400 42.94600
H  4.19400 59.33500 41.55500
H  5.38300 58.50200 42.40700
H  1.57300 57.67200 40.17800
H  0.83300 56.45500 41.10400
H  2.58300 55.43300 39.01900
H  1.19300 56.26900 38.41400
H  0.90100 54.88500 39.54000
H  0.34100 52.17200 42.09500
H  0.78400 51.36200 43.71900
H  0.40400 50.44100 42.36500
H  5.17500 47.95300 42.02200
H  5.63100 44.50000 39.40000
H  5.91100 45.69400 38.24400
H  4.23200 45.34900 38.74300
Mg -3.16700 34.75500 26.72000
C  -5.20700 33.03700 29.03200
C  -2.42200 36.94300 29.39600
C  -1.49100 36.52800 24.62600
C  -4.24500 32.52800 24.31400
N  -3.72800 34.83800 28.95700
C  -4.47800 34.01000 29.68900
C  -4.29200 34.31000 31.19800
C  -3.73200 35.79700 31.15900
C  -3.32000 35.92500 29.70700
C  -4.80500 36.82800 31.58000
C  -3.47300 33.30900 31.93700
C  -3.47400 33.59900 33.44100
H  -2.18900 33.78400 34.11300
N  -2.07500 36.39900 26.93700
C  -1.85200 37.15300 28.11800
C  -0.85000 38.12300 27.81900
C  -0.47300 38.06600 26.49300
C  -1.43000 36.99100 25.96900
C  -0.24700 39.08100 28.85600
C  0.50300 38.86400 25.58800
O  0.77100 38.63400 24.37000
C  1.30300 39.94800 26.17000
N  -2.94100 34.64500 24.66800
C  -2.11500 35.42100 24.00700
C  -1.80000 34.88900 22.52000
C  -2.70900 33.61400 22.50100
C  -3.40900 33.62000 23.89800
C  -1.95300 35.88200 21.28400
C  -1.96700 32.24600 22.21900
C  -2.64600 31.33400 21.14900
N  -4.53800 33.24200 26.58700
C  -4.86000 32.42900 25.55700
C  -5.77500 31.34100 25.98100
C  -5.86900 31.57600 27.33100
C  -5.13300 32.73700 27.63800
C  -6.34600 30.27600 25.10400
C  -6.48600 31.00500 28.52900
O  -7.17300 29.99100 28.67100
C  -6.03200 32.00400 29.68200
C  -7.21200 32.41200 30.36700
O  -8.04700 33.25600 30.10900
O  -7.28600 31.69000 31.50800
C  -8.23600 32.06100 32.55700
H  -2.36100 37.68200 30.19800
H  -0.84700 36.95800 23.85500
H  -4.37000 31.74900 23.56000
H  -5.29700 34.31800 31.62100
H  -2.85800 35.93800 31.79500
H  -4.23300 37.48000 32.24100
H  -5.60000 36.37000 32.16700
H  -5.24100 37.56100 30.90100
H  -2.47400 33.27400 31.50300
H  -4.00200 32.37100 31.77000
H  -4.04500 32.87200 34.01800
H  -3.99200 34.53800 33.63400
H  -0.67200 40.08100 28.93300
H  0.84100 39.11900 28.79800
H  -0.42900 38.62200 29.82800
H  0.82200 40.65200 26.84900
H  1.68100 40.51100 25.31700
H  2.14300 39.52200 26.72000
H  -0.74800 34.60200 22.54300
H  -3.58000 33.78900 21.86900
H  -2.30700 35.36000 20.39500
H  -0.95100 36.22100 21.02200
H  -2.56800 36.73300 21.57800
H  -1.85000 31.71600 23.16400
H  -1.02400 32.66200 21.86400
H  -1.84500 31.17700 20.42600
H  -3.61700 31.69100 20.80500
H  -2.83700 30.36700 21.61400
H  -5.65600 29.63200 24.56000
H  -6.97300 30.89400 24.46000
H  -7.00000 29.59600 25.65000
H  -5.39500 31.39600 30.32400
H  -7.80500 32.71500 33.31500
H  -8.72400 31.23600 33.07400
H  -9.03500 32.65900 32.12000

