158

Mg 54.35800 24.36700 45.10800
C  51.54100 26.28800 43.96100
C  52.68500 21.50500 43.97700
C  57.17800 22.73100 45.35400
C  55.86600 27.47100 45.81400
N  52.46700 23.97700 43.81400
C  51.46900 24.91900 43.64200
C  50.19400 24.26100 43.03300
C  50.42400 22.79100 43.50400
C  51.94600 22.74300 43.72200
C  49.62200 22.38600 44.77700
C  50.11600 24.36800 41.44300
C  48.75400 24.14200 40.87700
H  48.59300 23.10100 39.73600
N  54.83200 22.37800 44.76600
C  54.02400 21.30800 44.40100
C  54.77300 20.04700 44.62800
C  56.07700 20.37200 45.00200
C  56.04800 21.89200 45.08700
C  54.17500 18.66500 44.53400
C  57.19400 19.39400 45.39900
O  57.08100 18.13000 45.41600
C  58.60900 19.85200 45.68700
N  56.29100 25.03300 45.30800
C  57.28100 24.10800 45.49700
C  58.62200 24.82800 45.86200
C  58.19800 26.33000 45.58800
C  56.65700 26.30400 45.70000
C  59.05900 24.69900 47.35500
C  58.60000 26.77000 44.11900
C  59.26400 28.10400 43.88400
N  53.82600 26.44700 45.09500
C  54.50100 27.52800 45.53400
C  53.62700 28.60000 45.62700
C  52.40000 28.26700 45.01100
C  52.65400 26.89900 44.66300
C  53.96700 29.91600 46.16700
C  51.09200 28.64500 44.54500
O  50.38900 29.62900 44.63700
C  50.50400 27.37400 43.89500
C  50.21800 27.72200 42.50100
O  51.10500 28.02300 41.64400
O  48.90800 27.59800 42.22300
C  48.51200 27.90700 40.84200
H  52.17400 20.54100 44.00300
H  58.09600 22.15400 45.48800
H  56.41900 28.38900 46.02200
H  49.39000 24.74600 43.58500
H  50.24900 22.06400 42.71200
H  48.78500 21.73300 44.53000
H  49.21000 23.25200 45.29400
H  50.30200 21.93000 45.49700
H  50.56600 23.49200 40.97600
H  50.55500 25.29900 41.08300
H  48.37500 25.08100 40.47300
H  48.12900 23.79000 41.69700
H  54.88900 17.84300 44.49400
H  53.45100 18.62100 43.72000
H  53.59700 18.38500 45.41400
H  59.09200 20.27800 44.80800
H  59.16000 18.98800 46.05800
H  58.53100 20.53700 46.53200
H  59.41400 24.48400 45.19700
H  58.62000 27.01600 46.32300
H  60.14500 24.67700 47.43900
H  58.61900 23.79700 47.77900
H  58.72400 25.52700 47.98000
H  57.70400 26.61500 43.51800
H  59.22500 26.03500 43.61200
H  58.66600 28.70400 43.19800
H  60.25100 27.97100 43.44200
H  59.47200 28.61600 44.82400
H  54.55700 29.81000 47.07800
H  52.97700 30.33400 46.35200
H  54.44600 30.52700 45.40300
H  49.62500 27.03800 44.44500
H  47.94300 28.83700 40.82500
H  47.74900 27.17000 40.59100
H  49.25600 28.06000 40.06000
Mg 41.03700 40.70400 26.64800
C  40.77000 43.13100 29.18700
C  42.59200 38.67200 28.82700
C  41.32400 38.62200 24.07700
C  40.32500 43.31300 24.32900
N  41.55500 40.80600 28.80400
C  41.17000 41.81600 29.68600
C  41.33200 41.48300 31.09700
C  41.97700 40.04700 30.96700
C  42.02100 39.76500 29.43400
C  43.16100 39.85300 31.90300
C  39.97300 41.53900 31.82300
C  39.86100 42.49100 32.98400
H  39.23300 41.96700 34.23600
N  42.02400 38.95800 26.44400
C  42.59000 38.23400 27.45100
C  42.90400 36.91800 26.99400
C  42.45100 36.86100 25.59800
C  41.94400 38.19200 25.28300
C  43.42100 35.89200 27.98600
C  42.53900 35.64200 24.54700
O  42.33400 35.77300 23.31300
C  42.91500 34.28000 25.06400
N  40.74400 40.98700 24.54200
C  40.88100 39.87900 23.68500
C  40.56600 40.19800 22.27900
C  40.64500 41.79700 22.33300
C  40.55300 42.07100 23.79800
C  41.38500 39.56600 21.16500
C  39.51600 42.58000 21.60700
C  39.84900 43.72100 20.64000
N  40.47900 42.75400 26.68700
C  40.25100 43.70700 25.65600
C  40.07300 45.02600 26.16800
C  40.18200 44.79000 27.62400
C  40.58400 43.42700 27.81000
C  39.70600 46.27200 25.47400
C  39.92000 45.40500 28.88900
O  39.61000 46.57300 29.12300
C  40.36000 44.38400 29.94400
C  41.36800 44.90900 30.78000
O  42.50400 45.05300 30.34200
O  40.87500 45.33700 31.99100
C  41.76300 46.01800 32.95300
H  42.95100 37.93000 29.54300
H  41.27100 37.88700 23.27100
H  40.22700 44.11500 23.59500
H  42.07300 42.12400 31.57300
H  41.30500 39.23700 31.25100
H  44.14000 39.87300 31.42400
H  42.95100 38.89500 32.38000
H  43.17200 40.48300 32.79200
H  39.76900 40.56200 32.26300
H  39.17800 41.89600 31.16900
H  39.22200 43.34400 32.75200
H  40.89200 42.77100 33.19800
H  44.31500 36.40500 28.33900
H  43.86800 35.05300 27.45200
H  42.78500 35.70200 28.85100
H  42.55100 33.41100 24.51500
H  42.37400 34.15400 26.00200
H  43.98800 34.17200 25.21900
H  39.53800 39.87700 22.10800
H  41.64700 42.12600 22.05900
H  42.13700 38.92100 21.62100
H  42.02100 40.28500 20.64800
H  40.81800 39.07200 20.37700
H  38.70900 42.83100 22.29500
H  39.03600 41.83700 20.97000
H  39.36000 43.57600 19.67700
H  40.88600 43.65100 20.31200
H  39.40400 44.59700 21.11100
H  40.51600 46.77800 24.94800
H  39.30300 46.95100 26.22400
H  38.91000 46.02600 24.77200
H  39.44100 44.26100 30.51700
H  41.35200 47.01500 33.11500
H  42.77300 45.98500 32.54300
H  41.81600 45.58300 33.95100

