158

Mg 29.34900 58.90200 41.05200
C  26.32700 57.49100 40.29700
C  30.88700 56.17600 39.45500
C  32.27800 60.61500 41.15800
C  27.69400 61.82100 41.88700
N  28.62800 57.11300 40.04500
C  27.35000 56.70000 39.83000
C  27.22200 55.31100 39.07300
C  28.69100 54.84300 39.13000
C  29.46000 56.13500 39.48400
C  28.86200 53.65200 40.19300
C  26.79000 55.69300 37.60100
C  25.82300 54.77800 36.84400
H  25.93200 54.65500 35.35300
N  31.33800 58.36100 40.57000
C  31.75600 57.24600 39.95000
C  33.21200 57.33500 39.81400
C  33.56700 58.57400 40.26900
C  32.37700 59.27500 40.70300
C  33.97400 56.11500 39.36700
C  35.09100 59.00300 40.29600
O  36.00900 58.27600 39.78600
C  35.54300 60.31500 40.98200
N  29.84000 61.01900 41.27800
C  31.16600 61.36600 41.44900
C  31.22200 62.92900 41.66800
C  29.70700 63.34100 41.79600
C  29.07600 61.99200 41.64600
C  32.09400 63.35600 42.92300
C  28.96600 64.42700 40.84500
C  28.68400 65.83500 41.43100
N  27.45700 59.62100 41.12400
C  26.90900 60.77500 41.60100
C  25.46700 60.74200 41.53500
C  25.19300 59.42800 41.13100
C  26.43300 58.79600 40.83400
C  24.40100 61.76900 41.97100
C  24.17100 58.37700 41.00500
O  23.00100 58.37300 41.40000
C  24.91500 57.21100 40.37700
C  24.53400 56.03400 41.13600
O  24.85600 55.85000 42.27600
O  23.90000 55.03200 40.31700
C  23.66800 53.70800 40.91400
H  31.45200 55.30900 39.10600
H  33.22900 61.11100 41.36800
H  27.11600 62.71800 42.12100
H  26.59200 54.61400 39.62500
H  28.94600 54.40200 38.16700
H  29.52200 53.89100 41.02700
H  29.18900 52.71800 39.73700
H  27.98100 53.28100 40.71800
H  27.65400 55.84800 36.95500
H  26.17200 56.59000 37.61800
H  24.80300 55.13600 36.98500
H  25.78700 53.76200 37.23900
H  34.13700 56.24200 38.29600
H  33.41700 55.21600 39.63200
H  34.86000 56.21000 39.99500
H  35.43400 61.19600 40.34900
H  36.60000 60.17400 41.20900
H  35.05900 60.44500 41.94900
H  31.80300 63.34000 40.84200
H  29.47800 63.81900 42.74800
H  31.49700 63.33100 43.83400
H  32.32500 64.42100 42.94100
H  32.95600 62.71400 43.10300
H  27.99600 64.02100 40.56000
H  29.69200 64.43300 40.03200
H  27.60100 65.85200 41.54600
H  28.90200 66.70000 40.80400
H  29.19800 65.94700 42.38600
H  24.77700 61.90900 42.98400
H  23.41100 61.32200 41.87200
H  24.45700 62.77700 41.55900
H  24.43300 57.05500 39.41200
H  23.03600 53.79900 41.79800
H  24.55500 53.14500 41.20400
H  23.17600 53.02400 40.22400
Mg 0.17700 43.47400 25.51700
C  2.37400 43.05500 28.22600
C  -2.51400 42.91100 27.70300
C  -2.01600 43.36100 22.98800
C  2.81900 43.92900 23.40300
N  0.03500 43.09300 27.64400
C  0.98500 43.10000 28.56900
C  0.43700 42.97700 30.00700
C  -0.99500 42.54900 29.76700
C  -1.19100 42.94000 28.30900
C  -1.31800 41.02800 30.01300
C  0.44600 44.29500 30.87500
C  -0.14100 44.22800 32.32000
H  -0.14500 42.74900 32.93300
N  -1.98300 43.07800 25.35700
C  -2.88400 42.87600 26.37900
C  -4.25500 42.78600 25.86300
C  -4.12900 42.87000 24.44600
C  -2.69300 43.09600 24.18400
C  -5.43200 42.47900 26.72100
C  -5.22100 42.75600 23.43800
O  -5.00400 43.00600 22.26600
C  -6.63500 42.41600 23.86000
N  0.37500 43.54500 23.50300
C  -0.70000 43.52200 22.66400
C  -0.12500 43.55600 21.26400
C  1.31300 43.97500 21.38200
C  1.53800 43.73500 22.83900
C  -0.36400 42.12100 20.64800
C  1.63100 45.42000 20.93900
C  1.01800 46.58800 21.71700
N  2.21300 43.44800 25.72900
C  3.20400 43.70200 24.78200
C  4.55700 43.46200 25.40300
C  4.21800 43.29400 26.76300
C  2.79300 43.36100 26.90200
C  5.89900 43.31400 24.79200
C  4.76400 42.99300 28.02800
O  5.94100 42.71300 28.37700
C  3.66100 43.04300 29.05200
C  3.65600 41.86900 29.89300
O  3.59600 40.71200 29.51900
O  3.93300 42.34500 31.15700
C  4.23700 41.27400 32.09900
H  -3.26700 42.74900 28.47700
H  -2.61800 43.23400 22.08600
H  3.64900 44.13200 22.72300
H  0.97000 42.20200 30.55800
H  -1.71600 43.20300 30.25800
H  -1.53600 40.50500 29.08200
H  -2.14700 40.89700 30.70800
H  -0.38300 40.59700 30.37200
H  -0.03100 45.10700 30.32600
H  1.44400 44.72300 30.96200
H  -1.09800 44.74400 32.39700
H  0.42500 44.85500 33.00900
H  -5.92400 43.35000 27.15400
H  -4.97200 41.90700 27.52600
H  -6.03600 41.67100 26.30700
H  -7.04400 43.01900 24.67100
H  -6.60600 41.38200 24.20500
H  -7.30000 42.52200 23.00300
H  -0.73500 44.27100 20.71300
H  1.99800 43.28000 20.89700
H  0.57500 41.57200 20.57700
H  -0.82000 42.24100 19.66500
H  -0.97800 41.59100 21.37600
H  1.27500 45.39700 19.90900
H  2.71400 45.53300 20.98800
H  1.83200 47.30900 21.78300
H  0.50900 46.39700 22.66200
H  0.35300 47.12800 21.04400
H  5.80800 42.81100 23.82900
H  6.56600 42.81800 25.49700
H  6.28200 44.31800 24.61000
H  3.70100 44.00300 29.56600
H  4.64200 41.73000 33.00200
H  4.94600 40.61200 31.60300
H  3.31000 40.74200 32.31500

