158

Mg 16.90500 -1.80800 27.97100
C  15.70000 0.41000 30.43100
C  19.03900 -3.12500 30.18600
C  18.44300 -3.54000 25.46100
C  15.39800 0.27100 25.60800
N  17.34700 -1.31300 30.12600
C  16.66000 -0.53600 30.92100
C  16.93600 -0.88000 32.36600
C  18.19700 -1.83600 32.32100
C  18.23200 -2.11600 30.74900
C  19.60400 -1.26600 32.79000
C  15.71400 -1.37100 33.17300
C  15.41200 -0.72000 34.56100
H  16.62200 -0.17900 35.31900
N  18.55800 -3.15600 27.79600
C  19.22100 -3.61800 28.87100
C  19.98000 -4.74400 28.49800
C  19.75900 -4.94300 27.09000
C  18.93300 -3.79400 26.70300
C  20.66100 -5.65900 29.56500
C  20.29700 -6.05900 26.12200
O  20.02500 -6.09200 24.88300
C  21.20600 -7.05800 26.72800
N  16.90200 -1.69400 25.83900
C  17.58100 -2.56500 25.03500
C  17.40700 -2.26500 23.53900
C  16.24400 -1.19900 23.58800
C  16.12200 -0.84700 25.08700
C  18.66700 -1.77300 22.80300
C  14.97900 -1.58400 22.70600
C  13.73200 -1.95700 23.56800
N  15.63500 -0.15600 27.95100
C  15.13500 0.56700 26.89800
C  14.35400 1.70000 27.41000
C  14.50300 1.57700 28.79500
C  15.31400 0.50700 29.06500
C  13.47500 2.58200 26.57700
C  14.07600 2.17700 30.03700
O  13.27300 3.03000 30.15800
C  14.85700 1.43600 31.13100
C  15.66100 2.40200 31.95900
O  16.69100 2.92900 31.59100
O  15.13200 2.65700 33.20000
C  15.75300 3.75000 33.93500
H  19.74700 -3.59400 30.87200
H  18.86100 -4.07300 24.60400
H  14.95300 0.88800 24.82500
H  17.21100 0.04200 32.87800
H  17.99300 -2.77100 32.84200
H  19.83300 -1.78600 33.72000
H  19.50200 -0.22800 33.10800
H  20.49000 -1.27800 32.15500
H  15.75700 -2.44300 33.36600
H  14.77500 -1.10700 32.68800
H  15.03100 -1.49200 35.23000
H  14.60300 0.00700 34.48800
H  20.32400 -6.67800 29.37400
H  20.34300 -5.38900 30.57200
H  21.74000 -5.51500 29.50800
H  21.82400 -7.37700 25.89000
H  20.75000 -8.00900 27.00400
H  21.84600 -6.76200 27.55900
H  17.04100 -3.23700 23.20800
H  16.60800 -0.29600 23.09900
H  18.55600 -0.80200 22.32000
H  19.12000 -2.43100 22.06100
H  19.45800 -1.63800 23.54000
H  15.29100 -2.39500 22.04800
H  14.64900 -0.73700 22.10400
H  13.32800 -1.09200 24.09300
H  14.00700 -2.67000 24.34500
H  12.98400 -2.52000 23.00900
H  13.00000 3.38000 27.14800
H  12.81800 1.92300 26.01000
H  14.20000 3.07500 25.93000
H  14.09000 0.89900 31.69000
H  15.36000 3.71800 34.95100
H  15.38200 4.69000 33.52700
H  16.83000 3.62100 34.04200
Mg 7.14000 55.39100 41.68000
C  5.98800 52.27600 40.56700
C  10.14000 54.57800 40.78600
C  7.75200 58.74400 41.52700
C  3.91500 56.18200 42.58500
N  7.91700 53.60800 40.76900
C  7.33000 52.46200 40.43300
C  8.34600 51.38700 40.06100
C  9.73600 52.04600 40.45100
C  9.28400 53.48800 40.70600
C  10.47900 51.25900 41.60900
C  8.29000 50.88100 38.59500
C  8.89200 49.51000 38.39600
H  9.53700 49.44500 36.98500
N  8.75900 56.57600 41.28600
C  9.96900 55.96700 40.90900
C  10.93900 56.99900 40.77100
C  10.21500 58.22400 40.79100
C  8.82600 57.88200 41.20900
C  12.41800 56.69900 40.56400
C  10.71700 59.60900 40.49900
O  11.89700 59.79300 40.12600
C  9.97500 60.89600 40.68300
N  5.96600 57.26700 42.14300
C  6.48000 58.49000 42.02900
C  5.39200 59.49800 42.47700
C  4.24100 58.68500 43.03200
C  4.65100 57.33200 42.47800
C  6.09900 60.47700 43.47100
C  2.80100 59.17000 42.53700
C  1.73100 58.94600 43.59300
N  5.30500 54.43300 41.62900
C  4.08700 54.85300 42.05100
C  3.16400 53.77200 41.99600
C  3.79500 52.69700 41.25200
C  5.12300 53.19400 41.12800
C  1.79800 53.73200 42.61000
C  3.71200 51.30800 40.75300
O  2.83300 50.43300 40.86800
C  5.13400 51.01900 40.17400
C  4.85100 51.00400 38.74000
O  4.47300 52.02000 38.14800
O  5.13100 49.74600 38.15500
C  4.96400 49.70100 36.67900
H  11.20400 54.42500 40.59500
H  7.95000 59.81800 41.51300
H  2.93200 56.23500 43.05700
H  8.17100 50.54000 40.72400
H  10.31200 51.98300 39.52800
H  10.20500 51.57900 42.61400
H  11.50900 51.34900 41.26200
H  10.19900 50.21400 41.47300
H  8.93200 51.58900 38.07000
H  7.26800 50.93900 38.22100
H  8.04300 48.85100 38.57900
H  9.66600 49.29000 39.13100
H  12.45900 56.11200 39.64700
H  12.79000 56.12600 41.41400
H  13.00000 57.62100 40.55400
H  10.00100 61.21400 41.72500
H  8.95500 60.86100 40.29900
H  10.64800 61.60200 40.19700
H  5.29500 60.09600 41.57100
H  4.26400 58.57300 44.11600
H  7.18000 60.35400 43.54100
H  5.52200 60.48200 44.39500
H  5.94400 61.47200 43.05200
H  2.62800 58.46900 41.72100
H  2.90700 60.13600 42.04400
H  1.96300 58.25400 44.40300
H  0.92500 58.38400 43.12200
H  1.20500 59.85900 43.87300
H  1.40100 54.73900 42.73700
H  1.80000 53.22200 43.57400
H  1.13600 53.24400 41.89500
H  5.57100 50.04400 40.38900
H  5.48000 50.53400 36.20100
H  3.89800 49.90900 36.59300
H  5.15600 48.69100 36.31600

