158

Mg 43.31900 3.56200 47.32100
C  41.44400 6.57400 47.26300
C  40.44100 1.81000 47.27000
C  45.25200 0.94500 46.57800
C  46.26200 5.69000 46.88700
N  41.16700 4.19300 47.17200
C  40.63300 5.42600 47.25500
C  39.11000 5.26900 47.38600
C  38.87500 3.73700 47.60200
C  40.23900 3.20600 47.30500
C  38.29400 3.31700 48.98200
C  38.23500 5.97200 46.27600
C  38.93400 5.93200 44.90700
H  37.99300 6.38500 43.72800
N  42.90200 1.67500 46.92700
C  41.66800 1.07900 47.05400
C  41.82300 -0.36100 46.94700
C  43.18400 -0.65400 46.56700
C  43.84800 0.69200 46.67600
C  40.61000 -1.27700 47.09000
C  43.83100 -2.00200 46.24200
O  43.11700 -3.01500 46.28700
C  45.32700 -2.18900 45.85500
N  45.47700 3.43900 46.53200
C  45.99100 2.10100 46.65300
C  47.55000 2.20200 46.62500
C  47.85100 3.66900 46.49300
C  46.46800 4.32600 46.64400
C  48.17400 1.60900 47.95000
C  48.64600 3.98100 45.24000
C  49.92400 4.73300 45.40200
N  43.81600 5.62000 47.23900
C  45.03000 6.30800 47.12900
C  44.79300 7.76000 47.36600
C  43.38000 7.89200 47.32600
C  42.83900 6.59800 47.21200
C  45.79100 8.89100 47.51900
C  42.31900 8.86400 47.37900
O  42.31500 10.03000 47.66700
C  41.01000 8.03800 47.29400
C  40.13500 8.34400 48.51300
O  40.27300 7.95000 49.65000
O  39.21100 9.23800 48.04100
C  38.14100 9.43300 49.05600
H  39.47100 1.33800 47.43700
H  45.90500 0.07500 46.68500
H  47.13300 6.34400 46.81500
H  38.76000 5.80600 48.26800
H  38.20500 3.33800 46.84100
H  39.05800 2.99100 49.68900
H  37.52200 2.58600 48.74400
H  37.82900 4.23700 49.33700
H  38.23400 7.04200 46.48400
H  37.25500 5.51000 46.16100
H  39.20200 4.90800 44.64800
H  39.73000 6.67200 44.98600
H  40.28900 -1.63300 46.11100
H  39.75000 -0.77500 47.53400
H  40.72800 -2.14200 47.74200
H  45.90700 -2.09900 46.77400
H  45.61300 -1.52000 45.04400
H  45.46400 -3.19500 45.45800
H  47.89200 1.62800 45.76400
H  48.48400 4.00000 47.31600
H  48.53000 0.59200 47.78700
H  47.49700 1.73300 48.79600
H  49.03100 2.19800 48.27800
H  47.93300 4.56500 44.65800
H  48.99300 3.10800 44.68700
H  50.74300 4.17700 44.94700
H  50.21700 4.89500 46.43900
H  50.10900 5.67300 44.88200
H  45.27100 9.80100 47.81900
H  46.20300 8.92500 46.51100
H  46.55700 8.64900 48.25500
H  40.42500 8.34200 46.42600
H  38.44000 9.75000 50.05500
H  37.52300 8.54900 49.21300
H  37.38000 10.11000 48.66900
Mg 0.52100 43.04100 25.71100
C  2.40800 43.02400 28.61700
C  -2.28700 42.42200 27.69200
C  -1.16800 42.43900 22.90800
C  3.52800 42.89400 23.81800
N  0.07400 42.67200 27.94000
C  1.01200 42.90800 28.93400
C  0.35400 42.81800 30.33000
C  -1.19400 42.56500 29.98300
C  -1.18100 42.53900 28.47900
C  -2.05900 41.42400 30.58500
C  0.67400 44.10800 31.17500
C  1.46000 43.83600 32.52500
H  1.01200 42.63800 33.33300
N  -1.46900 42.57800 25.34700
C  -2.50300 42.42500 26.27000
C  -3.76000 42.30200 25.53100
C  -3.42800 42.19100 24.16100
C  -1.98100 42.41200 24.12300
C  -5.15300 42.18900 26.21900
C  -4.38800 42.14100 22.97800
O  -4.06100 41.90900 21.83300
C  -5.85900 42.44100 23.29700
N  1.11600 42.79400 23.68000
C  0.21400 42.60800 22.66800
C  0.82200 42.60100 21.24200
C  2.31500 42.95100 21.67400
C  2.34000 42.86500 23.15600
C  0.60700 41.27800 20.49100
C  2.86000 44.24100 21.13700
C  2.47800 45.64500 21.77800
N  2.53500 42.97700 26.04300
C  3.68600 42.99900 25.19500
C  4.88100 43.00900 26.00400
C  4.38600 43.02600 27.31700
C  3.00200 42.96600 27.26600
C  6.31500 43.02100 25.44600
C  4.89800 43.04300 28.64700
O  6.04600 43.11100 29.02400
C  3.61500 43.03700 29.50300
C  3.70300 41.79700 30.32800
O  3.14200 40.69100 30.12500
O  4.51300 42.05600 31.43900
C  4.61700 40.98900 32.38600
H  -3.21300 42.19300 28.22200
H  -1.65800 42.13200 21.98100
H  4.40900 42.91300 23.17300
H  0.76000 41.92500 30.80600
H  -1.76600 43.45100 30.25900
H  -2.93700 41.67100 31.18100
H  -1.42400 40.82900 31.24000
H  -2.40800 40.71200 29.83700
H  -0.22900 44.68500 31.37900
H  1.33700 44.77500 30.62400
H  1.21700 44.74700 33.07200
H  2.53100 43.92600 32.34600
H  -5.17600 42.17400 27.30900
H  -5.49000 41.25400 25.77300
H  -5.77100 42.97300 25.78100
H  -6.28500 41.62000 23.87400
H  -6.39200 42.59200 22.35900
H  -5.98600 43.38500 23.82600
H  0.35800 43.39000 20.65000
H  2.99600 42.13200 21.44400
H  0.21000 40.53600 21.18400
H  1.59100 40.90300 20.21100
H  -0.05200 41.40000 19.63100
H  2.46700 44.35800 20.12700
H  3.94000 44.14900 21.02300
H  2.14900 45.42800 22.79400
H  1.61500 46.01400 21.22400
H  3.38100 46.25500 21.79300
H  6.46000 42.78600 24.39200
H  6.78700 42.25500 26.06100
H  6.82400 43.95700 25.67800
H  3.69200 43.80200 30.27500
H  5.00500 40.13000 31.84000
H  3.67400 40.66200 32.82400
H  5.31700 41.33700 33.14600

