158

Mg 28.16900 58.39200 42.14300
C  25.87000 56.20500 40.71800
C  30.69100 56.90600 40.43500
C  30.06200 60.79800 43.27600
C  25.33100 60.14300 43.43400
N  28.23900 56.83300 40.74300
C  27.18400 56.07900 40.25100
C  27.64500 55.19800 39.14500
C  29.19400 55.06500 39.49200
C  29.37600 56.39400 40.20900
C  29.65800 53.73700 40.17100
C  27.29000 55.79900 37.74800
C  27.05000 54.74000 36.63700
H  26.52400 55.29600 35.31700
N  30.21100 58.72600 41.98600
C  31.09300 57.98000 41.26700
C  32.37100 58.59900 41.41400
C  32.24400 59.73300 42.28200
C  30.81900 59.75500 42.56700
C  33.46200 58.19500 40.55400
C  33.29300 60.79300 42.71400
O  34.41400 60.62800 42.24100
C  33.10300 61.95400 43.59000
N  27.71800 60.23100 43.07500
C  28.68200 61.02500 43.49500
C  28.11800 62.26900 44.25800
C  26.59200 62.13000 44.10400
C  26.54600 60.73800 43.49600
C  28.62700 62.26000 45.72300
C  25.97800 63.27500 43.20400
C  26.02600 64.73100 43.84000
N  26.02600 58.24600 42.24900
C  25.04800 58.96200 42.87500
C  23.72600 58.38500 42.60000
C  23.97000 57.33100 41.69300
C  25.36000 57.25100 41.58500
C  22.38600 58.96200 42.96600
C  23.37200 56.23600 40.88500
O  22.18300 55.94400 40.67400
C  24.59100 55.39100 40.34400
C  24.63300 53.93600 40.82300
O  25.29900 53.49100 41.74000
O  23.80000 53.17800 40.03100
C  23.90400 51.70500 40.08800
H  31.37000 56.31400 39.81800
H  30.69200 61.62000 43.62300
H  24.50300 60.76700 43.77800
H  27.06300 54.27900 39.20700
H  29.70000 55.11500 38.52800
H  30.36800 53.30300 39.46700
H  28.83100 53.07000 40.41300
H  30.18200 53.89000 41.11400
H  28.04500 56.49900 37.38900
H  26.34700 56.33400 37.86200
H  26.31000 54.08400 37.09500
H  27.91300 54.08100 36.54000
H  33.29000 57.21100 40.11800
H  34.45900 58.13100 40.98900
H  33.53300 58.93600 39.75800
H  32.54300 62.76500 43.12300
H  34.08100 62.26900 43.95400
H  32.66300 61.57000 44.51000
H  28.45400 63.12500 43.67300
H  26.07600 62.25500 45.05700
H  29.70500 62.13600 45.62700
H  28.23700 61.38900 46.25000
H  28.46900 63.19600 46.25800
H  24.95200 62.95800 43.01300
H  26.54300 63.24700 42.27200
H  25.03700 65.17800 43.94300
H  26.58300 65.30400 43.09800
H  26.51600 64.80300 44.81100
H  22.29300 60.02700 42.75000
H  22.31000 58.91400 44.05200
H  21.48700 58.40300 42.70500
H  24.53600 55.28300 39.26100
H  22.89400 51.54100 39.71100
H  24.03200 51.24000 41.06600
H  24.56000 51.26400 39.33700
Mg -5.84800 24.63300 25.67300
C  -4.55800 25.78600 28.81300
C  -8.08200 22.70500 27.23700
C  -6.62300 23.26000 22.67900
C  -3.27800 26.60200 24.14600
N  -6.09600 24.21400 27.82000
C  -5.55400 24.81600 28.93400
C  -6.14400 24.18300 30.18900
C  -7.31300 23.31300 29.69100
C  -7.17400 23.38900 28.14000
C  -7.24300 21.86000 30.33200
C  -6.61100 25.26000 31.15500
C  -6.24700 25.23100 32.66000
H  -5.51600 24.01800 33.20700
N  -7.28800 23.24200 25.04400
C  -8.15400 22.62800 25.85800
C  -9.06900 21.81300 25.07100
C  -8.57100 21.86900 23.69200
C  -7.44800 22.79300 23.76700
C  -10.09600 20.92900 25.75200
C  -8.96100 21.14000 22.42300
O  -8.35300 21.16800 21.35000
C  -10.07900 20.18300 22.41600
N  -5.05900 24.84800 23.69700
C  -5.57600 24.19000 22.63300
C  -4.80200 24.55600 21.30400
C  -3.69700 25.51900 21.85900
C  -4.01000 25.66700 23.34200
C  -4.38600 23.25800 20.66600
C  -3.61800 26.88700 21.06500
C  -2.24800 27.11900 20.30100
N  -4.23700 25.96000 26.26000
C  -3.39000 26.75200 25.52000
C  -2.65700 27.56200 26.39400
C  -3.14400 27.26100 27.67700
C  -4.06200 26.24500 27.56400
C  -1.55000 28.44800 25.97900
C  -3.02700 27.66300 29.06200
O  -2.36200 28.55500 29.58800
C  -3.86400 26.67600 29.87000
C  -2.88000 25.90800 30.68400
O  -2.27200 24.90500 30.25500
O  -2.74300 26.33400 31.96400
C  -1.65900 25.83400 32.76100
H  -8.87400 22.13000 27.72200
H  -7.02600 22.92000 21.72200
H  -2.49600 27.22700 23.71000
H  -5.43100 23.57300 30.74300
H  -8.30800 23.72300 29.86200
H  -8.23400 21.53100 30.64400
H  -6.49000 21.79500 31.11700
H  -6.87100 21.19000 29.55700
H  -7.69800 25.28000 31.07000
H  -6.31900 26.20200 30.69100
H  -7.19800 25.42200 33.15600
H  -5.68000 26.12700 32.91500
H  -10.82500 20.62100 25.00200
H  -10.71200 21.34800 26.54800
H  -9.56800 20.06800 26.16000
H  -9.85800 19.44500 23.18700
H  -10.01800 19.63500 21.47500
H  -11.07000 20.62600 22.51600
H  -5.48200 25.15400 20.69600
H  -2.73200 25.01200 21.86600
H  -4.83600 22.32000 20.99100
H  -3.30400 23.22300 20.79300
H  -4.57400 23.33000 19.59500
H  -3.76900 27.73300 21.73400
H  -4.46200 26.90600 20.37500
H  -1.69600 26.19900 20.49200
H  -1.72000 28.02500 20.59900
H  -2.41300 27.19800 19.22600
H  -0.75100 27.85000 25.54200
H  -1.06500 28.86500 26.86200
H  -1.95700 29.20900 25.31400
H  -4.58100 27.31500 30.38400
H  -1.81700 24.81000 33.10100
H  -1.63700 26.52100 33.60700
H  -0.73600 25.77900 32.18500

