158

Mg 16.29300 -1.48100 27.88200
C  15.13400 0.47500 30.50300
C  18.42300 -3.10800 30.03300
C  17.90400 -3.00800 25.29600
C  14.58700 0.43600 25.58800
N  16.69000 -1.22200 30.05400
C  16.15200 -0.41300 30.97000
C  16.79200 -0.58900 32.39000
C  17.86300 -1.62100 32.08600
C  17.63700 -1.97300 30.58500
C  19.36900 -1.32200 32.31300
C  15.73200 -0.96800 33.39500
C  15.73100 -0.13300 34.75100
H  16.94200 0.66600 35.14700
N  17.75700 -3.14200 27.67900
C  18.43700 -3.67600 28.76700
C  19.22400 -4.80900 28.26600
C  19.23400 -4.66600 26.85000
C  18.22200 -3.64500 26.55200
C  20.09300 -5.66600 29.15300
C  20.04300 -5.35000 25.66100
O  19.68500 -5.35200 24.48300
C  21.08100 -6.29400 26.08200
N  16.39600 -1.20800 25.78300
C  17.06200 -2.00500 24.94300
C  16.79300 -1.63500 23.47000
C  15.60900 -0.69000 23.50400
C  15.49800 -0.50300 25.06500
C  18.08000 -1.13400 22.75900
C  14.28100 -1.15300 22.71600
C  13.49500 -0.07000 21.96800
N  14.96900 -0.06700 27.96300
C  14.35600 0.68800 26.94100
C  13.50600 1.67000 27.54100
C  13.75100 1.63600 28.90700
C  14.74900 0.61500 29.14500
C  12.65700 2.68600 26.87900
C  13.48900 2.31000 30.18700
O  12.70600 3.23300 30.45100
C  14.37000 1.55400 31.26300
C  15.21900 2.57900 31.86400
O  16.15500 3.13500 31.29300
O  14.59700 3.02700 32.99600
C  15.16000 4.20400 33.60200
H  19.17900 -3.44400 30.74500
H  18.54100 -3.39900 24.50000
H  14.05900 0.96400 24.79200
H  17.31000 0.34300 32.61500
H  17.66300 -2.57200 32.58000
H  19.45600 -0.61500 33.13800
H  19.81000 -0.94200 31.39100
H  19.90000 -2.19500 32.69300
H  15.86400 -2.01500 33.66600
H  14.74600 -0.79700 32.96300
H  15.44300 -0.75900 35.59600
H  14.96500 0.60200 34.50500
H  20.13700 -6.65600 28.69900
H  19.67100 -5.74500 30.15400
H  21.07400 -5.19100 29.19200
H  20.67800 -7.19000 26.55400
H  21.82100 -5.75300 26.67200
H  21.64600 -6.55800 25.18900
H  16.51000 -2.59300 23.03400
H  15.93300 0.28700 23.14400
H  18.55800 -0.36100 23.35900
H  17.98100 -0.63700 21.79400
H  18.86700 -1.85500 22.53700
H  13.68700 -1.58900 23.52000
H  14.57000 -1.94800 22.02800
H  13.70000 -0.21000 20.90700
H  13.91000 0.84800 22.38500
H  12.41600 -0.21500 22.03100
H  12.83800 2.62600 25.80500
H  12.92400 3.68400 27.22600
H  11.59800 2.44300 26.95500
H  13.78000 1.08000 32.04600
H  14.75200 4.23900 34.61200
H  14.81500 5.05100 33.00900
H  16.24800 4.20300 33.66700
Mg -12.33200 15.97400 41.78700
C  -9.32300 14.24700 41.40600
C  -11.12500 18.62300 40.18200
C  -15.44300 17.16200 41.70600
C  -13.72600 12.81600 42.87300
N  -10.44300 16.29100 40.76500
C  -9.32800 15.52300 40.83900
C  -8.17800 16.15800 40.13500
C  -8.56600 17.66800 40.11400
C  -10.18500 17.55000 40.38600
C  -7.88200 18.59600 41.23800
C  -7.58700 15.53800 38.83300
C  -6.04800 15.74900 38.75600
H  -5.42500 16.29200 37.55900
N  -13.11100 17.79300 41.15700
C  -12.48000 18.78500 40.52600
C  -13.43300 19.80700 40.32200
C  -14.65600 19.44200 40.75400
C  -14.44800 18.05100 41.22100
C  -12.97200 21.12200 39.71100
C  -15.91400 20.28000 40.72300
O  -15.78800 21.45000 40.36800
C  -17.30200 19.81100 41.17500
N  -14.33900 15.09500 42.27900
C  -15.45200 15.82000 42.23200
C  -16.74400 14.97800 42.45100
C  -16.16500 13.50900 42.72400
C  -14.64200 13.81200 42.64300
C  -17.79900 15.40300 43.51400
C  -16.68800 12.47500 41.69300
C  -17.27500 11.11300 42.23300
N  -11.59200 14.00300 42.44500
C  -12.29400 12.86100 42.76900
C  -11.35700 11.70900 42.75000
C  -10.17400 12.26100 42.42400
C  -10.40200 13.57200 42.11700
C  -11.61600 10.32000 43.08400
C  -8.77800 11.96100 42.19800
O  -8.15700 10.95600 42.32200
C  -8.15700 13.24500 41.61000
C  -7.08400 13.58900 42.65400
O  -7.26100 14.01900 43.79200
O  -5.78900 13.44800 42.22900
C  -4.67500 13.94700 43.00800
H  -10.59000 19.44200 39.69600
H  -16.47300 17.52000 41.65400
H  -14.12500 11.83300 43.13000
H  -7.45000 16.00500 40.93200
H  -8.42300 18.05900 39.10700
H  -8.52200 19.05100 41.99400
H  -7.53600 19.48000 40.70300
H  -7.00100 18.20800 41.74800
H  -8.12100 16.07100 38.04700
H  -7.82700 14.47700 38.76600
H  -5.53800 14.79000 38.85300
H  -5.62200 16.35900 39.55300
H  -13.06500 21.02300 38.62900
H  -11.89100 21.20700 39.81500
H  -13.40000 22.07200 40.03300
H  -17.72000 19.04800 40.51800
H  -18.01900 20.63100 41.21500
H  -17.10100 19.40400 42.16500
H  -17.43100 15.04800 41.60800
H  -16.28900 13.13300 43.73900
H  -18.77900 15.56800 43.06500
H  -17.49000 16.38000 43.88700
H  -17.84900 14.70500 44.35000
H  -15.87700 12.23800 41.00400
H  -17.47700 12.89300 41.06800
H  -16.70700 10.37300 41.66900
H  -18.34100 11.05200 42.01400
H  -17.11900 11.03900 43.30900
H  -10.97200 9.55300 42.65400
H  -12.55400 10.05800 42.59500
H  -11.71300 10.17400 44.15900
H  -7.57500 13.06400 40.70700
H  -3.90100 14.29600 42.32400
H  -4.20800 13.09300 43.50000
H  -4.88000 14.75700 43.70700

