158

Mg 6.66800 54.10300 41.49200
C  6.06500 50.58600 41.77300
C  9.87400 53.41900 40.34600
C  7.00300 57.28900 40.78600
C  3.45100 54.58400 42.68300
N  7.72900 52.14300 40.96100
C  7.30100 50.89900 41.14900
C  8.41500 49.92300 40.67100
C  9.66900 50.82600 40.71800
C  9.07300 52.26800 40.63500
C  10.50400 50.57700 41.92900
C  8.02700 49.23000 39.26600
C  8.38100 50.13300 38.04800
H  7.17000 50.44200 37.17800
N  8.21900 55.17300 40.57900
C  9.48800 54.75800 40.29200
C  10.35000 55.86900 39.89300
C  9.53900 57.04000 40.11500
C  8.17200 56.53100 40.49000
C  11.78100 55.85800 39.47800
C  10.10000 58.42700 40.04200
O  11.26200 58.65300 39.74200
C  9.19100 59.67500 40.26900
N  5.33500 55.67900 41.52700
C  5.75600 56.92700 41.26300
C  4.74900 57.99000 41.68900
C  3.64500 57.16500 42.42400
C  4.09000 55.70100 42.09600
C  5.25400 59.21500 42.57200
C  2.07800 57.36700 42.09300
C  1.20900 57.89400 43.23700
N  5.03900 52.92800 42.14600
C  3.80500 53.25800 42.58600
C  3.10400 52.07000 43.06600
C  4.02700 51.01100 42.76000
C  5.15100 51.59400 42.21600
C  1.68500 52.03300 43.57300
C  4.22500 49.60400 42.88100
O  3.39900 48.81100 43.34600
C  5.46400 49.26100 42.13700
C  5.15300 48.45300 40.90800
O  4.22300 48.72900 40.10500
O  5.90600 47.28600 40.92000
C  5.53400 46.24800 40.03200
H  10.96300 53.40800 40.26000
H  7.08500 58.37000 40.65500
H  2.57700 54.82400 43.29200
H  8.60900 49.08800 41.34400
H  10.28900 50.70900 39.82800
H  10.09900 49.74600 42.50800
H  10.41700 51.42300 42.61100
H  11.51900 50.26400 41.68500
H  6.96400 49.00000 39.20000
H  8.53300 48.26400 39.26300
H  9.08100 49.62400 37.38600
H  8.79100 51.10700 38.31800
H  11.75100 56.60200 38.68200
H  12.15200 54.86900 39.20500
H  12.43900 56.15700 40.29400
H  8.41200 59.71800 39.50800
H  9.82900 60.54600 40.11600
H  8.74000 59.76700 41.25700
H  4.30300 58.37000 40.77000
H  3.83900 57.36700 43.47700
H  4.56400 59.38900 43.39800
H  5.34100 60.09600 41.93600
H  6.21200 59.04600 43.06300
H  1.65800 56.43100 41.72700
H  2.19200 58.04200 41.24400
H  1.72300 57.71700 44.18300
H  0.21900 57.44500 43.16700
H  1.10100 58.97800 43.21400
H  0.91800 52.03100 42.79900
H  1.57900 52.87800 44.25400
H  1.65400 51.12600 44.17700
H  6.10000 48.63800 42.76600
H  5.99300 46.41900 39.05900
H  4.47000 46.19900 39.80400
H  5.91800 45.29700 40.40200
Mg -5.11700 25.41500 26.02100
C  -3.73000 26.83900 28.79600
C  -6.57100 23.03300 28.00100
C  -6.47200 24.06500 23.32700
C  -3.26600 27.70300 24.08800
N  -5.16700 25.08300 28.18900
C  -4.65200 25.88900 29.15900
C  -5.06200 25.38300 30.55800
C  -5.70200 23.98800 30.21200
C  -5.83600 24.01000 28.68400
C  -4.99700 22.74800 30.84700
C  -6.02800 26.30000 31.23800
C  -6.53500 25.80300 32.64500
H  -5.64000 24.90300 33.49800
N  -6.44100 23.81400 25.69000
C  -6.88200 22.90000 26.66300
C  -7.84800 22.10100 26.07400
C  -7.77300 22.34700 24.69300
C  -6.80500 23.40000 24.49100
C  -8.79300 21.31200 26.90100
C  -8.65900 21.68700 23.68900
O  -8.70000 22.12500 22.53600
C  -9.53600 20.46900 23.95600
N  -4.76600 25.75400 24.04300
C  -5.52300 25.06200 23.09200
C  -5.43500 25.70500 21.72600
C  -4.49000 26.95000 22.02800
C  -4.03600 26.81800 23.43800
C  -5.09900 24.86200 20.50400
C  -5.16100 28.36300 21.65400
C  -4.37900 29.11700 20.57900
N  -3.64700 26.86000 26.34900
C  -3.02400 27.73400 25.48700
C  -2.17100 28.67500 26.16900
C  -2.35100 28.40200 27.52700
C  -3.32600 27.25600 27.57100
C  -1.46300 29.80900 25.56000
C  -2.02100 28.71900 28.88400
O  -1.15100 29.41200 29.30800
C  -2.93900 27.76500 29.78900
C  -2.18300 27.02800 30.79600
O  -1.50300 26.06500 30.61300
O  -2.36400 27.67700 32.01700
C  -1.68400 26.90800 33.07400
H  -7.07900 22.41300 28.74200
H  -7.01100 23.74800 22.43200
H  -2.77400 28.42000 23.42800
H  -4.14800 25.30700 31.14800
H  -6.78100 23.94400 30.36100
H  -5.66400 22.35600 31.61500
H  -4.11700 22.95300 31.45700
H  -4.74400 21.98300 30.11300
H  -6.88300 26.37900 30.56700
H  -5.38400 27.17800 31.30000
H  -7.43300 25.27600 32.32300
H  -6.76100 26.64900 33.29500
H  -9.04400 21.83600 27.82300
H  -8.40800 20.30700 27.07600
H  -9.74900 21.11400 26.41500
H  -9.00100 19.85200 24.67900
H  -9.67800 19.88700 23.04600
H  -10.56900 20.70000 24.21600
H  -6.45900 25.98900 21.48200
H  -3.57100 26.65300 21.52300
H  -4.75200 23.88200 20.83100
H  -4.32800 25.34800 19.90600
H  -5.96900 24.66600 19.87800
H  -5.18100 29.05800 22.49400
H  -6.19000 28.21400 21.32400
H  -5.05100 29.73700 19.98500
H  -3.69400 28.47200 20.02800
H  -3.72100 29.82500 21.08300
H  -2.04400 30.03800 24.66700
H  -0.41300 29.55100 25.42400
H  -1.56400 30.71600 26.15700
H  -3.63500 28.46300 30.25500
H  -1.69200 25.82100 33.00500
H  -2.18500 27.03600 34.03300
H  -0.64500 27.22000 33.17500

