158

Mg -2.11600 17.36400 25.73300
C  -2.48900 14.90000 28.35400
C  -2.98000 19.73500 27.90000
C  -2.10900 19.35700 23.14400
C  -2.54900 14.57700 23.50700
N  -2.32500 17.35400 27.96100
C  -2.41100 16.24100 28.79600
C  -2.44900 16.73400 30.29300
C  -2.86400 18.28100 30.12600
C  -2.74800 18.49800 28.57800
C  -4.06700 18.81100 30.83200
C  -1.14300 16.43500 31.13200
C  -0.72000 17.29100 32.31100
H  -0.35800 16.68000 33.66900
N  -2.24500 19.30100 25.57700
C  -2.60500 20.14100 26.63800
C  -2.68000 21.47800 26.14600
C  -2.50600 21.46300 24.73100
C  -2.25800 19.96500 24.39300
C  -2.91400 22.65200 27.13200
C  -2.68700 22.59300 23.73500
O  -2.61100 22.39900 22.50400
C  -3.03600 23.95500 24.28100
N  -2.10300 16.95100 23.60300
C  -2.14300 18.02600 22.76300
C  -2.07600 17.59200 21.29300
C  -2.43000 16.10700 21.41200
C  -2.26300 15.83700 22.96800
C  -2.81400 18.50100 20.30100
C  -1.58100 15.15300 20.47900
C  -2.48900 14.12000 19.73600
N  -2.36200 15.16500 25.79100
C  -2.51500 14.16600 24.83100
C  -2.69700 12.86600 25.43600
C  -2.65100 13.12100 26.80900
C  -2.42400 14.51900 26.98300
C  -2.83200 11.59900 24.73000
C  -2.78200 12.57400 28.10400
O  -3.05700 11.42100 28.45100
C  -2.63600 13.68600 29.16000
C  -1.41600 13.33900 30.05400
O  -0.28400 13.75600 29.91900
O  -1.68000 12.49500 31.11900
C  -0.56700 12.11000 32.00200
H  -3.20900 20.45700 28.68700
H  -1.91800 20.11500 22.38200
H  -2.75800 13.81300 22.75500
H  -3.23900 16.09400 30.68600
H  -2.08300 18.87400 30.60300
H  -4.74700 19.12600 30.04100
H  -3.67600 19.57200 31.50700
H  -4.38200 17.97100 31.45100
H  -0.31800 16.59100 30.43700
H  -1.26200 15.41700 31.50400
H  -1.63000 17.85200 32.52600
H  0.11700 17.90500 31.97900
H  -2.97900 22.50300 28.21000
H  -3.70200 23.34600 26.83900
H  -2.03900 23.29900 27.06600
H  -4.06900 23.99300 24.62600
H  -2.83200 24.66200 23.47700
H  -2.38400 24.21600 25.11500
H  -1.01800 17.51500 21.04300
H  -3.49800 15.91300 21.30800
H  -3.36400 19.28200 20.82500
H  -3.49700 17.82200 19.79100
H  -2.01100 18.84500 19.64800
H  -0.74800 14.74400 21.05200
H  -1.13300 15.75700 19.69100
H  -2.19500 13.92100 18.70600
H  -3.55200 14.32800 19.62000
H  -2.49200 13.13100 20.19500
H  -2.93900 10.82500 25.49000
H  -1.96200 11.34600 24.12300
H  -3.80900 11.59400 24.24600
H  -3.54000 13.63300 29.76600
H  -0.33000 13.01300 32.56300
H  0.32400 11.84400 31.43300
H  -0.91800 11.45000 32.79600
Mg 9.90900 47.04400 26.41700
C  7.78300 47.42500 29.23200
C  12.43300 48.36800 28.16100
C  11.66200 46.85900 23.67000
C  6.87400 46.47500 24.48100
N  10.11100 47.84100 28.50800
C  9.14200 47.74100 29.50400
C  9.79000 48.25200 30.82900
C  11.06200 49.04000 30.37000
C  11.22000 48.37300 28.96100
C  10.94700 50.59600 30.28000
C  10.12100 47.05200 31.79700
C  9.45200 47.29900 33.21100
H  9.29500 46.04900 34.06600
N  11.78600 47.35500 25.99800
C  12.75300 47.80700 26.86200
C  14.07700 47.91300 26.25700
C  13.87400 47.55100 24.89500
C  12.38600 47.26200 24.78400
C  15.28200 48.19800 27.01000
C  14.87600 47.22800 23.87800
O  14.55200 47.15300 22.70400
C  16.40400 47.15600 24.17400
N  9.27200 46.75200 24.33800
C  10.25700 46.69600 23.43900
C  9.63500 46.79200 22.06400
C  8.15300 46.37400 22.24700
C  8.06600 46.53000 23.76700
C  9.80800 48.20500 21.42700
C  7.77500 44.99800 21.65600
C  8.68400 43.75800 21.97000
N  7.84700 46.94200 26.71300
C  6.74700 46.66300 25.83200
C  5.50800 46.53000 26.60100
C  5.84500 46.85200 27.94200
C  7.29000 47.10800 27.92500
C  4.08400 46.37300 25.97300
C  5.28100 47.10000 29.29400
O  4.13100 47.16800 29.74500
C  6.58900 47.31000 30.17600
C  6.68500 46.15900 31.13200
O  7.37800 45.14900 30.84000
O  6.00800 46.35000 32.34600
C  5.83500 45.05600 33.09900
H  13.25600 48.80700 28.72800
H  12.31300 46.86500 22.79300
H  5.99800 46.20600 23.88700
H  9.04100 48.90900 31.27100
H  11.96400 48.85200 30.95300
H  11.65800 51.02600 30.98600
H  9.93000 50.91100 30.51100
H  11.11100 51.03400 29.29600
H  11.20500 47.06300 31.91700
H  9.78400 46.10000 31.38800
H  8.51300 47.77000 32.92100
H  9.97100 48.01800 33.84600
H  15.14800 48.15800 28.09100
H  15.73900 49.17300 26.84300
H  16.05300 47.43400 26.90800
H  16.72900 47.93600 24.86400
H  16.93200 47.19300 23.22200
H  16.59100 46.12400 24.47000
H  10.19600 46.15700 21.37800
H  7.61200 47.23700 21.85800
H  10.79600 48.57200 21.70600
H  9.07400 48.94800 21.73900
H  9.86300 48.04600 20.35000
H  7.76300 45.00500 20.56600
H  6.80400 44.67400 22.02900
H  9.34400 43.93800 22.81900
H  9.22700 43.48100 21.06600
H  7.94700 43.06200 22.37000
H  3.59700 45.42300 26.19400
H  4.15900 46.52900 24.89700
H  3.44100 47.16700 26.35200
H  6.43200 48.16200 30.83600
H  5.63300 45.55000 34.04900
H  6.74200 44.47500 33.26700
H  4.95000 44.52000 32.75500

