158

Mg 54.36000 25.52500 45.85900
C  51.87700 27.72100 44.45500
C  52.81800 22.91400 44.16200
C  57.20300 23.66900 46.25400
C  55.91400 28.19300 47.25300
N  52.68300 25.34800 44.31700
C  51.84400 26.34100 44.00500
C  50.75800 25.77400 42.95500
C  50.84800 24.21000 43.10100
C  52.11300 24.10200 43.90800
C  49.63700 23.62300 43.90400
C  50.96900 26.25200 41.41100
C  52.30700 26.59600 40.93500
H  52.82200 25.69600 39.75500
N  54.92100 23.51000 45.36800
C  54.11700 22.62600 44.69200
C  54.75400 21.30200 44.66900
C  55.95000 21.46000 45.39700
C  56.05900 22.94200 45.76300
C  54.07400 20.04800 44.18000
C  56.95300 20.33300 45.70300
O  56.80700 19.23300 45.22900
C  58.09800 20.45900 46.62300
N  56.39000 25.90800 46.41100
C  57.36300 24.95600 46.64400
C  58.67700 25.66400 47.05800
C  58.13900 27.07400 47.52800
C  56.66600 27.01400 47.16700
C  59.62600 24.93800 48.08000
C  58.89700 28.34500 46.96000
C  59.03800 28.69300 45.52100
N  53.94200 27.58800 45.96400
C  54.66700 28.53200 46.63200
C  53.95100 29.84100 46.57900
C  52.79700 29.54200 45.73600
C  52.92600 28.20400 45.32700
C  54.38600 31.10500 47.22400
C  51.61600 30.10200 45.06600
O  51.08200 31.20600 45.07800
C  50.92000 28.92400 44.30400
C  50.77200 29.24000 42.89200
O  51.71100 29.64400 42.23000
O  49.45500 29.06300 42.49100
C  49.12700 29.65100 41.17600
H  52.31100 21.99400 43.86200
H  58.12900 23.09200 46.21400
H  56.27700 29.13000 47.68000
H  49.83000 26.25000 43.27100
H  50.96200 23.71200 42.13800
H  49.97600 23.19700 44.84900
H  49.14400 22.83400 43.33600
H  48.94000 24.41600 44.17700
H  50.35200 27.13800 41.26500
H  50.51000 25.55300 40.71300
H  53.02600 26.52300 41.75200
H  52.20000 27.60500 40.53800
H  54.78500 19.30300 43.82300
H  53.41800 20.26100 43.33600
H  53.57600 19.48700 44.97000
H  58.52000 19.45900 46.72300
H  57.67100 20.86900 47.53800
H  58.88000 21.09800 46.21400
H  59.27200 25.87000 46.16800
H  58.06500 27.17100 48.61100
H  59.89700 25.46900 48.99300
H  60.57800 24.68400 47.61500
H  59.23800 23.98900 48.44900
H  59.91100 28.05500 47.23700
H  58.61000 29.28000 47.44100
H  58.47600 27.93800 44.97000
H  60.09700 28.57800 45.29000
H  58.71100 29.71600 45.34000
H  53.62000 31.87800 47.15700
H  55.31400 31.43100 46.75500
H  54.53400 30.86700 48.27800
H  49.98500 28.72500 44.82800
H  49.05800 30.73700 41.24000
H  48.14000 29.33200 40.84100
H  49.90600 29.47800 40.43400
Mg 47.65700 25.81700 29.91500
C  48.73500 28.19100 32.12100
C  46.42400 23.86400 32.39600
C  47.05900 23.34200 27.70600
C  49.27900 27.56100 27.32800
N  47.56300 26.08900 31.95200
C  47.98100 27.16200 32.67500
C  47.46000 27.16300 34.13100
C  46.94200 25.65400 34.24200
C  46.95700 25.15800 32.76200
C  47.82800 24.71200 35.17700
C  46.26500 28.08300 34.48100
C  45.77700 28.18300 35.94400
H  46.70500 27.66100 37.06800
N  46.78900 23.83800 30.03100
C  46.32200 23.22700 31.17700
C  45.90200 21.86900 30.86600
C  45.80300 21.83100 29.49200
C  46.52000 23.06200 28.95100
C  45.21200 21.05100 31.91200
C  45.23600 20.75100 28.62100
O  45.31100 20.71900 27.35800
C  44.58100 19.58800 29.26700
N  48.06500 25.54000 27.80700
C  47.71100 24.45000 27.14900
C  47.94700 24.55000 25.66500
C  48.59700 25.93700 25.46900
C  48.59100 26.39800 26.94700
C  48.81000 23.35400 25.10500
C  47.85600 26.86900 24.43200
C  48.71900 27.34500 23.29900
N  48.77400 27.56100 29.71100
C  49.39900 28.13600 28.59600
C  50.01300 29.40500 29.07600
C  49.69200 29.49900 30.40100
C  49.06100 28.30900 30.74600
C  50.68500 30.45100 28.20900
C  49.78700 30.37800 31.58500
O  50.24200 31.52900 31.79700
C  49.26000 29.50600 32.81600
C  50.34500 29.31300 33.82900
O  51.24000 28.54000 33.68000
O  50.01400 30.01200 34.93700
C  50.74600 29.66400 36.20700
H  46.03000 23.20100 33.16900
H  46.93900 22.52000 26.99700
H  49.66000 28.11900 26.47000
H  48.23300 27.30900 34.88500
H  45.94600 25.68000 34.68300
H  48.26300 23.86400 34.64900
H  47.06300 24.17000 35.73400
H  48.61600 25.15200 35.78800
H  45.41300 27.76800 33.87800
H  46.56500 29.11900 34.32500
H  44.86700 27.59300 36.06100
H  45.53700 29.24500 35.97600
H  44.13700 20.97500 31.74700
H  45.21400 21.39400 32.94700
H  45.70700 20.08400 31.99400
H  45.18600 19.10000 30.03200
H  44.18800 18.88800 28.52900
H  43.73900 19.98700 29.83300
H  46.92300 24.54300 25.29100
H  49.65300 25.78300 25.24500
H  48.35100 22.39600 25.34800
H  49.78400 23.38800 25.59200
H  48.93600 23.57000 24.04400
H  47.50300 27.80100 24.87300
H  46.94800 26.31200 24.20000
H  48.19400 27.08200 22.38100
H  49.70800 26.89500 23.38900
H  48.75600 28.43400 23.30500
H  51.03900 29.98300 27.29000
H  51.55900 30.88400 28.69500
H  50.07400 31.26800 27.82600
H  48.38100 29.97100 33.26200
H  51.38800 30.47900 36.54100
H  51.46400 28.85000 36.10200
H  50.00900 29.37100 36.95500

