158

Mg 17.54600 -1.07300 27.53500
C  16.14300 0.85200 30.15100
C  19.33000 -2.75000 29.75100
C  18.77200 -2.72200 24.92700
C  15.81700 1.15900 25.22100
N  17.65800 -0.81000 29.73900
C  17.06100 -0.05300 30.68600
C  17.59700 -0.23500 32.11400
C  18.68300 -1.26800 31.77100
C  18.57700 -1.65700 30.28000
C  20.08100 -0.65000 32.17100
C  16.66400 -0.75100 33.19500
C  16.94200 -0.14000 34.61100
H  18.37700 0.07700 35.14900
N  18.73200 -2.65600 27.36500
C  19.36600 -3.22800 28.38700
C  20.00200 -4.47500 27.98300
C  19.94900 -4.45300 26.56200
C  19.11500 -3.28100 26.24000
C  20.73100 -5.40100 28.87200
C  20.48200 -5.41800 25.47100
O  20.20400 -5.30900 24.27600
C  21.31800 -6.66000 25.94700
N  17.32200 -0.82000 25.34400
C  17.98700 -1.63800 24.53500
C  17.87200 -1.19800 23.11500
C  16.83000 -0.04300 23.16000
C  16.61700 0.17600 24.62800
C  19.14300 -0.96400 22.27500
C  15.49000 -0.28800 22.38400
C  15.46000 0.03800 20.91400
N  16.19300 0.52200 27.61500
C  15.57500 1.30200 26.58200
C  14.57800 2.20600 27.31100
C  14.75700 1.98100 28.67000
C  15.80400 1.02700 28.83000
C  13.75000 3.25600 26.63700
C  14.42200 2.60000 29.92600
O  13.66900 3.48500 30.24000
C  15.25900 1.77600 30.93800
C  16.04200 2.84400 31.68900
O  17.08000 3.36800 31.32200
O  15.42500 2.97000 32.86400
C  16.09200 3.94100 33.75700
H  19.94800 -3.16400 30.55000
H  19.19800 -3.26100 24.07800
H  15.18900 1.76900 24.56800
H  17.92300 0.78900 32.29800
H  18.66300 -2.20700 32.32300
H  20.65600 -0.49300 31.25800
H  20.57900 -1.42400 32.75500
H  19.95300 0.29300 32.70300
H  16.79100 -1.83000 33.29100
H  15.66300 -0.51300 32.83500
H  16.52700 -0.90700 35.26500
H  16.38000 0.74500 34.91200
H  21.74000 -5.33800 28.46500
H  20.31600 -6.40700 28.81400
H  20.68600 -5.08000 29.91300
H  22.35400 -6.44500 26.20700
H  21.38200 -7.32900 25.08900
H  20.87200 -7.10900 26.83500
H  17.36200 -2.02700 22.62500
H  17.33400 0.85200 22.79400
H  20.00000 -1.06800 22.94100
H  19.21900 -0.00400 21.76500
H  19.19000 -1.81500 21.59500
H  14.73300 0.24800 22.95700
H  15.25100 -1.35100 22.41600
H  14.71200 0.79400 20.67500
H  15.22700 -0.90100 20.41100
H  16.46100 0.25400 20.54100
H  13.63200 3.05600 25.57200
H  14.25900 4.21500 26.73000
H  12.72100 3.33100 26.98900
H  14.58900 1.40900 31.71400
H  15.75300 3.83600 34.78700
H  16.02900 4.99400 33.48200
H  17.16400 3.76600 33.66000
Mg 47.47300 16.23800 29.23700
C  44.93200 15.94400 31.69000
C  49.16900 18.27700 31.31700
C  49.56700 17.07100 26.54300
C  45.15600 15.02100 26.89500
N  47.05300 16.95300 31.27900
C  45.98300 16.71400 32.13100
C  46.32200 17.24800 33.57700
C  47.52100 18.25800 33.30100
C  47.91000 17.85800 31.84400
C  47.14500 19.81100 33.50200
C  46.49000 16.12900 34.59200
C  45.41800 16.04100 35.76200
H  45.11900 17.20600 36.64300
N  49.23900 17.26200 29.11000
C  49.80300 18.01000 30.06400
C  51.07900 18.51000 29.59600
C  51.21800 18.16600 28.23300
C  50.02100 17.42800 27.89600
C  52.14900 19.15400 30.53100
C  52.32100 18.50700 27.27100
O  52.25400 18.09100 26.09000
C  53.41600 19.53500 27.71800
N  47.33200 16.17400 27.03800
C  48.30000 16.57200 26.19000
C  47.90300 16.26300 24.70800
C  46.61500 15.38600 24.83300
C  46.33200 15.54200 26.38100
C  47.70100 17.55600 23.85500
C  46.70800 13.97600 24.11000
C  46.95000 12.68700 24.99600
N  45.56100 15.38100 29.29100
C  44.74400 14.97800 28.25700
C  43.50900 14.44100 28.78300
C  43.53400 14.83200 30.17000
C  44.77100 15.42100 30.38100
C  42.43800 13.72500 27.98900
C  42.78500 14.88000 31.36400
O  41.62300 14.56800 31.53400
C  43.68700 15.58000 32.44500
C  42.89900 16.74500 32.87000
O  42.45600 17.64900 32.11500
O  42.53200 16.63600 34.16300
C  41.64400 17.71100 34.73000
H  49.65900 18.84800 32.10700
H  50.15000 17.32800 25.65600
H  44.50100 14.58800 26.13700
H  45.41000 17.81700 33.75900
H  48.37400 17.95700 33.90800
H  46.10100 20.01000 33.74500
H  47.34400 20.29200 32.54400
H  47.79700 20.28000 34.23900
H  47.41800 16.24600 35.15300
H  46.52000 15.20000 34.02200
H  45.93500 15.32600 36.40200
H  44.53800 15.48800 35.43300
H  52.24900 20.20600 30.26300
H  53.14800 18.71900 30.49800
H  51.77600 19.12000 31.55400
H  53.03400 20.49900 28.05400
H  53.95900 19.79000 26.80800
H  54.08800 19.04100 28.42000
H  48.77100 15.85100 24.19200
H  45.83800 15.92500 24.29100
H  48.25100 17.66200 22.92000
H  48.04700 18.36700 24.49700
H  46.67700 17.74500 23.53200
H  47.48700 13.99900 23.34800
H  45.76100 13.83000 23.59100
H  47.69100 12.12800 24.42500
H  46.04500 12.10800 25.18000
H  47.30500 12.96300 25.98900
H  42.65900 12.65700 27.97200
H  42.46600 14.13300 26.97900
H  41.42900 13.86600 28.37700
H  43.83500 14.81400 33.20700
H  41.05800 18.22500 33.96800
H  42.35200 18.45200 35.10000
H  40.96300 17.26200 35.45200

