158

Mg 35.93000 0.94400 29.77000
C  33.85600 2.34700 32.24700
C  38.48600 0.71900 32.05600
C  37.94000 0.33800 27.24400
C  33.32200 1.62000 27.32700
N  36.11600 1.47800 31.93600
C  35.13600 1.90300 32.81500
C  35.64300 1.98800 34.25900
C  37.23500 1.76000 34.07400
C  37.35100 1.28500 32.60400
C  38.19000 2.79900 34.59100
C  34.86400 0.90800 35.09300
C  34.12100 1.38800 36.30800
H  34.62800 2.65300 36.96900
N  37.89300 0.40600 29.68600
C  38.77600 0.35300 30.72200
C  40.00900 -0.15700 30.23200
C  39.88100 -0.22200 28.80900
C  38.51400 0.25900 28.46800
C  41.27000 -0.33300 31.10000
C  40.96300 -0.69900 27.79800
O  40.66400 -0.66100 26.62000
C  42.40300 -1.01200 28.22300
N  35.59100 0.85900 27.57600
C  36.65600 0.57100 26.78000
C  36.32600 0.77200 25.29800
C  34.72900 0.86100 25.33000
C  34.52700 1.14000 26.80000
C  36.97300 2.06100 24.77300
C  33.92700 -0.41200 24.78600
C  33.28100 -0.23300 23.44700
N  34.06300 1.86600 29.73800
C  33.07100 2.08000 28.64400
C  31.87300 2.51500 29.23800
C  32.10500 2.72100 30.60300
C  33.45300 2.30200 30.88000
C  30.62400 2.91600 28.53900
C  31.40700 3.02200 31.82900
O  30.24600 3.38400 31.94500
C  32.53200 2.85800 32.93300
C  32.66900 4.23100 33.66800
O  33.31700 5.16400 33.24100
O  31.83700 4.25400 34.77100
C  31.74100 5.51900 35.46100
H  39.24700 0.73500 32.83900
H  38.65400 0.16000 26.43700
H  32.44300 1.62600 26.67900
H  35.56500 3.01300 34.62000
H  37.48900 0.81100 34.54700
H  37.61400 3.60900 35.03800
H  38.87500 3.17400 33.83000
H  38.81200 2.36000 35.37200
H  35.62500 0.21300 35.44700
H  34.16900 0.51600 34.35000
H  33.86200 0.60500 37.02100
H  33.15700 1.70800 35.91300
H  41.05200 0.00800 32.11200
H  42.12300 0.24500 30.74600
H  41.59800 -1.37200 31.14300
H  42.88500 -1.08700 27.24800
H  42.44900 -1.90300 28.84800
H  42.86600 -0.16500 28.73000
H  36.77000 -0.04400 24.72900
H  34.39800 1.74500 24.78500
H  37.67300 2.41800 25.52900
H  36.33000 2.89400 24.48900
H  37.50000 1.77000 23.86500
H  33.29800 -0.70500 25.62600
H  34.63800 -1.22300 24.62800
H  33.08600 -1.13800 22.87200
H  33.75000 0.59000 22.90700
H  32.24200 0.02800 23.65100
H  30.57000 2.62900 27.48900
H  30.43200 3.98900 28.57200
H  29.74500 2.41100 28.93800
H  32.12800 2.05200 33.54600
H  32.74200 5.85000 35.73700
H  31.11900 5.31400 36.33300
H  31.33400 6.25000 34.76300
Mg 30.22400 59.10400 40.40600
C  27.48000 56.73800 39.58300
C  32.34800 56.67700 39.41200
C  32.44900 61.54500 40.23800
C  27.69600 61.35300 41.09200
N  29.90100 56.96000 39.53500
C  28.78300 56.20200 39.36800
C  29.15500 54.81300 38.73700
C  30.66500 54.71100 39.17700
C  31.03800 56.21500 39.39700
C  31.10900 53.69300 40.27700
C  29.01800 54.71800 37.23800
C  28.18000 53.49800 36.77100
H  27.54400 53.61600 35.36500
N  32.26000 59.12500 39.89900
C  32.96700 57.99100 39.51500
C  34.38500 58.35300 39.45200
C  34.49300 59.78100 39.67600
C  33.10200 60.24600 39.98000
C  35.39900 57.38400 39.12700
C  35.73500 60.68200 39.50700
O  36.86800 60.20000 39.31100
C  35.65300 62.19300 39.60800
N  30.10000 61.15400 40.50700
C  31.17900 61.99300 40.50800
C  30.81600 63.43600 40.73100
C  29.29400 63.40400 40.96800
C  28.94400 61.90500 40.85300
C  31.57100 63.95000 42.02700
C  28.45700 64.24900 39.98000
C  27.56100 65.29200 40.63100
N  28.00300 59.10900 40.45200
C  27.19300 60.07300 40.80700
C  25.77600 59.62300 40.77400
C  25.87000 58.40300 40.16800
C  27.25800 58.08300 40.07400
C  24.45800 60.35400 41.04400
C  25.12700 57.32000 39.60100
O  23.94000 57.23100 39.37100
C  26.11400 56.14300 39.30300
C  25.77500 55.07300 40.18400
O  25.70600 55.21000 41.40100
O  25.62500 53.97200 39.53100
C  25.46500 52.71300 40.30000
H  33.07700 55.89200 39.19900
H  33.12600 62.39900 40.30600
H  26.93700 62.06500 41.42300
H  28.58400 54.06000 39.28100
H  31.28700 54.35600 38.35500
H  31.83600 52.96600 39.91400
H  30.29400 53.17000 40.77800
H  31.75800 54.31900 40.89100
H  29.96600 54.78800 36.70500
H  28.54600 55.65100 36.93100
H  27.32600 53.38600 37.43900
H  28.75900 52.59200 36.94900
H  36.31600 57.49500 39.70500
H  35.55200 57.47500 38.05100
H  35.11100 56.35400 39.33600
H  34.80700 62.56800 39.03200
H  36.57300 62.70400 39.32300
H  35.42300 62.29500 40.66900
H  31.02300 63.97300 39.80600
H  29.02800 63.62900 42.00100
H  30.91900 64.39500 42.77800
H  32.27600 64.70400 41.67800
H  32.21600 63.14400 42.37700
H  27.78200 63.67900 39.34100
H  29.20300 64.79000 39.39800
H  28.02700 66.26400 40.46700
H  27.44100 65.13500 41.70300
H  26.56000 65.37100 40.20800
H  23.85400 60.54000 40.15600
H  24.51600 61.24900 41.66300
H  23.87900 59.69800 41.69500
H  26.00100 55.64500 38.34000
H  26.38500 52.37700 40.77800
H  25.17900 51.95800 39.56800
H  24.66300 52.86200 41.02300

