158

Mg 17.52800 -2.28100 27.26500
C  16.68700 -0.40500 30.07400
C  19.47900 -4.23900 29.32800
C  18.93600 -3.79600 24.41800
C  16.02200 0.08700 25.22100
N  18.17100 -2.09800 29.43100
C  17.53000 -1.46200 30.44300
C  17.97900 -1.90200 31.86000
C  18.98900 -3.06800 31.54000
C  18.86300 -3.18300 29.99100
C  20.39500 -2.65200 31.97200
C  16.79700 -2.32100 32.74200
C  16.91100 -1.73900 34.15300
H  18.23100 -1.41800 34.76900
N  18.82500 -3.86600 26.89700
C  19.54000 -4.54100 27.89300
C  20.35900 -5.64500 27.26700
C  20.07700 -5.62200 25.86700
C  19.25300 -4.39000 25.65400
C  21.14700 -6.63200 28.05300
C  20.53700 -6.53500 24.73000
O  20.10200 -6.35900 23.57000
C  21.37500 -7.78700 24.99100
N  17.38700 -1.99700 25.07800
C  18.15300 -2.64500 24.15600
C  17.98000 -1.95200 22.76300
C  17.02200 -0.77900 23.05900
C  16.79600 -0.92600 24.54800
C  19.38200 -1.61200 22.13600
C  15.72200 -0.67000 22.15600
C  14.56100 -1.51500 22.71700
N  16.39300 -0.65000 27.51100
C  15.78200 0.20600 26.61900
C  15.00000 1.21200 27.33800
C  15.39500 0.98300 28.66300
C  16.27500 -0.10400 28.73800
C  14.02900 2.15200 26.67100
C  15.09500 1.47900 30.03200
O  14.25500 2.30500 30.40700
C  15.97600 0.59800 30.98600
C  16.85000 1.42800 31.85500
O  17.88900 1.94900 31.52100
O  16.42100 1.51900 33.14400
C  17.12500 2.61700 33.91500
H  20.08600 -4.92100 29.92600
H  19.43000 -4.22800 23.54600
H  15.68700 0.86300 24.52900
H  18.38900 -0.99800 32.31100
H  18.85700 -4.00100 32.08800
H  21.00700 -2.80900 31.08400
H  20.66900 -3.26600 32.83000
H  20.50300 -1.60400 32.24900
H  16.65200 -3.39700 32.83500
H  15.94200 -1.83100 32.27500
H  16.31600 -2.39800 34.78500
H  16.28100 -0.85500 34.05400
H  20.50400 -7.46100 28.34700
H  21.52400 -6.14600 28.95300
H  21.97300 -7.11500 27.53100
H  20.87400 -8.48200 25.66500
H  22.32500 -7.44100 25.39600
H  21.66600 -8.21300 24.03100
H  17.45600 -2.71800 22.19000
H  17.45600 0.19900 22.85500
H  19.55200 -2.34900 21.35100
H  20.09100 -1.65500 22.96300
H  19.42000 -0.60900 21.71200
H  15.97700 -0.98200 21.14300
H  15.33300 0.34600 22.10700
H  13.86700 -0.79800 23.15700
H  14.84800 -2.29400 23.42300
H  14.00900 -1.92700 21.87300
H  13.56100 1.61500 25.84600
H  14.57900 3.00400 26.27100
H  13.26200 2.41200 27.40100
H  15.27800 0.10900 31.66500
H  16.64400 2.84000 34.86700
H  17.09000 3.52800 33.31700
H  18.17100 2.31700 33.97300
Mg 45.96400 44.37300 43.33800
C  42.54300 43.52000 42.92600
C  46.75200 41.04200 42.51800
C  49.19100 45.24800 43.16100
C  44.96700 47.78700 43.23700
N  44.75000 42.47600 42.87900
C  43.40500 42.40400 42.72900
C  42.95600 41.01000 42.35600
C  44.31300 40.19600 42.52400
C  45.39500 41.34400 42.66800
C  44.35400 39.18700 43.75000
C  42.42200 40.85400 40.92400
C  42.97800 41.91500 39.86300
H  42.60100 41.69200 38.33000
N  47.75800 43.19100 42.96800
C  47.87300 41.85200 42.68600
C  49.23300 41.50100 42.63600
C  50.02800 42.72700 42.76700
C  49.03400 43.80900 42.95700
C  49.70500 40.06900 42.25500
C  51.52300 42.80500 42.65000
O  52.14400 41.76400 42.41700
C  52.29600 44.02100 42.59700
N  46.94300 46.27900 42.98200
C  48.26000 46.29900 43.28400
C  48.71000 47.76100 43.24400
C  47.45500 48.55300 43.49900
C  46.35000 47.49200 43.22400
C  49.88700 48.07100 44.21500
C  47.32700 49.91200 42.70400
C  47.77100 51.19600 43.38400
N  44.19600 45.44400 43.30000
C  43.98400 46.77100 43.17200
C  42.54800 47.04100 43.07900
C  41.96700 45.78900 43.07200
C  43.01000 44.77800 43.10600
C  41.87000 48.35500 42.96000
C  40.69000 45.09800 43.04100
O  39.54200 45.53400 42.99200
C  41.00200 43.61900 42.93600
C  40.53600 42.90900 44.13700
O  39.84300 41.90800 44.23900
O  40.89500 43.58200 45.26100
C  40.46100 43.07800 46.61700
H  46.92400 39.96600 42.44200
H  50.21600 45.62600 43.16400
H  44.56200 48.80100 43.24600
H  42.25500 40.59900 43.08200
H  44.60300 39.66200 41.61900
H  44.92700 38.29100 43.51000
H  43.31900 38.91300 43.95800
H  44.75000 39.66100 44.64700
H  41.34400 41.01300 40.88600
H  42.69900 39.92500 40.42500
H  44.04600 42.10600 39.96500
H  42.59500 42.87100 40.21900
H  50.41300 39.98800 41.43100
H  48.89600 39.37700 42.01800
H  50.25700 39.74300 43.13700
H  51.84500 44.76800 41.94400
H  53.31200 43.76700 42.29500
H  52.37800 44.31100 43.64500
H  49.07100 47.90700 42.22600
H  47.30000 48.67800 44.57100
H  50.79100 48.03600 43.60700
H  49.95300 47.27800 44.96100
H  49.80500 49.03000 44.72700
H  46.27900 50.09600 42.47000
H  47.94500 49.85900 41.80800
H  46.91200 51.85300 43.24800
H  48.69000 51.64700 43.00800
H  47.98100 50.96800 44.42900
H  42.18800 49.20200 43.56900
H  40.81600 48.28400 43.22900
H  41.76700 48.75900 41.95300
H  40.47200 43.17700 42.09100
H  41.10300 42.25400 46.93000
H  39.40800 42.79600 46.59700
H  40.62300 43.87800 47.33900

