158

Mg 23.33400 -6.29400 44.81600
C  25.58500 -3.69000 43.92900
C  20.85700 -4.57200 43.12100
C  21.52400 -9.12700 44.67200
C  25.98800 -7.92400 46.29600
N  23.27100 -4.39200 43.54500
C  24.30200 -3.51000 43.41300
C  23.71700 -2.25800 42.58100
C  22.16700 -2.38800 42.64100
C  22.05300 -3.86000 43.13000
C  21.36700 -1.28800 43.39200
C  24.24700 -2.23000 41.11400
C  24.66300 -0.93000 40.52300
H  24.83900 -0.87000 39.01000
N  21.36300 -6.78100 44.09500
C  20.51700 -5.90500 43.45300
C  19.20100 -6.62100 43.28600
C  19.43900 -8.00600 43.58200
C  20.76100 -8.00900 44.21300
C  17.99600 -5.98500 42.62500
C  18.46400 -9.14300 43.41400
O  17.35900 -8.91400 42.95400
C  18.85500 -10.63000 43.71900
N  23.78000 -8.22200 45.40000
C  22.84400 -9.22400 45.23800
C  23.35700 -10.55900 45.85100
C  24.69200 -10.18100 46.45800
C  24.82900 -8.67500 46.07600
C  22.38900 -11.31400 46.86500
C  25.94600 -11.14400 46.32300
C  26.68200 -11.67200 47.59900
N  25.40200 -5.87400 45.22400
C  26.32100 -6.63900 45.77800
C  27.59400 -5.93000 45.75200
C  27.36100 -4.79300 44.98600
C  25.99500 -4.78900 44.70500
C  28.84300 -6.34100 46.45200
C  28.02800 -3.60800 44.38500
O  29.18700 -3.22400 44.36800
C  26.85100 -2.80100 43.57300
C  26.65700 -1.48500 44.18500
O  26.34400 -1.24000 45.35400
O  27.07700 -0.48500 43.33800
C  27.39800 0.82300 43.97800
H  19.97700 -3.97900 42.86000
H  21.06700 -10.10300 44.84700
H  26.82900 -8.48700 46.70400
H  24.11400 -1.35600 43.04700
H  21.65600 -2.40900 41.67800
H  20.78100 -0.89300 42.56100
H  22.01200 -0.60300 43.94200
H  20.62400 -1.66000 44.09800
H  23.50400 -2.75300 40.51100
H  25.10100 -2.90600 41.17000
H  25.63800 -0.79600 40.99300
H  23.96400 -0.13600 40.78400
H  17.28600 -6.61100 42.08400
H  18.46300 -5.21700 42.00900
H  17.34100 -5.53100 43.36800
H  18.11400 -11.37300 43.42200
H  18.96400 -10.80500 44.79000
H  19.82900 -10.66300 43.23200
H  23.49000 -11.14600 44.94200
H  24.43200 -10.20100 47.51600
H  22.92200 -11.69600 47.73600
H  21.97700 -12.14400 46.29100
H  21.57000 -10.65800 47.16000
H  26.72500 -10.80700 45.63900
H  25.54800 -12.03800 45.84300
H  27.74600 -11.66100 47.36100
H  26.46900 -12.69400 47.91000
H  26.56800 -10.94700 48.40500
H  29.27700 -7.18500 45.91600
H  28.67100 -6.68600 47.47200
H  29.57200 -5.53400 46.52400
H  27.10300 -2.64200 42.52500
H  26.61000 1.53300 43.72700
H  28.26100 1.25500 43.47100
H  27.63900 0.76900 45.04000
Mg 25.43900 1.99300 29.99800
C  27.41500 1.55700 32.82500
C  22.55100 1.78800 32.03200
C  23.52200 1.92500 27.22100
C  28.29500 1.30300 27.90900
N  25.02500 1.78800 32.21200
C  26.05500 1.67400 33.11100
C  25.43400 1.68200 34.52900
C  23.86000 1.53000 34.31300
C  23.77700 1.70500 32.75500
C  23.23400 0.18100 34.80200
C  25.71500 2.99100 35.24700
C  26.37900 2.96300 36.65200
H  25.76700 3.79300 37.75600
N  23.33300 1.93500 29.67300
C  22.33600 1.91700 30.64700
C  21.07200 1.87600 29.93100
C  21.34400 1.76300 28.55100
C  22.76700 1.85300 28.43200
C  19.77500 1.68100 30.67400
C  20.37300 1.38500 27.41900
O  20.73900 1.21600 26.26300
C  18.94700 1.17400 27.66100
N  25.81700 1.74700 27.92000
C  24.87300 1.87800 26.99400
C  25.45600 2.10000 25.56900
C  26.92400 1.73700 25.75600
C  27.06100 1.62900 27.25900
C  24.75800 1.46100 24.31200
C  28.03700 2.68500 25.10700
C  27.88500 4.16100 25.51600
N  27.54200 1.68600 30.26200
C  28.49700 1.31600 29.36700
C  29.57200 0.86100 30.11100
C  29.26800 0.98500 31.43100
C  27.98300 1.53100 31.51700
C  30.87400 0.49000 29.59200
C  29.78800 0.80000 32.78700
O  30.89500 0.36800 33.21100
C  28.61500 1.29900 33.78600
C  28.34100 0.18400 34.78700
O  27.74600 -0.79600 34.43900
O  28.80000 0.63900 35.98800
C  28.78700 -0.40000 37.03100
H  21.64300 1.78300 32.63800
H  22.83900 2.10400 26.38900
H  29.06000 1.10100 27.15600
H  25.79100 0.78800 35.04000
H  23.24900 2.35800 34.67200
H  23.64500 -0.67000 34.26100
H  22.18600 0.17900 34.50300
H  23.26400 -0.08900 35.85800
H  24.76900 3.52600 35.33300
H  26.35800 3.67600 34.69500
H  27.39100 3.36900 36.66100
H  26.48800 1.95800 37.06000
H  19.22400 0.76500 30.46300
H  19.16200 2.52900 30.36900
H  19.90300 1.91400 31.73200
H  18.42900 1.98800 28.16900
H  18.91400 0.29200 28.30100
H  18.39200 0.92000 26.75800
H  25.39800 3.16800 25.35900
H  27.14100 0.82600 25.19900
H  23.70400 1.30600 24.54200
H  25.18800 0.48400 24.08900
H  24.74700 2.15600 23.47200
H  27.82700 2.62500 24.03900
H  29.06300 2.34500 25.25200
H  28.77500 4.67900 25.87300
H  27.05700 4.26800 26.21700
H  27.59300 4.64600 24.58400
H  31.22700 1.34700 29.01900
H  30.69200 -0.41000 29.00300
H  31.52500 0.25900 30.43500
H  28.84700 2.13600 34.44400
H  27.76500 -0.44700 37.40900
H  29.47900 -0.13100 37.82900
H  29.15400 -1.35100 36.64500

