158

Mg 30.96600 58.32500 39.96700
C  28.15300 56.50900 39.16100
C  32.97000 55.89100 38.73900
C  33.55200 60.49500 40.08400
C  28.88700 61.08600 40.91000
N  30.61200 56.50200 38.97300
C  29.35100 55.90100 38.78200
C  29.46400 54.64500 37.93400
C  30.96900 54.26900 38.14800
C  31.60300 55.61400 38.66300
C  31.24000 53.05600 39.19000
C  29.19800 54.84200 36.40300
C  27.97900 54.09500 35.81900
H  27.11900 54.92600 34.95200
N  32.94400 58.12600 39.65600
C  33.56300 57.04400 39.17000
C  35.03700 57.26100 39.17900
C  35.24800 58.59800 39.49500
C  33.90000 59.16200 39.72000
C  35.98900 56.23000 38.69900
C  36.65100 59.21000 39.47300
O  37.73100 58.62700 39.23800
C  36.81300 60.59600 40.00300
N  31.18700 60.59200 40.20500
C  32.37700 61.14800 40.33000
C  32.29700 62.56500 40.88800
C  30.82700 62.64000 41.36400
C  30.21500 61.36000 40.81100
C  33.44800 62.89400 41.93900
C  30.02800 63.91100 40.91400
C  29.37800 64.73900 41.99600
N  28.90400 58.78100 40.03100
C  28.21600 59.91000 40.39300
C  26.84900 59.69800 40.12100
C  26.76500 58.38100 39.73600
C  28.05000 57.82900 39.69800
C  25.80000 60.81700 40.05300
C  25.89100 57.35800 39.38100
O  24.70100 57.44200 39.17000
C  26.70200 56.03300 39.05300
C  26.44500 55.02800 40.15600
O  27.28900 54.60900 40.89300
O  25.18100 54.54400 40.06800
C  24.83200 53.42000 40.90500
H  33.56200 55.00200 38.51100
H  34.42600 61.08700 40.36200
H  28.18800 61.86600 41.21900
H  28.78700 53.87700 38.30900
H  31.28200 53.84900 37.19100
H  30.26600 52.62200 39.41900
H  31.72900 53.37200 40.11200
H  31.85700 52.25100 38.79300
H  30.01800 54.47000 35.78800
H  29.02600 55.87200 36.09200
H  27.38000 53.72800 36.65300
H  28.42500 53.28100 35.24900
H  36.97300 56.59700 38.40900
H  35.58000 55.67100 37.85800
H  36.13900 55.51500 39.50800
H  36.22700 61.37300 39.51100
H  37.83600 60.97500 40.00700
H  36.48600 60.63300 41.04200
H  32.37700 63.25300 40.04600
H  30.89700 62.68500 42.45100
H  33.67900 61.99500 42.51000
H  32.98500 63.65300 42.57000
H  34.37300 63.21200 41.45900
H  29.25800 63.65000 40.18800
H  30.65300 64.66500 40.43600
H  28.34300 64.94000 41.71900
H  29.84100 65.72000 42.10100
H  29.26200 64.25200 42.96500
H  25.40700 61.08200 41.03400
H  25.05000 60.51400 39.32200
H  26.22900 61.76400 39.72400
H  26.57100 55.71200 38.02000
H  25.57200 52.66900 40.62400
H  23.82000 53.10400 40.65300
H  24.87600 53.71600 41.95300
Mg 0.56000 42.21200 26.33900
C  1.79400 42.24800 29.79600
C  -2.38000 41.10600 27.64500
C  -0.33400 41.26300 23.18700
C  3.87600 42.81600 25.25100
N  -0.14500 41.66100 28.45600
C  0.42000 41.95400 29.65500
C  -0.50500 41.73600 30.79000
C  -1.81600 41.33900 30.15500
C  -1.41100 41.34200 28.64000
C  -2.30600 39.96200 30.66700
C  -0.63700 42.94600 31.70600
C  -0.25900 42.84400 33.23100
H  -0.59700 41.49200 33.93900
N  -1.26700 41.43800 25.43600
C  -2.31600 41.11800 26.22200
C  -3.37600 40.82200 25.26100
C  -2.75700 40.73600 23.88800
C  -1.36100 41.09500 24.14800
C  -4.86700 40.80400 25.64300
C  -3.45100 40.43700 22.51600
O  -2.86700 40.49200 21.43300
C  -4.89200 39.87100 22.49600
N  1.59900 42.17800 24.53500
C  0.95600 41.79900 23.33100
C  1.90900 41.88400 22.17700
C  3.10500 42.68800 22.81100
C  2.81700 42.65600 24.30700
C  2.38500 40.53700 21.56300
C  3.17300 44.15600 22.28000
C  4.12800 44.24600 21.12700
N  2.51400 42.44200 27.24800
C  3.77200 42.69400 26.66300
C  4.70900 42.80100 27.79400
C  3.98400 42.68500 28.98300
C  2.69000 42.43800 28.63100
C  6.18100 43.11000 27.56100
C  4.21600 42.56700 30.39000
O  5.22800 42.55000 31.02800
C  2.69200 42.37600 31.02100
C  2.75000 41.15400 31.92100
O  2.58900 39.98800 31.56600
O  3.11800 41.51200 33.20400
C  3.05500 40.52100 34.30000
H  -3.34800 40.88200 28.09800
H  -0.56500 40.90800 22.18000
H  4.87400 42.90500 24.81900
H  -0.05700 40.87200 31.28100
H  -2.64000 42.01600 30.37600
H  -3.30000 40.11700 31.08700
H  -1.73300 39.44500 31.43700
H  -2.36100 39.30200 29.80100
H  -1.68700 43.21100 31.83300
H  0.00400 43.74700 31.33700
H  -0.71600 43.69200 33.74100
H  0.80100 43.08300 33.31900
H  -5.34100 41.57600 25.03700
H  -5.04400 41.12500 26.66900
H  -5.40600 39.89200 25.38600
H  -5.06200 39.22900 21.63200
H  -5.69300 40.57900 22.70800
H  -4.83600 39.19700 23.35100
H  1.55200 42.48400 21.34000
H  4.05100 42.18200 22.62400
H  2.24100 40.53200 20.48300
H  1.65400 39.80300 21.90200
H  3.36400 40.22100 21.92500
H  3.55100 44.83500 23.04500
H  2.13200 44.35500 22.02500
H  4.80800 45.02000 21.48400
H  3.69700 44.60600 20.19200
H  4.74900 43.37400 20.92500
H  6.42700 42.14600 27.11800
H  6.64900 43.36100 28.51300
H  6.46300 43.82300 26.78600
H  2.40500 43.28400 31.55200
H  4.06500 40.46100 34.70600
H  2.62600 39.59300 33.92300
H  2.40200 40.93800 35.06700

