158

Mg 2.09600 -0.30100 41.95600
C  5.43200 0.63300 41.63400
C  1.26200 2.87400 40.76800
C  -0.99400 -1.25900 41.84800
C  3.20900 -3.41500 43.04100
N  3.26200 1.43700 41.26600
C  4.60000 1.64600 41.22300
C  5.06100 2.92600 40.54300
C  3.69700 3.73700 40.47700
C  2.64000 2.61200 40.91300
C  3.58900 4.93300 41.37500
C  5.89800 3.02200 39.18800
C  5.84900 1.77600 38.26400
H  5.58000 1.98000 36.81800
N  0.31800 0.68900 41.43200
C  0.15900 1.97900 40.98900
C  -1.14900 2.22700 40.59600
C  -1.85900 1.05300 41.07900
C  -0.86300 0.11900 41.49200
C  -1.61600 3.57400 40.27100
C  -3.34000 0.87200 40.89000
O  -4.02700 1.78400 40.31700
C  -4.05500 -0.41800 41.35100
N  1.21500 -2.10500 42.30300
C  -0.09800 -2.21200 42.22400
C  -0.53600 -3.70600 42.47800
C  0.83300 -4.40200 42.73400
C  1.83500 -3.25500 42.65900
C  -1.72000 -4.00200 43.50700
C  1.19100 -5.69400 41.85100
C  1.28900 -7.04500 42.56900
N  3.96100 -1.25100 42.46700
C  4.23000 -2.47900 42.91600
C  5.64800 -2.63700 43.01200
C  6.18900 -1.49300 42.51700
C  5.10900 -0.65600 42.21300
C  6.37500 -3.78600 43.42700
C  7.34700 -0.77900 42.28700
O  8.51400 -1.10200 42.56400
C  6.94000 0.61600 41.64900
C  7.61600 1.63600 42.44900
O  8.19900 2.61800 41.92200
O  7.49200 1.45200 43.78300
C  8.22800 2.53900 44.61100
H  1.17300 3.93100 40.51300
H  -1.96100 -1.76400 41.80300
H  3.57400 -4.40900 43.30800
H  5.88300 3.35600 41.11500
H  3.57500 4.09000 39.45300
H  2.65300 4.87300 41.93000
H  3.57300 5.77100 40.67900
H  4.50600 5.09500 41.94100
H  6.97600 3.08200 39.33500
H  5.65700 3.98600 38.74000
H  5.13100 1.02600 38.59400
H  6.88100 1.43000 38.19600
H  -1.94100 3.70000 39.23800
H  -0.76900 4.25100 40.38200
H  -2.43100 3.99600 40.86000
H  -3.65500 -0.68300 42.33000
H  -4.10100 -1.20100 40.59400
H  -5.08900 -0.22600 41.64000
H  -0.87500 -4.05100 41.50100
H  0.76200 -4.73100 43.77100
H  -1.27000 -4.58800 44.30800
H  -2.48200 -4.61000 43.02100
H  -1.96500 -3.00900 43.88500
H  2.20100 -5.54500 41.46700
H  0.42500 -5.75400 41.07800
H  1.14600 -6.90300 43.64000
H  2.12800 -7.69500 42.31900
H  0.34600 -7.51400 42.28800
H  6.93800 -4.08600 42.54300
H  5.68500 -4.57500 43.72500
H  7.05900 -3.71900 44.27300
H  7.20200 0.64500 40.59100
H  7.84400 3.52600 44.35100
H  9.30700 2.49000 44.46400
H  8.02200 2.33200 45.66100
Mg 41.83700 7.57100 29.23600
C  43.50800 9.17400 31.77900
C  39.64200 6.22500 31.55600
C  40.35500 5.91100 26.72300
C  44.14300 8.82400 26.96300
N  41.72000 7.69300 31.46300
C  42.41700 8.48800 32.27200
C  41.86500 8.42900 33.70800
C  40.81000 7.25200 33.62500
C  40.71300 6.99200 32.14200
C  41.11900 5.99500 34.49800
C  41.34500 9.81500 34.03700
C  40.48200 10.00900 35.28500
H  40.98800 11.01300 36.37300
N  40.19500 6.26500 29.16700
C  39.36700 5.87900 30.23100
C  38.31000 4.98900 29.75700
C  38.48500 4.87700 28.38500
C  39.74700 5.71300 28.05000
C  37.33200 4.32300 30.58200
C  37.57800 4.29600 27.33200
O  37.94100 4.18900 26.12100
C  36.24800 3.66900 27.71300
N  42.24200 7.27600 27.11900
C  41.53000 6.62000 26.31700
C  42.08000 6.54300 24.88000
C  42.97900 7.82900 24.86300
C  43.17000 8.01100 26.38000
C  42.88600 5.18100 24.62800
C  42.41800 9.05300 24.07400
C  41.31200 9.84100 24.69300
N  43.53100 8.78200 29.35100
C  44.36500 9.09400 28.35300
C  45.40400 9.87000 28.93400
C  45.12400 10.02100 30.35000
C  43.95200 9.26000 30.48600
C  46.58400 10.38900 28.19700
C  45.51900 10.58900 31.58500
O  46.45200 11.35000 31.90600
C  44.49700 10.12400 32.59400
C  45.33500 9.42400 33.64200
O  45.98200 8.35000 33.54800
O  45.25400 10.11500 34.83500
C  45.98000 9.41800 36.01600
H  38.86400 5.88500 32.24200
H  39.91000 5.45300 25.83700
H  44.86800 9.31100 26.30800
H  42.59200 8.20000 34.48700
H  39.81000 7.61800 33.86000
H  40.31300 5.73500 35.18500
H  42.04800 6.20000 35.03000
H  41.38300 5.14800 33.86500
H  40.82100 10.11500 33.12900
H  42.17900 10.47900 34.26500
H  40.39100 9.03600 35.76700
H  39.54100 10.34900 34.85200
H  36.29700 4.66200 30.63100
H  37.62500 4.38000 31.63000
H  37.24700 3.25800 30.36500
H  35.76000 3.40500 26.77500
H  35.65300 4.34000 28.33200
H  36.34000 2.75400 28.29700
H  41.30600 6.62700 24.11600
H  43.85600 7.56800 24.27200
H  42.49200 4.80900 23.68300
H  42.70800 4.39400 25.36200
H  43.96700 5.28100 24.52700
H  42.11700 8.69500 23.09000
H  43.23800 9.74300 23.87500
H  40.71400 9.26000 25.39500
H  40.71100 10.31000 23.91400
H  41.72700 10.67800 25.25500
H  46.45700 10.40800 27.11500
H  47.36700 9.63900 28.30800
H  47.08900 11.25100 28.63200
H  44.15500 11.06000 33.03600
H  47.05200 9.57100 35.88700
H  45.79900 8.34500 36.09100
H  45.64000 9.81400 36.97300

