158

Mg 47.40200 25.70200 28.85200
C  48.35600 27.76200 31.30700
C  46.46500 23.38000 31.21300
C  46.89500 23.32200 26.33100
C  49.07600 27.53800 26.56200
N  47.60600 25.57500 31.05400
C  47.84900 26.62100 31.88600
C  47.28800 26.32300 33.32900
C  46.82600 24.87300 33.28300
C  46.99100 24.56200 31.77300
C  47.34200 23.91800 34.35600
C  46.27800 27.30900 33.85200
C  46.64800 28.09400 35.11700
H  45.58200 28.26100 36.22600
N  46.71100 23.60700 28.77100
C  46.40800 22.85000 29.90000
C  45.88900 21.54000 29.45600
C  45.94800 21.56800 28.04100
C  46.46700 22.90800 27.62800
C  45.25300 20.54100 30.51800
C  45.58500 20.42100 27.08900
O  45.71000 20.54700 25.86800
C  45.01600 19.12700 27.69300
N  48.04000 25.40100 26.81400
C  47.59400 24.42600 25.93100
C  47.89400 24.79900 24.48000
C  48.13600 26.30600 24.57700
C  48.46900 26.45300 26.08600
C  49.07800 23.88700 24.09100
C  46.96900 27.26200 24.08000
C  45.54100 26.91200 24.65900
N  48.41800 27.41700 28.85700
C  49.11000 28.05200 27.86800
C  49.56200 29.39200 28.36300
C  49.27500 29.27800 29.69900
C  48.63700 28.06300 30.00800
C  50.28300 30.40000 27.54100
C  49.35100 30.01400 31.00400
O  49.72500 31.13900 31.22000
C  48.75100 29.06200 32.05200
C  49.84100 28.79800 33.04200
O  50.67600 27.89600 32.87200
O  49.79500 29.74300 34.13600
C  50.89900 29.54400 35.11000
H  45.94500 22.75400 31.94000
H  46.62100 22.52300 25.63900
H  49.43000 28.12500 25.71200
H  48.13500 26.30100 34.01600
H  45.74800 24.82300 33.43800
H  46.45800 23.40800 34.73800
H  47.87200 24.50100 35.10900
H  47.97900 23.16000 33.90000
H  45.34100 26.80700 34.09400
H  45.99000 27.94700 33.01600
H  46.92000 29.06900 34.71300
H  47.56900 27.73700 35.57800
H  44.21700 20.31700 30.26000
H  45.34700 20.95200 31.52300
H  45.82200 19.61300 30.48000
H  45.61800 18.59600 28.43000
H  44.79000 18.57600 26.78000
H  44.00900 19.24400 28.09300
H  47.01800 24.59100 23.86600
H  48.97800 26.60400 23.95200
H  49.57800 23.48900 24.97400
H  49.80500 24.52500 23.58800
H  48.85900 22.99400 23.50600
H  47.00800 27.09100 23.00400
H  47.36000 28.28000 24.05200
H  45.79700 26.29600 25.52000
H  45.01600 26.31200 23.91500
H  44.89500 27.75300 24.91400
H  50.17300 31.39800 27.96600
H  49.81800 30.31000 26.56000
H  51.31300 30.11300 27.32800
H  47.88600 29.50800 32.54200
H  51.81300 29.39300 34.53600
H  50.71500 28.75100 35.83500
H  50.99800 30.45400 35.70200
Mg 17.42100 51.88700 25.75700
C  19.06300 50.55000 28.48300
C  15.10300 53.11300 27.85600
C  15.75700 52.72400 23.11300
C  19.93500 50.40400 23.66900
N  17.06200 51.66400 27.90800
C  17.92100 51.21000 28.86600
C  17.40400 51.45900 30.29700
C  16.04100 52.20000 30.07600
C  16.09900 52.41100 28.50400
C  14.69900 51.46200 30.47800
C  18.36600 52.12100 31.39300
C  18.72000 51.37100 32.70300
H  17.82400 51.83100 33.85500
N  15.70600 52.91000 25.46300
C  14.94500 53.35500 26.46000
C  13.77400 54.09100 25.87300
C  13.93400 54.01100 24.47300
C  15.19700 53.25000 24.28900
C  12.77700 54.79300 26.79500
C  13.18800 54.57000 23.29800
O  13.59600 54.45600 22.17900
C  11.83600 55.25300 23.47900
N  17.75800 51.48800 23.65100
C  16.89200 52.07900 22.78100
C  17.33300 51.85200 21.27100
C  18.71300 51.06900 21.52000
C  18.82100 50.98300 23.01500
C  16.34800 50.93600 20.55800
C  19.98900 51.64500 20.80700
C  20.77100 52.91100 21.31300
N  19.18100 50.67600 25.96400
C  20.11200 50.19600 25.02300
C  21.10100 49.45800 25.71300
C  20.79200 49.54000 27.11100
C  19.56500 50.29500 27.15100
C  22.34900 48.76900 25.19100
C  21.21900 49.23300 28.40900
O  22.22600 48.59000 28.75000
C  20.09800 49.85700 29.37400
C  19.42700 48.69600 30.07100
O  18.53300 48.02900 29.66700
O  20.12900 48.45400 31.23800
C  19.49200 47.46300 32.16500
H  14.30300 53.56000 28.44900
H  15.38400 53.01300 22.12800
H  20.76500 50.02400 23.06900
H  17.16700 50.50900 30.77500
H  16.06100 53.24700 30.38100
H  14.08300 52.20500 30.98400
H  14.86800 50.56700 31.07600
H  14.27600 51.17200 29.51600
H  17.88500 53.06400 31.65100
H  19.39200 52.27800 31.06000
H  19.73500 51.48800 33.08300
H  18.46500 50.32800 32.51900
H  12.51800 55.70500 26.25700
H  13.19300 55.14400 27.73900
H  11.88200 54.20300 26.99200
H  11.08600 54.81500 22.81900
H  12.00200 56.29100 23.18800
H  11.45300 55.09800 24.48700
H  17.55600 52.82300 20.82900
H  18.56000 50.06300 21.13000
H  15.40400 50.96800 21.10100
H  16.69700 49.90300 20.53300
H  16.17700 51.19700 19.51400
H  19.73100 51.80600 19.76000
H  20.61500 50.75600 20.87400
H  20.74300 53.69900 20.56000
H  21.79600 52.54900 21.39500
H  20.40700 53.25400 22.28200
H  22.23700 47.72500 25.48300
H  23.21500 49.25800 25.63700
H  22.38700 48.80500 24.10200
H  20.52700 50.52700 30.11900
H  19.67800 46.49400 31.70200
H  18.41800 47.61100 32.27600
H  19.95600 47.42200 33.15000

