158

Mg 25.34800 0.51400 29.39600
C  27.42200 0.86000 32.26800
C  22.63100 1.15300 31.61300
C  23.38300 0.73700 26.84000
C  28.20600 0.00600 27.42300
N  25.03700 1.13700 31.68300
C  26.06000 1.06700 32.63300
C  25.48600 1.33000 34.00500
C  23.94900 1.20600 33.78700
C  23.85900 1.11600 32.25400
C  23.16500 0.11900 34.49100
C  26.02700 2.64000 34.63500
C  26.74900 2.41600 36.04100
H  26.36600 3.41000 37.20700
N  23.21200 0.97200 29.20200
C  22.32500 1.19500 30.23100
C  21.08200 1.42400 29.62200
C  21.19200 1.18400 28.18300
C  22.64100 0.96700 28.00300
C  19.73400 1.62600 30.34700
C  20.14200 1.17400 27.11300
O  20.48500 1.03500 25.96700
C  18.71000 1.35600 27.39100
N  25.77200 0.29700 27.30700
C  24.74200 0.39300 26.48400
C  25.20800 0.15800 25.07300
C  26.84700 0.07900 25.22200
C  26.95600 0.14000 26.68100
C  24.47300 -0.93000 24.28400
C  27.58800 1.28800 24.55700
C  28.98400 1.02100 24.02200
N  27.39300 0.28100 29.74600
C  28.43500 0.08700 28.84200
C  29.67000 -0.07000 29.58700
C  29.28600 0.26500 30.93300
C  27.93900 0.46700 30.96800
C  30.98300 -0.23800 28.96300
C  29.79000 0.46100 32.25800
O  30.94600 0.38400 32.64100
C  28.55400 0.80300 33.17400
C  28.48700 -0.24700 34.14900
O  27.67600 -1.18800 34.05800
O  29.43300 -0.01000 35.16500
C  29.15200 -0.83500 36.35400
H  21.75000 1.11000 32.25800
H  22.72300 0.79200 25.97100
H  29.03000 -0.25600 26.75700
H  25.86500 0.50500 34.60900
H  23.40600 2.08400 34.13600
H  22.21900 0.60400 34.73200
H  23.65500 -0.41700 35.30400
H  22.94100 -0.68400 33.79000
H  25.18200 3.32100 34.72400
H  26.73500 3.12000 33.95900
H  27.77100 2.71100 35.80100
H  26.81500 1.38900 36.39900
H  19.86200 1.73600 31.42300
H  19.03500 0.85100 30.03100
H  19.36400 2.53000 29.86400
H  18.35000 0.53500 28.01100
H  18.16000 1.19500 26.46400
H  18.53600 2.28900 27.92800
H  25.03900 1.08200 24.51900
H  27.21700 -0.88900 24.88200
H  23.71800 -1.24100 25.00600
H  25.18600 -1.65400 23.89000
H  23.81900 -0.46600 23.54600
H  27.52300 2.12100 25.25700
H  26.99200 1.46000 23.66100
H  28.88400 1.23900 22.95900
H  29.26400 -0.01700 24.19900
H  29.76900 1.63700 24.45900
H  30.93500 0.15500 27.94800
H  31.19100 -1.30700 28.91600
H  31.63900 0.33700 29.61600
H  28.76100 1.73900 33.69300
H  29.45100 -1.83500 36.04000
H  28.17300 -0.61900 36.78100
H  29.76500 -0.43400 37.16200
Mg 27.03300 49.90100 26.79500
C  24.96900 50.97500 29.49300
C  29.56400 49.42700 29.09700
C  29.11300 49.37200 24.25200
C  24.52800 51.17500 24.62200
N  27.22300 50.19300 28.99800
C  26.23700 50.48500 29.82800
C  26.72000 50.37400 31.25800
C  28.21100 49.95200 31.20100
C  28.38300 49.82700 29.64600
C  29.26800 50.81800 31.96200
C  25.77500 49.49800 32.17000
C  25.28500 50.05200 33.51600
H  26.20000 49.91200 34.77000
N  28.99600 49.29600 26.68600
C  29.81800 49.08100 27.74300
C  31.05300 48.51700 27.24700
C  30.99700 48.53500 25.81000
C  29.65500 49.08100 25.50800
C  32.07700 47.84600 28.21000
C  32.05600 48.16600 24.78900
O  31.97500 48.16800 23.56000
C  33.36000 47.74600 25.27300
N  26.87500 50.33200 24.82300
C  27.89200 49.91200 23.94300
C  27.45000 50.21400 22.54000
C  25.94600 50.46300 22.65500
C  25.73000 50.74400 24.10900
C  28.26300 51.44000 22.04700
C  24.97700 49.42600 22.10400
C  25.32900 47.95200 22.44300
N  25.11000 50.81700 26.96300
C  24.26600 51.33600 26.01600
C  23.12200 51.94700 26.61500
C  23.31600 51.83100 27.97300
C  24.56300 51.22100 28.17100
C  21.94000 52.51500 25.96300
C  22.71600 52.15700 29.23900
O  21.64900 52.65100 29.56000
C  23.81900 51.69900 30.26300
C  24.31800 52.87300 31.03700
O  25.11900 53.77500 30.67600
O  23.57000 52.96300 32.17900
C  24.04000 53.96300 33.17000
H  30.44000 49.23100 29.71800
H  29.70100 48.93200 23.44400
H  23.72000 51.48800 23.95700
H  26.70100 51.41100 31.59500
H  28.38600 48.92400 31.51600
H  29.73800 51.41200 31.17800
H  29.91900 50.12600 32.49600
H  28.77100 51.41200 32.72900
H  26.21900 48.51200 32.30600
H  24.85400 49.40800 31.59400
H  24.29900 49.64300 33.73700
H  25.07600 51.11700 33.41100
H  32.34000 46.86000 27.82700
H  31.72400 47.91500 29.23900
H  33.00700 48.35200 27.94900
H  33.76000 48.58100 25.84900
H  34.02900 47.44200 24.46800
H  33.39400 46.80200 25.81600
H  27.82700 49.53600 21.77500
H  25.68400 51.38400 22.13400
H  29.09400 51.73000 22.69000
H  27.64200 52.33500 22.07100
H  28.78800 51.33400 21.09700
H  24.99800 49.59500 21.02800
H  23.98000 49.49700 22.53800
H  26.07100 47.75300 23.21600
H  25.74100 47.53500 21.52400
H  24.44800 47.36400 22.70000
H  21.87500 52.09500 24.96000
H  22.15600 53.58200 26.02100
H  21.04100 52.35900 26.55900
H  23.38700 50.99700 30.97500
H  24.98600 53.62400 33.59200
H  23.31400 53.86800 33.97700
H  24.02200 54.98800 32.80000

