158

Mg -1.71700 17.62200 26.94700
C  -1.91100 15.39600 29.61200
C  -2.73600 20.22000 29.09600
C  -1.66000 19.73800 24.29000
C  -1.29100 14.86600 24.69700
N  -1.94800 17.79300 29.11900
C  -2.04400 16.73700 30.04200
C  -2.38100 17.25300 31.46000
C  -2.96500 18.69000 31.16300
C  -2.46300 18.96500 29.64900
C  -4.51600 18.92300 31.30700
C  -1.30500 17.13200 32.56300
C  -1.72100 16.93600 34.00100
H  -0.63300 16.57300 35.03400
N  -2.18100 19.67800 26.73200
C  -2.48600 20.56600 27.71600
C  -2.54200 21.83800 27.11700
C  -2.01200 21.77500 25.82900
C  -1.92700 20.35100 25.55000
C  -3.13800 22.95600 27.96600
C  -1.57400 22.86000 24.81300
O  -1.04500 22.67700 23.70900
C  -1.73400 24.28800 25.26900
N  -1.48300 17.29900 24.88200
C  -1.47000 18.38200 23.96800
C  -1.33400 17.82900 22.55600
C  -0.95300 16.33600 22.71100
C  -1.17000 16.14500 24.20500
C  -2.54300 18.09100 21.58700
C  0.45900 16.05300 22.19600
C  1.51700 16.80200 23.01900
N  -1.62700 15.61800 27.07700
C  -1.50300 14.62100 26.04200
C  -1.53400 13.27400 26.63600
C  -1.64200 13.54400 28.01400
C  -1.68900 14.96600 28.26300
C  -1.38400 11.97600 25.86200
C  -1.65500 12.87700 29.20800
O  -1.59700 11.68200 29.45700
C  -2.14500 13.97600 30.24100
C  -1.41600 13.70000 31.54500
O  -0.23500 13.63400 31.78200
O  -2.44200 13.60200 32.52200
C  -1.84700 13.28600 33.92000
H  -3.11800 20.92400 29.83900
H  -1.79800 20.32600 23.38000
H  -1.27300 13.98800 24.04800
H  -3.25100 16.63100 31.67100
H  -2.58300 19.44900 31.84500
H  -4.80300 19.88100 31.74000
H  -4.82300 18.20900 32.07200
H  -4.99200 18.73800 30.34500
H  -0.84500 18.12000 32.51700
H  -0.59800 16.33900 32.32000
H  -2.44300 16.12000 34.01800
H  -2.07900 17.91400 34.32400
H  -4.01400 22.71000 28.56600
H  -3.62800 23.66600 27.29900
H  -2.41800 23.52500 28.55300
H  -1.27800 24.49200 26.23800
H  -2.80200 24.45600 25.40800
H  -1.31500 24.87800 24.45400
H  -0.55300 18.48200 22.16600
H  -1.73600 15.84100 22.13500
H  -3.44700 18.42600 22.09500
H  -2.82700 17.19900 21.02800
H  -2.34500 18.92300 20.91100
H  0.67300 16.51100 21.23000
H  0.62900 14.97700 22.16500
H  1.21600 16.96000 24.05400
H  1.86600 17.75100 22.61100
H  2.30900 16.05400 23.04300
H  -0.63100 12.23500 25.11800
H  -2.27900 11.56000 25.39900
H  -1.02500 11.19400 26.53100
H  -3.17900 13.77400 30.52300
H  -1.36200 12.33000 33.72300
H  -2.70700 13.10500 34.56500
H  -1.09900 13.96600 34.32600
Mg 0.10300 43.93900 24.78600
C  2.31900 43.25400 27.39800
C  -2.51500 43.15600 26.93300
C  -1.91100 43.98400 22.11100
C  2.95700 44.54800 22.68800
N  -0.10000 43.12100 26.87800
C  0.95700 43.18500 27.79800
C  0.49600 43.12900 29.28500
C  -1.05900 42.92900 29.06800
C  -1.26600 43.01600 27.55600
C  -1.61000 41.62900 29.73700
C  0.79800 44.34500 30.16800
C  1.08700 44.16400 31.66800
H  0.87100 42.79000 32.33000
N  -1.92100 43.58600 24.51200
C  -2.86700 43.38800 25.50500
C  -4.19600 43.36400 24.92500
C  -4.03300 43.60200 23.52500
C  -2.56000 43.75700 23.30500
C  -5.48500 43.21900 25.82400
C  -5.11600 43.81400 22.49900
O  -4.74400 44.07600 21.36500
C  -6.55500 43.83700 22.79800
N  0.50100 44.25500 22.72400
C  -0.51600 44.28000 21.81500
C  0.00300 44.66800 20.35700
C  1.48000 45.02000 20.69400
C  1.67000 44.53900 22.10300
C  -0.22600 43.48300 19.46400
C  1.79900 46.53600 20.49100
C  2.59700 46.97700 19.25700
N  2.15900 43.86300 24.90700
C  3.18600 44.20700 23.98200
C  4.44800 44.02800 24.63400
C  4.18100 43.69700 25.96600
C  2.74900 43.61700 26.07900
C  5.83200 44.32900 24.09900
C  4.81500 43.34800 27.21900
O  5.97900 43.16300 27.50000
C  3.62500 43.27000 28.27400
C  3.76500 42.08700 29.09100
O  3.39300 40.94600 28.83300
O  4.41500 42.45200 30.18200
C  4.73400 41.36400 31.14300
H  -3.31000 42.95900 27.65500
H  -2.51500 43.98600 21.20100
H  3.84100 44.88600 22.14500
H  0.94200 42.26600 29.77900
H  -1.60700 43.74900 29.53400
H  -2.00200 41.03100 28.91400
H  -2.31200 41.84100 30.54300
H  -0.80900 41.04100 30.18700
H  0.08100 45.15400 30.03100
H  1.71700 44.75600 29.75200
H  0.31100 44.74600 32.16500
H  2.07600 44.54900 31.91200
H  -5.99600 44.16700 25.99000
H  -5.25000 42.97900 26.86000
H  -6.22500 42.50000 25.47200
H  -6.68000 42.85400 23.25200
H  -7.21700 43.91500 21.93600
H  -6.83700 44.61000 23.51400
H  -0.57800 45.48800 19.93500
H  2.11100 44.37000 20.08800
H  -0.99900 43.76900 18.75100
H  -0.56600 42.68900 20.12900
H  0.70400 43.24400 18.94900
H  2.25700 46.86600 21.42300
H  0.84900 47.07000 20.51600
H  2.13100 47.80700 18.72500
H  2.80100 46.12500 18.60800
H  3.50800 47.42300 19.65900
H  6.36900 44.97900 24.79000
H  5.78900 44.70600 23.07700
H  6.33000 43.36200 24.03100
H  3.64900 44.13100 28.94200
H  5.81300 41.21800 31.09700
H  4.42900 40.33900 30.93200
H  4.43200 41.78400 32.10200

