158

Mg 48.49200 34.40800 26.07500
C  46.73100 33.16500 28.74300
C  48.79800 37.37300 27.72400
C  49.69800 35.71200 23.30700
C  47.67100 31.47600 24.20800
N  47.97300 35.03800 28.10200
C  47.30400 34.36500 29.05500
C  47.36500 35.09900 30.39000
C  47.78800 36.57500 29.98400
C  48.24900 36.33900 28.53100
C  46.61000 37.60600 29.95000
C  48.52500 34.50600 31.35300
C  48.45000 34.76800 32.83300
H  47.31300 35.58800 33.30900
N  49.21800 36.29800 25.59100
C  49.22100 37.37800 26.39900
C  49.90800 38.43700 25.71800
C  50.23400 38.01700 24.45900
C  49.67500 36.65700 24.35700
C  50.13400 39.79300 26.24900
C  50.86100 38.67600 23.31600
O  51.05300 38.13000 22.21500
C  51.37400 40.16500 23.48900
N  48.31200 33.85300 23.98700
C  48.99300 34.57900 23.10500
C  49.06200 33.87900 21.76100
C  49.03600 32.40000 22.17500
C  48.23200 32.54000 23.53600
C  47.86200 34.31000 20.81600
C  50.46800 31.71900 22.47300
C  50.90200 30.55800 21.56500
N  47.41700 32.69800 26.38000
C  47.12800 31.59900 25.51900
C  46.45700 30.54100 26.22100
C  46.17300 31.13700 27.45100
C  46.80600 32.44500 27.49100
C  46.08800 29.32700 25.70500
C  45.52500 30.98700 28.67200
O  44.74000 30.14400 28.97700
C  45.83500 32.21200 29.56400
C  46.46500 31.69400 30.76100
O  47.60500 31.25600 30.81600
O  45.59800 31.70100 31.87800
C  46.18300 31.55400 33.25000
H  48.66300 38.35400 28.18400
H  50.22100 36.05200 22.41100
H  47.67700 30.51800 23.68500
H  46.33400 35.11100 30.74600
H  48.54600 37.08500 30.57700
H  45.68300 37.13600 30.27800
H  46.38200 38.07200 28.99100
H  46.91500 38.39100 30.64200
H  49.45800 34.96900 31.03200
H  48.69100 33.44100 31.19500
H  49.44000 35.13800 33.09900
H  48.42600 33.90100 33.49400
H  51.20500 39.99200 26.25200
H  49.78000 39.77900 27.28000
H  49.54800 40.50300 25.66600
H  52.20100 40.26000 24.19300
H  50.59900 40.90500 23.68700
H  51.87200 40.50600 22.58200
H  50.00300 34.10400 21.25800
H  48.41900 31.78500 21.52000
H  47.41800 33.49400 20.24700
H  48.26700 35.05800 20.13500
H  47.07800 34.66400 21.48600
H  50.49200 31.40100 23.51500
H  51.16100 32.55800 22.39600
H  51.91600 30.76500 21.22100
H  50.42000 30.63300 20.59000
H  50.83600 29.57800 22.03600
H  45.34100 28.91100 26.38200
H  46.99200 28.71900 25.73800
H  45.71200 29.33600 24.68200
H  44.88600 32.66100 29.85700
H  47.23500 31.84000 33.24200
H  46.06800 30.64600 33.84200
H  45.66900 32.22000 33.94300
Mg 28.25800 56.50700 40.36900
C  25.98600 53.95900 39.32600
C  30.65100 54.58000 38.91800
C  30.37300 59.16400 40.20600
C  25.50500 58.68700 40.63600
N  28.19500 54.53000 39.14200
C  27.26300 53.65800 38.91500
C  27.76900 52.37600 38.25700
C  29.32600 52.53500 38.43500
C  29.40500 53.98700 38.93500
C  29.90600 51.64000 39.48000
C  27.29900 52.09200 36.86200
C  27.81800 53.12500 35.73500
H  26.82400 53.71100 34.71400
N  30.33400 56.77600 39.87600
C  31.11800 55.85500 39.30300
C  32.50700 56.34900 39.30700
C  32.38600 57.74400 39.72900
C  31.00400 57.97200 40.00000
C  33.69900 55.53900 38.82100
C  33.58300 58.70500 39.81300
O  34.66200 58.36800 39.26300
C  33.51000 59.97400 40.59900
N  27.98000 58.55000 40.36100
C  29.02100 59.44600 40.37200
C  28.46200 60.88700 40.62100
C  26.91900 60.77700 40.51200
C  26.78300 59.26700 40.50600
C  28.87700 61.40600 41.98500
C  26.30800 61.41600 39.26600
C  25.23000 62.48700 39.53800
N  26.19400 56.30300 40.36400
C  25.20100 57.27800 40.55700
C  23.89700 56.59000 40.56700
C  24.18600 55.26900 40.09000
C  25.59200 55.21200 39.93300
C  22.62000 57.31400 40.98800
C  23.58600 54.00000 39.81000
O  22.42200 53.63000 39.86500
C  24.72100 53.09700 39.19800
C  24.81300 51.81200 39.95700
O  24.53100 50.69600 39.50200
O  25.37900 52.02600 41.23700
C  25.66100 50.81500 42.07200
H  31.42300 53.93200 38.49700
H  30.92900 60.08500 40.01800
H  24.63200 59.33800 40.71400
H  27.41800 51.55900 38.88700
H  29.83300 52.36900 37.48400
H  29.39000 50.68900 39.61100
H  29.97700 52.16100 40.43500
H  30.91500 51.38800 39.15400
H  26.21200 52.02200 36.91600
H  27.73300 51.14100 36.55200
H  28.67400 52.79600 35.14500
H  28.22200 53.95400 36.31500
H  34.03100 55.81800 37.82100
H  33.39900 54.49500 38.73000
H  34.55200 55.61800 39.49300
H  32.69500 59.84200 41.31000
H  33.36400 60.74200 39.83800
H  34.44200 60.31100 41.05300
H  28.86900 61.58900 39.89300
H  26.40400 61.15200 41.39700
H  29.70700 60.90400 42.48300
H  28.04300 61.53400 42.67400
H  29.21400 62.43600 41.86600
H  26.00100 60.53700 38.69900
H  27.04400 61.98000 38.69200
H  25.44700 63.33400 38.88800
H  25.13500 62.83100 40.56800
H  24.33200 62.08900 39.06600
H  21.85100 56.56000 41.15800
H  22.29300 57.85000 40.09800
H  22.84600 57.99000 41.81200
H  24.46300 53.11800 38.13900
H  26.58800 51.07900 42.58000
H  25.80900 49.99500 41.36900
H  24.93400 50.60300 42.85600

