158

Mg 26.61800 49.94500 27.06300
C  24.43800 50.84500 29.59200
C  29.00100 49.16200 29.42600
C  28.62300 49.05900 24.69100
C  24.15400 51.00400 24.75600
N  26.77500 50.14000 29.23300
C  25.66800 50.32700 30.04400
C  26.06300 50.17100 31.57600
C  27.52200 49.78700 31.46800
C  27.81300 49.70200 29.99700
C  28.55600 50.67500 32.18700
C  25.09000 49.12300 32.29700
C  24.28100 49.60800 33.52700
H  24.39100 48.72800 34.80100
N  28.60500 49.25600 26.99800
C  29.41500 48.98100 28.10200
C  30.64600 48.48000 27.61600
C  30.59700 48.43700 26.17200
C  29.23600 48.91500 25.87400
C  31.70100 47.96300 28.48900
C  31.59900 48.00100 25.10200
O  31.38700 48.10000 23.91200
C  33.02400 47.52800 25.50800
N  26.44500 50.28700 24.99600
C  27.40500 49.70300 24.23300
C  26.88300 49.50200 22.77500
C  25.49200 50.07800 22.83500
C  25.30700 50.45700 24.28000
C  27.82800 50.16000 21.81000
C  24.30200 49.24600 22.27300
C  23.98700 47.90300 22.93100
N  24.77100 50.88500 27.10300
C  23.88400 51.25100 26.13600
C  22.74700 51.84700 26.69100
C  22.90900 51.66200 28.03600
C  24.15900 51.12800 28.27200
C  21.51500 52.27500 25.90400
C  22.26300 51.71400 29.27200
O  21.12300 52.14600 29.48100
C  23.23800 51.21600 30.42300
C  23.56900 52.45300 31.26900
O  24.20900 53.48500 30.95200
O  22.86400 52.28400 32.34400
C  22.82400 53.28800 33.31000
H  29.75300 48.80600 30.13300
H  29.06400 48.61300 23.79700
H  23.34500 51.25500 24.06700
H  26.01800 51.18300 31.97800
H  27.66300 48.77300 31.84200
H  28.71800 51.57900 31.60000
H  29.46500 50.13100 32.44200
H  28.09200 50.89500 33.14800
H  25.74500 48.31900 32.63300
H  24.50200 48.56200 31.57100
H  23.30600 49.61600 33.03800
H  24.52000 50.62900 33.82500
H  31.74400 46.87600 28.41200
H  31.88900 48.30100 29.50800
H  32.65700 48.34400 28.12800
H  33.57100 47.19700 24.62500
H  32.96400 46.63700 26.13300
H  33.50800 48.33700 26.05500
H  26.75100 48.43200 22.61200
H  25.50200 51.07800 22.40200
H  28.66000 50.68500 22.27800
H  27.31700 50.91600 21.21500
H  28.15000 49.36300 21.14000
H  24.46300 49.01200 21.22100
H  23.40000 49.85300 22.35800
H  22.91700 47.70000 22.96400
H  24.48300 47.85100 23.90000
H  24.50600 47.17200 22.31000
H  21.10700 51.50100 25.25400
H  21.87500 53.15100 25.36400
H  20.78100 52.42400 26.69600
H  22.76200 50.41600 30.99100
H  23.00700 54.30900 32.97300
H  23.62000 53.08200 34.02600
H  21.83000 53.25700 33.75600
Mg -6.33400 25.75600 25.70800
C  -4.74700 27.36500 28.54300
C  -7.75800 23.56300 27.89700
C  -7.27600 24.11100 23.11900
C  -4.26100 27.91100 23.71300
N  -6.13700 25.45500 27.85700
C  -5.50600 26.28600 28.85400
C  -5.95700 25.82700 30.25400
C  -6.61000 24.38700 30.05700
C  -6.89300 24.48800 28.50400
C  -5.64200 23.18300 30.43200
C  -7.04100 26.81400 30.84600
C  -7.04000 27.11000 32.38000
H  -6.81800 25.82400 33.22100
N  -7.37800 23.99500 25.57900
C  -7.89100 23.23200 26.59100
C  -8.78100 22.33400 26.06800
C  -8.71300 22.47000 24.59600
C  -7.78500 23.58500 24.35200
C  -9.50000 21.36600 27.02000
C  -9.43900 21.55200 23.58400
O  -9.17000 21.75600 22.43500
C  -10.35100 20.47500 23.95400
N  -5.78600 25.99200 23.72800
C  -6.41000 25.10300 22.83500
C  -6.12100 25.53500 21.40400
C  -5.28700 26.85900 21.58700
C  -5.09400 26.97300 23.12000
C  -5.30600 24.29800 20.72100
C  -6.08700 28.13900 21.16600
C  -5.61100 28.87200 19.90400
N  -4.87900 27.44700 25.97900
C  -4.15700 28.18500 25.10100
C  -3.32300 29.14400 25.77700
C  -3.48800 28.84000 27.17400
C  -4.43900 27.78400 27.20000
C  -2.41300 30.23100 25.20100
C  -3.05100 29.14200 28.59900
O  -2.23100 29.88500 29.04600
C  -3.99100 28.25100 29.46400
C  -3.11400 27.44100 30.33700
O  -2.18700 26.69900 30.00300
O  -3.49200 27.59400 31.62000
C  -2.66200 26.91900 32.63300
H  -8.20500 23.01400 28.72900
H  -7.60700 23.52200 22.26100
H  -3.61400 28.50400 23.06300
H  -5.13300 25.71900 30.95900
H  -7.55500 24.27700 30.59000
H  -4.69200 23.57100 30.80100
H  -5.45200 22.65100 29.50000
H  -6.10900 22.45400 31.09500
H  -8.02600 26.36100 30.74000
H  -6.93900 27.78800 30.36600
H  -7.94600 27.67400 32.59900
H  -6.28100 27.88900 32.45000
H  -10.28700 21.92800 27.52200
H  -8.82600 21.04700 27.81600
H  -9.82900 20.40600 26.62300
H  -11.27300 20.79400 24.44100
H  -9.89300 19.57200 24.35800
H  -10.77900 20.21100 22.98700
H  -7.02500 25.73000 20.82500
H  -4.30500 26.77300 21.12200
H  -5.78200 24.26400 19.74100
H  -5.49200 23.36400 21.25100
H  -4.23000 24.38100 20.56700
H  -5.99900 28.95500 21.88400
H  -7.15100 27.99300 20.97700
H  -6.42000 29.49400 19.52100
H  -5.45100 28.17800 19.07900
H  -4.73000 29.49400 20.06800
H  -2.80800 30.58500 24.24900
H  -1.47300 29.74400 24.94400
H  -2.33800 31.03300 25.93600
H  -4.66800 28.85100 30.07000
H  -3.02500 27.09200 33.64600
H  -1.60600 27.18600 32.57600
H  -2.72300 25.86200 32.37400

