158

Mg 40.53500 9.62100 29.67600
C  42.47400 10.77000 32.25800
C  38.18400 8.40200 31.96600
C  38.83400 8.13300 27.15100
C  43.15700 10.44700 27.42200
N  40.32100 9.69300 31.85000
C  41.22700 10.19600 32.73000
C  40.73600 10.20700 34.19100
C  39.53600 9.18500 34.10700
C  39.31500 9.10400 32.58700
C  39.67200 7.74100 34.62500
C  40.43700 11.69200 34.68400
C  40.85100 12.13700 36.04700
H  39.61100 12.59600 36.91700
N  38.69400 8.49100 29.59900
C  37.83600 8.17400 30.61500
C  36.68300 7.48600 30.08300
C  36.93400 7.26100 28.74800
C  38.25900 7.93600 28.41700
C  35.53600 6.84200 30.88400
C  36.20400 6.43900 27.70900
O  36.65600 6.29900 26.52800
C  34.85400 5.85100 28.02500
N  41.04600 9.29600 27.61000
C  40.06100 8.71100 26.80500
C  40.53900 8.72800 25.33400
C  41.63400 9.81100 25.33900
C  41.98600 9.83000 26.84700
C  41.04300 7.39900 24.85200
C  41.17900 11.20200 24.75400
C  40.67000 12.20300 25.74700
N  42.45900 10.43700 29.81100
C  43.39300 10.74300 28.76400
C  44.58900 11.34900 29.39700
C  44.17200 11.39300 30.74800
C  42.92600 10.85400 30.94300
C  45.86900 11.85600 28.72900
C  44.60000 11.97300 32.01700
O  45.62000 12.60000 32.32200
C  43.53000 11.58000 33.07400
C  44.25000 10.74600 34.07000
O  44.81000 9.66100 33.76700
O  44.30200 11.37500 35.31400
C  45.09600 10.69900 36.43700
H  37.44600 8.14300 32.72800
H  38.28700 7.73600 26.29300
H  43.86400 10.88300 26.71300
H  41.46100 9.85200 34.92400
H  38.66100 9.62400 34.58400
H  39.83200 6.97700 33.86400
H  38.77600 7.43500 35.16500
H  40.52200 7.72600 35.30700
H  39.36100 11.77000 34.52500
H  40.90500 12.43400 34.03800
H  41.40300 13.05900 35.86100
H  41.47200 11.45800 36.63200
H  35.77800 7.03600 31.92900
H  35.35500 5.77100 30.79600
H  34.54100 7.25000 30.70400
H  34.12600 6.60300 28.33000
H  34.92700 5.04700 28.75800
H  34.35900 5.46600 27.13400
H  39.71300 9.14900 24.76200
H  42.58700 9.62500 24.84300
H  41.44600 6.83100 25.69100
H  41.73700 7.57500 24.03000
H  40.13400 6.91600 24.49500
H  40.47800 11.11600 23.92400
H  42.09300 11.48100 24.23000
H  41.49500 12.65200 26.29900
H  39.92800 11.70800 26.37400
H  40.18600 13.09200 25.34200
H  45.74300 12.76000 28.13200
H  46.10300 11.05000 28.03300
H  46.60300 11.97400 29.52500
H  43.20100 12.46000 33.62700
H  44.39800 10.40500 37.22100
H  45.72600 11.44900 36.91600
H  45.59900 9.81400 36.04700
Mg -1.79800 34.00700 27.50200
C  -3.43600 32.22500 29.90400
C  -0.57100 36.11100 30.01400
C  -0.11600 35.82300 25.21400
C  -3.57100 32.30900 25.02800
N  -2.27100 34.35900 29.74400
C  -2.74100 33.29600 30.45900
C  -2.42400 33.54900 31.94400
C  -1.62300 34.87100 31.93100
C  -1.42000 35.07900 30.42600
C  -2.31600 36.12400 32.65000
C  -1.69300 32.31000 32.59100
C  -2.31000 31.81800 33.93900
H  -1.50900 31.73600 35.28300
N  -0.48700 35.71400 27.65200
C  -0.12800 36.37600 28.72600
C  0.84200 37.39800 28.31500
C  0.86300 37.44700 26.89100
C  0.04900 36.26900 26.55700
C  1.56800 38.26700 29.37600
C  1.48800 38.36500 25.85900
O  1.53400 38.19500 24.66900
C  2.28900 39.51200 26.35200
N  -1.97100 34.08300 25.37500
C  -1.06400 34.88600 24.66600
C  -1.27500 34.70800 23.12300
C  -2.43900 33.66200 23.03100
C  -2.72500 33.32100 24.54700
C  -1.53600 35.96700 22.25300
C  -1.93500 32.43400 22.17300
C  -1.12200 31.33000 22.85700
N  -3.14200 32.52900 27.45000
C  -3.74400 31.87100 26.37800
C  -4.43600 30.71800 26.81100
C  -4.33000 30.78700 28.19800
C  -3.61100 31.92700 28.56400
C  -5.18600 29.82100 25.85200
C  -4.72100 30.13900 29.40400
O  -5.39200 29.15000 29.65500
C  -4.19900 31.11200 30.58200
C  -5.43000 31.54300 31.26400
O  -6.38600 32.13700 30.78200
O  -5.40400 31.13000 32.56800
C  -6.35900 31.77600 33.53000
H  -0.09000 36.59700 30.86500
H  0.39600 36.29400 24.37200
H  -4.06900 31.70400 24.26700
H  -3.39400 33.74300 32.40200
H  -0.63200 34.71800 32.36000
H  -2.93800 35.71000 33.44400
H  -2.91400 36.68200 31.93000
H  -1.51200 36.69600 33.11300
H  -0.64200 32.49700 32.81200
H  -1.61200 31.47200 31.90000
H  -2.68900 30.84400 33.62800
H  -3.22000 32.38600 34.13200
H  2.57800 38.60300 29.13700
H  1.64700 37.80700 30.36000
H  0.88300 39.10300 29.51500
H  1.66800 40.08000 27.04500
H  2.59100 40.04800 25.45300
H  3.14700 39.09300 26.87900
H  -0.29500 34.33800 22.82200
H  -3.31700 34.08100 22.53900
H  -2.59100 36.21600 22.13500
H  -1.22800 35.93000 21.20800
H  -0.96700 36.82000 22.62300
H  -1.33400 32.73800 21.31500
H  -2.88200 32.12900 21.72700
H  -0.74700 31.68400 23.81800
H  -0.24900 31.09600 22.24800
H  -1.76600 30.45700 22.96000
H  -5.09800 28.78200 26.16900
H  -4.70900 29.92200 24.87800
H  -6.27200 29.91300 25.80900
H  -3.59700 30.41000 31.15900
H  -7.06600 32.40700 32.99200
H  -5.72700 32.38500 34.17600
H  -6.89200 31.05100 34.14500

