158

Mg 25.80900 0.55400 29.40400
C  27.63400 0.74900 32.38700
C  22.88100 0.97000 31.25000
C  24.04400 0.18300 26.50400
C  28.77000 -0.02800 27.62800
N  25.30200 0.84200 31.57200
C  26.21000 0.87900 32.59500
C  25.55600 1.26500 33.92400
C  24.06100 1.19400 33.56900
C  24.04500 1.01600 32.03000
C  23.04700 0.44500 34.47600
C  26.15900 2.52100 34.66900
C  26.48800 2.33100 36.12500
H  25.46300 2.83900 37.12000
N  23.71900 0.60800 28.93500
C  22.66900 0.80600 29.80700
C  21.45700 0.67600 29.02600
C  21.80400 0.41300 27.69900
C  23.22700 0.34300 27.67400
C  20.10300 0.67000 29.66100
C  20.90400 0.12300 26.54000
O  21.26200 -0.26500 25.39900
C  19.48700 0.33600 26.58400
N  26.35700 -0.00700 27.30400
C  25.46600 0.08300 26.35500
C  26.19800 0.13700 24.99400
C  27.63800 0.40600 25.39100
C  27.64200 0.04500 26.83600
C  25.96000 -1.22500 24.17500
C  28.07200 1.95100 25.14300
C  28.30400 2.39800 23.72600
N  27.79800 0.28800 29.85700
C  28.82500 -0.01700 29.07200
C  29.96000 -0.20300 29.94400
C  29.58800 0.09600 31.22000
C  28.21700 0.43900 31.14800
C  31.28300 -0.76600 29.55700
C  30.01100 0.18900 32.60800
O  31.11800 -0.04900 33.14100
C  28.82000 0.62200 33.38300
C  28.60900 -0.31900 34.46300
O  28.04400 -1.43100 34.34800
O  29.13900 0.19000 35.62500
C  29.07700 -0.53400 36.91900
H  21.90900 1.20000 31.69200
H  23.58700 0.23500 25.51300
H  29.72100 0.01500 27.09400
H  25.92900 0.37200 34.42500
H  23.76200 2.23800 33.66300
H  22.55400 -0.27300 33.82100
H  22.39900 1.24200 34.84000
H  23.55500 -0.02200 35.32000
H  25.31400 3.20600 34.74400
H  26.97900 3.00200 34.13600
H  27.44300 2.85500 36.14800
H  26.72200 1.28400 36.31800
H  20.17300 0.66000 30.74900
H  19.60800 -0.20300 29.23500
H  19.57700 1.56400 29.32500
H  19.01100 -0.53400 27.03800
H  19.17300 0.45100 25.54600
H  19.27700 1.30200 27.04200
H  25.82400 0.99800 24.43800
H  28.38300 -0.21100 24.88900
H  25.80000 -1.04200 23.11300
H  25.12300 -1.82900 24.52600
H  26.90800 -1.75500 24.26600
H  28.99700 2.15000 25.68500
H  27.32100 2.60000 25.59200
H  27.70500 3.26300 23.44100
H  28.13800 1.56700 23.04000
H  29.32300 2.75800 23.58600
H  31.98500 0.06800 29.53400
H  31.14600 -1.39600 28.67800
H  31.59900 -1.43600 30.35600
H  29.08800 1.59700 33.79000
H  29.80100 -0.08400 37.59800
H  29.16200 -1.61800 36.84500
H  28.13900 -0.25100 37.39700
Mg 31.06900 58.30700 39.96200
C  28.18900 56.49500 38.95400
C  32.94200 55.60900 39.23100
C  33.77400 60.31300 40.04500
C  29.06700 61.21000 40.25600
N  30.58200 56.38900 39.08500
C  29.40200 55.82500 38.68600
C  29.54700 54.34800 38.24000
C  30.97100 54.01100 38.91000
C  31.55800 55.44900 39.05300
C  30.93300 53.07200 40.12900
C  29.54600 54.37600 36.72500
C  28.36400 53.66500 35.98400
H  27.35200 54.57500 35.24600
N  33.04300 58.01100 39.69200
C  33.65100 56.81900 39.45100
C  35.07900 57.01400 39.36700
C  35.36800 58.35900 39.70500
C  34.03700 59.01900 39.75300
C  35.99600 55.83400 39.08800
C  36.77800 58.93800 39.93800
O  37.76600 58.28500 39.63300
C  36.94700 60.33000 40.30900
N  31.41600 60.57100 39.79600
C  32.65000 61.06500 40.05500
C  32.62000 62.45900 40.58700
C  31.11600 62.70100 40.88100
C  30.44600 61.41000 40.28500
C  33.52300 62.69900 41.84700
C  30.40700 63.93000 40.23300
C  29.33600 64.73000 41.12600
N  29.00500 58.78300 39.70200
C  28.38700 60.00400 39.93600
C  26.96000 59.78700 39.84600
C  26.84000 58.39300 39.51900
C  28.12200 57.83200 39.36000
C  25.78100 60.78600 40.11100
C  25.87000 57.34600 39.37600
O  24.66100 57.38700 39.48400
C  26.73400 56.06700 38.85500
C  26.35100 54.85100 39.68000
O  27.00100 54.34300 40.53400
O  25.25200 54.23600 39.08400
C  24.79400 52.97100 39.60800
H  33.51700 54.69300 39.08500
H  34.60800 61.00700 40.16700
H  28.51200 62.07800 40.61800
H  28.73100 53.74500 38.63700
H  31.59400 53.64200 38.09400
H  29.93300 52.68000 40.31400
H  31.27000 53.69800 40.95500
H  31.63400 52.26000 39.93800
H  30.44500 53.92000 36.31000
H  29.72100 55.41300 36.43900
H  27.84100 52.99600 36.66700
H  28.83400 53.02100 35.24100
H  36.10000 55.83400 38.00300
H  35.71200 54.86100 39.48800
H  37.01800 55.82100 39.46500
H  36.47100 60.55900 41.26300
H  36.52500 60.92900 39.50200
H  38.01700 60.43000 40.49000
H  33.00900 63.10000 39.79500
H  30.96000 62.60800 41.95600
H  33.98100 61.78100 42.21400
H  32.89600 63.21600 42.57300
H  34.28300 63.38300 41.46800
H  30.08800 63.53400 39.27000
H  31.23600 64.60300 40.01200
H  28.44000 64.92200 40.53500
H  29.76400 65.66900 41.47600
H  28.99400 64.24100 42.03800
H  25.88000 61.40700 39.22100
H  25.93100 61.42200 40.98300
H  24.81300 60.28400 40.12000
H  26.45500 55.84200 37.82600
H  25.62400 52.26500 39.62500
H  23.95300 52.51900 39.08400
H  24.56300 53.09300 40.66600

