158

Mg 41.98900 42.62900 27.44500
C  40.64100 44.82400 29.78900
C  42.34500 40.32100 29.74600
C  43.49600 40.76600 25.06700
C  41.72900 45.24900 24.97700
N  41.56400 42.64800 29.55700
C  40.94400 43.53400 30.30700
C  40.69000 43.00500 31.72600
C  41.39000 41.59800 31.79500
C  41.81200 41.51500 30.24900
C  42.55300 41.48000 32.79700
C  39.27500 43.19300 32.32300
C  39.16200 43.88700 33.70400
H  38.69700 43.02000 34.90100
N  42.82000 40.69100 27.46800
C  42.80300 39.90200 28.50200
C  43.48900 38.63300 28.22400
C  43.92200 38.84800 26.83000
C  43.43700 40.17000 26.37000
C  43.65700 37.57900 29.20600
C  44.70600 37.89500 25.97800
O  45.11500 38.16700 24.83900
C  44.97900 36.57000 26.47200
N  42.74100 43.03400 25.44400
C  43.23100 42.06100 24.64700
C  43.53600 42.58000 23.25300
C  42.69400 43.84100 23.18400
C  42.32100 44.03800 24.60400
C  45.04700 42.74100 22.87200
C  41.51900 43.90300 22.15200
C  40.06900 43.86000 22.74000
N  41.36200 44.59600 27.31200
C  41.39600 45.57400 26.31600
C  40.75700 46.78000 26.76100
C  40.50500 46.60100 28.15900
C  40.82900 45.21300 28.42900
C  40.65600 48.04000 25.91500
C  39.98400 47.15500 29.34700
O  39.47800 48.25900 29.52200
C  40.11800 46.02300 30.47400
C  41.06500 46.63700 31.47600
O  42.28000 46.76700 31.33000
O  40.43500 46.88600 32.66100
C  41.25500 47.56200 33.69200
H  42.32400 39.61500 30.57900
H  43.86700 40.11400 24.27300
H  41.53500 46.10700 24.33000
H  41.29000 43.66800 32.35000
H  40.64100 40.82500 31.97100
H  42.75400 40.42000 32.95400
H  42.15100 41.99500 33.67000
H  43.45400 41.94000 32.39200
H  38.91200 42.19400 32.56600
H  38.58900 43.49200 31.53000
H  38.30600 44.54400 33.55000
H  40.06300 44.48400 33.84400
H  43.13000 37.78200 30.13900
H  44.72600 37.59000 29.42000
H  43.42100 36.55100 28.92900
H  45.29400 36.37100 27.49600
H  45.66200 36.16400 25.72600
H  44.07900 35.95700 26.44700
H  43.17700 41.77700 22.60900
H  43.43600 44.59200 22.91600
H  45.17900 42.45900 21.82800
H  45.64400 42.02600 23.43700
H  45.28700 43.79400 23.02200
H  41.56100 43.03500 21.49300
H  41.72000 44.80800 21.57700
H  39.43400 43.30100 22.05400
H  39.62500 44.85100 22.83500
H  39.98200 43.35100 23.70000
H  40.07500 47.81300 25.02200
H  41.68300 48.29200 25.65200
H  40.12500 48.76400 26.53300
H  39.25800 45.81200 31.10900
H  42.11800 48.11000 33.31600
H  41.60400 46.80100 34.39000
H  40.60300 48.22500 34.26200
Mg 6.61500 53.50200 40.70300
C  6.19100 50.01200 39.99500
C  9.88400 53.15100 39.56800
C  6.84800 56.79500 40.92700
C  3.12100 53.62100 41.27700
N  7.87200 51.74500 39.75400
C  7.52600 50.40200 39.60200
C  8.76300 49.54100 39.08600
C  9.91000 50.46200 39.49400
C  9.20300 51.85100 39.56600
C  10.54900 50.07600 40.89000
C  8.70600 48.91500 37.59900
C  8.61000 49.83200 36.39500
H  7.51900 49.72200 35.36000
N  8.17000 54.77700 40.28900
C  9.44300 54.46000 39.84700
C  10.20100 55.66900 39.74800
C  9.37100 56.70100 40.15900
C  8.07400 56.12900 40.50300
C  11.59500 55.79800 39.24300
C  9.84900 58.17000 40.13000
O  10.95500 58.51800 39.68700
C  9.01000 59.29400 40.80700
N  5.19300 54.96300 41.01400
C  5.55400 56.29000 41.01400
C  4.31400 57.24600 41.14100
C  3.20600 56.13100 41.34500
C  3.83600 54.80800 41.19600
C  4.24900 58.39300 42.26300
C  2.03200 56.48100 40.23900
C  0.89300 57.46300 40.55200
N  4.98800 52.15900 40.88000
C  3.66100 52.32900 41.24200
C  3.01300 51.08600 41.27600
C  4.02200 50.15800 40.88100
C  5.15100 50.84900 40.63000
C  1.55800 50.70900 41.61800
C  4.29400 48.69100 40.68900
O  3.59900 47.71300 40.86500
C  5.70200 48.56900 40.01300
C  5.37000 48.07300 38.61500
O  5.02400 48.78600 37.71000
O  5.52200 46.66700 38.49200
C  5.24900 46.10200 37.19900
H  10.95600 52.95000 39.51900
H  6.93200 57.88000 41.01700
H  2.05300 53.60200 41.50700
H  8.68200 48.63500 39.68700
H  10.73500 50.41900 38.78400
H  10.80900 50.84100 41.62200
H  11.41000 49.45900 40.63300
H  9.93000 49.31400 41.36400
H  7.83500 48.26200 37.53100
H  9.54600 48.25800 37.37500
H  9.61800 49.69600 36.00300
H  8.56300 50.87800 36.69900
H  12.21200 56.18400 40.05400
H  11.76300 56.40200 38.35200
H  12.02900 54.83500 38.97400
H  9.70100 60.12500 40.94500
H  8.67900 59.09700 41.82600
H  8.14100 59.57500 40.21300
H  4.31800 57.74500 40.17200
H  2.78400 56.27500 42.33900
H  5.21800 58.50000 42.75100
H  3.51900 58.19700 43.04900
H  4.08300 59.40700 41.89800
H  1.58900 55.53400 39.93100
H  2.47700 56.92500 39.35000
H  0.91100 57.71100 41.61400
H  -0.06900 57.03200 40.27300
H  1.07500 58.40900 40.04400
H  1.26700 49.99100 40.85100
H  0.91800 51.59100 41.56900
H  1.42700 50.19400 42.56900
H  6.35400 47.90100 40.57700
H  6.14900 46.17400 36.58800
H  4.42400 46.52400 36.62500
H  5.01200 45.04500 37.32500

