158

Mg 17.09000 -1.15200 28.35200
C  15.86100 0.71200 31.10300
C  18.96400 -2.97900 30.48600
C  18.46600 -2.56900 25.67200
C  15.41100 1.13300 26.22900
N  17.43400 -1.01900 30.60200
C  16.70500 -0.29600 31.50200
C  17.19700 -0.61100 32.88600
C  18.36800 -1.66000 32.68500
C  18.25600 -1.91400 31.17800
C  19.85800 -1.18600 33.12600
C  15.96700 -0.98400 33.83000
C  15.86400 -0.32400 35.24400
H  17.16900 0.15200 35.91100
N  18.42000 -2.66500 28.06200
C  19.06800 -3.35800 29.07700
C  19.75300 -4.49000 28.50600
C  19.71100 -4.31900 27.07400
C  18.83700 -3.19200 26.86100
C  20.49900 -5.51900 29.39700
C  20.34100 -5.12100 26.00100
O  20.28400 -4.80500 24.83000
C  21.18400 -6.33200 26.24300
N  16.91200 -0.78900 26.27800
C  17.67400 -1.44300 25.35000
C  17.42300 -0.98200 23.96400
C  16.21500 0.00800 24.13400
C  16.12700 0.10500 25.61200
C  18.69700 -0.38800 23.26500
C  14.91200 -0.40000 23.40100
C  13.80700 -0.94600 24.29900
N  15.87700 0.53300 28.53200
C  15.28800 1.41600 27.58700
C  14.47900 2.42600 28.27600
C  14.70800 2.08300 29.64300
C  15.61400 0.98500 29.72600
C  13.71600 3.54000 27.53000
C  14.30300 2.46100 30.94100
O  13.55800 3.39600 31.30700
C  15.22000 1.77000 31.98900
C  16.17900 2.82900 32.53800
O  17.18900 3.18300 32.00300
O  15.69900 3.34800 33.68800
C  16.72100 4.06100 34.53300
H  19.61600 -3.63900 31.06200
H  18.75300 -2.93600 24.68500
H  14.85700 1.72400 25.49700
H  17.63900 0.28800 33.31800
H  18.21300 -2.55100 33.29300
H  20.26800 -1.98800 33.73900
H  19.85300 -0.25000 33.68500
H  20.43300 -1.12100 32.20200
H  16.08200 -2.05300 34.00700
H  15.04100 -0.79100 33.28800
H  15.33000 -1.05200 35.85600
H  15.22500 0.54300 35.07900
H  19.89000 -5.75500 30.27000
H  21.33900 -4.91200 29.73400
H  20.85000 -6.44000 28.93100
H  20.67100 -7.05500 26.87800
H  22.04500 -5.87800 26.73400
H  21.49800 -6.81600 25.31800
H  17.19800 -1.91600 23.45000
H  16.62500 0.94700 23.76400
H  19.45900 -0.14400 24.00400
H  18.48900 0.54000 22.73200
H  19.13800 -1.12800 22.59800
H  15.09200 -1.01600 22.52000
H  14.50600 0.51300 22.96600
H  13.28800 -0.07400 24.69700
H  14.19400 -1.65300 25.03300
H  13.09600 -1.40800 23.61400
H  12.66900 3.30300 27.71400
H  13.92700 3.56600 26.46100
H  13.93000 4.53700 27.91700
H  14.63500 1.32300 32.79200
H  16.97800 4.97300 33.99500
H  17.68800 3.55800 34.56200
H  16.36600 4.22100 35.55100
Mg 26.47900 50.46000 26.47200
C  24.47700 51.75000 29.20200
C  28.73300 49.42400 28.79400
C  28.23900 49.23900 23.92200
C  24.27600 51.93400 24.26200
N  26.50800 50.58900 28.76900
C  25.59500 51.09700 29.67700
C  26.00200 50.81400 31.14000
C  27.47900 50.23900 30.91300
C  27.58100 50.00500 29.38300
C  28.58200 51.18700 31.51000
C  25.08100 49.79500 31.85100
C  24.60700 50.33700 33.22500
H  25.64800 50.26100 34.32000
N  28.23600 49.52500 26.34100
C  29.05700 49.13700 27.42600
C  30.25900 48.54400 26.90300
C  30.02300 48.29400 25.48000
C  28.78200 49.03000 25.14700
C  31.46200 48.06500 27.75500
C  30.87100 47.53700 24.41600
O  30.53800 47.40200 23.24200
C  32.09100 46.95900 24.86300
N  26.28900 50.61100 24.31100
C  27.11000 49.93000 23.47100
C  26.68500 50.02000 21.99900
C  25.32500 50.84900 22.12300
C  25.28600 51.21600 23.62100
C  27.74000 50.55600 20.99300
C  24.00200 50.06700 21.79900
C  22.80400 50.95100 21.25000
N  24.78000 51.52500 26.57100
C  24.00300 52.08100 25.60700
C  22.85000 52.74700 26.18100
C  23.03700 52.65800 27.54100
C  24.24100 51.92000 27.75400
C  21.88900 53.58100 25.31200
C  22.41400 53.03600 28.86700
O  21.33300 53.58800 29.13000
C  23.41300 52.45200 30.00400
C  23.81600 53.64700 30.88700
O  24.56900 54.56900 30.57800
O  23.24300 53.41600 32.11100
C  23.66900 54.27700 33.19800
H  29.47400 49.09100 29.52300
H  28.71000 48.68500 23.10700
H  23.57000 52.40900 23.57800
H  26.01900 51.67500 31.80800
H  27.59700 49.26400 31.38400
H  29.19500 51.78500 30.83600
H  29.36000 50.63400 32.03600
H  28.05900 51.84300 32.20600
H  25.65400 48.90700 32.11900
H  24.28400 49.46900 31.18200
H  23.71600 49.82700 33.59000
H  24.43000 51.41200 33.25400
H  32.38000 48.18900 27.18100
H  31.35900 47.03500 28.09700
H  31.60000 48.70600 28.62600
H  32.74600 47.83100 24.87100
H  32.38500 46.30200 24.04400
H  32.04500 46.44700 25.82400
H  26.45300 48.96800 21.83400
H  25.40900 51.75400 21.52100
H  27.37400 51.27200 20.25800
H  28.12200 49.74500 20.37300
H  28.54900 51.00000 21.57200
H  23.63800 49.50100 22.65600
H  24.19600 49.16900 21.21300
H  22.50600 50.55600 20.27900
H  23.12300 51.99100 21.17800
H  21.93100 50.90900 21.90200
H  21.29800 53.08500 24.54200
H  22.54100 54.31400 24.83600
H  21.26700 54.08600 26.05100
H  22.92400 51.68700 30.60800
H  23.55300 55.31000 32.87200
H  24.68200 53.98600 33.47500
H  23.02400 54.24300 34.07600

