158

Mg 40.60700 8.92900 29.26100
C  42.35900 10.03300 31.94100
C  38.26500 7.49100 31.42000
C  38.95900 7.59900 26.54100
C  43.01200 10.19700 27.06900
N  40.33300 8.91900 31.43700
C  41.17500 9.46600 32.34100
C  40.56400 9.46600 33.72300
C  39.21700 8.67400 33.57800
C  39.22700 8.28600 32.07800
C  39.10900 7.42400 34.48800
C  40.54100 10.86700 34.43600
C  39.35100 11.11700 35.50300
H  39.74800 11.77800 36.78600
N  38.83600 7.78600 29.04300
C  38.09500 7.17600 30.05300
C  37.06200 6.35100 29.46400
C  37.11600 6.51000 28.05700
C  38.29800 7.34200 27.78000
C  36.10100 5.46300 30.15100
C  36.26200 5.86700 26.99400
O  36.42400 6.12600 25.82100
C  35.18100 4.83800 27.40200
N  40.85200 9.01700 27.03800
C  40.12100 8.35800 26.16700
C  40.48500 8.74800 24.74600
C  41.80500 9.58100 24.90400
C  41.96100 9.58800 26.42600
C  40.51200 7.59800 23.66300
C  41.80900 10.98000 24.18300
C  41.11000 12.16600 24.89300
N  42.39900 9.71300 29.46700
C  43.29100 10.23400 28.46800
C  44.39600 10.87600 29.12900
C  44.07100 10.84200 30.52500
C  42.86500 10.11800 30.65200
C  45.57100 11.57900 28.54300
C  44.50400 11.27800 31.79300
O  45.42700 11.97900 32.13200
C  43.36100 10.83500 32.78500
C  44.03600 9.98300 33.76900
O  44.84800 9.11900 33.57100
O  43.76400 10.48700 34.99700
C  44.37800 9.77100 36.13700
H  37.57600 7.04900 32.14300
H  38.48600 7.15500 25.66300
H  43.73100 10.61700 26.36200
H  41.24500 8.85800 34.31800
H  38.38300 9.34400 33.78700
H  38.73200 6.55900 33.94200
H  38.40900 7.78300 35.24200
H  40.08600 7.20400 34.91900
H  40.41000 11.63300 33.67200
H  41.43600 11.09100 35.01600
H  38.84300 10.18100 35.73800
H  38.73500 11.85900 34.99500
H  36.28900 5.63500 31.21100
H  36.30100 4.45100 29.79700
H  35.07000 5.75600 29.95600
H  34.40500 5.36300 27.95800
H  35.59200 3.98000 27.93400
H  34.71800 4.48700 26.48000
H  39.75800 9.49000 24.41600
H  42.65400 8.96900 24.59900
H  40.50000 6.65200 24.20500
H  41.43200 7.66900 23.08300
H  39.69900 7.69800 22.94400
H  41.28100 10.73300 23.26200
H  42.84600 11.22200 23.94900
H  40.23000 12.47900 24.33000
H  41.82400 12.98100 25.00900
H  40.73900 11.92900 25.89000
H  46.42000 10.89700 28.58600
H  45.76500 12.49500 29.10100
H  45.38900 11.82500 27.49700
H  43.00300 11.80000 33.14500
H  43.58100 10.06000 36.82200
H  45.37100 10.13600 36.40100
H  44.26400 8.69400 36.00900
Mg -11.51900 38.62300 41.97400
C  -9.38200 35.95600 40.89500
C  -9.51400 40.71100 40.20900
C  -13.75000 41.03100 42.40600
C  -13.74300 36.16800 42.96100
N  -9.74300 38.30500 40.61300
C  -8.96900 37.20300 40.48500
C  -7.70100 37.57500 39.64600
C  -7.66600 39.08900 39.57700
C  -9.01300 39.45300 40.18600
C  -6.48200 39.85400 40.29600
C  -7.67600 36.89500 38.22400
C  -6.45000 35.97600 37.93900
H  -5.48400 36.61100 36.94500
N  -11.57700 40.67400 41.54000
C  -10.62300 41.32300 40.76200
C  -11.06400 42.71000 40.60200
C  -12.24300 42.90800 41.38100
C  -12.58200 41.55000 41.88500
C  -10.37500 43.75200 39.78700
C  -12.95500 44.20900 41.47800
O  -12.54300 45.29900 41.02300
C  -14.16600 44.25100 42.37100
N  -13.63800 38.49700 42.38400
C  -14.20800 39.71800 42.71300
C  -15.60500 39.46300 43.30300
C  -15.63000 37.89600 43.40800
C  -14.26100 37.46000 42.89300
C  -15.93800 40.30100 44.60300
C  -16.81300 37.21400 42.61600
C  -17.97100 36.72200 43.52300
N  -11.56500 36.45300 41.94800
C  -12.51600 35.67200 42.55800
C  -12.02300 34.24000 42.63500
C  -10.83300 34.37500 41.90100
C  -10.61700 35.65900 41.52300
C  -12.58100 33.09300 43.41900
C  -9.64800 33.63200 41.43300
O  -9.39500 32.42100 41.56900
C  -8.70700 34.63700 40.71200
C  -7.45700 34.44800 41.42900
O  -7.28800 34.72300 42.63800
O  -6.43200 33.91700 40.75200
C  -5.08600 33.68900 41.30200
H  -8.94800 41.39600 39.57400
H  -14.58800 41.73100 42.38900
H  -14.33200 35.47300 43.56200
H  -6.88400 37.18400 40.25300
H  -7.58700 39.46900 38.55800
H  -5.61400 39.19400 40.30200
H  -6.77500 39.97800 41.33800
H  -6.17500 40.82500 39.90800
H  -7.83400 37.67400 37.47800
H  -8.47700 36.16000 38.14600
H  -6.75300 34.97200 37.64200
H  -5.71600 35.82500 38.73100
H  -11.12200 44.37100 39.29000
H  -9.80500 43.17600 39.05800
H  -9.82600 44.39700 40.47300
H  -14.99300 43.68500 41.94300
H  -14.62400 45.24000 42.35300
H  -13.96100 43.91800 43.38800
H  -16.40900 39.78900 42.64300
H  -15.73000 37.65300 44.46600
H  -15.05800 40.32600 45.24500
H  -16.69100 39.75000 45.16600
H  -16.04400 41.35500 44.34600
H  -16.51300 36.36200 42.00500
H  -17.29000 37.90500 41.92100
H  -18.73500 37.45500 43.78200
H  -17.58800 36.31100 44.45700
H  -18.54900 35.90800 43.08500
H  -13.64500 33.24700 43.59800
H  -12.06400 32.75800 44.31800
H  -12.53800 32.27500 42.69900
H  -8.69200 34.22700 39.70200
H  -4.78800 34.41800 42.05600
H  -4.35300 33.63400 40.49700
H  -5.02900 32.72200 41.80300

