158

Mg 1.48800 -0.59700 43.35600
C  4.87200 0.27100 42.93200
C  0.60200 2.39200 42.03900
C  -1.70000 -1.65600 43.14500
C  2.55300 -3.83500 44.14100
N  2.66800 1.06500 42.52500
C  4.02400 1.24300 42.47200
C  4.42500 2.62600 41.96700
C  3.06100 3.35300 41.83500
C  1.98500 2.23500 42.07900
C  2.88300 4.75700 42.64400
C  5.26100 2.54200 40.61600
C  6.40800 3.55800 40.50600
H  6.41200 4.14800 39.06300
N  -0.24500 0.29000 42.62000
C  -0.43700 1.49000 42.12000
C  -1.80800 1.86800 41.94700
C  -2.56400 0.73300 42.33800
C  -1.50100 -0.29100 42.77200
C  -2.33600 3.12400 41.34900
C  -4.08700 0.59000 42.32900
O  -4.68800 1.57500 41.97300
C  -4.81700 -0.58300 42.79200
N  0.58800 -2.44000 43.70500
C  -0.73700 -2.63000 43.51100
C  -1.12700 -4.17300 43.43500
C  0.10900 -4.79200 44.08100
C  1.14400 -3.66800 43.88400
C  -2.57000 -4.64800 43.86900
C  0.45500 -6.28500 43.51900
C  1.07500 -7.18000 44.65000
N  3.36700 -1.63100 43.53300
C  3.61600 -2.91800 43.97200
C  5.07900 -3.14800 44.11900
C  5.62000 -1.84900 43.78000
C  4.53800 -1.06800 43.29700
C  5.80000 -4.40700 44.59500
C  6.83700 -1.07000 43.62200
O  7.95600 -1.43700 43.84400
C  6.38100 0.37500 42.97900
C  6.79300 1.41900 43.96800
O  6.16800 1.64200 45.00900
O  8.00700 1.89400 43.65100
C  8.55800 2.86400 44.59900
H  0.37000 3.45900 42.01800
H  -2.68000 -2.12600 43.04700
H  2.83200 -4.85700 44.40600
H  5.04900 3.10300 42.72300
H  2.88100 3.70800 40.82000
H  2.30700 4.68000 43.56600
H  2.38800 5.46800 41.98300
H  3.81200 5.14000 43.06500
H  4.62800 2.63100 39.73300
H  5.84100 1.63400 40.45100
H  7.33600 3.02400 40.70500
H  6.30400 4.42900 41.15300
H  -2.93800 3.05500 40.44300
H  -1.46800 3.68200 40.99600
H  -2.70700 3.73800 42.16900
H  -5.90700 -0.56900 42.81300
H  -4.62900 -0.72900 43.85600
H  -4.50500 -1.40800 42.15100
H  -1.14600 -4.46400 42.38500
H  -0.05300 -4.91800 45.15100
H  -2.53900 -5.55000 44.48000
H  -3.10900 -4.97500 42.98000
H  -3.13200 -3.91500 44.44900
H  1.27400 -6.19200 42.80600
H  -0.44500 -6.71900 43.08400
H  2.15200 -7.08500 44.51500
H  0.75500 -8.18500 44.37500
H  0.69300 -6.97600 45.65100
H  5.59300 -5.19600 43.87200
H  5.28200 -4.64300 45.52400
H  6.87700 -4.26200 44.67600
H  6.86400 0.44400 42.00400
H  9.64500 2.80800 44.65600
H  8.25700 2.87600 45.64700
H  8.42300 3.87300 44.20900
Mg 48.18900 34.91000 27.81900
C  46.29700 33.28500 30.22900
C  48.34800 37.66800 30.07400
C  49.37100 36.99900 25.39700
C  47.62700 32.44800 25.60800
N  47.39800 35.35200 29.92100
C  46.79400 34.45500 30.74600
C  46.86300 35.02800 32.20600
C  47.06000 36.50600 31.93300
C  47.68100 36.50600 30.55300
C  45.80600 37.41500 32.22300
C  48.14700 34.34800 32.87600
C  48.44700 34.51700 34.36700
H  47.54100 35.48600 35.20300
N  48.84800 36.98100 27.74900
C  48.90000 37.88900 28.81400
C  49.66300 39.02000 28.43500
C  49.91000 38.93600 27.02700
C  49.28500 37.61400 26.63200
C  49.95600 40.16800 29.39200
C  50.65100 39.92300 26.02900
O  50.80500 39.62700 24.86200
C  51.12300 41.29000 26.50800
N  48.22200 34.89100 25.73700
C  48.88300 35.74900 24.94400
C  48.99300 35.21900 23.51400
C  48.63900 33.69600 23.69900
C  48.16500 33.66900 25.12900
C  48.07500 36.07100 22.54600
C  49.83900 32.82700 23.33600
C  49.39400 31.58200 22.52900
N  47.23800 33.09500 27.87700
C  47.04300 32.17500 26.94100
C  46.41100 30.96700 27.43800
C  46.08600 31.36800 28.72900
C  46.58700 32.71900 28.95900
C  45.93600 29.69800 26.76000
C  45.31600 31.07100 29.99100
O  44.61800 30.08700 30.24500
C  45.38500 32.29200 30.93200
C  45.76200 31.74800 32.33100
O  46.66700 31.00500 32.59300
O  44.82400 32.12300 33.21900
C  45.11100 31.79400 34.62700
H  48.48500 38.39600 30.87600
H  49.75300 37.54700 24.53300
H  47.49000 31.71300 24.81100
H  45.98400 34.69200 32.75600
H  47.71000 36.95500 32.68400
H  44.92100 36.87200 32.55400
H  45.40600 38.05900 31.44100
H  45.91900 38.04400 33.10600
H  49.07500 34.66700 32.40100
H  48.18100 33.26400 32.77200
H  49.44700 34.89800 34.57300
H  48.43500 33.58200 34.92800
H  50.97000 40.54500 29.25400
H  49.92700 39.87900 30.44200
H  49.27100 41.00400 29.25300
H  50.43200 41.71800 27.23400
H  51.13300 41.91000 25.61100
H  52.13900 41.23400 26.89900
H  50.04000 35.34900 23.24000
H  47.75000 33.39600 23.14400
H  47.18400 35.44600 22.50300
H  48.47400 36.42300 21.59500
H  47.98200 37.00300 23.10400
H  50.34500 32.48400 24.23800
H  50.62300 33.38200 22.82000
H  48.82100 31.83200 21.63600
H  48.71800 31.02600 23.17800
H  50.18800 30.91400 22.19600
H  44.98200 29.56600 26.25000
H  45.73300 28.92700 27.50300
H  46.71400 29.35600 26.07700
H  44.44100 32.82700 31.03800
H  46.05300 31.28400 34.82800
H  44.25700 31.14100 34.80700
H  45.14400 32.74800 35.15400

