158

Mg 42.96100 3.35300 47.19900
C  41.06200 6.20600 47.19000
C  40.05600 1.50900 47.08400
C  44.77200 0.55300 46.11700
C  45.85500 5.30200 46.43500
N  40.83000 3.84900 47.14300
C  40.22200 5.12100 47.21200
C  38.66900 4.96400 47.37400
C  38.44300 3.40200 47.63700
C  39.88600 2.87600 47.21200
C  37.97500 3.03400 49.05500
C  37.73900 5.58800 46.26500
C  38.16700 5.41400 44.78900
H  38.02500 6.63600 43.84300
N  42.48900 1.29000 46.76400
C  41.19800 0.76200 46.77700
C  41.25100 -0.61600 46.52600
C  42.62500 -0.98400 46.11800
C  43.36900 0.28600 46.43300
C  39.97700 -1.43200 46.62600
C  43.16400 -2.30100 45.55000
O  42.35000 -3.22600 45.37400
C  44.65700 -2.59100 45.15700
N  44.95400 3.02000 46.26300
C  45.45800 1.77500 46.11100
C  46.94500 1.78200 45.97100
C  47.32000 3.32900 45.88000
C  45.97300 3.96500 46.10700
C  47.54600 0.97200 47.15000
C  48.05600 3.71700 44.52200
C  49.58900 3.93000 44.60600
N  43.49000 5.32200 47.12400
C  44.66800 6.05000 46.85500
C  44.46900 7.44800 47.08900
C  43.04800 7.53600 47.27000
C  42.49600 6.22800 47.14400
C  45.33200 8.64700 46.80200
C  41.93800 8.51400 47.42200
O  41.98400 9.75800 47.36200
C  40.63500 7.65200 47.42300
C  39.95200 7.96300 48.74900
O  40.17000 7.41200 49.79100
O  38.83600 8.66300 48.43700
C  37.86600 8.81100 49.49600
H  39.11400 0.95700 47.07700
H  45.36300 -0.34300 45.91700
H  46.70800 5.95800 46.25100
H  38.49000 5.54800 48.27700
H  37.73100 2.97000 46.93400
H  37.13500 2.35400 48.91600
H  37.57400 3.91300 49.56100
H  38.75600 2.55100 49.64200
H  37.55100 6.65900 46.32800
H  36.78200 5.09800 46.44200
H  37.55100 4.59700 44.41300
H  39.20300 5.07600 44.77300
H  39.39800 -1.11400 45.75900
H  39.39600 -1.29700 47.53800
H  40.14500 -2.49700 46.46800
H  45.39100 -2.49600 45.95700
H  44.91200 -1.82700 44.42300
H  44.64500 -3.59000 44.72000
H  47.27400 1.10000 45.18700
H  47.99700 3.55200 46.70500
H  47.88400 0.04600 46.68500
H  46.93700 0.76200 48.02900
H  48.46000 1.47000 47.47500
H  47.68000 4.60900 44.02100
H  47.91500 2.86200 43.86000
H  49.91700 4.89900 44.22900
H  50.08600 3.25300 43.91200
H  49.88000 3.78400 45.64600
H  46.26600 8.36100 46.31900
H  45.52900 9.16400 47.74100
H  44.78400 9.25500 46.08100
H  40.07200 7.93700 46.53500
H  38.21100 9.63600 50.12000
H  37.71500 7.91600 50.09900
H  36.89200 9.08500 49.08900
Mg -2.02000 34.77000 25.96400
C  -3.63900 33.06700 28.62600
C  -0.69100 36.89300 28.20000
C  -1.06100 36.50800 23.43100
C  -3.89700 32.58900 23.79400
N  -2.40500 35.00500 28.18500
C  -2.92500 34.17700 29.10500
C  -2.57600 34.61900 30.57400
C  -1.75400 35.96500 30.33500
C  -1.61600 36.00400 28.79100
C  -2.46700 37.18300 30.84900
C  -1.76200 33.51000 31.24400
C  -2.50200 32.45400 32.18400
H  -2.01700 32.31900 33.59000
N  -0.82300 36.37500 25.86100
C  -0.30500 37.13500 26.88300
C  0.69200 38.10900 26.32800
C  0.55600 38.00200 24.88500
C  -0.51100 36.95200 24.65200
C  1.57800 39.07500 27.21700
C  1.32900 38.76200 23.69600
O  1.04400 38.67300 22.51000
C  2.44000 39.74700 24.16700
N  -2.46700 34.61300 23.95500
C  -1.88700 35.51900 23.04700
C  -2.37600 35.21400 21.61100
C  -2.81000 33.70300 21.78300
C  -3.11500 33.62400 23.27200
C  -3.45300 36.17600 21.12100
C  -1.78900 32.66800 21.34200
C  -0.42100 32.45300 22.03700
N  -3.51400 33.09500 26.14700
C  -4.12600 32.33100 25.18000
C  -4.88100 31.29100 25.77500
C  -4.75400 31.47400 27.08000
C  -3.86200 32.65300 27.30400
C  -5.75800 30.28700 25.00000
C  -5.02400 31.04600 28.39600
O  -5.74100 30.07800 28.76400
C  -4.41500 31.99200 29.37700
C  -5.53400 32.64900 30.27400
O  -6.03300 33.73000 30.02300
O  -5.82700 31.92600 31.37800
C  -6.88300 32.47200 32.26100
H  -0.02600 37.41100 28.89400
H  -0.76300 37.20600 22.64500
H  -4.31800 31.85200 23.10700
H  -3.45800 34.80700 31.18700
H  -0.78900 35.85900 30.83200
H  -2.03900 37.27600 31.84700
H  -3.55100 37.06800 30.85600
H  -2.27400 38.06700 30.24200
H  -0.98700 33.99900 31.83400
H  -1.15900 32.96200 30.52000
H  -2.23900 31.49800 31.73000
H  -3.57500 32.63700 32.23700
H  2.64200 38.90700 27.04900
H  1.40700 38.91500 28.28200
H  1.39900 40.13000 27.01100
H  3.06600 39.97600 23.30500
H  3.08800 39.09300 24.75000
H  2.12500 40.58100 24.79400
H  -1.42000 35.34000 21.10200
H  -3.81100 33.56100 21.37500
H  -3.03900 36.53800 20.17900
H  -3.55200 37.05500 21.75800
H  -4.40900 35.68400 20.94300
H  -1.45400 32.97100 20.34900
H  -2.26100 31.69200 21.23300
H  0.45500 32.44800 21.38800
H  -0.59200 31.52500 22.58300
H  -0.17200 33.31500 22.65500
H  -6.46500 30.78500 24.33600
H  -6.33700 29.61600 25.63500
H  -5.00200 29.76200 24.41700
H  -3.84700 31.39400 30.09000
H  -6.28400 32.71100 33.14000
H  -7.55700 31.69600 32.62600
H  -7.51000 33.27700 31.87800

