158

Mg 47.13000 16.27100 27.05100
C  45.05000 15.88300 29.84900
C  49.43600 17.87000 29.10400
C  48.86900 17.13600 24.30300
C  44.72700 14.85600 24.98800
N  47.21300 16.85300 29.26600
C  46.26200 16.51200 30.22200
C  46.78300 16.90100 31.63500
C  48.09500 17.68100 31.29800
C  48.33000 17.40700 29.81000
C  47.98200 19.17100 31.63700
C  46.93300 15.66400 32.60100
C  46.15400 15.71900 33.92800
H  45.98900 17.15200 34.53200
N  48.97400 17.18700 26.75200
C  49.85400 17.68600 27.72700
C  51.07200 18.11800 27.11300
C  50.92800 17.87400 25.75000
C  49.51600 17.36700 25.49900
C  52.25100 18.67500 27.84700
C  51.91000 18.20700 24.61400
O  51.69600 17.90800 23.46300
C  53.09700 19.01300 24.81000
N  46.79200 16.09600 24.97600
C  47.64200 16.56700 24.09400
C  47.13600 16.35300 22.70900
C  46.06400 15.35600 22.87400
C  45.82200 15.39800 24.35100
C  46.80600 17.69100 21.91900
C  46.13700 13.90500 22.23600
C  44.76600 13.21900 21.94500
N  45.32100 15.50100 27.34000
C  44.49000 14.86600 26.37800
C  43.28900 14.31000 27.09200
C  43.50700 14.79300 28.43500
C  44.73600 15.43100 28.55800
C  41.91800 13.66600 26.66000
C  42.87400 14.66200 29.75000
O  41.75900 14.27000 30.13500
C  43.86900 15.40200 30.73900
C  43.05500 16.43000 31.43400
O  42.49900 17.39400 30.97500
O  43.10400 16.20700 32.82900
C  42.14900 17.05500 33.49700
H  50.16600 18.30300 29.79000
H  49.30700 17.46000 23.35700
H  44.00700 14.33000 24.35800
H  45.89800 17.45100 31.95400
H  48.87800 17.24800 31.92000
H  47.11700 19.20400 32.30000
H  47.90700 19.78800 30.74300
H  48.82100 19.38400 32.29900
H  47.95800 15.34700 32.79500
H  46.51800 14.74100 32.19800
H  46.79200 15.14300 34.59800
H  45.17900 15.24200 33.83300
H  52.44500 19.59700 27.29800
H  53.10600 18.00000 27.88300
H  51.88900 18.99200 28.82500
H  52.90900 20.00000 25.23300
H  53.52800 19.07200 23.81000
H  53.89600 18.55700 25.39400
H  47.90400 15.84700 22.12500
H  45.12700 15.75600 22.48300
H  45.78900 17.74800 21.53100
H  47.41300 17.75900 21.01700
H  46.99600 18.57000 22.53500
H  46.63100 13.28600 22.98500
H  46.83500 13.96100 21.40100
H  44.85100 12.94000 20.89500
H  43.94100 13.87600 22.22000
H  44.69300 12.28500 22.50200
H  42.01700 12.58200 26.59300
H  41.65400 13.97600 25.64900
H  41.22700 14.00200 27.43200
H  44.20900 14.76000 31.55200
H  41.17300 16.57500 33.43600
H  41.95700 18.08500 33.19600
H  42.38400 17.06900 34.56100
Mg -12.54100 38.37700 41.42800
C  -10.31200 35.88200 40.42800
C  -10.26900 40.69600 40.04000
C  -14.93000 40.65800 41.67500
C  -14.79900 35.80000 42.21500
N  -10.60400 38.22600 40.18400
C  -9.89900 37.09200 39.97400
C  -8.51600 37.43100 39.30900
C  -8.47400 38.97800 39.25100
C  -9.85100 39.36200 39.91900
C  -7.26400 39.74600 39.76400
C  -8.33200 36.80600 37.87500
C  -7.19500 35.79100 37.75200
H  -6.14700 36.13800 36.71000
N  -12.61100 40.37300 40.92700
C  -11.53500 41.14600 40.42000
C  -12.04300 42.47700 40.31800
C  -13.42400 42.51400 40.71600
C  -13.66300 41.16800 41.19100
C  -11.06800 43.59900 39.83400
C  -14.28000 43.67600 40.65100
O  -13.80000 44.73800 40.38000
C  -15.72800 43.66900 40.98800
N  -14.68300 38.26200 41.78500
C  -15.36500 39.38300 41.96400
C  -16.81900 39.03400 42.35000
C  -16.75500 37.41500 42.53800
C  -15.38400 37.07300 42.13000
C  -17.30600 39.93800 43.61500
C  -17.84800 36.71000 41.69100
C  -18.60100 35.56500 42.42900
N  -12.52900 36.23800 41.50400
C  -13.46300 35.35000 41.95500
C  -12.87700 34.06700 42.01900
C  -11.59000 34.25300 41.48200
C  -11.46400 35.58200 41.07800
C  -13.48900 32.86000 42.63300
C  -10.34000 33.55000 41.21900
O  -10.04100 32.41800 41.47800
C  -9.46800 34.65100 40.46100
C  -8.22600 34.75100 41.18200
O  -8.01100 35.53100 42.11400
O  -7.31900 33.89100 40.69100
C  -6.01300 33.55700 41.37200
H  -9.49500 41.40900 39.74900
H  -15.72000 41.37300 41.91400
H  -15.60700 35.11800 42.48800
H  -7.72100 37.07500 39.96500
H  -8.53400 39.35700 38.23100
H  -6.66400 40.32700 39.06400
H  -6.58900 38.97500 40.13700
H  -7.52300 40.31800 40.65500
H  -8.07700 37.60100 37.17400
H  -9.19300 36.28300 37.45900
H  -7.60000 34.80900 37.50700
H  -6.71400 35.72400 38.72800
H  -10.18500 43.21400 39.32300
H  -10.74100 44.20400 40.68000
H  -11.56700 44.22500 39.09400
H  -16.14500 42.90500 40.33200
H  -16.19700 44.62700 40.76300
H  -15.84400 43.51600 42.06100
H  -17.35600 39.28600 41.43600
H  -16.74300 37.04500 43.56300
H  -18.01600 40.63000 43.16300
H  -16.39600 40.37800 44.02300
H  -17.83100 39.36400 44.37900
H  -17.28900 36.25700 40.87200
H  -18.62900 37.40200 41.37700
H  -19.66300 35.48800 42.19500
H  -18.44800 35.54400 43.50800
H  -18.05200 34.67700 42.11600
H  -14.44800 32.71000 42.13700
H  -13.60100 33.17600 43.67000
H  -12.94700 31.92000 42.53500
H  -9.27700 34.25500 39.46400
H  -5.48000 32.83000 40.75800
H  -6.23500 33.20000 42.37800
H  -5.36400 34.43000 41.31700

