158

Mg 25.51100 1.87600 29.15900
C  27.63800 1.48200 31.85100
C  22.88500 2.17800 31.32000
C  23.35100 1.62500 26.58500
C  28.21800 1.13300 27.09400
N  25.33700 1.87400 31.26800
C  26.34200 1.76700 32.19200
C  25.87800 1.83800 33.66600
C  24.35000 2.09100 33.49600
C  24.17200 1.93700 31.94200
C  23.39800 1.07800 34.28600
C  26.55700 2.89600 34.63200
C  25.67400 3.58200 35.70700
H  26.24100 4.02100 37.07600
N  23.36500 2.06500 28.97300
C  22.41000 2.14900 30.01700
C  21.07900 2.21400 29.48300
C  21.24900 1.86100 28.09300
C  22.72300 1.83400 27.81800
C  19.84700 2.53100 30.38500
C  20.25100 1.58800 27.07800
O  20.42600 1.11200 25.92900
C  18.80000 1.87600 27.41500
N  25.78400 1.53600 27.07100
C  24.70900 1.56700 26.23100
C  25.17700 1.26300 24.77400
C  26.71800 1.27100 24.88900
C  26.92900 1.25300 26.41300
C  24.50600 -0.04000 24.15000
C  27.45200 2.47300 24.37300
C  28.12000 2.17000 22.97800
N  27.55300 1.40500 29.34800
C  28.50800 1.10700 28.46700
C  29.72400 0.86400 29.12900
C  29.43600 1.03700 30.47700
C  28.08900 1.30000 30.55300
C  31.05100 0.37600 28.56000
C  29.99700 0.92600 31.81100
O  31.10500 0.72000 32.21000
C  28.76100 1.24400 32.76500
C  28.62000 0.12500 33.72700
O  27.92900 -0.85300 33.42400
O  29.05200 0.40700 34.98700
C  28.85300 -0.53400 36.04800
H  22.12400 2.22300 32.10200
H  22.70500 1.50200 25.71400
H  29.08000 1.03100 26.43200
H  25.98300 0.81200 34.02100
H  23.98900 3.06100 33.83500
H  23.20000 0.16000 33.73300
H  22.42900 1.57500 34.23600
H  23.76400 0.82100 35.28000
H  27.11600 3.59400 34.01000
H  27.38000 2.46100 35.19900
H  24.86500 2.95900 36.08700
H  25.11700 4.46400 35.38900
H  20.06600 2.55500 31.45200
H  19.09900 1.74300 30.30300
H  19.38400 3.47200 30.08600
H  18.26800 2.16900 26.51000
H  18.80800 2.71200 28.11500
H  18.26800 1.04100 27.87000
H  24.73500 2.12900 24.28200
H  27.13500 0.31900 24.56000
H  25.31500 -0.56600 23.64400
H  23.87600 0.25300 23.31100
H  24.00400 -0.70500 24.85300
H  28.22000 2.76700 25.08800
H  26.81300 3.33800 24.19700
H  27.61100 2.69900 22.17200
H  27.96700 1.14400 22.64200
H  29.18000 2.42200 22.97800
H  30.80100 -0.35300 27.78900
H  31.61200 -0.22500 29.27500
H  31.59500 1.15900 28.03100
H  28.93000 2.15800 33.33500
H  28.96900 -1.57400 35.74100
H  27.89400 -0.33100 36.52400
H  29.62600 -0.45400 36.81300
Mg 53.16500 24.63800 44.57700
C  50.62100 26.83000 43.80300
C  51.30200 22.11100 42.97100
C  55.79700 22.68200 44.67500
C  55.04900 27.24800 45.76900
N  51.29500 24.62100 43.41600
C  50.47900 25.60600 43.20500
C  49.27900 25.16500 42.33400
C  49.32300 23.64600 42.61900
C  50.76700 23.40200 42.96700
C  48.41000 23.22200 43.78600
C  49.30400 25.57800 40.84000
C  50.71700 25.74500 40.29100
H  50.82400 26.46500 38.92500
N  53.57000 22.70800 43.82300
C  52.62000 21.76500 43.33500
C  53.20100 20.45500 43.27000
C  54.55800 20.56500 43.67900
C  54.74100 22.04700 43.99900
C  52.50200 19.32200 42.55200
C  55.62200 19.46700 43.66700
O  55.21600 18.33900 43.45200
C  57.12200 19.76400 43.90900
N  55.28100 24.97900 44.93400
C  56.17400 23.96100 45.00500
C  57.46800 24.41300 45.59900
C  57.22000 25.91200 45.85800
C  55.71200 26.04300 45.57000
C  57.93900 23.57500 46.88000
C  58.24000 26.88900 45.10000
C  58.07500 26.95900 43.57900
N  52.91000 26.62400 44.97100
C  53.73400 27.61100 45.50000
C  52.98100 28.85000 45.57400
C  51.71300 28.61200 44.93600
C  51.74300 27.25800 44.54900
C  53.52700 30.09700 46.29100
C  50.43700 29.17900 44.65700
O  49.91400 30.24800 44.87600
C  49.73100 28.05700 43.81100
C  49.35700 28.62400 42.49100
O  50.13000 28.97600 41.56300
O  47.95700 28.84700 42.39900
C  47.45500 29.43000 41.16200
H  50.51600 21.40400 42.69900
H  56.56800 22.01300 45.06500
H  55.79100 27.95500 46.14600
H  48.33900 25.53900 42.74100
H  48.92500 23.16300 41.72700
H  47.76400 22.40500 43.46200
H  47.85300 24.06200 44.19900
H  49.07000 22.83200 44.56100
H  48.83300 26.54500 40.66600
H  48.66300 24.95000 40.22000
H  51.22900 24.78400 40.33400
H  51.36600 26.29200 40.97500
H  51.51800 19.67900 42.24800
H  52.49500 18.50800 43.27700
H  53.04500 19.09600 41.63400
H  57.72900 18.89600 43.65100
H  57.36100 20.05800 44.93100
H  57.44900 20.66300 43.38500
H  58.25900 24.21400 44.87600
H  57.41400 26.14300 46.90500
H  57.27600 22.72900 47.06300
H  57.96900 24.11100 47.82900
H  58.95500 23.24900 46.65800
H  59.24100 26.52100 45.32400
H  58.32700 27.87600 45.55300
H  57.03300 26.89500 43.26400
H  58.68400 26.22500 43.05300
H  58.36600 27.93100 43.18000
H  54.24000 30.65200 45.68100
H  53.88300 29.66700 47.22700
H  52.79300 30.79200 46.70000
H  48.78700 27.85900 44.31700
H  47.67000 28.80600 40.29500
H  47.81700 30.45600 41.10600
H  46.37000 29.53600 41.17400

