158

Mg 27.26200 50.46800 25.55400
C  25.25800 51.82700 28.13800
C  29.47500 49.41800 28.05600
C  28.92500 49.07300 23.22600
C  24.90300 51.72300 23.23200
N  27.28100 50.56600 27.85900
C  26.34400 51.16700 28.64900
C  26.75300 50.95400 30.15300
C  28.16700 50.39800 30.13500
C  28.32300 50.11800 28.60500
C  29.24500 51.46500 30.58000
C  25.79800 49.99400 30.99800
C  25.01400 50.67100 32.16300
H  25.80200 51.03000 33.52200
N  29.04100 49.49500 25.60100
C  29.79300 49.12300 26.69800
C  30.94700 48.39300 26.16200
C  30.75700 48.11300 24.78600
C  29.57000 48.94100 24.46300
C  32.02900 47.81300 27.03800
C  31.40600 47.07800 23.87600
O  31.05200 46.91900 22.70100
C  32.36000 46.11400 24.40500
N  27.01500 50.46100 23.52700
C  27.78700 49.84300 22.68200
C  27.35800 49.86500 21.24300
C  25.86800 50.30600 21.32700
C  25.89900 50.88500 22.79100
C  28.22400 50.93600 20.46200
C  24.74200 49.26900 21.22100
C  25.11900 47.77100 21.05200
N  25.48400 51.59000 25.59100
C  24.65700 52.06500 24.59700
C  23.65400 52.90300 25.12400
C  23.78700 52.81900 26.49300
C  24.91700 51.97700 26.78100
C  22.60900 53.67100 24.43300
C  23.19400 53.20400 27.73500
O  22.19800 53.79800 28.03600
C  24.17600 52.63300 28.88200
C  24.73000 53.77000 29.69100
O  25.66000 54.50300 29.28400
O  24.00800 53.92400 30.81200
C  24.42800 54.97900 31.73500
H  30.23500 49.20000 28.81000
H  29.45900 48.73100 22.33600
H  24.14600 51.92100 22.47100
H  26.63600 51.91400 30.65400
H  28.42500 49.50100 30.69700
H  28.82400 52.38900 30.97800
H  29.78400 51.83600 29.70800
H  29.93100 50.99500 31.28400
H  26.29600 49.13500 31.44900
H  25.14900 49.53300 30.25300
H  24.27400 49.91900 32.43700
H  24.44000 51.56400 31.91600
H  33.00800 47.88000 26.56400
H  31.99700 46.73500 27.19900
H  32.11400 48.21200 28.04800
H  32.71300 45.53600 23.55100
H  31.70300 45.50300 25.02500
H  33.28400 46.49700 24.83700
H  27.45400 48.92500 20.70000
H  25.62500 51.17400 20.71300
H  27.70200 51.32100 19.58600
H  29.21200 50.59600 20.15300
H  28.24800 51.77700 21.15600
H  24.05200 49.48400 20.40500
H  24.11700 49.38900 22.10600
H  25.57700 47.55300 22.01600
H  25.78900 47.41500 20.27000
H  24.16500 47.24300 21.05400
H  21.96500 53.14100 23.73100
H  23.04600 54.56200 23.98200
H  22.02700 54.06500 25.26700
H  23.62000 52.14300 29.68200
H  25.39900 54.66200 32.11500
H  23.70100 55.13900 32.53100
H  24.71600 55.89500 31.21800
Mg 17.43300 52.48600 25.55600
C  19.35300 51.40400 28.30500
C  15.09500 53.48500 27.74800
C  15.71900 53.42100 23.01200
C  19.86300 51.04500 23.41800
N  17.32900 52.53700 27.81200
C  18.27100 52.14400 28.70300
C  17.79800 52.35900 30.09500
C  16.31800 52.83300 29.96200
C  16.20700 52.87200 28.42600
C  15.28500 52.03400 30.65400
C  18.67400 53.24700 31.00600
C  18.40900 53.26400 32.53500
H  17.28300 52.30300 33.11300
N  15.62400 53.36500 25.42300
C  14.77000 53.75000 26.44600
C  13.48800 54.33900 25.86800
C  13.70700 54.33700 24.48200
C  15.05700 53.70800 24.19100
C  12.26900 54.74700 26.65900
C  12.78800 54.84300 23.26600
O  13.06700 54.88300 22.03700
C  11.57200 55.67000 23.70700
N  17.84800 52.38400 23.49100
C  16.95000 52.87400 22.60600
C  17.44200 52.72200 21.12300
C  18.86500 52.08000 21.25900
C  18.94300 51.91600 22.87900
C  16.46200 51.94700 20.17500
C  20.03500 52.96100 20.77600
C  21.29000 52.34100 20.27900
N  19.19200 51.33400 25.75500
C  19.97700 50.75200 24.82500
C  20.94200 49.88100 25.49300
C  20.77600 50.15900 26.86200
C  19.66800 51.07700 26.93800
C  22.06900 49.13700 25.00800
C  21.25200 49.87100 28.18400
O  22.29700 49.28800 28.52400
C  20.37300 50.66400 29.20300
C  19.79400 49.60000 30.02600
O  18.95800 48.80000 29.68800
O  20.35700 49.73500 31.26700
C  19.70100 48.95000 32.28500
H  14.28800 53.81000 28.40800
H  15.17100 53.74000 22.12300
H  20.58600 50.59800 22.73200
H  17.69600 51.39500 30.59300
H  16.18500 53.85000 30.33100
H  14.66500 51.52100 29.91900
H  14.78200 52.68600 31.36900
H  15.66500 51.28200 31.34500
H  18.49700 54.22600 30.56000
H  19.70100 52.88200 31.01100
H  18.10500 54.27400 32.81100
H  19.31800 52.91300 33.02400
H  11.99400 55.78400 26.46100
H  12.38400 54.69000 27.74100
H  11.40700 54.09900 26.49800
H  11.00400 56.01300 22.84300
H  11.90100 56.51500 24.31200
H  10.88800 55.00600 24.23500
H  17.48000 53.77200 20.83200
H  18.93800 51.06100 20.88000
H  16.11700 52.69300 19.45900
H  15.55000 51.62900 20.68100
H  17.10300 51.26100 19.62200
H  20.29500 53.50800 21.68200
H  19.71500 53.65600 20.00000
H  21.39700 52.46100 19.20000
H  21.26500 51.29500 20.58200
H  22.12800 52.80700 20.79600
H  21.85800 48.94500 23.95600
H  22.05900 48.19400 25.55300
H  22.99700 49.69200 25.14300
H  21.07100 51.29000 29.75900
H  19.97600 49.41400 33.23100
H  20.06700 47.92300 32.25100
H  18.63900 48.99200 32.04400

