158

Mg 23.93900 -7.07800 44.99700
C  26.31900 -4.59400 43.79500
C  21.58100 -5.37600 43.16400
C  22.00300 -9.87200 45.41600
C  26.71900 -8.85600 46.30500
N  23.95700 -5.06300 43.83900
C  25.00800 -4.30500 43.40100
C  24.52400 -3.24000 42.42100
C  22.98200 -3.29600 42.42300
C  22.81700 -4.70500 43.17700
C  22.27600 -2.19700 43.23900
C  25.06600 -3.50500 40.98000
C  25.53300 -2.32000 40.23400
H  25.02100 -2.07000 38.85800
N  22.04800 -7.52300 44.46600
C  21.27100 -6.67500 43.70800
C  19.95500 -7.31400 43.60500
C  19.97900 -8.59200 44.25300
C  21.35400 -8.72500 44.76300
C  18.74400 -6.57000 43.09800
C  18.89500 -9.61200 44.45400
O  17.81500 -9.49400 44.00200
C  19.00300 -10.80500 45.26000
N  24.30700 -9.17300 45.75600
C  23.34300 -10.09700 45.86500
C  23.94900 -11.40000 46.49900
C  25.29100 -10.93800 47.16300
C  25.48900 -9.58700 46.37100
C  22.98700 -12.10600 47.62000
C  26.43100 -11.97000 47.10600
C  27.47900 -11.81000 48.18800
N  26.03200 -6.80900 45.18100
C  26.97400 -7.60800 45.76600
C  28.26200 -6.91700 45.67700
C  28.04100 -5.74900 44.84000
C  26.68200 -5.75600 44.61200
C  29.60300 -7.32400 46.16500
C  28.71100 -4.63400 44.17300
O  29.91500 -4.35600 44.19300
C  27.57200 -3.89100 43.36800
C  27.61000 -2.44000 43.78100
O  27.48000 -1.52900 42.95400
O  27.89900 -2.27900 45.07300
C  27.82400 -0.97100 45.70700
H  20.76400 -4.87700 42.63900
H  21.31000 -10.67000 45.69100
H  27.52300 -9.37900 46.82800
H  24.92800 -2.30600 42.81400
H  22.51600 -3.34300 41.43900
H  21.35000 -1.90000 42.74800
H  22.90200 -1.30500 43.26000
H  22.05000 -2.56000 44.24200
H  24.27400 -3.95600 40.38100
H  25.82700 -4.28500 41.02800
H  26.60500 -2.48900 40.12600
H  25.34100 -1.40900 40.80000
H  17.94200 -7.12900 42.61600
H  19.05000 -5.79700 42.39300
H  18.21700 -6.14000 43.95000
H  19.31200 -10.40400 46.22500
H  19.66900 -11.56200 44.84600
H  18.01200 -11.22900 45.42200
H  24.14900 -11.98900 45.60400
H  25.13900 -10.64200 48.20100
H  23.37000 -12.13400 48.64100
H  22.87700 -13.14900 47.32600
H  21.97700 -11.69600 47.60600
H  26.80800 -11.95400 46.08400
H  26.03000 -12.97700 47.22700
H  28.43600 -11.82500 47.66800
H  27.51100 -12.68100 48.84300
H  27.42800 -10.87300 48.74200
H  30.43800 -7.11300 45.49700
H  29.60400 -8.39200 46.38100
H  29.71200 -6.85900 47.14600
H  27.72900 -3.99800 42.29500
H  26.91400 -0.43400 45.43800
H  28.77400 -0.46200 45.54500
H  28.00200 -1.13700 46.76900
Mg 6.70100 56.63600 40.98300
C  5.50400 53.53900 40.96900
C  9.60400 55.59600 39.41100
C  7.54600 59.90700 40.25500
C  3.64700 57.78200 42.39900
N  7.50900 54.79000 40.42500
C  6.81700 53.57600 40.45200
C  7.61600 52.45600 39.86400
C  9.04600 53.06700 39.84900
C  8.73100 54.58200 39.86600
C  10.01700 52.72100 41.14200
C  7.04600 52.09500 38.41900
C  7.43400 50.66100 38.06400
H  7.61600 50.31500 36.52800
N  8.34200 57.61000 39.98600
C  9.48600 56.99700 39.46800
C  10.32900 57.94700 38.85400
C  9.80900 59.25100 39.17400
C  8.49300 58.95200 39.80300
C  11.62300 57.62300 38.19100
C  10.47900 60.63900 39.01500
O  11.53600 60.74400 38.40900
C  9.89500 61.88500 39.52200
N  5.57600 58.50200 41.09100
C  6.27300 59.73500 40.87200
C  5.45300 60.95300 41.27500
C  4.18500 60.25800 41.94900
C  4.46100 58.75400 41.79600
C  6.17700 62.07100 42.10800
C  2.84000 60.79600 41.46300
C  1.76800 60.94900 42.67200
N  4.93600 55.79800 41.71800
C  3.82500 56.37400 42.23400
C  2.89600 55.38300 42.63900
C  3.56600 54.20200 42.24000
C  4.70000 54.54400 41.53700
C  1.50300 55.63300 43.19000
C  3.48200 52.72400 42.11800
O  2.57800 51.94100 42.47000
C  4.68800 52.25100 41.26200
C  4.18700 51.64600 40.04900
O  3.40000 52.18500 39.34200
O  4.64800 50.40300 39.89300
C  4.09700 49.82500 38.68200
H  10.47900 55.11900 38.96400
H  7.77900 60.95500 40.05200
H  2.76800 58.22900 42.86700
H  7.48200 51.53500 40.43100
H  9.53800 52.80700 38.91100
H  9.59000 51.85900 41.65500
H  10.15000 53.58800 41.78800
H  11.00800 52.57600 40.71300
H  7.45600 52.73600 37.63800
H  5.95900 52.17300 38.41000
H  6.64800 49.99400 38.41900
H  8.32200 50.31100 38.59000
H  12.48900 58.16200 38.57500
H  11.55600 58.01400 37.17600
H  11.77200 56.55200 38.06200
H  9.54800 61.79800 40.55100
H  9.07100 62.14900 38.85800
H  10.65300 62.66800 39.48900
H  5.16500 61.40700 40.32700
H  4.36100 60.38600 43.01700
H  7.22800 61.89500 42.33500
H  5.62700 62.24500 43.03400
H  6.10800 63.05800 41.65100
H  2.47000 60.14900 40.66800
H  2.83200 61.80900 41.06000
H  1.42300 61.95500 42.91000
H  2.18200 60.51600 43.58300
H  0.92900 60.27300 42.50600
H  1.00500 56.42500 42.63000
H  1.52100 55.97600 44.22400
H  0.91000 54.71800 43.18200
H  5.35600 51.49600 41.67600
H  4.64300 48.89400 38.52800
H  4.17500 50.43000 37.77900
H  3.05000 49.60000 38.88500

