158

Mg 49.01200 35.94200 27.24200
C  46.85100 34.44300 29.66300
C  49.43100 38.60100 29.35900
C  50.56000 37.57600 24.71100
C  47.88600 33.56200 25.02900
N  48.29700 36.45200 29.29700
C  47.52100 35.65000 30.10600
C  47.37200 36.32400 31.49600
C  48.04500 37.74900 31.32800
C  48.64300 37.61000 29.90600
C  47.02500 38.90600 31.41700
C  47.98600 35.54700 32.63700
C  47.28900 35.80200 33.98000
H  47.74700 36.96500 34.85200
N  50.01400 37.79400 27.18900
C  50.11200 38.74600 28.14300
C  50.90100 39.85800 27.67700
C  51.15100 39.58100 26.29900
C  50.55600 38.27700 25.95200
C  51.35000 40.95900 28.48600
C  52.00500 40.46700 25.34200
O  52.09300 40.21100 24.17100
C  52.63700 41.66500 25.84500
N  49.18200 35.51700 25.21000
C  50.01700 36.30600 24.39300
C  50.11900 35.70900 22.96300
C  49.40800 34.32300 23.14200
C  48.82600 34.42400 24.55000
C  49.40200 36.52600 21.84400
C  50.20900 33.00100 22.89200
C  49.77500 32.05900 21.76000
N  47.73400 34.21900 27.31400
C  47.32200 33.44800 26.28700
C  46.35200 32.45700 26.78300
C  46.18700 32.84900 28.10800
C  47.05600 33.89200 28.37600
C  45.72500 31.33000 26.06000
C  45.50700 32.44500 29.32200
O  44.77400 31.47200 29.51300
C  45.88500 33.49800 30.38100
C  46.41800 32.84300 31.61600
O  47.44100 32.13500 31.63300
O  45.56400 33.11000 32.63400
C  45.90000 32.46900 33.93700
H  49.82700 39.42100 29.96200
H  51.17500 38.00800 23.91900
H  47.69400 32.71600 24.36500
H  46.30600 36.24700 31.71300
H  48.93700 37.95800 31.91900
H  46.93800 39.49000 30.50100
H  47.32100 39.64000 32.16600
H  46.03000 38.57000 31.70900
H  48.97600 36.00200 32.60300
H  48.09700 34.49600 32.37200
H  47.30800 34.88500 34.56900
H  46.22600 35.99900 33.83600
H  52.43900 40.98700 28.47500
H  51.23700 40.89400 29.56800
H  51.01500 41.93000 28.12100
H  53.08000 42.10200 24.95000
H  53.42800 41.32600 26.51500
H  52.00000 42.38000 26.36500
H  51.08600 35.42900 22.54400
H  48.51600 34.28300 22.51700
H  48.39100 36.13300 21.73800
H  49.94400 36.34800 20.91500
H  49.38400 37.60400 22.00100
H  50.31800 32.45800 23.83100
H  51.26200 33.24300 22.75000
H  48.78600 32.29400 21.36600
H  49.77600 31.03000 22.11900
H  50.48700 32.10000 20.93500
H  46.11400 31.32800 25.04100
H  44.65300 31.52600 26.06200
H  45.91800 30.32900 26.44600
H  44.99300 34.03500 30.70400
H  45.18300 32.87500 34.65000
H  46.95900 32.66500 34.10800
H  45.85400 31.38000 33.94400
Mg 30.69700 58.52200 40.68000
C  28.11100 56.49900 39.31700
C  32.85600 56.23900 39.30000
C  33.17700 60.75500 41.18100
C  28.33000 60.96000 41.39400
N  30.46400 56.67500 39.45800
C  29.34600 56.04500 38.99600
C  29.66800 54.67400 38.20500
C  31.10200 54.48000 38.72300
C  31.54000 55.89300 39.18200
C  31.28500 53.38300 39.80500
C  29.60900 55.03600 36.64300
C  28.55500 54.34700 35.71000
H  27.92900 55.13800 34.61900
N  32.75700 58.47500 40.34400
C  33.44500 57.41900 39.82500
C  34.79300 57.56800 40.15600
C  34.94600 58.80000 40.79100
C  33.58600 59.47100 40.72000
C  35.96600 56.59100 39.94100
C  36.25000 59.33600 41.46900
O  37.30900 58.66400 41.33100
C  36.24800 60.63800 42.27400
N  30.78600 60.61000 41.11600
C  31.94000 61.31500 41.33200
C  31.71200 62.70300 41.91100
C  30.10000 62.83500 41.88600
C  29.68200 61.36300 41.44900
C  32.47600 62.90300 43.29100
C  29.51400 64.02300 41.16100
C  28.70600 65.03900 41.91100
N  28.67800 58.64500 40.58500
C  27.87100 59.72700 40.91600
C  26.49000 59.36300 40.76400
C  26.57200 58.13300 39.98100
C  27.87300 57.69300 39.99600
C  25.24400 60.09400 41.14500
C  25.71400 57.05600 39.32400
O  24.51200 56.93600 39.18000
C  26.79200 55.92900 38.95200
C  26.60000 54.65800 39.82300
O  27.15200 54.35300 40.85800
O  25.67000 53.90500 39.19600
C  25.06900 52.74200 39.68500
H  33.54900 55.51000 38.87600
H  33.98800 61.37600 41.56700
H  27.64600 61.79600 41.55600
H  29.00700 53.87700 38.54600
H  31.74100 54.17300 37.89500
H  30.38600 52.80700 40.02300
H  31.65300 53.74600 40.76400
H  31.98500 52.63900 39.42600
H  30.55200 54.75100 36.17700
H  29.45900 56.10000 36.45900
H  27.89500 53.91700 36.46400
H  29.11000 53.52400 35.26100
H  36.72500 56.91800 39.23000
H  35.55700 55.66000 39.54800
H  36.42300 56.14700 40.82500
H  37.17500 60.68000 42.84500
H  35.39200 60.61000 42.94800
H  36.12400 61.42000 41.52500
H  32.14000 63.50900 41.31500
H  29.69600 62.92200 42.89500
H  33.34700 63.45800 42.94300
H  32.82100 61.92600 43.63100
H  32.02400 63.45000 44.11800
H  28.91300 63.61300 40.34900
H  30.35300 64.56800 40.73000
H  27.82900 65.40300 41.37600
H  29.33800 65.92400 41.98700
H  28.40900 64.70800 42.90600
H  25.04600 60.67700 40.24500
H  25.40700 60.71900 42.02300
H  24.45100 59.35600 41.26200
H  26.65200 55.64400 37.90900
H  25.69500 52.28900 40.45300
H  24.93400 52.12200 38.79800
H  24.16700 53.09300 40.18700

