158

Mg 48.33100 35.29400 27.68800
C  46.10700 33.57700 29.81500
C  48.62800 37.79200 30.10400
C  50.20700 36.94300 25.52300
C  47.97900 32.50800 25.42200
N  47.35500 35.68500 29.71900
C  46.68300 34.71300 30.47300
C  46.84200 35.05800 31.97400
C  47.25600 36.58100 31.92900
C  47.81300 36.74600 30.48700
C  46.08100 37.55800 32.30500
C  47.90600 34.16900 32.59200
C  47.97900 34.08700 34.09000
H  47.07200 34.94800 34.94100
N  49.23600 37.14200 27.77600
C  49.27900 38.05100 28.86500
C  50.16300 39.11000 28.46800
C  50.59400 38.91100 27.10900
C  49.95700 37.62900 26.77400
C  50.39600 40.30700 29.39700
C  51.36100 39.78300 26.25100
O  51.60000 39.49400 25.06800
C  51.78700 41.15200 26.72000
N  48.76300 34.91500 25.58600
C  49.75000 35.72100 25.05800
C  50.19700 35.12500 23.71600
C  49.70000 33.61600 23.81100
C  48.70900 33.64800 24.98200
C  49.68200 35.86400 22.45200
C  50.80700 32.60300 24.12600
C  51.57600 32.14300 22.87600
N  47.28200 33.43300 27.55700
C  47.19000 32.46900 26.56800
C  46.17800 31.53100 26.92300
C  45.67300 31.85200 28.18000
C  46.38000 33.05500 28.48500
C  45.84400 30.24700 26.13100
C  44.78900 31.49200 29.26500
O  43.96100 30.61800 29.42200
C  45.11600 32.52900 30.39700
C  45.56700 31.89800 31.65400
O  46.54500 31.18400 31.73500
O  44.70400 32.23900 32.65200
C  45.07600 31.72500 33.96200
H  48.62100 38.50700 30.93100
H  51.08800 37.34000 25.01500
H  47.99300 31.64600 24.75100
H  45.89200 34.77900 32.42900
H  48.01100 36.78800 32.68700
H  45.20700 36.94800 32.53200
H  45.69300 38.03300 31.40300
H  46.31700 38.27100 33.09500
H  48.90800 34.37600 32.21400
H  47.77000 33.16100 32.20100
H  48.99000 34.39900 34.35500
H  47.96500 33.00500 34.22300
H  49.84600 40.21600 30.33400
H  50.05000 41.19600 28.87000
H  51.45300 40.35700 29.65800
H  50.86200 41.72000 26.81000
H  52.54900 41.68200 26.14800
H  52.14600 40.94700 27.72800
H  51.28400 35.14500 23.78700
H  49.27000 33.31600 22.85500
H  49.21200 35.16300 21.76100
H  50.47600 36.37700 21.91000
H  48.96700 36.64600 22.71000
H  50.50600 31.66700 24.59700
H  51.52400 33.18400 24.70600
H  52.63700 32.34400 23.02400
H  51.16900 32.58900 21.96900
H  51.54600 31.05500 22.81700
H  45.14500 29.68500 26.75000
H  46.68300 29.58300 25.92500
H  45.38600 30.35000 25.14700
H  44.21600 33.05200 30.72000
H  44.60000 30.78300 34.23400
H  44.79000 32.47400 34.69900
H  46.14000 31.59400 34.16200
Mg 28.64800 59.25500 41.47900
C  26.16100 57.19600 39.91300
C  31.10000 57.25100 39.95100
C  30.65000 61.72600 42.05600
C  25.95200 61.11900 42.74500
N  28.56200 57.32500 40.19700
C  27.44600 56.78600 39.54300
C  27.83800 55.61200 38.59600
C  29.35900 55.47300 38.98300
C  29.68100 56.74400 39.72800
C  29.67200 54.29800 39.87500
C  27.71600 55.94900 37.09200
C  27.22600 54.70700 36.25300
H  26.44100 54.86300 34.97900
N  30.62000 59.41800 41.21700
C  31.46300 58.45900 40.64700
C  32.75300 58.94200 40.61100
C  32.76600 60.28100 41.17300
C  31.36200 60.56200 41.51100
C  33.90100 58.02800 40.13400
C  34.00300 61.11300 41.33500
O  35.10900 60.61800 41.06600
C  33.97300 62.47000 41.94200
N  28.26200 61.16700 42.22900
C  29.30300 61.94100 42.48000
C  28.95700 63.27600 43.10100
C  27.57400 62.94300 43.61800
C  27.18900 61.69100 42.78500
C  29.96300 63.78500 44.11100
C  26.48600 64.11600 43.47000
C  25.93200 64.75200 44.74400
N  26.42900 59.20000 41.36100
C  25.54400 59.97900 42.02200
C  24.26000 59.47700 41.86000
C  24.43700 58.32900 41.04300
C  25.79900 58.21600 40.76400
C  22.92000 59.94300 42.52800
C  23.69200 57.33700 40.39500
O  22.45600 57.21300 40.24000
C  24.81100 56.49900 39.65400
C  24.72200 55.23500 40.32500
O  24.83000 55.15600 41.49300
O  24.52700 54.19700 39.40500
C  24.34700 52.85400 40.05100
H  31.74900 56.50900 39.48000
H  31.27800 62.58500 42.30100
H  25.22100 61.76800 43.23100
H  27.23200 54.74300 38.84800
H  30.01900 55.47400 38.11600
H  30.63200 53.81700 39.68500
H  28.88500 53.55200 39.98800
H  29.81800 54.62200 40.90500
H  28.71800 56.05600 36.67500
H  27.08700 56.79100 36.80500
H  26.57500 54.03500 36.81300
H  28.14100 54.17200 35.99900
H  33.93500 57.80700 39.06800
H  33.71300 57.02100 40.50600
H  34.89500 58.31900 40.47400
H  33.04700 62.98900 41.69600
H  34.91100 62.97000 41.70100
H  33.93300 62.45800 43.03100
H  28.82500 63.99200 42.29000
H  27.62500 62.69600 44.67800
H  29.51500 64.07200 45.06200
H  30.53300 64.65800 43.79400
H  30.74500 63.06700 44.35600
H  25.58700 63.82600 42.92500
H  27.01700 64.92500 42.96800
H  24.88800 64.45000 44.82600
H  26.03700 65.83700 44.76800
H  26.43200 64.38400 45.64000
H  22.07700 59.50700 41.99100
H  22.93100 60.98400 42.20200
H  22.95800 59.66400 43.58100
H  24.67400 56.32300 38.58700
H  23.27300 52.66900 40.07700
H  24.84600 52.73900 41.01300
H  24.58800 52.02200 39.38900

