158

Mg 41.16200 8.62100 29.69600
C  43.00400 10.03100 32.38800
C  39.27100 6.99200 31.85200
C  39.92400 6.98000 27.08400
C  43.71700 9.94300 27.48900
N  41.11400 8.60900 31.87300
C  41.87700 9.27700 32.79400
C  41.37500 9.08800 34.25400
C  40.31700 7.94400 34.03400
C  40.28000 7.75200 32.48000
C  40.67500 6.56100 34.71900
C  40.86800 10.39800 34.85600
C  40.95200 10.43500 36.35200
H  40.92700 11.70300 37.11000
N  39.67600 7.30700 29.52200
C  38.95900 6.76800 30.52100
C  37.86400 5.94000 29.97300
C  38.06200 5.99200 28.58100
C  39.30700 6.76200 28.34800
C  36.86100 5.11700 30.85900
C  37.10800 5.35900 27.56400
O  37.44900 5.45000 26.39300
C  35.75500 4.89900 27.86100
N  41.76000 8.46400 27.61500
C  40.98400 7.75100 26.71800
C  41.36100 7.93500 25.27100
C  42.48600 9.02800 25.34900
C  42.65000 9.21300 26.86900
C  41.75300 6.59000 24.55100
C  42.10800 10.35500 24.63400
C  40.95000 11.22800 25.28400
N  43.11100 9.61100 29.88600
C  43.95100 10.13500 28.89200
C  44.96400 10.91700 29.57800
C  44.66000 10.97000 30.91700
C  43.49800 10.06700 31.05200
C  46.14900 11.58200 28.91600
C  45.01600 11.50700 32.27100
O  45.88300 12.30100 32.71200
C  43.88700 10.91500 33.27100
C  44.55000 10.27000 34.35400
O  45.35900 9.36200 34.39700
O  44.12300 10.83100 35.52200
C  44.51100 10.34300 36.86500
H  38.71100 6.62700 32.71400
H  39.47800 6.54100 26.18900
H  44.40000 10.37700 26.75600
H  42.21000 8.67700 34.82300
H  39.36300 8.19300 34.49700
H  41.65500 6.58300 35.19400
H  40.73200 5.81100 33.93000
H  39.88300 6.33700 35.43400
H  39.82000 10.42900 34.55700
H  41.36000 11.27600 34.43700
H  41.82500 9.86400 36.66800
H  40.07200 9.85600 36.63000
H  36.87500 4.11100 30.43800
H  35.83300 5.46200 30.74500
H  37.18000 4.97700 31.89200
H  35.40700 4.45000 26.93100
H  35.20700 5.77200 28.21600
H  35.76600 4.17400 28.67500
H  40.44800 8.37200 24.86600
H  43.37300 8.58400 24.89700
H  41.01800 6.02300 23.98000
H  41.95800 5.91100 25.37800
H  42.58200 6.75400 23.86200
H  41.84700 10.07600 23.61300
H  43.03700 10.92400 24.68000
H  40.55900 10.67400 26.13700
H  40.21800 11.44600 24.50600
H  41.38400 12.16300 25.64000
H  46.55500 12.45600 29.42500
H  45.94600 11.81800 27.87200
H  46.99000 10.88800 28.93700
H  43.26900 11.72200 33.66600
H  44.29100 9.30500 37.11700
H  43.86700 10.97200 37.48000
H  45.55900 10.55900 37.06900
Mg -8.87600 18.45000 42.11700
C  -5.36700 17.91400 42.18400
C  -8.34500 21.65000 41.24900
C  -12.11200 18.65800 41.64500
C  -9.25200 14.94200 42.42600
N  -7.03100 19.63400 41.76000
C  -5.75800 19.18200 41.72100
C  -4.85400 20.38700 41.30000
C  -5.74800 21.60400 40.96800
C  -7.12200 20.95600 41.38100
C  -5.44000 22.88700 41.86800
C  -3.79300 19.96700 40.34100
C  -4.32700 19.20400 39.03200
H  -4.12900 19.76000 37.64500
N  -10.09100 20.00500 41.66000
C  -9.71400 21.28000 41.33500
C  -10.84400 22.08900 41.21600
C  -11.98200 21.28000 41.44700
C  -11.46200 19.90900 41.51800
C  -10.86300 23.60200 41.06700
C  -13.49300 21.67900 41.47300
O  -13.84900 22.81300 41.31700
C  -14.59700 20.74500 42.03400
N  -10.44300 17.00600 41.98000
C  -11.67600 17.34100 41.80800
C  -12.58800 16.17300 41.88400
C  -11.69600 14.95100 42.16100
C  -10.31400 15.65000 42.22800
C  -13.65300 16.37300 42.99800
C  -11.78600 13.73700 41.19300
C  -13.16200 13.36400 40.60600
N  -7.58000 16.74300 42.35800
C  -7.92500 15.44100 42.53300
C  -6.70500 14.64700 42.69500
C  -5.66700 15.59500 42.58900
C  -6.24300 16.83000 42.37100
C  -6.50100 13.22300 42.79100
C  -4.23800 15.78800 42.59500
O  -3.35600 14.95000 42.78600
C  -3.93000 17.33000 42.43300
C  -3.40000 17.78100 43.72100
O  -2.25200 18.14200 43.91700
O  -4.38100 17.54700 44.66400
C  -3.81200 17.51900 45.99300
H  -8.05600 22.64500 40.90400
H  -13.16700 18.76900 41.38700
H  -9.40600 13.86200 42.47200
H  -4.29600 20.67500 42.19100
H  -5.60000 21.81900 39.91000
H  -4.49300 22.78400 42.39800
H  -6.22900 23.00000 42.61100
H  -5.42700 23.79400 41.26200
H  -2.88700 19.62900 40.84300
H  -3.46500 20.92900 39.94600
H  -5.39700 19.01400 39.12100
H  -3.82800 18.23600 39.07000
H  -11.66600 23.99000 40.44000
H  -9.90900 23.81400 40.58500
H  -10.90200 24.15000 42.00800
H  -14.25300 20.20700 42.91700
H  -14.99600 20.05200 41.29300
H  -15.45400 21.34800 42.33500
H  -13.06300 16.05700 40.91000
H  -11.81300 14.61100 43.19000
H  -14.59300 16.41100 42.44700
H  -13.47100 17.32000 43.50500
H  -13.75400 15.58300 43.74200
H  -11.61900 12.85600 41.81200
H  -10.99300 13.72300 40.44500
H  -13.16700 13.59500 39.54100
H  -13.89100 13.92600 41.19100
H  -13.36800 12.33900 40.91300
H  -5.62800 13.12800 42.14500
H  -7.35700 12.70800 42.35600
H  -6.37600 12.93200 43.83400
H  -3.24200 17.65000 41.65000
H  -2.93900 16.87600 45.88300
H  -4.53100 17.12900 46.71400
H  -3.44000 18.49000 46.32000

