158

Mg 48.64700 35.85200 27.85800
C  46.92400 34.14600 30.41400
C  49.03900 38.47000 29.98900
C  49.89700 37.66000 25.27800
C  47.65900 33.29300 25.66800
N  48.10800 36.15200 29.95800
C  47.60700 35.31800 30.88100
C  47.77400 35.89800 32.31400
C  48.03700 37.44000 32.06000
C  48.38700 37.35600 30.54700
C  46.90200 38.41100 32.43100
C  48.95200 35.22700 33.12500
C  48.68000 34.85200 34.54200
H  49.29100 35.94900 35.48400
N  49.40400 37.84000 27.72500
C  49.55400 38.75100 28.69100
C  50.31200 39.92900 28.27900
C  50.47900 39.71600 26.89600
C  49.86000 38.38600 26.51700
C  50.75900 41.06700 29.16100
C  51.29600 40.51500 25.81300
O  51.46700 40.10900 24.64800
C  51.87600 41.75700 26.22500
N  48.84000 35.38000 25.71500
C  49.46000 36.32600 24.88900
C  49.47700 35.69300 23.48000
C  48.95000 34.23100 23.65000
C  48.48100 34.30600 25.06000
C  48.63300 36.54000 22.39500
C  50.02100 33.10900 23.40500
C  49.46400 31.92500 22.57600
N  47.59500 34.05300 28.00400
C  47.25400 33.09100 27.00100
C  46.48400 32.06000 27.54100
C  46.46300 32.36200 28.92200
C  47.05500 33.60700 29.13100
C  45.84400 30.97500 26.80400
C  45.95000 31.89100 30.27700
O  45.40400 30.82600 30.64400
C  46.13500 33.16400 31.20400
C  46.62100 32.87100 32.60700
O  47.62500 32.32400 32.95200
O  45.60700 33.04300 33.41200
C  45.54700 32.30100 34.66900
H  49.43900 39.13000 30.76100
H  50.46800 38.07200 24.44300
H  47.22800 32.48400 25.07500
H  46.83600 35.80000 32.86000
H  48.98200 37.62400 32.57200
H  47.16400 39.18800 33.14800
H  46.00300 37.93900 32.82700
H  46.51900 38.87100 31.52000
H  49.76100 35.94900 33.01400
H  49.32000 34.30300 32.67800
H  49.15100 33.90600 34.80900
H  47.61200 34.93100 34.74500
H  50.43900 42.04500 28.80200
H  51.83500 41.05900 29.33800
H  50.33600 40.87200 30.14600
H  51.00300 42.35200 26.49200
H  52.38300 42.31400 25.43800
H  52.53800 41.56600 27.07000
H  50.52200 35.68000 23.16800
H  48.03700 34.04100 23.08600
H  48.05100 35.77400 21.88300
H  49.26500 37.02500 21.65100
H  48.07100 37.31100 22.92100
H  50.42900 32.66500 24.31200
H  50.85400 33.61900 22.92100
H  48.73500 32.25800 21.83700
H  48.86900 31.29500 23.23900
H  50.20700 31.26200 22.13400
H  46.53100 30.15200 26.60600
H  45.47900 31.43400 25.88500
H  44.88300 30.68300 27.22900
H  45.13900 33.57700 31.36400
H  46.08000 32.64500 35.55500
H  45.87200 31.27600 34.49000
H  44.48300 32.35900 34.89900
Mg 36.52700 49.68600 25.69300
C  36.23000 47.83800 28.73500
C  34.92000 52.35300 27.39200
C  35.91200 51.11900 22.77100
C  37.62000 46.81900 24.18100
N  35.57600 49.98600 27.80100
C  35.74900 49.13700 28.91300
C  35.21300 49.79700 30.13800
C  34.55100 51.19900 29.60600
C  35.05000 51.21100 28.20500
C  32.98600 51.34200 29.72700
C  36.30000 50.20600 31.17100
C  35.78900 49.97600 32.61200
H  34.32000 50.58700 32.83400
N  35.71200 51.61200 25.15400
C  35.19200 52.56900 25.98600
C  34.91400 53.70100 25.17700
C  34.98600 53.34500 23.79100
C  35.58400 51.97600 23.80700
C  34.42900 55.00900 25.74200
C  34.56400 54.03200 22.51900
O  34.76300 53.55300 21.45000
C  33.89000 55.40900 22.58900
N  36.64800 49.06100 23.70700
C  36.41700 49.82000 22.66900
C  36.73100 49.06300 21.35100
C  37.61500 47.83100 21.86000
C  37.35300 47.87900 23.35500
C  35.52400 48.74100 20.47900
C  39.16700 47.89800 21.43400
C  39.50700 46.73800 20.51800
N  36.94500 47.74200 26.30500
C  37.40700 46.66700 25.56600
C  37.55300 45.48400 26.46300
C  37.10000 45.93800 27.68900
C  36.71200 47.29000 27.54500
C  37.93800 44.09800 25.94000
C  36.97600 45.54000 29.15200
O  37.32100 44.51200 29.75900
C  36.46900 46.82200 29.86900
C  35.26200 46.40400 30.72100
O  34.04600 46.50200 30.37000
O  35.63500 46.12800 32.01200
C  34.67200 45.54500 32.95200
H  34.46400 53.23400 27.84800
H  35.83600 51.61700 21.80200
H  38.10100 46.02900 23.60100
H  34.40900 49.23800 30.61800
H  35.01400 52.04900 30.10800
H  32.45900 50.62000 30.34900
H  32.60500 51.56000 28.72900
H  32.81500 52.30100 30.21600
H  36.69900 51.21100 31.03900
H  37.19900 49.60500 31.03600
H  36.40400 50.52000 33.32900
H  35.83800 48.90000 32.78000
H  34.97000 55.88300 25.38100
H  34.47900 54.97200 26.83000
H  33.38600 55.19000 25.48000
H  34.36500 56.09000 23.29500
H  32.86800 55.11300 22.82500
H  33.86900 55.86100 21.59800
H  37.31600 49.69700 20.68600
H  37.18700 46.97100 21.34500
H  34.61000 49.33100 20.55600
H  35.22400 47.69400 20.50500
H  35.91500 48.96500 19.48700
H  39.75900 47.71600 22.33100
H  39.44400 48.84300 20.96600
H  39.17600 46.79800 19.48200
H  39.09600 45.87600 21.04500
H  40.59700 46.72200 20.51200
H  37.98800 43.42900 26.79900
H  38.92700 44.29000 25.52200
H  37.17700 43.70600 25.26700
H  37.13200 47.21400 30.64000
H  34.09000 46.36700 33.37000
H  35.10200 44.97600 33.77600
H  33.98500 44.86200 32.45300

