158

Mg 17.23100 52.99700 26.39000
C  19.29800 51.48700 28.90800
C  14.77500 53.38500 28.72500
C  15.07500 53.36100 23.86300
C  19.59300 51.71700 24.02400
N  17.07400 52.37700 28.53300
C  18.08700 51.98200 29.41500
C  17.65700 52.00100 30.88200
C  16.10300 52.42200 30.71600
C  15.95500 52.80100 29.26500
C  14.99700 51.42200 31.24100
C  18.57900 52.99600 31.62400
C  18.73400 52.74800 33.13900
H  17.59100 52.06300 33.91500
N  15.27600 53.58400 26.32700
C  14.43700 53.68100 27.41700
C  13.20700 54.23900 26.94300
C  13.19500 54.07800 25.52800
C  14.49700 53.58400 25.13700
C  12.15300 54.77700 27.89200
C  12.11800 54.43300 24.54600
O  12.24800 54.16400 23.33000
C  10.86100 55.00700 24.98200
N  17.40800 52.80100 24.23500
C  16.41300 53.11600 23.44400
C  16.94200 53.18600 21.98100
C  18.34100 52.64900 22.06300
C  18.50700 52.39600 23.52800
C  16.09500 52.54600 20.84300
C  19.47600 53.50000 21.40100
C  19.93100 54.75000 22.24500
N  18.97500 51.82700 26.34900
C  19.82400 51.43600 25.34200
C  20.94800 50.65500 25.85200
C  20.77100 50.65100 27.25500
C  19.59300 51.39200 27.52100
C  22.11800 50.10100 25.14700
C  21.39800 50.26600 28.49200
O  22.38800 49.59100 28.68700
C  20.43700 50.78100 29.64900
C  19.85100 49.60700 30.40200
O  18.92200 48.88000 30.06500
O  20.50600 49.52800 31.61600
C  19.82500 48.75000 32.69400
H  14.08000 53.57400 29.54600
H  14.32600 53.37800 23.06900
H  20.24500 51.32700 23.23900
H  17.75900 51.01300 31.33100
H  16.04200 53.27100 31.39800
H  14.17500 51.92300 31.75300
H  15.48300 50.61700 31.79300
H  14.62600 50.94000 30.33700
H  18.13700 53.98300 31.48500
H  19.57300 53.05400 31.18000
H  18.94300 53.73900 33.54300
H  19.66400 52.18800 33.24100
H  12.05300 55.86000 27.82600
H  12.54400 54.57300 28.88900
H  11.16900 54.30800 27.87500
H  10.34400 54.22900 25.54200
H  10.34700 55.23400 24.04800
H  11.04400 55.76800 25.74100
H  17.06700 54.25700 21.82100
H  18.45800 51.69900 21.54100
H  15.36100 51.86100 21.26600
H  16.68800 51.85800 20.24100
H  15.60100 53.16000 20.09000
H  19.14200 53.69400 20.38200
H  20.37500 52.88400 21.41000
H  20.77800 54.51200 22.88900
H  19.13900 55.07600 22.91900
H  20.20500 55.55000 21.55700
H  22.30900 50.77500 24.31200
H  21.79700 49.19000 24.64200
H  22.84100 49.94300 25.94700
H  20.97200 51.45400 30.31900
H  19.83700 49.36600 33.59300
H  20.47000 47.87200 32.73900
H  18.85700 48.26400 32.56700
Mg -5.13400 25.68700 25.96300
C  -3.69900 26.90700 28.80600
C  -7.01900 23.47300 27.86600
C  -6.51200 24.30300 23.08700
C  -2.68100 27.27600 24.04700
N  -5.34800 25.24300 28.06900
C  -4.70800 26.00000 29.09300
C  -5.23900 25.58800 30.39800
C  -5.95700 24.21300 30.13200
C  -6.11000 24.31800 28.57200
C  -5.26700 22.97500 30.68500
C  -6.19600 26.72100 31.06500
C  -6.13200 26.92100 32.60400
H  -5.55300 25.78800 33.41200
N  -6.71500 24.22600 25.50000
C  -7.31300 23.42500 26.44900
C  -8.28100 22.66800 25.76200
C  -8.19500 22.89400 24.36300
C  -7.14700 23.87900 24.25700
C  -9.28000 21.82800 26.44100
C  -9.02200 22.18500 23.23900
O  -8.80400 22.30700 22.05900
C  -10.15500 21.13600 23.54200
N  -4.81200 26.03200 23.84900
C  -5.38100 25.16700 22.93100
C  -4.80000 25.36300 21.50000
C  -3.67900 26.37800 21.79300
C  -3.65500 26.56600 23.34800
C  -4.24200 24.07600 20.79900
C  -3.84100 27.75900 21.07200
C  -2.54000 28.32400 20.42500
N  -3.51400 26.85900 26.22600
C  -2.58700 27.53400 25.43200
C  -1.70700 28.28000 26.28200
C  -2.10700 28.03200 27.57400
C  -3.18400 27.22500 27.52600
C  -0.52500 29.07400 25.76800
C  -1.77900 28.32900 28.96600
O  -0.79200 28.96300 29.40300
C  -2.85500 27.66700 29.80000
C  -2.14800 26.77800 30.78700
O  -1.91300 25.56800 30.61100
O  -1.83700 27.47200 31.96000
C  -1.18100 26.82200 33.12400
H  -7.58900 22.77400 28.48200
H  -6.85000 23.94300 22.11300
H  -1.80300 27.67100 23.53300
H  -4.38900 25.39500 31.05200
H  -6.91600 24.16600 30.64900
H  -4.70300 22.53400 29.86400
H  -6.03800 22.33300 31.11100
H  -4.57400 23.23600 31.48400
H  -7.22400 26.51200 30.76900
H  -6.02800 27.70500 30.62800
H  -7.12200 27.11600 33.01500
H  -5.60100 27.86300 32.74500
H  -10.27600 22.10400 26.09400
H  -9.23200 21.93800 27.52500
H  -9.16500 20.76000 26.25500
H  -11.00800 21.56300 24.07000
H  -9.62200 20.36900 24.10400
H  -10.54300 20.77400 22.59000
H  -5.59500 25.86800 20.95200
H  -2.77900 25.87000 21.44600
H  -4.71000 23.87900 19.83400
H  -4.37600 23.22400 21.46500
H  -3.17800 24.10700 20.56300
H  -4.20600 28.45900 21.82300
H  -4.66900 27.68400 20.36700
H  -2.69800 28.13700 19.36300
H  -1.53900 27.94700 20.63500
H  -2.65000 29.38400 20.65300
H  -0.78800 30.13100 25.81000
H  -0.32200 28.66400 24.77800
H  0.32400 28.99700 26.44700
H  -3.48400 28.29700 30.42900
H  -1.16700 27.67000 33.80900
H  -0.14500 26.63700 32.83800
H  -1.72900 25.96900 33.52300

