158

Mg 50.00400 45.85400 42.29700
C  46.54500 46.65900 41.67000
C  49.22100 42.74900 41.23700
C  53.17100 45.30100 42.39500
C  50.41100 49.23500 43.22600
N  48.00200 44.81100 41.52800
C  46.75500 45.33200 41.39900
C  45.79000 44.29000 40.77900
C  46.66200 42.99700 40.82400
C  48.03800 43.52400 41.22100
C  46.13400 41.83900 41.78300
C  45.64900 44.78600 39.37800
C  44.20000 44.70700 38.80700
H  43.91500 43.47100 37.83000
N  51.03900 44.28700 41.80200
C  50.60500 43.04500 41.46000
C  51.66000 42.15500 41.32500
C  52.86900 42.86500 41.58900
C  52.42300 44.18300 42.04600
C  51.45400 40.70400 40.91500
C  54.31800 42.24400 41.38400
O  54.45500 41.07300 41.17100
C  55.50200 43.17300 41.38400
N  51.63200 47.19000 42.78300
C  52.91400 46.66700 42.72500
C  53.92200 47.75000 43.10500
C  53.04900 48.97700 43.54200
C  51.63600 48.47600 43.16600
C  55.01800 47.43400 44.25700
C  53.53200 50.34000 42.90000
C  53.57300 51.56800 43.84800
N  48.79100 47.64100 42.48400
C  49.09300 48.94600 42.84300
C  47.92900 49.78000 42.85700
C  46.92900 48.95000 42.36200
C  47.47300 47.63700 42.13100
C  47.89600 51.27100 43.21000
C  45.55100 48.90100 41.92100
O  44.75100 49.79900 41.89800
C  45.29300 47.42500 41.37000
C  44.04500 46.94800 42.09800
O  43.92800 46.82800 43.31000
O  42.97800 46.94000 41.20400
C  41.66400 46.52700 41.78000
H  49.00400 41.72200 40.93500
H  54.23300 45.12900 42.58200
H  50.54500 50.25900 43.58200
H  44.89400 44.13800 41.38000
H  46.80000 42.38500 39.93300
H  45.04700 41.91100 41.74200
H  46.61600 41.93500 42.75600
H  46.27000 40.85700 41.33000
H  46.26000 44.20500 38.68700
H  45.98300 45.79500 39.13800
H  43.81800 45.61600 38.34100
H  43.46000 44.55100 39.59200
H  52.37500 40.18800 41.18400
H  51.28200 40.62900 39.84100
H  50.64400 40.27000 41.50100
H  55.82500 43.36500 42.40700
H  55.18800 44.11300 40.93100
H  56.22000 42.70700 40.71000
H  54.50600 47.97500 42.21300
H  52.94000 48.97900 44.62700
H  54.74500 46.46100 44.66500
H  55.00400 48.18300 45.05000
H  55.94100 47.45700 43.67800
H  52.95000 50.58200 42.01000
H  54.44300 50.19400 42.32000
H  54.59000 51.96100 43.83500
H  53.25100 51.25600 44.84200
H  52.91100 52.38200 43.55300
H  46.87200 51.39600 43.56200
H  48.08000 51.87300 42.32000
H  48.60000 51.52100 44.00400
H  45.13700 47.53700 40.29700
H  41.02400 46.46600 40.90000
H  41.21100 47.30500 42.39500
H  41.75000 45.57100 42.29700
Mg 10.10600 48.11500 24.49800
C  8.10300 48.29400 27.37000
C  12.75300 49.51100 26.39300
C  12.06600 47.94400 21.75100
C  7.22500 47.46700 22.65900
N  10.39500 48.91700 26.56000
C  9.40500 48.80100 27.55100
C  9.86800 49.47000 28.87400
C  11.24300 50.11100 28.40900
C  11.55400 49.40800 27.07900
C  11.17400 51.64900 28.17700
C  10.06800 48.52800 30.10800
C  9.36800 48.88700 31.39000
H  10.30600 49.49500 32.45600
N  12.15700 48.54000 24.17300
C  13.04300 49.00400 25.09000
C  14.36900 49.09800 24.48400
C  14.25600 48.56800 23.21100
C  12.81000 48.25000 22.97400
C  15.51900 49.60600 25.21200
C  15.35200 48.47400 22.14200
O  15.11300 47.86700 21.12200
C  16.70100 49.04100 22.32300
N  9.63400 47.98400 22.47400
C  10.73000 47.85800 21.56100
C  10.14600 47.59700 20.16900
C  8.61000 47.47700 20.38000
C  8.43600 47.53800 21.93900
C  10.58600 48.61300 19.08400
C  7.78000 46.39000 19.59700
C  6.53900 46.89700 18.76300
N  8.07600 47.81200 24.91200
C  7.06100 47.66800 24.04400
C  5.83400 47.50500 24.77900
C  6.15200 47.66300 26.13900
C  7.52000 47.90500 26.14500
C  4.43600 47.38700 24.25000
C  5.66100 47.66600 27.50900
O  4.54800 47.56800 27.92100
C  6.89400 48.13100 28.35100
C  7.00900 47.14300 29.45600
O  7.56800 46.02900 29.36900
O  6.21600 47.53800 30.52600
C  6.03600 46.53000 31.64900
H  13.59700 49.94900 26.92900
H  12.67900 47.83600 20.85400
H  6.29100 47.29400 22.11900
H  9.24000 50.30800 29.17700
H  12.09100 49.95000 29.07500
H  11.85500 52.12800 28.88000
H  10.23600 52.01000 28.60000
H  11.24400 52.06500 27.17100
H  11.13800 48.41400 30.28300
H  9.67900 47.54700 29.83400
H  8.86400 48.04500 31.86500
H  8.46400 49.47200 31.22100
H  15.36900 50.01600 26.21100
H  16.12900 50.34700 24.69500
H  16.19800 48.76800 25.36800
H  16.53000 50.10800 22.18000
H  17.39700 48.67300 21.56900
H  17.23000 48.81100 23.24700
H  10.49700 46.60100 19.90100
H  8.26000 48.50100 20.24600
H  11.49100 49.02500 19.53000
H  9.77400 49.29600 18.83500
H  10.91500 48.00500 18.24000
H  7.43600 45.71500 20.38100
H  8.45000 45.89300 18.89500
H  6.33300 47.94800 18.96200
H  5.57800 46.40800 18.92600
H  6.98700 46.94600 17.77100
H  4.01100 48.33800 23.92800
H  3.77200 47.06300 25.05100
H  4.45300 46.65400 23.44400
H  6.56800 49.08300 28.77000
H  6.77800 45.73800 31.74600
H  5.10200 45.99400 31.48500
H  5.95200 46.95000 32.65100

