158

Mg 49.81300 44.63400 42.80400
C  46.61300 44.78300 41.84100
C  49.76500 41.07600 42.22600
C  53.23300 44.52700 43.21700
C  49.96800 48.11300 43.13300
N  48.32900 43.03900 42.24000
C  47.00000 43.43900 41.89000
C  46.17900 42.17100 41.35900
C  47.11000 40.99500 41.90400
C  48.47700 41.70200 42.12400
C  46.72200 40.09700 43.08100
C  46.13600 42.21300 39.76600
C  44.68900 42.31800 39.25500
H  44.28200 43.41000 38.28900
N  51.28700 43.06000 42.75300
C  51.06300 41.65800 42.52500
C  52.28200 40.94200 42.55700
C  53.32000 41.85400 42.86300
C  52.67100 43.23400 42.94700
C  52.43400 39.51300 42.12100
C  54.81700 41.44300 43.01200
O  55.21000 40.27900 42.94600
C  55.84800 42.58100 43.01900
N  51.34200 46.08400 43.45200
C  52.66000 45.80200 43.34000
C  53.51900 47.04100 43.59900
C  52.42000 48.17800 43.68100
C  51.18800 47.40400 43.43500
C  54.41100 47.12300 44.83300
C  52.78300 49.42100 42.73300
C  52.45500 50.84800 43.14300
N  48.57300 46.15500 42.64900
C  48.77200 47.49900 42.73200
C  47.44100 48.08200 42.44600
C  46.55500 47.08900 42.19100
C  47.32700 45.91700 42.24600
C  47.19100 49.58200 42.46600
C  45.21000 46.76300 41.82300
O  44.18000 47.44400 41.70100
C  45.17500 45.26000 41.56200
C  44.16100 44.80000 42.57000
O  44.19200 44.72700 43.82700
O  42.94400 44.64300 41.84000
C  41.69800 44.49800 42.59400
H  49.77900 39.99200 42.09600
H  54.31500 44.53700 43.36800
H  49.99600 49.20500 43.10400
H  45.22000 42.27400 41.86600
H  47.20600 40.29700 41.07300
H  47.23900 40.31800 44.01400
H  46.85200 39.05800 42.77900
H  45.67700 40.31800 43.30000
H  46.65300 41.34400 39.36000
H  46.59800 43.07800 39.29000
H  43.88300 42.10600 39.95700
H  44.76700 41.51000 38.52700
H  51.53600 39.27700 41.55000
H  52.48900 38.81700 42.95800
H  53.29700 39.29100 41.49200
H  55.66600 43.35800 42.27700
H  56.76800 42.14200 42.63400
H  55.87700 43.06900 43.99400
H  54.04300 47.19000 42.65600
H  52.32000 48.56600 44.69500
H  54.05000 47.87700 45.53200
H  55.34900 47.55000 44.47900
H  54.52900 46.11800 45.23900
H  52.34700 49.28200 41.74400
H  53.85500 49.37900 42.53900
H  53.35400 51.46000 43.21000
H  51.85500 50.85500 44.05300
H  51.82900 51.24000 42.34100
H  46.29900 49.85300 43.03200
H  47.14300 49.94800 41.44000
H  48.05700 50.07600 42.90800
H  44.76500 45.09500 40.56500
H  40.97800 44.42500 41.77900
H  41.51200 45.30200 43.30700
H  41.75500 43.54700 43.12300
Mg -11.47300 16.00900 41.95200
C  -7.90400 16.13500 41.79800
C  -11.29500 19.43800 41.30600
C  -14.60900 15.78200 41.16800
C  -11.19100 12.42500 42.14200
N  -9.73700 17.60900 41.58300
C  -8.42400 17.40800 41.61200
C  -7.65100 18.69800 41.52300
C  -8.73700 19.75400 41.74300
C  -10.01600 18.92500 41.62900
C  -8.78000 20.45300 43.19000
C  -6.98600 18.95100 40.08600
C  -5.45400 19.07200 40.04400
H  -4.76700 18.45800 38.77000
N  -12.75100 17.41400 41.26700
C  -12.53400 18.75800 41.14000
C  -13.78400 19.42600 40.71100
C  -14.75900 18.38900 40.70900
C  -14.08000 17.12500 41.06700
C  -13.88800 20.90100 40.31100
C  -16.29300 18.59200 40.58400
O  -16.72800 19.71600 40.28600
C  -17.24300 17.54500 40.88400
N  -12.64500 14.30000 41.53500
C  -13.99000 14.55900 41.38200
C  -14.72700 13.22800 41.38500
C  -13.65300 12.13800 41.46300
C  -12.39100 12.95800 41.67600
C  -15.79200 13.18600 42.51200
C  -13.47800 11.15100 40.24900
C  -13.11700 9.62000 40.41800
N  -9.94400 14.54100 42.09100
C  -10.02700 13.17600 42.25800
C  -8.67100 12.71900 42.54900
C  -7.85400 13.84800 42.38700
C  -8.64100 14.90700 42.04100
C  -8.18700 11.32700 42.88700
C  -6.52300 14.31700 42.43400
O  -5.57900 13.61400 42.66100
C  -6.43600 15.84900 42.12200
C  -5.96300 16.41400 43.46200
O  -6.70900 16.70600 44.41200
O  -4.68300 16.96300 43.34500
C  -4.38400 18.04600 44.36200
H  -11.23000 20.52400 41.21800
H  -15.66800 15.54700 41.04400
H  -11.18200 11.34100 42.26900
H  -6.87600 18.80300 42.28200
H  -8.86700 20.48200 40.94200
H  -9.74200 20.28900 43.67400
H  -8.53800 21.50200 43.01800
H  -7.94600 19.93400 43.66300
H  -7.45200 19.78400 39.56000
H  -7.15200 18.07800 39.45500
H  -4.91400 18.68600 40.90900
H  -5.25900 20.14100 40.12500
H  -14.53800 21.05300 39.44900
H  -13.01700 21.50700 40.06100
H  -14.43600 21.35100 41.13800
H  -18.26500 17.92200 40.87200
H  -16.87200 17.06300 41.78800
H  -17.30000 16.81700 40.07500
H  -15.28900 13.04000 40.47000
H  -13.73500 11.54100 42.37100
H  -15.70100 12.29800 43.13600
H  -16.82900 13.25600 42.18200
H  -15.58200 14.08000 43.09900
H  -12.70200 11.62900 39.65100
H  -14.42500 11.22500 39.71600
H  -12.56100 9.38700 41.32700
H  -12.48200 9.41500 39.55600
H  -13.94700 8.91700 40.35500
H  -8.99900 10.63000 43.09800
H  -7.49400 11.47700 43.71500
H  -7.61900 10.84800 42.09000
H  -5.77200 16.15800 41.31500
H  -3.71200 18.82200 43.99500
H  -3.86300 17.52000 45.16200
H  -5.28300 18.56900 44.68600

