158

Mg 41.25600 41.84200 27.03500
C  40.45000 44.10700 29.47800
C  42.30800 39.60400 29.32700
C  42.66000 39.90100 24.52900
C  40.85700 44.42900 24.63100
N  41.22700 41.83500 29.15200
C  40.73200 42.83500 29.98600
C  40.92700 42.45900 31.44500
C  41.57000 41.03700 31.37000
C  41.77300 40.83400 29.86000
C  42.85000 40.84600 32.28300
C  39.54900 42.44300 32.21600
C  39.51200 41.51700 33.43800
H  38.91900 41.96900 34.71800
N  42.04600 39.88200 26.94500
C  42.38800 39.11500 28.01200
C  42.75600 37.79800 27.55000
C  42.85300 37.89500 26.16000
C  42.53600 39.29100 25.78400
C  43.12900 36.72000 28.63900
C  43.41600 36.86000 25.17100
O  43.66400 37.16000 24.02600
C  43.69700 35.41000 25.67700
N  41.69800 42.14400 24.98200
C  42.20300 41.17900 24.06900
C  42.18000 41.65100 22.62500
C  41.24900 42.94300 22.75900
C  41.32500 43.24400 24.22100
C  43.63100 42.17500 22.25600
C  39.72900 42.76400 22.31600
C  38.81700 41.55600 22.76300
N  40.87100 43.94800 27.03000
C  40.70700 44.83900 25.96500
C  40.41400 46.13300 26.49700
C  40.37200 45.93400 27.91100
C  40.58700 44.53600 28.14000
C  40.33800 47.34900 25.71900
C  40.14800 46.56500 29.18300
O  39.99000 47.74900 29.44400
C  40.20300 45.40100 30.23400
C  41.19200 45.66200 31.34600
O  42.31100 45.99500 31.13600
O  40.54900 45.56100 32.53800
C  41.25500 45.80600 33.77100
H  42.74900 38.99300 30.11800
H  42.89100 39.26800 23.67100
H  40.45400 45.10300 23.87200
H  41.64600 43.16300 31.86300
H  40.81400 40.27100 31.54200
H  43.69200 40.63800 31.62300
H  42.80900 39.88700 32.79900
H  43.02400 41.57200 33.07700
H  38.66900 42.25900 31.60000
H  39.44800 43.42300 32.68400
H  40.47400 41.05100 33.65300
H  38.85200 40.72500 33.08400
H  43.35900 35.68400 28.39100
H  42.29600 36.60900 29.33200
H  43.92500 37.17300 29.23000
H  42.72400 34.98700 25.92900
H  44.23100 35.37900 26.62700
H  44.16200 34.81400 24.89100
H  41.73500 40.94500 21.92400
H  41.72500 43.79200 22.26900
H  43.79500 42.03700 21.18700
H  44.42200 41.63300 22.77500
H  43.77200 43.24400 22.41700
H  39.62100 42.79600 21.23100
H  39.33900 43.73100 22.63600
H  39.32800 40.77700 23.32800
H  38.48300 41.08600 21.83800
H  37.84100 41.83300 23.16300
H  39.92600 48.20100 26.26100
H  39.56400 47.03200 25.01900
H  41.20000 47.58800 25.09600
H  39.25000 45.54100 30.74400
H  41.57600 46.84100 33.65100
H  42.06900 45.12800 34.02700
H  40.62200 45.85300 34.65700
Mg -5.00500 24.63500 27.39700
C  -3.47400 26.49500 29.79300
C  -6.12200 22.36200 29.65100
C  -6.29300 22.78700 24.86700
C  -3.47300 26.82400 24.84500
N  -4.80600 24.47100 29.41100
C  -4.25700 25.39900 30.22100
C  -4.65800 25.15200 31.64100
C  -4.97800 23.61500 31.64100
C  -5.31900 23.43000 30.12000
C  -3.94600 22.58100 32.09200
C  -5.68400 26.15500 32.14800
C  -6.21200 26.03900 33.59300
H  -5.70000 24.97000 34.51300
N  -6.14000 22.86100 27.29300
C  -6.40300 22.05100 28.31500
C  -7.32400 20.97000 27.83300
C  -7.48900 21.13100 26.44500
C  -6.59800 22.25200 26.14000
C  -7.98000 20.01500 28.80800
C  -8.27900 20.32200 25.45100
O  -8.35800 20.62200 24.27800
C  -9.13200 19.24700 25.90600
N  -4.94100 24.83900 25.14400
C  -5.59300 23.93200 24.40900
C  -5.66500 24.35100 22.90300
C  -4.78500 25.69900 22.95600
C  -4.36000 25.77600 24.38000
C  -5.03700 23.29000 22.02500
C  -5.59100 27.01100 22.49200
C  -4.79400 27.87900 21.52700
N  -3.63900 26.26900 27.31300
C  -3.22200 27.05700 26.25700
C  -2.40600 28.13100 26.82800
C  -2.48400 27.95700 28.25600
C  -3.24600 26.85700 28.43000
C  -1.65000 29.05600 26.04100
C  -2.00900 28.48600 29.50900
O  -1.29000 29.44900 29.74300
C  -2.74600 27.59000 30.59100
C  -1.76400 27.04800 31.55400
O  -1.06300 26.16300 31.20600
O  -1.88000 27.59100 32.76700
C  -1.00100 27.02600 33.84200
H  -6.48800 21.80100 30.51300
H  -6.67700 22.26600 23.98800
H  -3.14400 27.48100 24.03700
H  -3.82100 25.26300 32.33000
H  -5.92500 23.46600 32.15800
H  -3.12800 23.16000 32.52100
H  -3.54100 21.96800 31.28700
H  -4.38500 21.93600 32.85400
H  -6.52900 26.21500 31.46100
H  -5.33500 27.18800 32.14200
H  -7.29700 25.95900 33.65800
H  -5.98600 27.02100 34.00900
H  -7.37700 19.15800 29.10800
H  -8.90500 19.71500 28.31500
H  -8.23300 20.47600 29.76300
H  -9.91500 19.55800 26.59900
H  -8.49300 18.56100 26.46100
H  -9.52700 18.72300 25.03600
H  -6.68400 24.43900 22.52500
H  -3.95300 25.52900 22.27200
H  -4.73700 22.45700 22.66100
H  -4.18300 23.61100 21.43000
H  -5.74600 22.85300 21.32100
H  -5.88200 27.63300 23.33800
H  -6.46100 26.68100 21.92300
H  -5.52000 27.96900 20.71900
H  -3.92600 27.40400 21.07100
H  -4.43700 28.80400 21.98000
H  -2.18200 29.45000 25.17500
H  -0.80900 28.57000 25.54500
H  -1.31600 29.88100 26.67100
H  -3.43600 28.20700 31.16700
H  -0.31000 27.81300 34.14600
H  -0.51200 26.12100 33.48000
H  -1.58700 26.66500 34.68700

