158

Mg -1.22500 17.60000 25.65600
C  -1.91300 15.49100 28.53200
C  -2.14500 20.25600 27.62900
C  -1.25500 19.45600 22.92600
C  -1.13100 14.61900 23.72900
N  -1.71900 17.85000 27.91200
C  -2.02800 16.91100 28.83600
C  -2.52800 17.50300 30.16700
C  -2.53200 18.99600 29.87800
C  -2.07100 19.06800 28.38800
C  -3.89600 19.65000 30.16000
C  -1.75100 17.00700 31.44600
C  -2.03200 17.78400 32.75800
H  -1.85700 16.91200 33.99700
N  -1.63800 19.54600 25.36300
C  -1.89400 20.51000 26.27600
C  -1.80200 21.84600 25.62000
C  -1.74400 21.59800 24.20500
C  -1.53100 20.15800 24.10200
C  -1.80800 23.02800 26.52900
C  -1.60500 22.57200 23.09900
O  -1.48400 22.31400 21.91200
C  -1.64600 24.05700 23.47000
N  -1.21800 17.14000 23.64500
C  -1.14500 18.09900 22.69900
C  -0.81700 17.54800 21.29100
C  -0.63700 16.06700 21.61400
C  -1.00500 15.93700 23.05400
C  -2.03700 17.73100 20.35300
C  0.80600 15.51200 21.30700
C  1.95500 15.49800 22.38100
N  -1.44400 15.50600 26.06000
C  -1.38600 14.45800 25.14200
C  -1.49100 13.18000 25.88000
C  -1.71900 13.54300 27.20800
C  -1.67300 14.97500 27.23200
C  -1.47100 11.74900 25.32200
C  -1.94800 13.06600 28.55000
O  -2.14300 11.94500 29.06100
C  -2.05000 14.32800 29.41900
C  -0.85400 14.23100 30.24900
O  0.26000 14.70000 30.03800
O  -1.18000 13.47800 31.37800
C  -0.13200 13.13400 32.33500
H  -2.54100 21.09600 28.20200
H  -1.20100 20.07800 22.03000
H  -0.97500 13.89700 22.92500
H  -3.52100 17.10700 30.37500
H  -1.78100 19.45800 30.51900
H  -4.52200 19.18200 30.91900
H  -4.52700 19.55800 29.27600
H  -3.77100 20.64100 30.59600
H  -0.70800 17.02100 31.12800
H  -1.96200 15.97000 31.70900
H  -3.06600 18.03200 32.51800
H  -1.47000 18.71800 32.71900
H  -0.99100 23.00600 27.24900
H  -2.70800 22.89600 27.13000
H  -1.97200 24.05100 26.19100
H  -1.74700 24.57200 22.51500
H  -0.67000 24.11700 23.95100
H  -2.44400 24.45200 24.09800
H  0.10600 17.96800 20.89300
H  -1.29200 15.34000 21.13400
H  -1.75300 18.40600 19.54500
H  -2.81700 18.11800 21.00800
H  -2.33800 16.74000 20.01500
H  1.15200 16.08800 20.44900
H  0.71800 14.47000 20.99700
H  2.42900 14.52000 22.46700
H  1.56900 15.80300 23.35400
H  2.68200 16.23000 22.03000
H  -0.65200 11.72700 24.60200
H  -2.36500 11.50700 24.74800
H  -1.41000 11.02800 26.13700
H  -2.85500 14.29500 30.15400
H  0.83200 13.60600 32.14800
H  0.04700 12.06000 32.38400
H  -0.43300 13.33400 33.36300
Mg 2.59300 -0.98300 44.19300
C  5.98800 -0.17000 43.40500
C  1.55800 1.60400 42.36200
C  -0.55000 -2.20500 44.41500
C  3.77000 -4.16400 45.17000
N  3.67600 0.47900 42.94700
C  5.04100 0.67400 42.83200
C  5.30700 2.00000 42.08000
C  3.84900 2.61700 41.88200
C  2.95200 1.48600 42.37900
C  3.54700 4.06100 42.38400
C  6.25200 1.77500 40.88200
C  7.10400 2.95400 40.45700
H  6.71300 3.63200 39.09500
N  0.76400 -0.28300 43.59400
C  0.53700 0.79600 42.84700
C  -0.86300 0.96400 42.59200
C  -1.51100 -0.05900 43.25200
C  -0.37900 -0.94400 43.79700
C  -1.44300 2.16200 41.80600
C  -3.04900 -0.23700 43.32700
O  -3.85500 0.54800 42.84800
C  -3.59800 -1.36300 44.11500
N  1.73800 -2.90300 44.75600
C  0.42100 -3.14800 44.82500
C  0.16100 -4.60100 45.15100
C  1.56000 -5.22200 45.27700
C  2.42900 -4.01700 45.09200
C  -0.81800 -4.81500 46.28500
C  1.76200 -6.41500 44.27500
C  1.43200 -7.82400 44.76000
N  4.41900 -1.91700 44.41100
C  4.74600 -3.19600 44.89500
C  6.14400 -3.42700 44.90400
C  6.71700 -2.16300 44.45900
C  5.60700 -1.34200 44.11400
C  6.79200 -4.75000 45.32000
C  8.00100 -1.47300 44.20500
O  9.15300 -1.87500 44.42200
C  7.53300 -0.15100 43.45900
C  8.05900 1.02600 44.34200
O  7.46300 1.40900 45.36400
O  9.14500 1.64500 43.76000
C  9.71600 2.74400 44.59600
H  1.35200 2.54400 41.84700
H  -1.51900 -2.65700 44.63700
H  4.15400 -5.18400 45.23300
H  5.90700 2.60900 42.75700
H  3.73100 2.59900 40.79800
H  3.26000 4.65600 41.51600
H  4.46800 4.42100 42.84200
H  2.67300 4.22300 43.01500
H  5.62300 1.56400 40.01700
H  7.04100 1.03700 41.02600
H  8.14500 2.67100 40.30400
H  7.21400 3.70800 41.23600
H  -1.86300 1.76000 40.88400
H  -0.77900 2.99300 41.56600
H  -2.18100 2.66900 42.42700
H  -4.68400 -1.31000 44.04800
H  -3.24100 -1.23200 45.13700
H  -3.24500 -2.30500 43.69500
H  -0.28500 -4.94000 44.21500
H  1.67100 -5.49000 46.32800
H  -1.41500 -3.90600 46.34800
H  -0.31300 -4.95400 47.24100
H  -1.39000 -5.69900 46.00100
H  2.75000 -6.36400 43.81900
H  1.22100 -6.23500 43.34600
H  0.57700 -8.23100 44.22000
H  1.16700 -7.92600 45.81200
H  2.23600 -8.54500 44.60900
H  6.53800 -5.10000 46.32100
H  7.86700 -4.66200 45.16900
H  6.55200 -5.54600 44.61500
H  8.07200 -0.14700 42.51100
H  10.77000 2.88200 44.35500
H  9.67200 2.47800 45.65200
H  9.12800 3.65000 44.45600

