158

Mg 48.42000 15.50800 28.41000
C  46.33400 15.00700 31.37000
C  50.45500 17.26400 30.33900
C  50.19200 16.21400 25.61700
C  45.77700 14.12300 26.49900
N  48.32800 16.01800 30.61200
C  47.45100 15.74200 31.65200
C  47.90800 16.28500 32.92400
C  49.18800 17.13900 32.56000
C  49.38600 16.79200 31.02200
C  48.98000 18.73700 32.68600
C  48.31200 15.13900 33.91300
C  47.87200 15.17700 35.40100
H  47.55300 16.49200 35.91200
N  50.17500 16.57000 28.05200
C  50.87400 17.21400 28.97400
C  52.07900 17.76100 28.41600
C  52.08900 17.30600 27.05700
C  50.79800 16.63400 26.82300
C  53.11100 18.44800 29.28900
C  53.20600 17.40300 26.03800
O  53.16200 16.70600 25.00300
C  54.46100 18.24500 26.28100
N  48.01600 15.22500 26.36700
C  48.99100 15.51900 25.40800
C  48.39200 15.27000 24.03000
C  46.96500 14.58000 24.27900
C  46.87700 14.71600 25.80500
C  48.23200 16.58600 23.20200
C  46.92700 13.09000 23.73200
C  47.80600 12.11600 24.51800
N  46.46300 14.64200 28.82000
C  45.54700 14.01200 27.94600
C  44.45000 13.57800 28.75900
C  44.69300 13.88300 30.09900
C  45.94600 14.51600 30.07100
C  43.22100 12.93800 28.25500
C  44.27200 13.73500 31.46400
O  43.19200 13.29200 31.91000
C  45.26600 14.48400 32.32400
C  44.44900 15.36800 33.21200
O  44.02600 16.45700 33.00700
O  44.20800 14.65700 34.36000
C  43.41600 15.39400 35.36000
H  51.12300 17.85400 30.96900
H  50.82700 16.41300 24.75100
H  45.05800 13.52900 25.93100
H  47.13700 16.99900 33.21200
H  50.15000 16.89400 33.00900
H  49.72800 19.13300 33.37200
H  47.99600 19.01900 33.06300
H  49.06300 19.35700 31.79300
H  49.37300 15.05300 34.14700
H  48.07000 14.22300 33.37500
H  48.65300 14.84500 36.08400
H  47.03500 14.48300 35.47600
H  53.54400 17.65100 29.89500
H  52.72900 19.18700 29.99300
H  53.81100 18.89400 28.58300
H  54.20000 19.27400 26.52600
H  55.03200 18.21600 25.35300
H  54.95200 17.73900 27.11300
H  49.02000 14.46600 23.64800
H  46.08100 15.18600 24.08300
H  47.74600 17.24900 23.91800
H  47.67400 16.46600 22.27400
H  49.26800 16.83300 22.96900
H  47.36200 13.05700 22.73300
H  45.87300 12.81600 23.69000
H  48.23500 11.48000 23.74400
H  47.22200 11.48100 25.18300
H  48.64900 12.59600 25.01600
H  43.09700 11.91100 28.59900
H  42.96000 13.10100 27.20900
H  42.43700 13.53900 28.71500
H  45.71100 13.69200 32.92600
H  42.55800 15.83500 34.85400
H  43.90900 16.18100 35.93000
H  42.90300 14.62700 35.94000
Mg 0.45000 43.20800 26.15200
C  2.71300 43.72100 28.93400
C  -2.02000 42.31900 28.32400
C  -1.34400 42.00000 23.56100
C  3.38300 43.29900 24.07200
N  0.43800 42.91500 28.29000
C  1.38000 43.22300 29.26900
C  0.81800 43.03000 30.68700
C  -0.59000 42.39000 30.41500
C  -0.78200 42.57500 28.91000
C  -0.72800 40.88600 30.68900
C  0.71700 44.41100 31.44300
C  0.73900 44.32500 32.97100
H  0.66000 42.95500 33.68900
N  -1.49800 42.51000 25.96300
C  -2.39300 42.24900 26.95900
C  -3.71600 41.94000 26.34400
C  -3.54700 42.04900 24.95900
C  -2.08200 42.14600 24.78800
C  -4.92500 41.75200 27.21400
C  -4.55200 41.89700 23.82300
O  -4.22300 41.86500 22.66100
C  -6.03800 41.68500 24.22600
N  0.92800 42.68900 24.15200
C  -0.00300 42.11200 23.33000
C  0.67000 41.76500 21.94900
C  1.97900 42.66000 21.98100
C  2.13900 42.92200 23.48200
C  0.79400 40.21400 21.78700
C  1.88500 43.97700 21.28800
C  3.18600 44.37700 20.61100
N  2.60700 43.45400 26.42800
C  3.58000 43.64400 25.45300
C  4.75000 44.12700 26.06700
C  4.44100 44.18500 27.41600
C  3.17700 43.77500 27.63700
C  6.01700 44.40900 25.28400
C  5.01700 44.42400 28.72200
O  6.16900 44.74200 29.15700
C  3.86000 44.13200 29.75400
C  4.31000 43.05700 30.77900
O  4.25100 41.84900 30.55900
O  4.64700 43.70700 31.99200
C  4.97400 42.73300 33.07700
H  -2.85700 42.08900 28.98600
H  -1.94100 41.68600 22.70200
H  4.13300 43.48100 23.29900
H  1.51500 42.38900 31.22700
H  -1.38800 42.94000 30.91500
H  -1.66800 40.69600 31.20600
H  0.07900 40.55900 31.34500
H  -0.60900 40.23500 29.82200
H  -0.22000 44.94100 31.27000
H  1.56800 45.01100 31.12200
H  0.08300 45.08300 33.39800
H  1.71700 44.77000 33.15300
H  -5.81100 42.34400 26.98300
H  -4.73800 42.19300 28.19300
H  -5.02700 40.66900 27.15300
H  -6.70400 41.39300 23.41400
H  -6.36300 42.65500 24.60500
H  -5.98900 40.92300 25.00300
H  0.04300 42.11800 21.13100
H  2.84800 42.08200 21.66500
H  0.38700 39.79500 22.70800
H  1.80900 39.98300 21.46300
H  0.12100 40.02100 20.95200
H  1.53400 44.70400 22.02100
H  1.07200 43.89200 20.56700
H  3.96800 43.69700 20.94900
H  3.34900 45.42000 20.88200
H  3.07000 44.28300 19.53200
H  5.86400 45.35600 24.76800
H  6.05500 43.65800 24.49500
H  6.91400 44.35600 25.90100
H  3.73600 45.07200 30.29200
H  5.78300 42.04700 32.82500
H  4.04400 42.17300 33.18200
H  5.16700 43.28900 33.99400

