158

Mg 17.05700 -0.91200 28.68100
C  15.79000 0.99600 31.42200
C  18.73400 -2.77900 30.97000
C  18.35400 -2.43700 26.12700
C  15.32800 1.28100 26.52500
N  17.31100 -0.74500 30.96800
C  16.70800 0.06100 31.88100
C  17.06100 -0.36800 33.34000
C  18.10400 -1.49800 33.16800
C  18.08700 -1.68900 31.60400
C  19.54700 -1.18400 33.78300
C  15.75500 -0.80700 34.05000
C  15.46100 -0.16700 35.48700
H  16.61600 0.52200 36.21900
N  18.34600 -2.41600 28.57600
C  18.91500 -3.08500 29.59900
C  19.62500 -4.29200 29.03000
C  19.62900 -4.10200 27.62600
C  18.74800 -2.92600 27.39300
C  20.34200 -5.20200 29.96300
C  20.19800 -4.99400 26.59400
O  20.14100 -4.74800 25.39400
C  20.83100 -6.33000 27.00400
N  16.90600 -0.52200 26.63700
C  17.64000 -1.32900 25.74500
C  17.31600 -1.04800 24.25600
C  16.25500 0.14700 24.39000
C  16.15800 0.31700 25.92600
C  18.59000 -0.56400 23.50100
C  14.90700 -0.14100 23.68400
C  13.91900 -0.89200 24.50500
N  15.84000 0.79700 28.84400
C  15.16900 1.55300 27.88500
C  14.28600 2.47400 28.50300
C  14.52000 2.32700 29.88900
C  15.47200 1.31700 30.00300
C  13.36200 3.46300 27.77800
C  14.07400 2.76400 31.17800
O  13.32700 3.70700 31.40600
C  14.81900 1.84600 32.25400
C  15.53000 2.70700 33.34700
O  16.69200 3.08800 33.39000
O  14.54800 3.10400 34.26700
C  14.94500 4.20900 35.20500
H  19.20400 -3.40500 31.73200
H  18.72000 -2.86800 25.19300
H  14.43600 1.64500 26.00900
H  17.49600 0.48000 33.87100
H  17.75500 -2.36100 33.73600
H  19.52800 -0.39100 34.53000
H  20.26700 -0.88000 33.02300
H  20.03200 -2.03500 34.26100
H  15.79400 -1.87500 34.26500
H  14.86600 -0.67000 33.43400
H  15.17100 -1.01100 36.11300
H  14.58800 0.48200 35.40800
H  20.44100 -4.79900 30.97100
H  21.34700 -5.36300 29.57100
H  19.91100 -6.19800 30.06500
H  20.18900 -7.07600 27.47300
H  21.65400 -6.08000 27.67400
H  21.39600 -6.74700 26.17000
H  16.86100 -1.91500 23.77800
H  16.66500 1.11600 24.10600
H  18.36100 0.33900 22.93500
H  19.03000 -1.34000 22.87500
H  19.39500 -0.29900 24.18700
H  15.00100 -0.63300 22.71600
H  14.57000 0.87800 23.49300
H  14.47900 -1.21500 25.38200
H  13.49600 -1.72100 23.93700
H  13.10400 -0.20100 24.72100
H  13.88800 3.63200 26.83900
H  13.39000 4.39900 28.33500
H  12.34100 3.10100 27.65400
H  14.00300 1.32000 32.75000
H  14.07400 4.42000 35.82500
H  15.30000 5.09800 34.68500
H  15.84300 3.87700 35.72500
Mg 1.72100 42.49200 25.45000
C  3.87100 42.40800 28.08700
C  -0.89100 41.15400 27.47900
C  -0.17000 41.81800 22.74500
C  4.41300 43.33300 23.31300
N  1.56400 41.78200 27.53400
C  2.57200 42.01300 28.39700
C  2.02600 41.67000 29.85100
C  0.59900 41.14200 29.57000
C  0.33600 41.48900 28.13100
C  0.26800 39.61200 30.00800
C  2.12900 42.95800 30.72900
C  2.49300 42.69300 32.25200
H  2.22700 41.31500 32.90700
N  -0.37400 41.76500 25.17300
C  -1.24400 41.27200 26.08300
C  -2.50500 40.97500 25.35900
C  -2.31200 41.27100 23.95600
C  -0.90700 41.60400 23.92700
C  -3.68800 40.34200 26.15800
C  -3.24500 41.17700 22.76700
O  -2.97800 41.49600 21.60900
C  -4.61500 40.64400 23.01100
N  2.08700 42.54800 23.33500
C  1.12100 42.24200 22.44600
C  1.65400 42.47700 21.02600
C  3.03900 43.34100 21.27900
C  3.14500 43.16000 22.71100
C  1.89000 41.15400 20.34100
C  3.02100 44.78300 20.73300
C  2.18100 45.74900 21.57500
N  3.76200 42.92400 25.61700
C  4.73600 43.21900 24.69500
C  6.00600 43.23400 25.36500
C  5.72800 42.95300 26.69000
C  4.38300 42.79000 26.77900
C  7.36200 43.61700 24.75300
C  6.29500 42.76200 28.01400
O  7.47900 42.81900 28.33300
C  5.07100 42.41800 28.99500
C  5.43400 41.15600 29.66500
O  5.23000 40.12000 29.19800
O  5.92800 41.39900 30.85700
C  5.83000 40.28400 31.78100
H  -1.67100 40.85400 28.18300
H  -0.70900 41.63400 21.81300
H  5.24000 43.44800 22.61000
H  2.65900 40.90700 30.30400
H  -0.05000 41.77500 30.17400
H  -0.03800 38.98100 29.17400
H  -0.47600 39.70100 30.80000
H  1.21600 39.20100 30.35200
H  1.22300 43.56100 30.65700
H  2.89000 43.66300 30.39600
H  1.92200 43.44200 32.80000
H  3.53200 43.02000 32.28500
H  -3.34200 40.34700 27.19200
H  -3.86600 39.28400 25.96500
H  -4.59300 40.92400 25.98300
H  -5.26300 40.87600 22.16600
H  -5.14300 41.09500 23.85200
H  -4.57400 39.56100 23.12600
H  1.00800 43.15200 20.46400
H  3.94800 42.87700 20.89600
H  1.19200 40.43700 20.77400
H  2.92600 40.89600 20.56000
H  1.68300 41.37300 19.29300
H  2.60900 44.75200 19.72400
H  3.99700 45.23600 20.55900
H  1.42700 46.05000 20.84700
H  2.73600 46.62300 21.91800
H  1.66600 45.18000 22.34900
H  7.21700 44.33400 23.94400
H  7.95000 42.80500 24.32600
H  7.95300 44.08800 25.53800
H  4.93500 43.29600 29.62600
H  6.81000 39.82000 31.66600
H  5.10600 39.48500 31.61900
H  5.71600 40.68100 32.79000

