158

Mg 42.08300 7.06800 30.54800
C  43.88700 9.23500 32.60300
C  39.87900 6.40900 33.10200
C  40.25600 5.34400 28.41900
C  44.32600 7.89200 27.94500
N  41.88400 7.88500 32.58900
C  42.71200 8.73900 33.22600
C  42.30200 8.82100 34.72700
C  41.05600 7.93400 34.81800
C  40.94600 7.25200 33.42500
C  40.97100 6.90000 35.92000
C  42.09500 10.25400 35.27100
C  41.05900 10.53300 36.42700
H  41.67100 11.34900 37.59100
N  40.41200 5.89000 30.73900
C  39.55100 5.84300 31.82700
C  38.43400 4.92300 31.51900
C  38.56600 4.55900 30.19000
C  39.76200 5.29400 29.69100
C  37.38400 4.49000 32.57000
C  37.76800 3.61400 29.35800
O  38.05400 3.36300 28.15600
C  36.72900 2.77700 29.90200
N  42.34500 6.65700 28.54900
C  41.40200 5.91000 27.86100
C  41.68000 5.78700 26.41200
C  42.77500 6.93900 26.28300
C  43.31500 7.04400 27.64500
C  42.14400 4.31800 25.96000
C  42.11200 8.29600 25.87300
C  42.12400 8.68100 24.36700
N  43.90400 8.19300 30.27500
C  44.64900 8.44900 29.13600
C  45.72900 9.35900 29.46800
C  45.44400 9.70500 30.85100
C  44.36200 8.97200 31.25600
C  46.82100 9.95000 28.59600
C  45.92000 10.47200 31.96200
O  46.80100 11.34400 32.05300
C  45.04000 10.06700 33.18300
C  45.78700 9.41000 34.27800
O  46.21200 8.28800 34.17100
O  45.78200 10.22700 35.36700
C  45.79900 9.41500 36.60000
H  39.15700 6.23000 33.90100
H  39.58400 4.87100 27.69900
H  45.04500 8.27400 27.21600
H  43.13700 8.31500 35.21100
H  40.14200 8.52200 34.90300
H  41.77200 7.09600 36.63300
H  40.96300 5.84800 35.63500
H  40.03600 7.15800 36.41800
H  41.83300 10.82200 34.37800
H  43.07500 10.64800 35.54100
H  40.59800 9.63700 36.84200
H  40.22200 10.95500 35.87100
H  36.59300 5.21100 32.36300
H  37.74400 4.68200 33.58100
H  37.06400 3.45800 32.42000
H  37.18700 1.92200 30.40000
H  36.07600 2.39900 29.11500
H  36.00800 3.28800 30.54100
H  40.78200 6.01300 25.83700
H  43.56600 6.70500 25.57100
H  42.58700 3.82200 26.82400
H  42.97500 4.38300 25.25900
H  41.27000 3.76800 25.61200
H  42.58700 9.11900 26.40700
H  41.04600 8.22000 26.08700
H  42.99200 8.27100 23.85100
H  42.22300 9.76300 24.27500
H  41.31000 8.29800 23.75200
H  47.72800 9.99400 29.19900
H  46.66200 10.96800 28.24000
H  46.96600 9.32400 27.71600
H  44.80200 11.07300 33.52900
H  45.37000 8.41400 36.60700
H  45.15600 10.08500 37.17100
H  46.77100 9.39100 37.09200
Mg 48.37000 14.95700 28.17200
C  46.40000 14.99700 31.24400
C  50.48800 17.04100 29.72600
C  50.07300 14.92200 25.27200
C  45.73300 13.04200 26.69400
N  48.34600 15.94800 30.19500
C  47.54500 15.72900 31.31300
C  48.16600 16.38900 32.56300
C  49.27400 17.35700 31.91300
C  49.35900 16.79100 30.49300
C  49.04500 18.89200 31.91600
C  48.63500 15.31100 33.64400
C  48.38000 15.43500 35.13200
H  49.51200 15.34400 36.12900
N  50.09300 15.82000 27.60700
C  50.89500 16.64400 28.42400
C  52.21400 16.70700 27.81400
C  52.13100 16.19900 26.52200
C  50.71500 15.62700 26.41800
C  53.42100 17.33900 28.46400
C  53.19200 15.96900 25.46000
O  53.02500 15.41500 24.39400
C  54.63800 16.39300 25.70300
N  47.82000 14.39700 26.14400
C  48.75600 14.38300 25.13200
C  48.43100 13.31800 24.04800
C  46.98500 12.81600 24.44100
C  46.84000 13.39300 25.86300
C  48.57400 13.81400 22.52000
C  46.93000 11.18800 24.53800
C  45.78200 10.46600 23.88900
N  46.37900 14.27800 28.71300
C  45.49000 13.48400 28.02700
C  44.35100 13.23000 28.94400
C  44.66800 13.70800 30.17000
C  45.92100 14.40600 30.04000
C  43.14300 12.40200 28.64200
C  44.26200 13.78400 31.58200
O  43.25900 13.32700 32.14000
C  45.42400 14.53100 32.32200
C  44.76900 15.69800 33.01300
O  44.05500 16.53000 32.48000
O  45.23500 15.80500 34.30700
C  44.75500 16.94300 34.98300
H  51.20100 17.71700 30.20200
H  50.69200 14.79700 24.38100
H  44.97000 12.33800 26.35400
H  47.35700 16.94400 33.03700
H  50.25900 17.22800 32.36200
H  49.84500 19.36300 32.48700
H  48.08100 19.18400 32.33300
H  49.14700 19.27300 30.90000
H  49.71800 15.26700 33.53500
H  48.08700 14.39200 33.43600
H  47.60300 14.70400 35.35800
H  47.95200 16.42800 35.27100
H  53.44900 18.38200 28.14900
H  54.31100 16.71100 28.41000
H  53.24900 17.46000 29.53300
H  54.80300 17.43300 25.98500
H  55.14800 16.04900 24.80300
H  55.00600 15.76800 26.51700
H  49.22200 12.58200 24.19100
H  46.16900 13.18400 23.81900
H  49.29500 14.62600 22.60100
H  47.56500 14.12000 22.24500
H  48.95200 13.01700 21.87900
H  47.15300 10.91500 25.57000
H  47.75000 10.86400 23.89800
H  45.06200 11.20800 23.54300
H  45.32400 9.71800 24.53700
H  46.05800 10.02700 22.93000
H  42.23700 12.69100 29.17300
H  43.40900 11.40000 28.97900
H  43.00800 12.27500 27.56800
H  45.68700 13.82000 33.10500
H  43.68300 17.07300 34.83900
H  45.37400 17.76900 34.63200
H  45.03300 16.77500 36.02300

