158

Mg 47.43500 15.40200 28.76300
C  45.26400 15.05100 31.39800
C  49.11500 17.79400 30.58700
C  49.52400 15.86200 26.14900
C  45.14500 13.84200 26.64900
N  47.09600 16.43300 30.75100
C  46.30500 15.89100 31.74400
C  46.50600 16.57400 33.08100
C  47.58400 17.60900 32.70800
C  48.00400 17.29900 31.30100
C  47.26900 19.02900 32.98600
C  46.89100 15.52300 34.15300
C  47.68500 15.98400 35.34600
H  47.14900 17.06400 36.26100
N  49.09600 16.58200 28.41100
C  49.66300 17.44100 29.28800
C  51.01600 17.74800 28.86200
C  51.17200 17.20100 27.56900
C  49.89300 16.48700 27.33600
C  51.99500 18.47400 29.76600
C  52.38000 17.20600 26.60800
O  52.41000 16.62200 25.51400
C  53.59900 18.05100 26.88400
N  47.39500 14.90700 26.67600
C  48.37200 15.16000 25.80900
C  48.10000 14.51600 24.39500
C  46.67000 13.97800 24.58500
C  46.29800 14.29300 26.06300
C  48.23000 15.62900 23.33200
C  46.41600 12.55900 24.08900
C  47.05500 11.52200 25.07200
N  45.55800 14.59200 28.93700
C  44.73700 13.93000 28.02300
C  43.51100 13.49300 28.68000
C  43.72200 13.87400 30.00600
C  44.93000 14.58700 30.10000
C  42.41800 12.81900 28.02300
C  43.15000 13.92000 31.30700
O  42.13000 13.32700 31.80500
C  44.09600 14.68100 32.29000
C  43.30300 15.73600 32.98700
O  42.54900 16.50900 32.48500
O  43.43900 15.54800 34.31300
C  42.76900 16.53100 35.10600
H  49.84200 18.35200 31.18000
H  50.13900 16.01000 25.25900
H  44.42000 13.30100 26.03700
H  45.53500 17.02800 33.28400
H  48.38800 17.31400 33.38200
H  47.80500 19.40200 33.85900
H  46.19900 19.04700 33.19400
H  47.46800 19.54300 32.04600
H  47.45200 14.74400 33.63800
H  45.97300 15.13300 34.59100
H  48.68100 16.33100 35.07000
H  47.67100 15.14500 36.04100
H  52.79600 19.01200 29.26000
H  52.55700 17.82200 30.43400
H  51.51600 19.30400 30.28600
H  53.40400 19.12200 26.91600
H  54.26600 17.86500 26.04200
H  54.09200 17.75200 27.80900
H  48.77300 13.70600 24.11400
H  45.97600 14.66100 24.09600
H  47.39100 15.61900 22.63600
H  49.06500 15.56300 22.63600
H  48.23200 16.59900 23.82900
H  46.82400 12.52500 23.07800
H  45.37800 12.22700 24.07500
H  47.71500 10.90800 24.46000
H  46.24400 10.92400 25.48700
H  47.64700 12.00600 25.85000
H  42.81600 12.48000 27.06700
H  41.58400 13.51100 27.89900
H  42.04200 11.96800 28.59200
H  44.37000 14.08000 33.15800
H  41.77600 16.71500 34.69700
H  43.34900 17.40000 35.41700
H  42.67700 16.09200 36.10000
Mg 46.93500 34.17900 27.25100
C  45.36100 32.58500 29.96200
C  46.96900 37.14900 29.01500
C  47.72900 35.78100 24.46400
C  45.93800 31.38800 25.28300
N  46.20000 34.74400 29.29100
C  45.87000 33.89700 30.32000
C  46.07400 34.55700 31.64700
C  46.16600 36.11400 31.26800
C  46.45700 36.03300 29.75400
C  44.85500 36.93300 31.62400
C  47.32500 33.99400 32.39200
C  47.37100 34.13000 33.91000
H  46.54900 35.26900 34.63300
N  47.39800 36.18200 26.84100
C  47.41500 37.24700 27.66700
C  47.90800 38.45900 27.01000
C  48.27100 38.06100 25.71300
C  47.86000 36.60900 25.62400
C  48.01300 39.75400 27.77100
C  48.77400 38.87800 24.54100
O  49.10500 38.44500 23.51100
C  48.91700 40.38400 24.77800
N  46.77900 33.68000 25.21400
C  47.26300 34.51300 24.23400
C  47.26800 33.90800 22.83100
C  46.86400 32.48100 23.19000
C  46.48400 32.53700 24.63500
C  46.40000 34.47200 21.63300
C  47.91100 31.45100 22.83200
C  47.55500 30.83200 21.52200
N  46.03500 32.26000 27.56100
C  45.63800 31.29500 26.64700
C  45.15900 30.15600 27.39500
C  45.01500 30.63800 28.69600
C  45.47100 31.95600 28.73000
C  44.80700 28.77600 26.86500
C  44.56400 30.27300 29.94200
O  44.26300 29.18400 30.40500
C  44.51300 31.56000 30.84100
C  44.79400 31.53100 32.29400
O  45.75200 30.98100 32.80800
O  43.80800 32.10300 33.01500
C  43.94800 32.01800 34.47800
H  46.98000 38.02700 29.66400
H  47.90600 36.34300 23.54500
H  45.58100 30.52700 24.71500
H  45.21600 34.39500 32.30100
H  47.05700 36.52500 31.74300
H  43.99600 36.35200 31.96300
H  44.47900 37.45900 30.74600
H  45.07800 37.66500 32.39900
H  48.28600 34.41600 32.10000
H  47.22000 32.95000 32.09600
H  48.37600 34.29200 34.30100
H  46.97700 33.14800 34.17300
H  49.08800 39.91300 27.68900
H  47.78000 39.74500 28.83600
H  47.34100 40.44700 27.26500
H  49.24600 40.66100 23.77600
H  49.77200 40.56000 25.43100
H  47.93500 40.81200 24.97800
H  48.31700 33.89600 22.53600
H  45.87700 32.35400 22.74400
H  45.86100 33.71300 21.06500
H  47.13200 35.02300 21.04400
H  45.71300 35.27900 21.88700
H  48.00300 30.67500 23.59200
H  48.87900 31.92500 22.66700
H  47.34200 31.59700 20.77600
H  46.64900 30.22600 21.54200
H  48.37300 30.26600 21.07500
H  45.62400 28.08200 26.66700
H  44.23800 29.03100 25.97000
H  44.11500 28.37500 27.60600
H  43.48600 31.92500 30.83000
H  44.69100 32.76300 34.76300
H  44.36400 31.04600 34.74000
H  42.99400 32.23000 34.96200

