158

Mg 41.40900 9.03200 30.13700
C  43.43900 10.00500 32.86300
C  38.92500 8.06100 32.45900
C  39.61300 8.14100 27.66800
C  44.11500 9.62400 27.99700
N  41.23700 9.02800 32.40000
C  42.14400 9.59600 33.27700
C  41.54800 9.64800 34.70400
C  40.18100 8.82000 34.57700
C  40.12800 8.60300 33.06200
C  40.14200 7.52500 35.41900
C  41.49400 11.11900 35.33700
C  40.65400 11.36500 36.59000
H  41.29300 12.34200 37.56600
N  39.51200 8.16200 30.08500
C  38.62300 7.84800 31.10100
C  37.44100 7.23500 30.51000
C  37.63900 7.24700 29.12000
C  38.95100 7.82300 28.85500
C  36.36100 6.60900 31.25700
C  36.72600 6.72100 28.02700
O  37.14400 6.38100 26.97800
C  35.19700 6.63600 28.31700
N  41.78600 8.87200 28.04000
C  40.85900 8.51300 27.25300
C  41.24400 8.67300 25.81100
C  42.64700 9.29300 25.89400
C  42.92400 9.18200 27.40100
C  41.03200 7.48100 24.83300
C  42.79800 10.70400 25.38300
C  44.12300 11.09300 24.78500
N  43.41400 9.63100 30.34400
C  44.42400 9.75700 29.37800
C  45.60800 10.20300 30.02500
C  45.29100 10.34000 31.37800
C  43.93000 9.96300 31.56000
C  46.88700 10.53300 29.40700
C  45.79900 10.82200 32.64700
O  46.85000 11.28600 32.97200
C  44.55200 10.74700 33.61000
C  45.09300 10.17300 34.83100
O  45.49000 9.03400 34.91300
O  45.18700 11.11300 35.83200
C  46.00900 10.91000 37.05400
H  38.13500 7.88300 33.19100
H  39.12800 7.82100 26.74400
H  44.97600 9.95300 27.41100
H  42.30900 9.15700 35.31100
H  39.28200 9.32200 34.93400
H  40.08800 6.63600 34.79200
H  39.29100 7.55000 36.09900
H  40.98400 7.47400 36.11000
H  40.95500 11.59100 34.51600
H  42.51400 11.50300 35.37000
H  40.64300 10.39100 37.08000
H  39.66200 11.68800 36.27400
H  35.42500 7.16000 31.35300
H  36.74500 6.49900 32.27100
H  36.09400 5.65900 30.79400
H  34.64700 7.55900 28.50200
H  34.87100 6.03900 29.16900
H  34.68300 6.19600 27.46300
H  40.61900 9.47000 25.40800
H  43.32000 8.56100 25.44700
H  40.58400 6.65400 25.38300
H  41.97800 7.20900 24.36600
H  40.30800 7.85300 24.10800
H  42.63100 11.39000 26.21400
H  41.99800 10.85300 24.65800
H  44.47900 12.00300 25.26700
H  44.19700 11.33600 23.72500
H  44.87500 10.34700 25.04100
H  47.12700 11.58300 29.24000
H  46.90000 10.13300 28.39300
H  47.72300 10.11500 29.96800
H  44.27800 11.78400 33.80300
H  45.38100 10.95000 37.94300
H  46.84800 11.59000 37.20300
H  46.38900 9.88900 37.07500
Mg -5.95100 25.54300 26.18800
C  -5.06600 27.05800 29.13800
C  -7.59100 23.08600 28.03400
C  -6.33500 23.72900 23.39500
C  -3.96300 27.89400 24.42000
N  -6.20200 25.09400 28.33700
C  -5.81900 25.90600 29.34600
C  -6.37300 25.38900 30.72000
C  -6.94600 23.98100 30.31800
C  -6.91400 24.08600 28.78700
C  -6.19500 22.61100 30.85700
C  -7.47800 26.28100 31.30800
C  -7.54700 26.35300 32.85600
H  -6.84300 25.28000 33.65500
N  -6.98100 23.73200 25.74700
C  -7.66400 22.95800 26.58400
C  -8.29900 21.93100 25.87900
C  -7.82200 22.03200 24.51600
C  -6.99000 23.18600 24.50900
C  -9.19600 20.93400 26.51300
C  -8.06800 21.08600 23.34900
O  -7.66100 21.25300 22.17500
C  -8.97900 19.90700 23.47200
N  -5.45100 25.90000 24.15300
C  -5.61000 24.89400 23.20100
C  -4.88300 25.27900 21.86700
C  -4.19200 26.68700 22.17800
C  -4.50700 26.79800 23.70100
C  -3.91000 24.22500 21.19400
C  -4.78900 27.85400 21.26200
C  -3.66500 28.57400 20.40500
N  -4.76500 27.18400 26.65500
C  -4.05000 28.09300 25.79700
C  -3.29400 28.97000 26.71200
C  -3.72300 28.67600 27.99400
C  -4.57400 27.57500 27.92400
C  -2.21400 29.96000 26.20000
C  -3.69900 29.07300 29.36900
O  -3.12500 30.04300 29.89100
C  -4.48600 27.97800 30.21200
C  -3.50700 27.32800 31.18000
O  -2.70600 26.44200 30.76600
O  -3.68300 27.77400 32.46400
C  -2.69600 27.20400 33.37300
H  -8.26200 22.50100 28.66700
H  -6.38400 23.18400 22.44900
H  -3.23500 28.56200 23.95500
H  -5.51200 25.27700 31.38000
H  -7.98800 23.85100 30.60800
H  -5.74400 22.16400 29.97000
H  -6.83000 21.78900 31.18600
H  -5.45500 22.71800 31.65000
H  -8.45300 26.06500 30.87200
H  -7.32900 27.24300 30.81900
H  -8.60500 26.41700 33.11100
H  -7.11500 27.33000 33.07100
H  -8.94300 20.81500 27.56700
H  -9.15800 20.00400 25.94500
H  -10.22600 21.28100 26.43900
H  -9.30700 19.62600 22.47100
H  -9.92500 20.10700 23.97700
H  -8.46100 19.11800 24.01900
H  -5.74400 25.29200 21.19900
H  -3.11800 26.50900 22.11800
H  -2.88400 24.55700 21.03300
H  -4.23500 24.08600 20.16400
H  -4.02600 23.25900 21.68400
H  -5.25300 28.67900 21.80300
H  -5.42000 27.39500 20.50100
H  -2.67200 28.25200 20.71700
H  -3.74500 29.63800 20.62700
H  -3.86400 28.49200 19.33600
H  -1.51900 29.46600 25.52100
H  -1.64200 30.25600 27.08000
H  -2.73100 30.71500 25.60700
H  -5.14700 28.47300 30.92400
H  -1.74300 27.71200 33.22200
H  -2.46200 26.15200 33.21100
H  -3.01000 27.33700 34.40800

