158

Mg 25.67300 1.49000 29.04000
C  27.53800 0.78700 31.98600
C  22.86800 1.68100 30.88300
C  23.99900 1.66400 26.12300
C  28.61700 0.46600 27.21900
N  25.30200 1.24500 31.25200
C  26.17600 1.11000 32.27500
C  25.46800 1.24600 33.62700
C  23.97700 1.57000 33.18800
C  24.05200 1.58200 31.70300
C  22.95700 0.45800 33.62800
C  26.17200 2.31500 34.58100
C  26.92700 1.92900 35.90500
H  26.57800 2.81500 37.11400
N  23.68700 1.70000 28.52900
C  22.69400 1.78100 29.42200
C  21.43900 2.01200 28.75500
C  21.72500 2.04300 27.34200
C  23.17300 1.76000 27.25600
C  20.08900 2.25200 29.46900
C  20.80500 2.24300 26.11700
O  21.13900 2.03000 24.95200
C  19.25400 2.55300 26.24300
N  26.24400 0.97000 26.94100
C  25.30000 1.24200 25.97400
C  26.01900 1.26100 24.56100
C  27.48000 0.88800 24.87900
C  27.48000 0.71300 26.40300
C  25.38500 0.44200 23.45700
C  28.53000 1.80900 24.20500
C  29.02300 1.51300 22.77200
N  27.72700 0.85900 29.43500
C  28.73800 0.41000 28.62400
C  29.81800 -0.09800 29.47200
C  29.49700 0.16300 30.75900
C  28.12000 0.66800 30.74000
C  31.00400 -0.73900 28.91900
C  29.94800 0.01400 32.09600
O  31.03000 -0.27900 32.57100
C  28.68700 0.44500 32.98400
C  28.23400 -0.68000 33.73800
O  27.39900 -1.50200 33.32500
O  28.87600 -0.69300 34.95500
C  28.42200 -1.65000 35.92000
H  21.87000 1.70100 31.32600
H  23.50400 1.86400 25.17000
H  29.43900 0.23100 26.53900
H  25.59500 0.27500 34.10500
H  23.57600 2.48100 33.63100
H  22.07700 0.94100 34.05300
H  23.47500 -0.12600 34.38900
H  22.61800 -0.17500 32.80800
H  25.40300 2.99100 34.95700
H  26.76100 2.97400 33.94400
H  27.97100 1.77700 35.63000
H  26.53100 0.92100 36.03200
H  20.15400 1.60500 30.34400
H  19.17500 1.97600 28.94400
H  19.90900 3.27900 29.78700
H  18.88500 2.66500 25.22400
H  19.18900 3.50500 26.77000
H  18.68100 1.83900 26.83500
H  25.86100 2.30400 24.28500
H  27.69800 -0.09600 24.46300
H  25.65300 -0.61400 23.45100
H  25.58900 0.78600 22.44300
H  24.31200 0.48700 23.64200
H  29.44800 1.72200 24.78600
H  28.28300 2.86600 24.29800
H  30.09200 1.69200 22.65600
H  28.37300 2.18100 22.20500
H  28.65500 0.51000 22.55500
H  30.82100 -1.05200 27.89100
H  31.36100 -1.59600 29.49000
H  31.78500 0.00300 29.09000
H  28.82700 1.32000 33.61800
H  29.24400 -1.80500 36.61900
H  28.29400 -2.63500 35.47000
H  27.59800 -1.31400 36.54900
Mg 30.87000 58.07400 39.74500
C  27.96500 55.98800 38.96700
C  32.84500 55.40400 39.03100
C  33.44100 60.31200 39.75400
C  28.58000 60.77300 40.22600
N  30.45800 55.92900 39.04900
C  29.21700 55.30900 38.88700
C  29.43100 53.81600 38.44700
C  30.87600 53.58700 38.85300
C  31.49100 55.06400 38.88800
C  31.22500 52.87600 40.19100
C  29.18700 53.71200 36.94500
C  28.16400 52.79500 36.40100
H  27.26000 53.35700 35.33000
N  32.79700 57.87400 39.37300
C  33.46300 56.67800 39.20600
C  34.92000 56.96700 39.08600
C  35.10400 58.37700 39.16600
C  33.76600 58.91700 39.42400
C  35.93300 55.94200 38.96500
C  36.43900 59.19600 39.14000
O  37.52500 58.55400 39.26300
C  36.47100 60.74000 39.10800
N  30.99900 60.22900 39.99200
C  32.19000 60.87000 40.01400
C  32.08100 62.36100 40.46600
C  30.51200 62.44300 40.60900
C  29.94000 61.05900 40.15000
C  32.89500 62.73400 41.80500
C  29.93900 63.56200 39.74600
C  29.98300 63.24400 38.26000
N  28.71000 58.39100 39.73800
C  27.96600 59.52300 39.91200
C  26.49700 59.17600 39.75100
C  26.50300 57.82800 39.34700
C  27.84400 57.37900 39.42700
C  25.34300 60.10000 39.89800
C  25.59800 56.67700 38.92500
O  24.41200 56.62100 38.78100
C  26.56400 55.45600 38.72800
C  26.18300 54.31500 39.56200
O  26.33400 54.24700 40.76700
O  25.50800 53.34200 38.89800
C  24.99700 52.16800 39.71500
H  33.54900 54.57200 39.09800
H  34.18000 61.11600 39.74400
H  27.91300 61.60600 40.45500
H  28.65500 53.20200 38.90500
H  31.41600 53.06600 38.06200
H  32.17700 52.34500 40.18100
H  30.40900 52.23100 40.51600
H  31.29000 53.56900 41.02900
H  30.05900 53.37100 36.38700
H  28.84900 54.66800 36.54500
H  27.42900 52.46500 37.13500
H  28.57800 51.88400 35.96800
H  35.55400 55.13700 38.33500
H  36.28700 55.51400 39.90200
H  36.86700 56.32400 38.55300
H  36.09500 60.98400 40.10200
H  35.89800 61.08200 38.24600
H  37.49100 61.08700 38.94600
H  32.49600 62.89400 39.61100
H  30.11100 62.54400 41.61700
H  33.41800 61.88900 42.25500
H  32.37600 63.18900 42.64900
H  33.70200 63.41000 41.52500
H  30.73400 64.28000 39.94600
H  28.94500 63.87400 40.06400
H  29.00000 62.89400 37.94300
H  30.62600 62.38600 38.06600
H  30.22700 64.17600 37.75000
H  25.54000 60.97400 39.27700
H  25.16000 60.33900 40.94600
H  24.48800 59.59600 39.44900
H  26.53100 55.07500 37.70800
H  24.16100 52.43900 40.36000
H  25.76800 51.76600 40.37200
H  24.49900 51.47700 39.03400

