158

Mg 25.74700 2.12800 29.15500
C  27.80300 1.45800 32.07200
C  23.00700 1.80700 31.20400
C  23.90200 2.19900 26.37800
C  28.57700 1.28500 27.28400
N  25.52800 1.81800 31.42000
C  26.42800 1.60300 32.41200
C  25.80500 1.79700 33.78400
C  24.30400 1.76700 33.48200
C  24.26900 1.79100 31.93500
C  23.53800 0.53400 33.98700
C  26.22400 3.06900 34.63900
C  26.70900 2.65100 36.05600
H  26.22400 3.61700 37.23100
N  23.73900 2.05600 28.82900
C  22.74000 1.92100 29.80100
C  21.42200 1.94100 29.16200
C  21.65800 2.18200 27.75400
C  23.16600 2.19200 27.61500
C  20.17600 1.79400 29.95200
C  20.65400 2.35200 26.67700
O  20.88900 2.70200 25.54900
C  19.19400 2.15400 27.08600
N  26.13400 1.56900 27.08700
C  25.25400 1.96200 26.14400
C  25.82300 1.99000 24.73000
C  27.24800 1.39700 25.02000
C  27.38800 1.46600 26.53500
C  25.02500 1.20300 23.67400
C  28.36400 2.20200 24.26500
C  29.56400 1.40100 23.62600
N  27.85900 1.57600 29.51400
C  28.77200 1.19600 28.63800
C  29.99900 0.91400 29.33400
C  29.68100 1.02600 30.70500
C  28.35400 1.39300 30.74300
C  31.29800 0.51700 28.74900
C  30.17100 0.89400 31.99700
O  31.30000 0.60000 32.34800
C  28.94700 1.12700 32.97300
C  28.70100 -0.02700 33.87800
O  27.97200 -0.98700 33.62600
O  29.24000 0.29700 35.05400
C  28.86200 -0.47400 36.23600
H  22.18100 1.83000 31.91800
H  23.24900 2.43900 25.53700
H  29.48300 1.20800 26.67900
H  26.07700 0.90000 34.33900
H  23.73900 2.65200 33.77600
H  23.29600 -0.11700 33.14700
H  22.64000 0.90200 34.48200
H  24.12600 -0.04700 34.69900
H  25.42800 3.81300 34.68700
H  27.07400 3.46600 34.08500
H  27.79400 2.60400 35.96600
H  26.33200 1.65600 36.29400
H  20.41900 1.45500 30.95900
H  19.54200 1.03600 29.49100
H  19.62400 2.73400 29.96100
H  18.47300 2.31600 26.28500
H  18.90000 2.81100 27.90400
H  19.13200 1.11900 27.42200
H  25.93000 3.04700 24.48700
H  27.33100 0.33700 24.77900
H  24.65300 1.89500 22.91800
H  24.14000 0.71300 24.08100
H  25.66200 0.47600 23.17100
H  28.90200 2.84400 24.96200
H  27.91000 2.87800 23.54000
H  29.38200 1.54600 22.56100
H  29.44800 0.37700 23.98400
H  30.54200 1.76200 23.94400
H  31.38800 0.99400 27.77300
H  31.52600 -0.51100 28.46700
H  32.08300 0.89100 29.40500
H  29.25300 2.00000 33.54900
H  27.93800 -0.07700 36.65600
H  29.67300 -0.47700 36.96400
H  28.76500 -1.51400 35.92600
Mg 9.12200 47.92500 26.25300
C  7.14700 48.01300 29.26300
C  11.72500 49.20200 28.01800
C  10.66900 47.97700 23.40100
C  5.95100 47.30600 24.49800
N  9.35100 48.68300 28.43200
C  8.49100 48.43100 29.51300
C  9.13300 49.02000 30.86700
C  10.60500 49.39900 30.34700
C  10.59900 49.15100 28.84500
C  11.19900 50.74100 30.90500
C  9.20000 48.00000 32.02200
C  8.53300 48.46000 33.41300
H  8.39200 47.39600 34.49400
N  10.94700 48.38700 25.82700
C  11.92700 49.00200 26.65500
C  13.16500 48.98800 25.92100
C  12.99500 48.55400 24.64600
C  11.47300 48.32300 24.55700
C  14.49700 49.31800 26.60800
C  13.96800 48.30600 23.48100
O  13.63800 47.71900 22.43800
C  15.42700 48.79400 23.66300
N  8.34200 47.88400 24.08900
C  9.28400 47.75200 23.18500
C  8.61300 47.38200 21.82400
C  7.16300 47.05200 22.21700
C  7.05900 47.47700 23.69300
C  8.74700 48.52800 20.81400
C  6.76500 45.63900 21.85400
C  7.60500 44.47800 22.49300
N  6.99600 47.71600 26.65700
C  5.83400 47.47300 25.86300
C  4.69100 47.38300 26.72200
C  5.13100 47.50300 27.99100
C  6.59100 47.75800 27.95400
C  3.33800 47.06200 26.20600
C  4.70300 47.60600 29.38100
O  3.58600 47.48400 29.83400
C  6.01900 47.76700 30.22300
C  6.34400 46.65000 31.07400
O  6.99500 45.68700 30.73400
O  5.61200 46.61700 32.25900
C  5.55000 45.31800 32.99900
H  12.58600 49.41200 28.65600
H  11.22600 47.99600 22.46200
H  5.03400 47.01300 23.98200
H  8.55800 49.86800 31.23800
H  11.23800 48.56200 30.63900
H  11.42200 51.32200 30.01000
H  12.14900 50.63100 31.43000
H  10.44400 51.29800 31.46000
H  10.21400 47.68100 32.26300
H  8.73100 47.06400 31.71900
H  7.53700 48.87300 33.24700
H  9.22400 49.16100 33.88100
H  14.92700 50.15800 26.06200
H  15.03500 48.37100 26.60700
H  14.39300 49.66400 27.63700
H  16.00900 48.71100 22.74500
H  15.83900 48.31300 24.55000
H  15.62800 49.82900 23.93800
H  9.26300 46.56700 21.50700
H  6.51700 47.75200 21.68800
H  8.33100 49.41400 21.29500
H  8.15900 48.35200 19.91300
H  9.80100 48.63800 20.56200
H  6.79100 45.58700 20.76500
H  5.71900 45.40600 22.05300
H  8.23400 44.89900 23.27700
H  8.14100 43.94100 21.71000
H  6.97400 43.70600 22.93300
H  2.79000 47.95800 25.91600
H  2.70300 46.61600 26.97100
H  3.41600 46.28400 25.44700
H  6.11500 48.72800 30.72900
H  5.73700 45.60800 34.03300
H  6.32300 44.59000 32.75400
H  4.57500 44.87600 32.79100

