158

Mg 24.24900 -5.98700 45.06200
C  26.58700 -3.74200 43.82700
C  21.73500 -4.61400 43.24200
C  22.40100 -8.84000 45.56000
C  27.05100 -7.75600 46.62300
N  24.20600 -4.36400 43.69600
C  25.24500 -3.53600 43.37100
C  24.77500 -2.43500 42.42800
C  23.22600 -2.58700 42.51700
C  22.99800 -3.99900 43.09800
C  22.42500 -1.48600 43.23400
C  25.42300 -2.60000 40.96300
C  25.72400 -1.28200 40.30100
H  25.05000 -1.10000 38.91900
N  22.26500 -6.51500 44.67400
C  21.38200 -5.80000 43.89000
C  20.13700 -6.51800 43.81700
C  20.27000 -7.72900 44.53800
C  21.66500 -7.73900 44.94700
C  19.03900 -6.09200 42.91200
C  19.17000 -8.75000 44.62500
O  17.98800 -8.48300 44.35600
C  19.37700 -10.20900 45.16000
N  24.70000 -7.98800 45.88200
C  23.69300 -8.91200 45.95700
C  24.19300 -10.23200 46.52500
C  25.57400 -9.83500 47.12800
C  25.80300 -8.43400 46.58900
C  23.28500 -10.95600 47.61000
C  26.77800 -10.77200 46.77800
C  27.70100 -11.14500 48.01900
N  26.34300 -5.87700 45.23800
C  27.33400 -6.56400 45.97900
C  28.62200 -5.86000 45.91100
C  28.35100 -4.75000 45.06700
C  26.95400 -4.82300 44.69000
C  29.87500 -6.38100 46.58300
C  28.99700 -3.63400 44.41900
O  30.13200 -3.17000 44.42400
C  27.86800 -2.87900 43.65000
C  27.79500 -1.50000 44.08400
O  27.61100 -1.09300 45.23900
O  27.97500 -0.61100 43.00200
C  27.92300 0.79700 43.35300
H  20.91500 -4.25100 42.61800
H  21.79300 -9.73500 45.70900
H  27.94100 -8.25700 47.01100
H  24.99900 -1.45800 42.85600
H  22.73300 -2.40500 41.56300
H  21.56300 -1.12400 42.67400
H  23.02300 -0.58200 43.35300
H  22.17000 -1.77200 44.25500
H  24.63900 -3.13000 40.42300
H  26.34100 -3.17800 41.06400
H  26.78000 -1.19200 40.04900
H  25.38800 -0.45200 40.92300
H  18.62100 -6.92300 42.34300
H  19.27300 -5.21900 42.30400
H  18.27200 -5.70700 43.58500
H  18.35200 -10.57800 45.16300
H  19.83100 -10.02800 46.13400
H  20.09200 -10.70400 44.50300
H  24.25100 -10.90500 45.66900
H  25.50100 -9.74200 48.21100
H  24.04000 -11.40300 48.25700
H  22.68200 -11.73300 47.14000
H  22.59400 -10.22700 48.03400
H  27.30700 -10.30300 45.94800
H  26.38400 -11.66900 46.29900
H  27.78700 -12.22600 47.90600
H  27.20400 -10.88900 48.95500
H  28.63800 -10.58900 48.00300
H  30.02000 -7.45300 46.45200
H  29.81200 -6.24900 47.66300
H  30.70800 -5.79300 46.19800
H  28.22800 -2.84400 42.62200
H  28.73300 1.05000 44.03700
H  26.92900 1.06200 43.71500
H  28.10400 1.46500 42.51000
Mg 30.07900 58.36300 38.19300
C  27.21500 56.29500 37.42900
C  32.03100 55.60000 38.02600
C  32.73500 60.29100 38.23000
C  27.96500 61.05900 37.82800
N  29.61900 56.19800 37.82600
C  28.41000 55.61100 37.47900
C  28.55800 54.10200 37.28400
C  30.05100 53.90700 37.86000
C  30.62600 55.32100 37.95400
C  30.13900 53.14600 39.18800
C  28.27700 53.66200 35.82200
C  29.15500 54.36800 34.78000
H  28.55000 55.08400 33.54500
N  32.14600 57.99300 38.12400
C  32.75400 56.78500 38.15400
C  34.16400 56.90900 38.18400
C  34.42700 58.26800 38.27100
C  33.11700 58.94400 38.24100
C  35.19400 55.71400 37.99800
C  35.80700 58.93600 38.27600
O  36.79200 58.21000 38.28500
C  35.96600 60.40900 38.49900
N  30.39600 60.34000 37.88300
C  31.59900 60.93500 37.99700
C  31.58400 62.46900 37.96400
C  30.03300 62.78600 37.84700
C  29.41000 61.30400 37.88300
C  32.34300 63.20500 39.13400
C  29.70200 63.62800 36.54300
C  29.01000 64.97800 36.70500
N  27.92000 58.65500 37.91400
C  27.28100 59.83800 37.77600
C  25.87700 59.62500 37.76100
C  25.72800 58.19500 37.54100
C  27.04500 57.71700 37.66800
C  24.82800 60.75700 37.73800
C  24.88100 57.11000 37.28400
O  23.69400 57.07400 37.11600
C  25.87100 55.82600 37.10500
C  25.37200 54.84200 38.14500
O  25.48400 54.94600 39.39200
O  24.90800 53.73500 37.50300
C  24.21100 52.76600 38.39200
H  32.56700 54.65800 37.89200
H  33.52600 61.03100 38.09200
H  27.41500 61.99700 37.73500
H  27.79400 53.62300 37.89700
H  30.64300 53.35000 37.13400
H  30.30200 52.08200 39.01700
H  29.37600 53.23300 39.96100
H  30.96200 53.55700 39.77400
H  27.22200 53.72300 35.55700
H  28.51300 52.59800 35.86600
H  29.93900 53.66200 34.50500
H  29.83600 55.08100 35.24500
H  35.91300 55.71400 37.17900
H  34.70700 54.77100 37.75100
H  35.69300 55.64900 38.96500
H  35.46100 60.69800 39.42100
H  35.53000 60.88800 37.62200
H  37.01800 60.69200 38.52000
H  32.08100 62.81800 37.05900
H  29.50100 63.22900 38.69000
H  31.67800 63.70700 39.83600
H  33.05300 63.94500 38.76400
H  32.96200 62.56300 39.76000
H  28.95600 63.00800 36.04600
H  30.62800 63.74300 35.98000
H  28.97200 65.22800 37.76600
H  27.96900 64.91200 36.38700
H  29.56500 65.75000 36.17300
H  24.11600 60.54200 38.53500
H  24.39800 60.73600 36.73600
H  25.27200 61.71400 38.01200
H  25.92900 55.42100 36.09500
H  23.42400 53.29400 38.93000
H  24.88900 52.31900 39.12000
H  23.74700 51.96800 37.81200

