158

Mg 54.17700 24.28100 45.32000
C  51.55700 26.55700 44.27900
C  52.22100 21.73600 43.85800
C  56.80300 22.39900 45.10200
C  55.98700 27.13200 45.96500
N  52.22800 24.18400 44.13300
C  51.37900 25.24100 43.82600
C  50.29800 24.77600 42.81600
C  50.23800 23.28500 43.08600
C  51.62300 22.98400 43.77000
C  49.15700 22.84900 44.15200
C  50.61600 25.24300 41.34300
C  50.79900 24.19200 40.21200
H  51.85600 23.13500 40.36500
N  54.38600 22.22200 44.78900
C  53.48900 21.35800 44.22000
C  54.12700 20.13700 44.07900
C  55.46800 20.30800 44.35500
C  55.64100 21.67600 44.83900
C  53.43900 18.88500 43.42400
C  56.58400 19.20500 44.26800
O  56.29500 17.99800 44.01500
C  58.04800 19.46500 44.37500
N  56.13000 24.66100 45.40200
C  57.05900 23.76200 45.36200
C  58.42100 24.26800 45.79000
C  58.17200 25.79000 45.91800
C  56.66600 25.88300 45.80300
C  59.04300 23.63600 47.03500
C  58.83100 26.55500 44.78000
C  58.10500 26.56300 43.48800
N  53.75900 26.43300 45.51200
C  54.59100 27.41000 45.82600
C  53.82900 28.64600 45.95600
C  52.67500 28.40100 45.28500
C  52.64700 27.01200 45.03000
C  54.32700 29.96800 46.33500
C  51.43000 28.90300 44.73600
O  51.02400 30.07300 44.73100
C  50.68400 27.77600 44.03600
C  50.45200 28.27700 42.63000
O  51.28200 28.86000 41.95200
O  49.20800 28.00300 42.22400
C  48.73000 28.35300 40.87500
H  51.66700 20.93200 43.36800
H  57.80000 22.00100 44.90500
H  56.57300 28.05000 46.05100
H  49.41800 25.34600 43.11200
H  50.16300 22.57800 42.25900
H  49.69200 22.39200 44.98400
H  48.38200 22.24800 43.67600
H  48.60200 23.72900 44.47900
H  51.48600 25.87800 41.17400
H  49.75200 25.84100 41.05400
H  51.10000 24.67900 39.28500
H  49.80100 23.76800 40.09600
H  53.86200 17.98200 43.86300
H  53.40300 18.88700 42.33400
H  52.41800 18.91300 43.80600
H  58.43800 20.05700 43.54600
H  58.53400 18.49600 44.48000
H  58.27000 19.93900 45.33100
H  58.93100 23.93900 44.88500
H  58.51900 26.02600 46.92400
H  60.03600 23.25200 46.80200
H  58.31600 22.88400 47.34000
H  59.26600 24.37700 47.80300
H  59.83500 26.17900 44.58700
H  58.91200 27.57800 45.14800
H  57.67200 27.55200 43.33500
H  57.30200 25.83600 43.36900
H  58.85000 26.52700 42.69300
H  55.16700 30.21100 45.68500
H  54.75900 29.86600 47.33100
H  53.48400 30.64600 46.46600
H  49.67700 27.83000 44.44900
H  49.40600 28.89300 40.21300
H  47.79300 28.91000 40.89700
H  48.42700 27.38500 40.47800
Mg 27.80000 51.74500 26.01300
C  26.02700 52.70300 28.98100
C  30.35700 50.68800 28.35600
C  29.69400 50.89500 23.41500
C  25.35900 53.17800 24.04100
N  28.14700 51.73100 28.43600
C  27.23100 52.12700 29.35800
C  27.69000 51.95300 30.79800
C  29.15400 51.40400 30.57000
C  29.28200 51.22500 29.06400
C  30.30800 52.21300 31.27100
C  26.72600 51.10400 31.69800
C  26.36800 51.72100 33.09800
H  27.21500 51.25900 34.30900
N  29.73900 50.94000 25.88100
C  30.58700 50.48500 26.94200
C  31.67500 49.73800 26.37200
C  31.62400 49.91000 24.96600
C  30.30200 50.61200 24.72900
C  32.66200 49.08600 27.28100
C  32.70200 49.49100 23.99600
O  32.56400 49.72900 22.85400
C  33.96000 48.83900 24.45800
N  27.66400 52.10200 24.01700
C  28.47300 51.55400 23.10400
C  28.00000 51.83600 21.72600
C  26.58600 52.47600 21.82200
C  26.49400 52.53300 23.40100
C  28.99200 52.77000 21.01200
C  25.42400 51.68800 21.14500
C  25.14600 50.20800 21.51900
N  26.04700 52.78600 26.35800
C  25.20800 53.41700 25.45500
C  24.14000 54.05200 26.12500
C  24.33100 53.78300 27.48200
C  25.55200 52.99600 27.61900
C  23.00100 54.76800 25.49400
C  23.81000 53.92400 28.82900
O  22.87000 54.46700 29.33000
C  24.91300 53.15400 29.85600
C  25.25200 54.35700 30.76100
O  26.10100 55.20700 30.60000
O  24.58900 54.29400 31.88800
C  24.75200 55.31800 32.92300
H  31.24500 50.43600 28.93900
H  30.22600 50.54300 22.52900
H  24.65500 53.63500 23.34300
H  27.69500 52.95100 31.23600
H  29.17700 50.34800 30.83800
H  30.82600 52.69100 30.44000
H  30.90400 51.45200 31.77400
H  29.88300 52.98400 31.91400
H  27.10400 50.10800 31.92700
H  25.74800 50.99400 31.23000
H  25.33000 51.42600 33.25100
H  26.45400 52.80700 33.13200
H  32.17600 48.80000 28.21400
H  33.44600 49.84000 27.35700
H  33.02200 48.16900 26.81500
H  34.71000 48.92300 23.67100
H  33.80700 47.79600 24.73600
H  34.24100 49.56700 25.21900
H  28.08300 50.88100 21.20700
H  26.51700 53.51400 21.49600
H  28.51700 53.64600 20.57100
H  29.45500 52.27600 20.15800
H  29.75500 53.18800 21.66900
H  25.48600 51.73200 20.05800
H  24.44400 52.15800 21.23000
H  24.07600 50.06800 21.67700
H  25.76100 49.84300 22.34100
H  25.41100 49.50100 20.73200
H  23.34800 55.35300 24.64200
H  22.71300 55.43400 26.30700
H  22.27900 54.00400 25.20500
H  24.34400 52.44400 30.45600
H  23.82900 55.41400 33.49500
H  25.01600 56.27400 32.47100
H  25.45700 54.97800 33.68300

