158

Mg 50.02600 45.86000 41.94600
C  47.02300 47.54800 40.87200
C  48.88800 43.10000 40.26900
C  53.18400 44.73800 42.15000
C  51.23700 49.10500 42.69600
N  48.12400 45.38700 40.71300
C  47.02000 46.16200 40.52900
C  45.94900 45.37300 39.66600
C  46.58000 43.93200 39.69300
C  47.93100 44.09500 40.33000
C  45.66500 42.90800 40.39200
C  45.65500 45.85900 38.24400
C  44.19100 45.73800 37.81600
H  43.84400 45.43600 36.29800
N  50.87300 44.14800 41.43300
C  50.26800 43.10700 40.67100
C  51.16900 41.97600 40.55000
C  52.40800 42.41400 41.09200
C  52.21000 43.84000 41.65800
C  50.87100 40.60400 39.89700
C  53.69100 41.61800 41.02300
O  53.69800 40.50600 40.53200
C  55.11400 42.20700 41.26500
N  51.94600 46.82800 42.24400
C  53.03200 46.08200 42.46000
C  54.23500 46.88000 43.04200
C  53.57100 48.28600 43.01700
C  52.16600 48.00900 42.72600
C  54.73800 46.24700 44.35200
C  54.15500 49.39800 42.04700
C  55.25300 50.26800 42.59300
N  49.22800 47.84800 42.08000
C  49.88300 49.06000 42.37200
C  48.92600 50.18800 42.30800
C  47.71900 49.61800 41.76800
C  48.04800 48.25300 41.55700
C  49.23200 51.58300 42.55800
C  46.38700 49.92000 41.32200
O  45.77100 50.97700 41.32500
C  45.82900 48.55800 40.65700
C  44.58500 48.11400 41.19500
O  44.51700 47.46200 42.21000
O  43.56800 48.48400 40.33500
C  42.22100 48.13400 40.81900
H  48.46400 42.16400 39.89900
H  54.23500 44.44500 42.17800
H  51.54600 50.08600 43.06400
H  45.02600 45.40400 40.24400
H  46.64400 43.51100 38.69000
H  45.96800 42.66700 41.41100
H  45.72400 41.88900 40.00700
H  44.66100 43.33200 40.38400
H  46.26900 45.40100 37.46900
H  45.94300 46.91000 38.27900
H  43.65700 46.63400 38.13400
H  43.80300 44.85600 38.32400
H  51.39400 40.58700 38.94100
H  49.84800 40.51900 39.52900
H  51.28200 39.80100 40.51000
H  55.08900 42.40900 42.33600
H  55.24000 43.14900 40.73100
H  55.88200 41.48400 40.98900
H  54.97100 46.60100 42.28700
H  53.54400 48.77300 43.99200
H  54.65800 46.95600 45.17500
H  55.76200 45.89800 44.21700
H  54.22100 45.29300 44.46100
H  53.45600 50.12500 41.63300
H  54.43800 48.89900 41.12000
H  55.01300 51.32500 42.70800
H  56.20500 50.29100 42.06200
H  55.46400 49.97800 43.62200
H  49.92200 51.92800 41.78700
H  49.74000 51.72700 43.51100
H  48.31500 52.15200 42.70300
H  45.68400 48.63000 39.57900
H  42.04500 47.06000 40.75300
H  41.42500 48.72100 40.36100
H  42.15600 48.50400 41.84200
Mg 0.66600 41.93800 25.48600
C  2.23400 42.42800 28.69300
C  -2.19400 41.01700 27.08600
C  -0.54500 40.96400 22.54700
C  3.83300 42.37100 24.09600
N  0.11600 41.73100 27.66600
C  0.78200 42.20700 28.71900
C  -0.05200 41.94800 29.99500
C  -1.45100 41.56800 29.48600
C  -1.18700 41.44200 27.96800
C  -2.13900 40.24500 30.14300
C  0.06300 43.26200 30.93900
C  0.34700 43.08800 32.36400
H  -0.60500 43.64900 33.42700
N  -1.13500 41.16000 24.92400
C  -2.19500 40.88000 25.69200
C  -3.22100 40.34200 24.88500
C  -2.68000 40.13400 23.56400
C  -1.36800 40.69000 23.63400
C  -4.58900 40.04500 25.51100
C  -3.28100 39.42900 22.27800
O  -2.59100 39.34400 21.23000
C  -4.65000 38.74400 22.37200
N  1.56100 41.58800 23.60100
C  0.86800 41.34000 22.51100
C  1.78000 41.26900 21.27900
C  3.07900 41.98400 21.79600
C  2.84700 41.91100 23.29100
C  1.85900 39.79300 20.83600
C  3.31700 43.42800 21.29200
C  2.31100 44.50300 21.78100
N  2.64200 42.52800 26.13200
C  3.80500 42.61500 25.47500
C  4.88800 42.86300 26.40700
C  4.31400 42.68200 27.64800
C  2.89800 42.55200 27.44200
C  6.40000 43.11700 26.09300
C  4.64900 42.63600 29.09900
O  5.68700 42.61400 29.69300
C  3.25800 42.65100 29.81800
C  3.29600 41.49900 30.76200
O  3.09900 40.34100 30.46100
O  3.55600 41.84200 32.03300
C  3.45300 40.72200 32.97300
H  -3.04900 40.81000 27.73200
H  -1.02500 40.81200 21.57800
H  4.85800 42.60400 23.80000
H  0.41300 41.12600 30.53900
H  -2.17700 42.36700 29.63700
H  -1.56600 39.89100 31.00000
H  -2.02700 39.46100 29.39500
H  -3.16200 40.51500 30.40500
H  -0.90400 43.74000 30.78400
H  0.78100 43.96200 30.51100
H  1.21200 43.74400 32.46700
H  0.70600 42.07300 32.53100
H  -5.39200 40.10200 24.77500
H  -4.71800 40.77500 26.31000
H  -4.49400 39.05200 25.95100
H  -4.75200 38.14500 21.46700
H  -5.42600 39.50900 22.34300
H  -4.61000 38.02600 23.19100
H  1.23000 41.80600 20.50600
H  3.85100 41.22900 21.65000
H  1.56000 39.19200 21.69400
H  2.77200 39.59100 20.27500
H  1.17100 39.71000 19.99500
H  3.34000 43.51500 20.20600
H  4.31500 43.69300 21.64100
H  2.80000 45.03800 22.59500
H  1.40300 44.03100 22.15500
H  2.12100 45.15700 20.93000
H  6.53800 43.09900 25.01200
H  7.10200 42.33600 26.38500
H  6.70300 44.08400 26.49300
H  3.12400 43.62700 30.28400
H  2.54300 40.15500 32.77500
H  3.47200 41.03200 34.01800
H  4.20400 39.98100 32.69900

