158

Mg 1.38000 -1.46600 42.76700
C  4.70300 -0.38000 41.73600
C  0.30400 1.55600 41.40000
C  -1.66800 -2.82500 42.36200
C  2.74400 -4.68300 43.26400
N  2.47100 0.41000 41.71900
C  3.78900 0.60800 41.42000
C  4.01600 2.01700 40.91000
C  2.59000 2.64100 40.86300
C  1.73200 1.48400 41.41400
C  2.54700 3.95600 41.73000
C  4.68400 2.08000 39.54400
C  3.94700 1.23000 38.46800
H  4.84900 0.42400 37.57800
N  -0.46700 -0.66200 42.30600
C  -0.63900 0.65600 41.86700
C  -2.07400 0.77700 41.66300
C  -2.70700 -0.48100 41.93200
C  -1.64700 -1.39600 42.23400
C  -2.62900 2.05100 41.20200
C  -4.21100 -0.79900 41.87900
O  -4.98000 -0.01900 41.34300
C  -4.76400 -2.05600 42.47700
N  0.68800 -3.53500 42.55400
C  -0.60700 -3.81000 42.50900
C  -0.82700 -5.36100 42.63400
C  0.51200 -5.82100 43.19300
C  1.38500 -4.58600 43.05000
C  -2.04600 -5.67900 43.53900
C  1.16700 -7.20100 42.61300
C  1.10200 -8.38900 43.67100
N  3.31500 -2.40100 42.66100
C  3.70000 -3.66300 42.92800
C  5.11900 -3.70700 42.95500
C  5.56100 -2.47000 42.50100
C  4.39900 -1.67200 42.29300
C  5.78600 -5.03800 43.38200
C  6.75000 -1.71700 42.21400
O  7.93800 -1.86300 42.47400
C  6.20200 -0.39100 41.56300
C  6.89300 0.78300 42.19900
O  7.60600 1.54300 41.55200
O  6.61900 0.87900 43.54200
C  7.39300 1.94100 44.21100
H  -0.10500 2.40000 40.84100
H  -2.57500 -3.39400 42.14700
H  3.19300 -5.61500 43.61600
H  4.73000 2.59700 41.49400
H  2.33800 2.87100 39.82800
H  3.38200 4.17200 42.39700
H  1.58100 3.83800 42.22100
H  2.51700 4.73900 40.97200
H  5.73000 1.78800 39.63300
H  4.61800 3.07100 39.09400
H  3.31900 1.91600 37.90100
H  3.11700 0.68400 38.91700
H  -2.25300 2.34700 40.22300
H  -2.40900 2.81000 41.95300
H  -3.71300 2.10600 41.09400
H  -5.82900 -1.84700 42.57400
H  -4.41100 -2.12700 43.50600
H  -4.51600 -2.88800 41.81700
H  -0.88000 -5.65000 41.58400
H  0.41800 -5.84000 44.27800
H  -2.31100 -4.91100 44.26500
H  -1.89600 -6.63200 44.04600
H  -2.87100 -5.85100 42.84800
H  2.24600 -7.12400 42.47800
H  0.72300 -7.58500 41.69400
H  0.24700 -9.05100 43.53200
H  1.03000 -7.90100 44.64300
H  2.02100 -8.97500 43.64800
H  6.10300 -5.68900 42.56600
H  5.17800 -5.61200 44.08100
H  6.67100 -4.67300 43.90200
H  6.42600 -0.61700 40.52000
H  6.69600 2.58300 44.74900
H  7.89400 2.66200 43.56300
H  7.99900 1.62600 45.06000
Mg 48.61800 35.17200 27.44500
C  46.65600 33.87200 30.06900
C  49.30100 37.92100 29.34600
C  50.37800 36.28500 24.84700
C  47.55200 32.34600 25.49600
N  48.14900 35.70700 29.48900
C  47.40100 35.01100 30.42400
C  47.74500 35.58800 31.80600
C  47.94400 37.09400 31.46800
C  48.49500 36.95000 29.99100
C  46.80400 38.19100 31.64900
C  48.94500 34.78600 32.54900
C  48.98500 34.64900 34.09700
H  48.11800 35.56700 34.87300
N  49.56200 36.92100 27.10000
C  49.77600 37.88800 28.03000
C  50.64300 38.88600 27.40600
C  51.08600 38.39000 26.12300
C  50.36600 37.13300 25.97900
C  50.98100 40.25800 28.02600
C  52.16500 38.92300 25.22000
O  52.43900 38.40300 24.17700
C  52.97800 40.15500 25.63800
N  48.80100 34.45100 25.47600
C  49.63400 35.10700 24.62400
C  49.84200 34.37300 23.32500
C  48.92000 33.01900 23.51200
C  48.38400 33.29200 24.93700
C  49.34000 35.33100 22.24100
C  49.84200 31.65600 23.31900
C  49.50800 30.80600 22.06400
N  47.38300 33.50400 27.64700
C  47.05700 32.41900 26.84000
C  46.21100 31.52700 27.48900
C  46.04800 32.11100 28.75000
C  46.77700 33.27200 28.78100
C  45.60800 30.24600 26.98700
C  45.33000 31.89300 29.99500
O  44.49100 31.07500 30.27200
C  45.79400 33.01200 30.96700
C  46.56100 32.33200 32.06200
O  47.57000 31.66100 31.99900
O  45.72300 32.40600 33.16000
C  46.07400 31.48300 34.19500
H  49.57600 38.80700 29.92300
H  50.98000 36.60600 23.99400
H  47.23900 31.41500 25.01800
H  46.88100 35.53700 32.47000
H  48.75400 37.47600 32.08900
H  46.30000 38.42600 30.71100
H  47.07800 39.10200 32.18100
H  45.98500 37.75900 32.22400
H  49.89600 35.22200 32.24500
H  48.89000 33.77900 32.13500
H  49.99600 34.65100 34.50500
H  48.65800 33.63900 34.34300
H  50.18000 40.51900 28.71800
H  50.87900 40.92700 27.17100
H  51.89500 40.43500 28.59300
H  53.83100 40.21900 24.96200
H  53.20100 40.06500 26.70100
H  52.27800 40.96800 25.44800
H  50.90300 34.12900 23.29600
H  48.07100 33.17300 22.84600
H  48.64600 36.08600 22.61100
H  48.87000 34.84900 21.38400
H  50.15200 35.92300 21.82000
H  49.87700 30.93400 24.13400
H  50.84900 31.99900 23.08400
H  49.26400 29.82500 22.47200
H  50.37900 30.70100 21.41800
H  48.65100 31.22800 21.53900
H  45.39900 30.23700 25.91800
H  44.72000 30.02100 27.57700
H  46.37100 29.51100 27.24600
H  45.09900 33.71100 31.43100
H  45.51400 31.61800 35.12000
H  47.08500 31.55800 34.59500
H  46.01200 30.44200 33.87700

