158

Mg 40.46700 8.31600 29.03800
C  42.15900 10.17700 31.53100
C  38.48800 6.94800 31.37000
C  39.04200 6.52400 26.54300
C  43.06200 9.18700 26.68100
N  40.32000 8.54900 31.12200
C  41.07600 9.35400 31.92000
C  40.45900 9.43600 33.33500
C  39.53300 8.18800 33.33700
C  39.47200 7.86500 31.86400
C  39.98100 6.93100 34.19000
C  39.99400 10.80400 33.87300
C  39.39700 10.66900 35.27100
H  39.92000 11.69400 36.27000
N  38.91100 6.94200 28.98000
C  38.25000 6.49500 30.05700
C  37.16100 5.67300 29.64700
C  37.20000 5.62100 28.22100
C  38.41800 6.39900 27.82200
C  36.18600 5.05600 30.66100
C  36.31600 5.04300 27.19700
O  36.49700 5.29500 26.01400
C  35.09100 4.17700 27.65300
N  40.98500 7.99300 26.82300
C  40.23000 7.15900 26.06700
C  40.78800 7.04100 24.63200
C  41.90400 8.10000 24.73400
C  42.06700 8.43600 26.18500
C  41.32800 5.66100 24.21600
C  41.61700 9.25400 23.71200
C  40.90300 10.53100 24.22200
N  42.19000 9.38400 29.05100
C  43.19700 9.63200 28.03600
C  44.18700 10.59900 28.64800
C  43.80100 10.77000 30.01000
C  42.65400 10.06300 30.20400
C  45.28600 11.20500 27.88300
C  44.22900 11.39200 31.28200
O  45.08800 12.21400 31.52200
C  43.12800 11.08000 32.27700
C  43.81900 10.29600 33.43500
O  44.43400 9.21500 33.36300
O  43.35200 10.79200 34.58100
C  43.49400 9.99500 35.75800
H  37.87000 6.46200 32.12800
H  38.80600 5.80400 25.75700
H  43.82400 9.49700 25.96300
H  41.27800 8.96500 33.87800
H  38.49000 8.46700 33.48700
H  40.48000 6.32200 33.43600
H  39.14600 6.43800 34.68800
H  40.69800 7.08700 34.99700
H  39.20000 11.16200 33.21700
H  40.78500 11.55300 33.90200
H  39.40300 9.63000 35.60000
H  38.34100 10.88900 35.11600
H  36.01100 5.81400 31.42400
H  36.60300 4.15800 31.11900
H  35.24600 4.72300 30.22300
H  35.52000 3.24000 28.00800
H  34.55700 3.90100 26.74300
H  34.39300 4.69600 28.30900
H  39.93900 7.27200 23.98800
H  42.85500 7.65500 24.44400
H  41.03500 5.64300 23.16600
H  40.70000 4.88900 24.66200
H  42.39000 5.43300 24.12600
H  40.97700 8.90300 22.90200
H  42.57200 9.38800 23.20500
H  40.71200 10.54700 25.29500
H  39.90200 10.66400 23.81200
H  41.53900 11.40400 24.07300
H  45.24200 10.93700 26.82700
H  46.16200 10.66800 28.24700
H  45.21800 12.28700 27.99900
H  42.70100 12.02900 32.60000
H  43.43700 10.75600 36.53700
H  44.45000 9.47400 35.80500
H  42.69300 9.30400 36.02000
Mg -1.32600 34.20900 27.67000
C  -2.94400 32.66100 30.47200
C  0.18700 36.30900 29.65900
C  -0.57700 36.01300 24.87200
C  -3.31700 32.02900 25.68700
N  -1.61000 34.53800 29.81500
C  -2.13600 33.70800 30.73200
C  -1.53900 34.02700 32.19400
C  -0.55400 35.23700 31.88700
C  -0.62400 35.35000 30.29600
C  -0.64800 36.57900 32.68500
C  -0.92000 32.84300 33.00100
C  -1.55800 32.25800 34.24700
H  -0.67400 32.13100 35.46500
N  -0.20700 35.87700 27.28300
C  0.37700 36.60600 28.28200
C  1.23400 37.56200 27.65000
C  1.08900 37.38300 26.27400
C  0.04800 36.39700 26.03500
C  2.15900 38.44600 28.41000
C  1.83300 37.98400 25.17400
O  1.80600 37.60800 24.02800
C  2.59900 39.24800 25.53800
N  -1.83900 34.10000 25.59300
C  -1.55200 35.03700 24.70900
C  -2.15200 34.71800 23.30100
C  -2.70100 33.24100 23.54200
C  -2.62000 33.07300 24.99200
C  -3.16900 35.70900 22.73000
C  -2.03300 32.03200 22.82800
C  -0.53600 31.87500 22.58800
N  -2.58400 32.53700 27.96200
C  -3.31900 31.81100 27.04800
C  -4.18700 30.88200 27.70800
C  -4.01500 31.18200 29.04200
C  -3.15300 32.20700 29.14300
C  -5.05500 29.85800 27.16500
C  -4.43800 30.85000 30.37100
O  -5.21900 30.00000 30.74600
C  -3.70200 31.77700 31.39600
C  -4.64700 32.61400 32.20700
O  -5.27100 33.54500 31.76500
O  -4.53800 32.24500 33.48100
C  -5.38100 33.06200 34.48000
H  0.83300 36.75100 30.42000
H  -0.27200 36.48200 23.93400
H  -3.89800 31.31800 25.09600
H  -2.29500 34.51200 32.81300
H  0.46200 34.87000 32.03000
H  -1.29700 36.42800 33.54800
H  -1.22600 37.20900 32.00900
H  0.26500 37.07800 33.00800
H  0.07300 33.20200 33.27000
H  -0.67700 32.08300 32.25900
H  -2.00700 31.29500 34.00400
H  -2.35800 32.92400 34.57000
H  3.16100 38.07600 28.19100
H  2.05100 38.47400 29.49400
H  2.07700 39.51800 28.23400
H  1.87500 39.91100 26.01200
H  3.10600 39.76800 24.72500
H  3.38000 38.83300 26.17500
H  -1.37300 34.71700 22.53800
H  -3.75000 33.25000 23.24800
H  -3.81600 36.04300 23.54100
H  -3.85000 35.30700 21.98000
H  -2.69300 36.53900 22.20900
H  -2.52700 31.96700 21.85800
H  -2.35900 31.03300 23.11600
H  0.02400 32.62100 23.15200
H  -0.34800 32.06400 21.53100
H  -0.29600 30.85400 22.88400
H  -4.87200 29.66400 26.10800
H  -6.06100 30.24300 27.33300
H  -4.94900 28.92200 27.71300
H  -2.99000 31.20000 31.98500
H  -4.84500 33.20800 35.41700
H  -6.32500 32.57200 34.71700
H  -5.59000 34.06400 34.10400

