158

Mg -1.23500 17.21600 26.46600
C  -1.79200 14.97400 29.04800
C  -1.60500 19.74900 28.87700
C  -1.56900 19.51600 23.91600
C  -1.73200 14.65800 24.12300
N  -1.47400 17.35600 28.75700
C  -1.66100 16.23300 29.57800
C  -1.62100 16.68200 31.06900
C  -1.74300 18.25900 30.94500
C  -1.59300 18.46400 29.41800
C  -3.00600 18.80900 31.48800
C  -0.39100 16.20400 31.95500
C  0.09200 16.97500 33.25100
H  0.07000 16.23000 34.58200
N  -1.46400 19.37400 26.40000
C  -1.60200 20.20000 27.50900
C  -1.75400 21.59900 27.01400
C  -1.77900 21.47000 25.60000
C  -1.58500 20.04700 25.22500
C  -1.86100 22.72100 27.98200
C  -2.02100 22.59000 24.56800
O  -2.24000 22.39500 23.35200
C  -2.00300 23.96500 25.06300
N  -1.46800 17.06800 24.28400
C  -1.58900 18.15000 23.45700
C  -1.60500 17.69300 21.98700
C  -1.84700 16.18100 22.12100
C  -1.68300 15.91900 23.58700
C  -2.46500 18.27800 20.88900
C  -0.93200 15.34400 21.20300
C  0.55600 15.28800 21.64700
N  -1.49300 15.21400 26.50200
C  -1.74000 14.32400 25.47300
C  -1.99000 12.97000 26.12500
C  -2.02200 13.20800 27.50800
C  -1.69300 14.61000 27.65500
C  -2.13100 11.70900 25.23500
C  -2.18300 12.59800 28.74600
O  -2.33500 11.42900 29.12200
C  -2.19600 13.75900 29.76000
C  -1.53800 13.32100 30.99500
O  -0.45800 12.80900 31.05100
O  -2.36500 13.51100 32.02600
C  -1.96300 13.00900 33.37200
H  -1.77100 20.43700 29.70900
H  -1.70200 20.23000 23.10000
H  -1.85800 13.78500 23.47900
H  -2.56100 16.28600 31.45300
H  -0.88500 18.68400 31.46600
H  -3.07200 19.89700 31.50700
H  -3.14000 18.56600 32.54200
H  -3.76700 18.25100 30.94200
H  0.50600 16.24500 31.33800
H  -0.37200 15.15700 32.25900
H  -0.47400 17.90200 33.33400
H  1.11100 17.29300 33.03100
H  -2.92500 22.93700 28.07800
H  -1.32800 23.63800 27.73000
H  -1.53000 22.30800 28.93500
H  -1.08900 24.07800 25.64500
H  -2.84500 24.18900 25.71900
H  -1.93600 24.64000 24.21000
H  -0.60800 17.77900 21.55500
H  -2.87800 15.88700 21.92000
H  -3.30100 18.74700 21.40800
H  -2.82300 17.46900 20.25300
H  -1.90800 19.07600 20.39800
H  -0.90300 15.79000 20.20900
H  -1.36700 14.34700 21.13600
H  1.34300 15.16100 20.90300
H  0.66600 14.44700 22.33200
H  0.93000 16.10500 22.26400
H  -1.34700 11.62900 24.48100
H  -3.14100 11.78900 24.83500
H  -1.93700 10.82800 25.84700
H  -3.26800 13.81600 29.94900
H  -1.97100 13.87800 34.03000
H  -0.98600 12.53300 33.44900
H  -2.71100 12.29200 33.71200
Mg 47.38700 24.92100 28.66500
C  48.22400 27.17700 31.18800
C  46.29600 22.74900 30.98900
C  46.84800 22.75500 26.20400
C  48.72400 27.25500 26.25100
N  47.31100 24.98900 30.77600
C  47.64700 25.99800 31.66400
C  47.25600 25.68200 33.11900
C  46.91300 24.19100 32.98400
C  46.91100 23.89900 31.46000
C  47.93000 23.25200 33.73500
C  46.00000 26.60200 33.59100
C  45.92100 27.02300 35.10700
H  46.92900 26.40600 36.10600
N  46.69300 22.97800 28.59800
C  46.25300 22.26700 29.68500
C  45.69500 20.94700 29.22200
C  45.96000 20.94700 27.80400
C  46.53000 22.21600 27.47100
C  45.02800 19.94800 30.22700
C  45.63900 19.86900 26.82900
O  45.86600 19.82700 25.61100
C  45.00800 18.56200 27.34000
N  47.98900 24.94300 26.57800
C  47.52300 23.90600 25.83500
C  47.91800 24.12500 24.28600
C  48.50600 25.60600 24.29000
C  48.39700 25.99900 25.79100
C  48.92900 23.06300 23.74500
C  47.68000 26.57700 23.37800
C  48.42100 27.20100 22.21500
N  48.15300 26.82200 28.64000
C  48.66700 27.60600 27.60800
C  48.94000 28.96700 28.13400
C  48.76800 28.91400 29.52300
C  48.32700 27.56300 29.77900
C  49.51500 30.04400 27.23200
C  48.97000 29.61400 30.83900
O  49.34400 30.73100 31.16300
C  48.62700 28.51000 31.90400
C  49.84200 28.35300 32.86300
O  51.01400 28.14300 32.54600
O  49.42600 28.71500 34.09500
C  50.48900 29.11600 35.03700
H  45.84300 22.10900 31.74800
H  46.44300 22.10000 25.43000
H  49.02600 27.93400 25.45200
H  48.19000 25.89300 33.64000
H  45.94500 24.04200 33.46300
H  48.30900 23.81100 34.59100
H  48.69900 23.08600 32.98100
H  47.33500 22.42700 34.12700
H  45.12000 26.01200 33.33400
H  46.11300 27.48000 32.95500
H  44.89000 26.98300 35.45700
H  46.22000 28.07100 35.10300
H  45.33500 20.01200 31.27100
H  45.24300 18.89000 30.07700
H  43.97000 20.07900 29.99800
H  44.75700 17.88600 26.52200
H  44.16800 18.79300 27.99500
H  45.72000 18.00200 27.94600
H  46.97600 24.09000 23.73800
H  49.57200 25.58900 24.06200
H  48.41200 22.28500 23.18300
H  49.52500 22.75900 24.60500
H  49.59400 23.52200 23.01400
H  47.50000 27.51200 23.90900
H  46.72900 26.19200 23.01300
H  48.06900 26.74500 21.29000
H  49.47300 26.93300 22.11300
H  48.36500 28.28900 22.25400
H  49.51200 30.96700 27.81200
H  48.80500 30.16300 26.41300
H  50.51200 29.75800 26.89900
H  47.80000 29.02200 32.39600
H  50.12600 29.90500 35.69500
H  51.44900 29.32800 34.56600
H  50.54000 28.17200 35.58000

