158

Mg 46.74600 24.96000 28.86900
C  47.46000 27.46300 31.26900
C  45.75900 22.91400 31.34700
C  46.58000 22.51900 26.55900
C  48.31900 26.97600 26.48600
N  46.76800 25.20000 31.01700
C  46.94400 26.29900 31.79200
C  46.58000 26.07400 33.26400
C  46.17700 24.52300 33.32900
C  46.23700 24.17400 31.80400
C  47.14300 23.62100 34.19000
C  45.35300 27.01500 33.81800
C  44.90500 26.76200 35.25400
H  45.86700 26.49700 36.46100
N  46.03300 23.02500 28.92900
C  45.72300 22.35500 30.04400
C  45.26300 21.02500 29.65000
C  45.31200 20.93800 28.16600
C  46.04700 22.20200 27.81500
C  44.80500 19.97700 30.61900
C  44.84300 19.83600 27.16900
O  44.96300 19.93700 25.95900
C  44.17500 18.63100 27.76300
N  47.42900 24.72000 26.89000
C  47.34800 23.64400 26.15500
C  48.03500 23.65800 24.82300
C  48.37400 25.17400 24.75500
C  47.94200 25.71600 26.18400
C  49.09500 22.61000 24.75000
C  47.72000 26.08100 23.64400
C  48.70400 26.79000 22.70200
N  47.60100 26.85400 28.80900
C  48.13800 27.55300 27.75500
C  48.52200 28.89500 28.20300
C  48.30900 28.89600 29.60600
C  47.81400 27.61700 29.89800
C  49.08800 29.95400 27.42200
C  48.40000 29.69300 30.82800
O  48.82300 30.81600 31.01600
C  47.97600 28.73000 31.98800
C  49.13700 28.45500 32.91900
O  50.20900 27.93700 32.62100
O  48.65200 28.59000 34.20600
C  49.73700 28.48000 35.23700
H  45.50400 22.29000 32.20600
H  46.56000 21.68400 25.85500
H  48.87000 27.65000 25.82800
H  47.45400 26.39000 33.83300
H  45.14200 24.44500 33.66400
H  46.51100 23.13100 34.93000
H  47.90000 24.24200 34.66900
H  47.70000 22.92000 33.56900
H  44.44400 26.84500 33.24200
H  45.52900 28.08800 33.73900
H  44.22100 25.91300 35.27200
H  44.25100 27.58700 35.53500
H  43.74000 20.03400 30.84500
H  45.41600 20.12000 31.50900
H  45.07300 18.99400 30.23000
H  43.48200 18.85000 28.57500
H  44.90700 17.92600 28.15900
H  43.61300 18.15300 26.96000
H  47.26500 23.46400 24.07600
H  49.44700 25.32300 24.63900
H  49.01200 21.89800 23.92800
H  49.10300 22.00600 25.65800
H  50.06400 23.09800 24.65100
H  47.10100 26.84200 24.12000
H  47.02500 25.48300 23.05600
H  48.86900 27.83400 22.96900
H  48.51400 26.75900 21.62900
H  49.71200 26.43200 22.91100
H  50.17700 29.96400 27.43900
H  48.68300 30.84800 27.89600
H  48.77200 29.89700 26.38000
H  47.25000 29.21700 32.63900
H  50.75700 28.38000 34.86400
H  49.52300 27.65400 35.91500
H  49.84800 29.48300 35.65000
Mg 30.36700 58.56800 40.24900
C  27.44900 56.67100 39.34100
C  32.18500 55.80700 39.30500
C  33.03800 60.57300 39.90100
C  28.23300 61.36600 40.32600
N  29.84000 56.56200 39.23500
C  28.63900 55.93500 39.07200
C  28.67600 54.44700 38.74900
C  30.22500 54.24200 38.86200
C  30.83000 55.64800 39.10300
C  30.54900 53.23800 40.03300
C  28.10400 54.13100 37.31500
C  28.03400 55.25600 36.24000
H  28.69600 55.03200 34.86300
N  32.38800 58.18000 39.84600
C  32.94300 56.98500 39.48600
C  34.37900 57.12100 39.51100
C  34.67600 58.50700 39.62600
C  33.31900 59.20600 39.72800
C  35.22800 55.89100 39.43900
C  36.10900 58.99700 39.86000
O  37.02600 58.27300 40.10400
C  36.38100 60.47800 40.07100
N  30.54600 60.67400 40.20700
C  31.79400 61.25700 40.14100
C  31.66600 62.75800 40.52000
C  30.18700 62.94100 40.91800
C  29.57100 61.67300 40.42400
C  32.70500 63.37800 41.50800
C  29.51300 64.17700 40.25200
C  28.81200 65.19200 41.15200
N  28.27600 58.90500 40.20600
C  27.57800 60.11700 40.23200
C  26.12200 59.80100 40.09100
C  26.03800 58.50800 39.75800
C  27.40200 57.97800 39.76600
C  25.02900 60.89900 40.16700
C  25.12200 57.42500 39.37000
O  23.89900 57.42400 39.13500
C  25.95500 56.19100 39.19400
C  25.57300 55.23200 40.16500
O  25.96000 55.14300 41.32300
O  24.68500 54.33600 39.65000
C  24.33200 53.21600 40.44600
H  32.83800 54.94200 39.17300
H  33.93900 61.18600 39.82500
H  27.56000 62.21100 40.49300
H  28.05700 54.01600 39.53500
H  30.70700 53.94200 37.93100
H  29.82100 53.00100 40.80800
H  31.31800 53.59400 40.72000
H  30.84800 52.33900 39.49500
H  27.12600 53.65200 37.35300
H  28.74200 53.33200 36.93700
H  28.63700 56.08900 36.60000
H  26.98900 55.54200 36.12200
H  36.30700 56.04600 39.46600
H  35.00400 55.32900 38.53200
H  34.96700 55.19300 40.23500
H  35.87900 60.77200 40.99300
H  35.95800 61.02400 39.22700
H  37.46100 60.60700 40.13800
H  31.92400 63.35700 39.64700
H  30.07400 62.91800 42.00200
H  32.21600 63.63100 42.44800
H  33.09600 64.32400 41.13400
H  33.59000 62.75300 41.62900
H  28.80700 63.86100 39.48400
H  30.27700 64.68300 39.66300
H  29.05500 64.97700 42.19200
H  27.75600 65.02200 40.94400
H  28.91600 66.25400 40.93000
H  24.32400 60.70600 39.35900
H  25.38900 61.92800 40.14000
H  24.42900 60.74400 41.06400
H  25.76700 55.79300 38.19800
H  24.96100 53.05700 41.32200
H  24.38100 52.32900 39.81500
H  23.27900 53.38600 40.67200

