158

Mg 16.58900 52.37500 25.81600
C  18.19500 50.80600 28.54100
C  14.01900 53.24600 27.83000
C  15.00300 53.47300 23.07000
C  18.87300 50.65400 23.71200
N  16.14800 52.03500 27.94800
C  17.04600 51.54100 28.88800
C  16.49500 51.83400 30.33500
C  14.99300 52.31600 30.04200
C  15.01000 52.49700 28.51400
C  13.96300 51.25900 30.52900
C  17.48000 52.79900 31.18800
C  17.65900 52.55000 32.71200
H  16.43500 51.93300 33.41300
N  14.84200 53.35700 25.49400
C  13.89600 53.54400 26.45800
C  12.74100 54.26100 25.93500
C  12.95300 54.40900 24.51900
C  14.27500 53.70600 24.27800
C  11.51200 54.57400 26.65000
C  12.09900 55.09100 23.45300
O  12.49200 55.14700 22.31100
C  10.73500 55.74000 23.78800
N  16.86400 51.93600 23.63300
C  16.09900 52.72500 22.78900
C  16.60800 52.49200 21.36600
C  17.85000 51.63000 21.57100
C  17.88600 51.33400 23.07500
C  15.44900 51.87600 20.49000
C  19.14100 52.26400 20.88400
C  20.13300 53.05400 21.72500
N  18.18400 50.97700 26.04300
C  19.04400 50.46300 25.08400
C  20.13100 49.72900 25.77800
C  19.78800 49.78700 27.13300
C  18.63500 50.58100 27.22800
C  21.19700 48.91300 25.17400
C  20.10500 49.30600 28.48900
O  20.98100 48.56100 28.82500
C  19.15800 50.08300 29.47100
C  18.71100 49.25300 30.58800
O  17.83500 48.39800 30.49600
O  19.37500 49.54100 31.76600
C  19.00700 48.76800 32.92100
H  13.19100 53.68600 28.39100
H  14.54800 53.92600 22.18600
H  19.59300 50.20800 23.02300
H  16.54900 50.96400 30.98800
H  14.73200 53.29000 30.45500
H  14.33000 50.23400 30.58800
H  13.11200 51.31800 29.85100
H  13.49300 51.60100 31.45200
H  17.11100 53.80900 31.01000
H  18.48600 52.88600 30.77800
H  17.80700 53.52500 33.17700
H  18.59300 52.09100 33.03500
H  11.03400 55.50300 26.34000
H  11.73100 54.78900 27.69600
H  10.99800 53.61300 26.64600
H  10.28000 56.16400 22.89300
H  10.71900 56.59500 24.46300
H  10.04900 54.99800 24.19600
H  16.91100 53.44100 20.92300
H  17.63600 50.66700 21.10800
H  14.51000 51.76800 21.03200
H  15.75100 50.87100 20.19500
H  15.32200 52.48300 19.59300
H  18.90500 52.95100 20.07100
H  19.72600 51.46100 20.43600
H  19.78600 53.24000 22.74100
H  20.15600 54.05100 21.28600
H  21.15500 52.67600 21.72600
H  20.59900 48.08300 24.80000
H  21.98900 48.65900 25.87900
H  21.52800 49.61500 24.40900
H  19.76400 50.81500 30.00600
H  17.93700 48.61300 33.05800
H  19.39900 49.32100 33.77500
H  19.36100 47.73800 32.97800
Mg -9.72900 40.03900 39.01500
C  -8.60200 36.88900 38.36700
C  -6.64500 41.17700 38.59900
C  -11.03200 43.08800 38.59500
C  -13.03500 38.81900 38.86100
N  -7.88400 39.08700 38.35900
C  -7.61600 37.76500 38.15600
C  -6.14700 37.47500 38.00800
C  -5.50500 38.85400 38.36500
C  -6.73200 39.80400 38.46000
C  -4.63800 38.83800 39.63200
C  -5.66600 36.87800 36.61300
C  -6.07500 37.59100 35.28300
H  -6.97500 36.81600 34.35300
N  -8.93500 41.99800 38.84200
C  -7.62500 42.24300 38.70000
C  -7.39700 43.65000 38.64600
C  -8.67800 44.26300 38.72100
C  -9.64400 43.12400 38.68700
C  -6.04700 44.32600 38.44500
C  -8.95400 45.76200 38.66700
O  -8.06500 46.58900 38.58000
C  -10.31000 46.34600 38.59000
N  -11.76500 40.79700 38.54400
C  -12.00800 42.12100 38.50600
C  -13.54900 42.42300 38.29300
C  -14.15300 41.03200 38.60000
C  -12.94800 40.19900 38.75700
C  -14.21500 43.60300 39.09000
C  -15.13700 40.59000 37.44400
C  -16.55400 41.04700 37.72700
N  -10.56600 38.27800 38.85100
C  -11.98100 37.88900 38.83000
C  -12.14600 36.45700 38.63300
C  -10.80700 36.05000 38.44100
C  -9.94700 37.11200 38.62700
C  -13.47500 35.73200 38.55800
C  -9.99600 34.84900 38.14200
O  -10.33800 33.70100 37.95400
C  -8.46100 35.37700 38.14800
C  -7.58700 34.62200 39.17200
O  -7.74300 34.56200 40.36400
O  -6.59000 33.98700 38.44900
C  -5.52700 33.50100 39.34900
H  -5.60100 41.47300 38.47800
H  -11.51100 44.05200 38.40700
H  -14.03000 38.37500 38.92300
H  -5.74200 36.74800 38.71200
H  -5.00300 39.27100 37.49100
H  -3.61700 39.18100 39.46600
H  -4.73000 37.94000 40.24300
H  -5.12800 39.57000 40.27300
H  -5.89400 35.82000 36.48800
H  -4.59200 37.03100 36.50600
H  -5.12500 37.84500 34.81300
H  -6.69200 38.46800 35.47700
H  -5.31000 43.57100 38.72000
H  -5.89600 45.23000 39.03500
H  -5.94500 44.63600 37.40500
H  -10.93200 46.18700 39.47100
H  -10.77800 46.10900 37.63500
H  -10.29400 47.43600 38.58500
H  -13.68400 42.60800 37.22700
H  -14.67500 41.06800 39.55600
H  -13.52400 44.06200 39.79700
H  -15.09800 43.25900 39.62800
H  -14.60700 44.34000 38.39000
H  -15.00400 39.53500 37.20400
H  -15.01800 41.02100 36.44900
H  -17.16300 40.14600 37.80400
H  -17.04100 41.69000 36.99500
H  -16.65000 41.59900 38.66200
H  -13.96500 36.21000 37.70900
H  -13.94300 35.80300 39.54000
H  -13.27200 34.74400 38.14400
H  -8.04900 35.11200 37.17500
H  -5.35200 32.43200 39.23200
H  -5.55300 33.79400 40.39900
H  -4.56900 33.86100 38.97400

