158

Mg 34.55300 2.71800 28.61500
C  32.88500 3.51500 31.50700
C  37.52600 2.36300 30.51500
C  36.30400 2.54300 25.78500
C  31.61000 3.54200 26.73800
N  35.12000 2.85800 30.75600
C  34.24300 3.18600 31.80600
C  34.93700 3.13200 33.18800
C  36.43900 2.82400 32.79900
C  36.38400 2.65500 31.22800
C  37.56000 3.85600 33.15400
C  34.25600 2.12600 34.16700
C  33.79300 2.61600 35.51600
H  34.49400 3.84700 36.20000
N  36.62600 2.36100 28.24300
C  37.67900 2.28300 29.14900
C  38.85600 1.96300 28.42700
C  38.48000 2.01500 27.00300
C  37.11400 2.33500 26.94400
C  40.26000 1.83300 29.06500
C  39.40300 1.90700 25.73300
O  38.96100 1.93700 24.58700
C  40.82700 1.59900 25.84300
N  34.03700 3.06500 26.57000
C  34.98000 2.89500 25.60200
C  34.35400 2.99900 24.28400
C  32.83400 2.85000 24.52800
C  32.81500 3.23300 26.07200
C  34.83200 4.36400 23.62300
C  32.27700 1.42400 24.29400
C  30.73000 1.37700 24.15100
N  32.64900 3.41800 28.93500
C  31.52800 3.58100 28.14600
C  30.35300 3.76800 29.01200
C  30.87800 3.84300 30.30800
C  32.22700 3.56400 30.23700
C  28.91700 4.07600 28.56600
C  30.48900 3.98600 31.69300
O  29.43500 4.13500 32.24000
C  31.76100 3.93700 32.46300
C  32.07700 5.15300 33.26100
O  32.81900 6.07500 32.98500
O  31.29000 5.24600 34.43000
C  31.08200 6.59900 34.92300
H  38.38900 2.16200 31.15400
H  36.68500 2.34800 24.78000
H  30.65700 3.61100 26.20900
H  34.99100 4.07400 33.73400
H  36.64700 1.83800 33.21500
H  37.28700 4.50500 33.98700
H  37.78200 4.31400 32.19000
H  38.43400 3.32200 33.52900
H  34.90100 1.28000 34.40600
H  33.40800 1.74400 33.59800
H  33.89800 1.79900 36.23000
H  32.74100 2.86200 35.37000
H  40.96400 2.42200 28.47800
H  40.65000 0.81700 29.01200
H  40.29100 2.20400 30.08900
H  40.94100 0.59800 26.26000
H  41.37400 2.38600 26.36200
H  41.11500 1.41800 24.80800
H  34.82100 2.21200 23.69200
H  32.35200 3.65200 23.96900
H  34.01500 5.03000 23.34400
H  35.27900 4.07300 22.67200
H  35.55100 4.97700 24.16500
H  32.50800 0.91900 25.23200
H  32.81700 0.94300 23.47900
H  30.47900 0.84100 23.23600
H  30.28500 2.36400 24.02300
H  30.16400 0.85200 24.92000
H  28.40100 4.47300 29.44100
H  28.41000 3.18000 28.20900
H  28.90800 4.77300 27.72900
H  31.62300 3.13400 33.18700
H  31.00200 7.39100 34.17800
H  31.80700 6.93700 35.66300
H  30.10200 6.47200 35.38200
Mg 36.12700 48.77500 24.06100
C  36.57400 47.04700 27.24200
C  34.86800 51.36800 25.97900
C  35.83700 50.35800 21.28700
C  37.43900 46.03800 22.49000
N  35.63600 49.04800 26.33800
C  36.03500 48.34600 27.45300
C  35.62000 49.01000 28.79900
C  34.99000 50.34500 28.27100
C  35.11100 50.25500 26.75900
C  33.54500 50.70600 28.75700
C  36.85900 49.11900 29.71800
C  36.86700 48.42000 31.13200
H  35.52000 48.43400 31.99000
N  35.53200 50.61200 23.68200
C  34.98600 51.54100 24.64800
C  34.55800 52.72200 23.89800
C  34.77600 52.45700 22.49900
C  35.36100 51.09300 22.43700
C  33.94900 53.89000 24.54000
C  34.38600 53.19500 21.23000
O  34.49000 52.73100 20.08600
C  33.67400 54.48900 21.34000
N  36.41100 48.17600 22.12100
C  36.34800 49.06600 21.13700
C  36.63700 48.44200 19.73100
C  37.36400 47.20700 20.18800
C  37.06300 47.11900 21.66800
C  35.39500 48.10200 18.90500
C  38.89300 47.15600 19.81400
C  39.79300 47.96300 20.76200
N  36.82000 46.85600 24.67000
C  37.29300 45.87000 23.88800
C  37.64000 44.73800 24.70200
C  37.36400 45.10900 26.01400
C  36.79500 46.41300 25.96700
C  38.30000 43.42600 24.29500
C  37.55400 44.71800 27.40100
O  38.07300 43.75300 27.98000
C  36.91800 45.94400 28.18000
C  35.73400 45.46800 29.03000
O  34.56100 45.62300 28.72900
O  36.17800 44.95200 30.20300
C  35.11600 44.47200 31.16400
H  34.43800 52.21800 26.51300
H  35.92500 50.87900 20.33200
H  37.77900 45.13000 21.98900
H  34.82500 48.43000 29.26800
H  35.64200 51.14200 28.62900
H  33.06800 49.78200 29.08500
H  32.88500 50.99800 27.94000
H  33.43900 51.44200 29.55300
H  37.08500 50.17000 29.90100
H  37.74300 48.66700 29.26900
H  37.62500 48.96500 31.69300
H  37.26100 47.40500 31.07000
H  32.87400 53.87800 24.71500
H  34.14400 54.84200 24.04800
H  34.30800 53.94800 25.56800
H  33.19600 54.78300 20.40600
H  34.34600 55.20400 21.81600
H  32.89600 54.23300 22.05900
H  37.26900 49.04700 19.08000
H  36.84300 46.32800 19.80700
H  35.26800 48.82500 18.09900
H  34.55200 47.97300 19.58300
H  35.48600 47.16800 18.35100
H  39.09500 47.58100 18.83100
H  39.21800 46.12300 19.94200
H  40.58100 48.47200 20.20700
H  40.18000 47.47600 21.65600
H  39.22900 48.76400 21.23900
H  38.48700 43.32300 23.22600
H  37.70700 42.65500 24.78800
H  39.27100 43.34200 24.78200
H  37.63500 46.24200 28.94500
H  34.98000 43.39200 31.21300
H  34.10500 44.87300 31.08400
H  35.47400 44.79100 32.14300

