158

Mg 35.95800 49.26600 26.07400
C  36.19100 47.30500 29.12900
C  34.92500 51.94500 27.98800
C  35.62300 50.93800 23.34500
C  37.27400 46.42600 24.34500
N  35.56200 49.53000 28.25200
C  35.71200 48.62400 29.28200
C  35.49200 49.34500 30.60200
C  34.94700 50.75000 30.19100
C  35.11200 50.74800 28.68200
C  33.44700 51.22200 30.70300
C  36.87700 49.36600 31.34000
C  36.80700 49.27200 32.91200
H  35.48700 49.10500 33.63200
N  35.28700 51.17000 25.71700
C  34.95700 52.15200 26.61400
C  34.78600 53.41900 25.88700
C  34.94100 53.12900 24.53300
C  35.24500 51.68800 24.44900
C  34.61800 54.79700 26.60100
C  35.01500 54.04500 23.29400
O  35.41900 53.68200 22.16300
C  34.62600 55.50600 23.49500
N  36.31500 48.65700 24.15700
C  36.17600 49.64000 23.18300
C  36.80400 49.15800 21.83800
C  37.34100 47.70000 22.21800
C  36.99100 47.59800 23.64900
C  35.79800 49.27800 20.69800
C  38.83400 47.46500 21.95300
C  39.39100 47.92500 20.60400
N  36.58900 47.29300 26.62100
C  37.00900 46.28600 25.76900
C  37.45100 45.14100 26.54800
C  37.13300 45.48600 27.89400
C  36.62900 46.80200 27.87300
C  38.07000 43.86600 26.08000
C  37.14100 45.03100 29.31500
O  37.49400 43.96100 29.83600
C  36.50700 46.20200 30.19900
C  35.30700 45.52100 30.88500
O  34.19300 45.35800 30.48300
O  35.77600 45.02800 32.09900
C  34.93100 44.27900 32.99400
H  34.66800 52.85400 28.53600
H  35.59900 51.50500 22.41200
H  37.75100 45.67100 23.71600
H  34.72400 48.84900 31.19500
H  35.64700 51.47600 30.60600
H  33.07000 50.55500 31.47800
H  32.72200 51.10900 29.89700
H  33.52200 52.22200 31.13000
H  37.30600 50.35300 31.16600
H  37.61600 48.67800 30.93100
H  37.19300 50.24700 33.21200
H  37.43700 48.45700 33.26900
H  34.87200 54.88300 27.65700
H  33.54800 54.99100 26.51800
H  35.03700 55.68800 26.13200
H  35.48000 56.03900 23.91100
H  33.74400 55.59700 24.12900
H  34.33500 55.92100 22.53000
H  37.66800 49.76300 21.56200
H  36.86500 46.95400 21.58100
H  35.16400 48.39200 20.71100
H  36.36100 49.34000 19.76700
H  35.22600 50.19600 20.84000
H  39.12200 46.41900 22.04900
H  39.31100 48.00000 22.77400
H  38.58300 48.04400 19.88200
H  40.01000 47.22300 20.04400
H  40.02400 48.81200 20.62500
H  37.35600 43.04300 26.06200
H  38.82600 43.43500 26.73800
H  38.50100 43.98100 25.08600
H  37.15500 46.65900 30.94700
H  34.30300 44.97400 33.55200
H  35.35600 43.56200 33.69600
H  34.22400 43.66800 32.43200
Mg -6.15800 25.24700 25.82700
C  -4.44900 26.52500 28.66300
C  -7.50900 22.94600 27.87600
C  -7.51500 23.72800 23.05500
C  -4.26000 27.31900 23.88000
N  -6.08100 24.90300 27.96600
C  -5.29900 25.50900 28.93600
C  -5.83500 25.18600 30.36700
C  -6.58400 23.87600 30.07800
C  -6.74800 23.89400 28.52500
C  -5.95000 22.55900 30.55200
C  -6.69300 26.37300 30.93300
C  -6.46400 26.71500 32.45500
H  -6.12800 25.68300 33.42100
N  -7.42600 23.64800 25.51200
C  -7.82900 22.79600 26.51500
C  -8.83300 21.84900 25.97900
C  -8.79000 21.99800 24.52500
C  -7.95200 23.19700 24.26900
C  -9.71500 21.04100 26.94100
C  -9.46900 21.15000 23.38900
O  -9.32800 21.42300 22.17500
C  -10.24400 20.02800 23.81600
N  -5.91300 25.44800 23.83700
C  -6.56800 24.74200 22.87100
C  -6.16500 25.31000 21.41900
C  -5.24100 26.50700 21.71800
C  -5.07600 26.36400 23.20500
C  -5.51800 24.30800 20.45200
C  -5.76800 27.95300 21.36700
C  -4.75300 28.71900 20.51800
N  -4.58500 26.65600 26.11800
C  -3.93500 27.46400 25.24300
C  -3.10700 28.33200 25.99000
C  -3.26300 28.05700 27.34200
C  -4.18200 27.01100 27.37200
C  -2.13300 29.32200 25.26800
C  -2.84800 28.39600 28.71800
O  -2.21300 29.34400 29.19000
C  -3.68300 27.49600 29.63000
C  -2.73100 26.92400 30.51100
O  -2.22300 25.87500 30.27500
O  -2.54400 27.67700 31.65200
C  -1.72400 27.08800 32.61800
H  -7.92400 22.22300 28.58200
H  -7.91400 23.30600 22.13000
H  -3.71600 28.04300 23.27000
H  -5.03700 24.95300 31.07300
H  -7.59700 23.89200 30.48000
H  -6.64700 22.06900 31.23300
H  -5.03900 22.63700 31.14600
H  -5.71100 21.93700 29.68900
H  -7.73700 26.08300 30.82400
H  -6.50900 27.31000 30.40700
H  -7.35900 27.21000 32.83400
H  -5.75400 27.54100 32.41000
H  -9.18100 20.14200 27.25200
H  -10.61600 20.70300 26.43000
H  -9.96900 21.58700 27.85000
H  -11.10800 20.47000 24.31400
H  -9.69600 19.44100 24.55300
H  -10.50000 19.29300 23.05300
H  -7.03200 25.64400 20.84900
H  -4.30300 26.27300 21.21400
H  -6.06900 23.39900 20.20800
H  -4.60800 23.81300 20.79400
H  -5.33100 24.78000 19.48800
H  -6.07300 28.48200 22.27000
H  -6.73200 27.89400 20.86200
H  -4.57400 29.69600 20.96600
H  -5.12600 29.09900 19.56600
H  -3.77000 28.25800 20.42000
H  -2.78900 30.07300 24.82900
H  -1.62700 28.85300 24.42400
H  -1.35200 29.69100 25.93300
H  -4.36700 28.18100 30.13200
H  -0.70900 26.81600 32.32900
H  -2.25300 26.37400 33.25100
H  -1.59300 27.91800 33.31200

