158

Mg 16.47200 51.25200 26.17900
C  18.31900 49.75400 28.74500
C  14.19400 52.24400 28.45500
C  14.96700 52.65100 23.72400
C  19.02400 50.03300 24.07700
N  16.23800 50.97800 28.36600
C  17.16200 50.53000 29.25900
C  16.75600 50.83700 30.70300
C  15.24200 51.19800 30.61600
C  15.22400 51.52300 29.04400
C  14.17000 50.07800 30.97100
C  17.79900 51.71900 31.33000
C  17.81100 51.87800 32.82300
H  16.77500 51.12800 33.65600
N  14.75800 52.32600 26.06000
C  14.01300 52.62900 27.09400
C  13.01000 53.57100 26.63700
C  13.16800 53.75800 25.20400
C  14.30500 52.85800 24.91600
C  11.91100 54.08800 27.53100
C  12.31000 54.46600 24.17400
O  12.57000 54.48700 22.94000
C  10.93300 54.96100 24.50100
N  16.83600 51.06800 24.20700
C  16.03300 51.85400 23.37600
C  16.64300 51.92100 21.97700
C  17.95700 51.06400 22.14600
C  17.98400 50.67200 23.57900
C  15.61800 51.47800 20.95700
C  19.19500 51.79200 21.58500
C  19.69000 53.06000 22.31400
N  18.21000 49.98600 26.32500
C  19.16200 49.59800 25.38600
C  20.31000 48.90100 25.95900
C  19.94900 48.84200 27.36300
C  18.72700 49.59000 27.49300
C  21.56800 48.47300 25.23500
C  20.36200 48.44300 28.71800
O  21.34800 47.87200 29.14300
C  19.40700 49.18600 29.66700
C  18.95600 48.25000 30.68900
O  17.96200 47.51400 30.48200
O  19.61500 48.43100 31.85700
C  19.11800 47.53500 32.99100
H  13.54900 52.66400 29.23000
H  14.58500 53.36300 22.99000
H  19.85700 49.83900 23.39800
H  16.90400 49.82500 31.07900
H  15.03800 52.12500 31.15300
H  14.74700 49.17800 31.18300
H  13.58000 49.96000 30.06200
H  13.44400 50.17600 31.77900
H  17.69600 52.73700 30.95400
H  18.76900 51.38700 30.96100
H  17.74200 52.95300 32.98900
H  18.80800 51.53500 33.09900
H  11.72500 55.13200 27.28000
H  12.12400 53.84900 28.57300
H  11.00400 53.51200 27.34900
H  10.98100 55.68500 25.31400
H  10.50800 54.04100 24.90200
H  10.38100 55.22300 23.59800
H  16.94500 52.96200 21.86800
H  17.87700 50.14200 21.57100
H  15.10600 52.30600 20.46600
H  14.87100 50.87700 21.47700
H  16.08600 50.91500 20.15000
H  18.88000 52.09900 20.58800
H  20.08200 51.16200 21.52500
H  19.51000 53.95200 21.71500
H  20.70900 53.02800 22.69800
H  19.06900 53.23500 23.19300
H  21.94000 49.24600 24.56300
H  21.43600 47.51700 24.72800
H  22.33000 48.36000 26.00600
H  20.01200 50.03700 29.98200
H  18.78600 48.22200 33.76900
H  20.02000 46.96800 33.22300
H  18.21400 46.94900 32.82400
Mg -2.58900 35.16100 26.79400
C  -4.51200 33.24600 29.04700
C  -1.88200 37.32300 29.21400
C  -0.73600 36.60400 24.48700
C  -4.03000 33.00100 24.26000
N  -3.11800 35.23700 28.84400
C  -3.77500 34.33900 29.62000
C  -3.67800 34.63300 31.13600
C  -3.27200 36.16700 31.08900
C  -2.79600 36.29600 29.63900
C  -4.38400 37.16500 31.58500
C  -2.75700 33.66900 31.88300
C  -3.21500 33.01300 33.22200
H  -3.51100 33.94000 34.43700
N  -1.58400 36.86100 26.82200
C  -1.24900 37.54900 27.97900
C  -0.25100 38.53700 27.65700
C  0.10000 38.35700 26.27200
C  -0.78000 37.23100 25.79200
C  0.29200 39.51300 28.70700
C  1.17100 39.11100 25.45800
O  1.41200 38.85700 24.28500
C  2.08800 40.07100 26.17300
N  -2.60700 34.98200 24.62400
C  -1.56500 35.59400 23.92100
C  -1.48200 35.09400 22.51100
C  -2.36700 33.80600 22.58500
C  -3.10400 33.95200 23.90700
C  -1.91800 36.21000 21.47700
C  -1.57800 32.44100 22.53700
C  -2.00600 31.33300 21.53300
N  -3.97400 33.43100 26.61300
C  -4.45200 32.69700 25.51900
C  -5.28900 31.60600 26.02000
C  -5.30300 31.76400 27.36900
C  -4.57300 32.87200 27.69400
C  -6.01200 30.49900 25.17800
C  -5.85100 31.27600 28.65800
O  -6.49400 30.26200 29.02800
C  -5.29400 32.19500 29.81000
C  -6.42400 32.71000 30.59300
O  -7.27100 33.50300 30.18300
O  -6.41800 32.22500 31.87200
C  -7.41100 32.89400 32.75900
H  -1.53700 37.84400 30.11000
H  0.05200 37.02500 23.85800
H  -4.33400 32.28000 23.49800
H  -4.63700 34.52800 31.64200
H  -2.43300 36.26200 31.77900
H  -4.50400 37.85800 30.75300
H  -4.05300 37.60700 32.52500
H  -5.31800 36.65100 31.81200
H  -1.78800 34.16000 31.98000
H  -2.71400 32.87000 31.14300
H  -2.43600 32.36700 33.62700
H  -4.03300 32.35700 32.92300
H  -0.24600 39.45100 29.65300
H  0.04000 40.52900 28.40200
H  1.35400 39.35000 28.89400
H  1.52000 40.91100 26.57100
H  2.76800 40.51700 25.44800
H  2.58100 39.47700 26.94300
H  -0.45000 34.79700 22.32100
H  -2.99800 33.77800 21.69700
H  -2.80400 35.93400 20.90600
H  -1.11100 36.64900 20.89000
H  -2.36100 37.08300 21.95700
H  -1.64700 31.93500 23.50100
H  -0.53700 32.68200 22.31900
H  -2.99900 31.48100 21.11000
H  -2.09900 30.45100 22.16600
H  -1.23600 31.07300 20.80700
H  -5.50700 29.55100 25.36200
H  -6.15100 30.71200 24.11800
H  -6.98200 30.45100 25.67300
H  -4.71800 31.60500 30.52300
H  -8.42500 32.61700 32.47000
H  -7.29200 33.97400 32.66900
H  -7.25400 32.57600 33.78900

