158

Mg 9.04700 4.17200 27.32500
C  10.27000 2.61600 30.15700
C  7.16400 6.20800 29.20300
C  8.10900 5.62500 24.49900
C  10.79900 1.67600 25.33700
N  8.73200 4.42500 29.49800
C  9.39500 3.68000 30.45600
C  9.15000 4.21400 31.81600
C  7.92500 5.22600 31.56300
C  7.96600 5.33100 29.99000
C  6.58500 4.82600 32.21600
C  10.39900 4.79100 32.61900
C  10.10900 5.88100 33.72000
H  10.86400 5.64000 35.06000
N  7.82700 5.72700 26.94600
C  7.01300 6.31400 27.83300
C  6.06000 7.17000 27.06900
C  6.47300 7.09300 25.66100
C  7.58900 6.13800 25.67800
C  4.99200 7.92000 27.77500
C  5.87600 7.82700 24.44800
O  6.21600 7.64400 23.33200
C  4.96700 8.92800 24.60100
N  9.34500 3.62700 25.16300
C  8.88300 4.45300 24.23900
C  9.09100 3.90000 22.79400
C  9.95100 2.59200 23.08200
C  10.11300 2.64000 24.60700
C  7.73200 3.65500 22.05300
C  11.34100 2.39100 22.38500
C  11.56500 1.05800 21.55200
N  10.19600 2.43800 27.61500
C  10.90300 1.62100 26.74500
C  11.64800 0.71300 27.53300
C  11.46800 1.08700 28.87700
C  10.53500 2.09600 28.89100
C  12.47000 -0.37500 27.06700
C  11.91900 0.77500 30.26300
O  12.62000 -0.09200 30.77300
C  11.05500 1.76400 31.12600
C  10.15800 0.93200 32.00100
O  9.35600 0.05200 31.66900
O  10.38400 1.38400 33.29600
C  9.42300 0.84000 34.28600
H  6.47800 6.84300 29.76700
H  7.76300 5.99700 23.53300
H  11.39200 0.94000 24.79000
H  8.77900 3.37600 32.40700
H  8.18500 6.23700 31.88000
H  5.88700 4.81600 31.38000
H  6.27100 5.63200 32.88000
H  6.69000 3.93700 32.83900
H  10.98900 5.16000 31.78000
H  10.94500 4.00600 33.14100
H  9.03400 5.81700 33.88700
H  10.30200 6.89500 33.36800
H  4.69400 7.46400 28.71900
H  4.11900 7.81100 27.13100
H  5.10500 9.00400 27.80400
H  5.44200 9.70800 25.19500
H  4.01500 8.61700 25.03100
H  4.84300 9.39600 23.62400
H  9.60200 4.72000 22.29000
H  9.43500 1.66700 22.82300
H  6.89100 4.12700 22.56100
H  7.51300 2.60200 21.87600
H  7.79700 4.14600 21.08200
H  12.17900 2.31600 23.07800
H  11.46400 3.15000 21.61300
H  12.10400 1.39300 20.66500
H  10.63700 0.59100 21.22300
H  12.12200 0.34000 22.15300
H  13.14000 -0.17000 26.23100
H  11.84900 -1.23500 26.81400
H  13.09600 -0.53300 27.94600
H  11.78400 2.34500 31.69000
H  9.43300 -0.24900 34.24600
H  8.49400 1.37800 34.09500
H  9.71900 1.10400 35.30100
Mg -4.97400 25.83500 26.31600
C  -3.62300 27.69500 28.98500
C  -6.70900 23.91000 28.58600
C  -6.10700 24.00800 23.69600
C  -3.22600 27.82000 24.10500
N  -4.96700 25.72200 28.53000
C  -4.55500 26.70500 29.42400
C  -5.17200 26.44500 30.81700
C  -5.79400 24.98400 30.73200
C  -5.84100 24.86700 29.19100
C  -4.94300 23.86100 31.32000
C  -6.26100 27.48000 31.12100
C  -6.61200 27.56400 32.64300
H  -6.18600 26.49600 33.62900
N  -6.28700 24.26900 26.13600
C  -6.95700 23.67900 27.20000
C  -7.83000 22.65700 26.64900
C  -7.74500 22.71200 25.21400
C  -6.65900 23.68700 24.93800
C  -8.93100 22.04600 27.49800
C  -8.56800 21.90100 24.15800
O  -8.53500 22.15800 22.95900
C  -9.57000 20.80000 24.61800
N  -4.76100 25.89800 24.19200
C  -5.22000 25.02000 23.31500
C  -4.66700 25.22100 21.94300
C  -4.08200 26.64900 22.02600
C  -4.02000 26.82300 23.56600
C  -3.71000 24.11900 21.29000
C  -4.98300 27.87200 21.47800
C  -4.41600 28.50200 20.19700
N  -3.66500 27.35700 26.46100
C  -3.05900 28.13700 25.44600
C  -2.11300 29.10000 26.02800
C  -2.28700 28.97600 27.41500
C  -3.25300 27.92200 27.61100
C  -1.30400 30.12600 25.24200
C  -1.88900 29.52700 28.80000
O  -1.04300 30.28900 29.13200
C  -2.85700 28.75200 29.78200
C  -2.16300 28.07200 30.98800
O  -1.43100 27.06200 30.94600
O  -2.56600 28.74200 32.14500
C  -2.02200 28.05500 33.35600
H  -7.13900 23.26900 29.35900
H  -6.43500 23.36800 22.87400
H  -2.72800 28.55500 23.46800
H  -4.27500 26.48300 31.43400
H  -6.76000 24.89500 31.22900
H  -3.91900 24.23500 31.29700
H  -4.91200 22.95300 30.71900
H  -5.26600 23.56400 32.31700
H  -7.15400 27.12600 30.60500
H  -6.01100 28.39700 30.58700
H  -7.69100 27.64500 32.77200
H  -6.12200 28.49700 32.92400
H  -9.85300 22.53500 27.18200
H  -8.71600 22.19600 28.55600
H  -8.96800 20.97200 27.31600
H  -9.13500 20.10900 25.34100
H  -9.91600 20.24900 23.74300
H  -10.34500 21.34900 25.15200
H  -5.59700 25.39200 21.40100
H  -3.05300 26.76200 21.68300
H  -3.78800 23.14100 21.76500
H  -2.66700 24.39400 21.44700
H  -3.94900 24.11100 20.22700
H  -5.15100 28.66900 22.20300
H  -5.89900 27.47100 21.04400
H  -3.95900 27.68200 19.64300
H  -3.64800 29.22400 20.47100
H  -5.24300 29.05200 19.74900
H  -0.49400 29.59900 24.73800
H  -0.86800 31.01100 25.70400
H  -1.92600 30.39900 24.38900
H  -3.55600 29.41100 30.29600
H  -2.69100 28.36500 34.15900
H  -1.04100 28.46500 33.59300
H  -1.95500 26.96800 33.41500

