158

Mg 39.78400 9.60800 29.02300
C  41.53500 11.09600 31.84200
C  37.49600 8.54600 31.16500
C  38.49900 8.15800 26.47700
C  42.68200 10.51200 27.09900
N  39.74700 9.68400 31.29500
C  40.30400 10.50500 32.18600
C  39.64300 10.55200 33.58900
C  38.52500 9.46800 33.39500
C  38.57000 9.24700 31.88100
C  38.57200 8.21500 34.30600
C  39.21700 11.98500 33.98900
C  38.90200 12.14800 35.46000
H  39.72800 13.10000 36.36100
N  38.16400 8.57400 28.87400
C  37.31900 8.17000 29.83500
C  36.25800 7.48600 29.29300
C  36.52900 7.28200 27.90100
C  37.76200 8.04700 27.68000
C  35.08000 6.97900 30.08600
C  35.71400 6.58600 26.88100
O  36.10000 6.48100 25.75700
C  34.37800 6.02100 27.19000
N  40.47700 9.53000 27.01700
C  39.70300 8.85600 26.08700
C  40.39300 8.78100 24.72600
C  41.87800 9.29100 25.06600
C  41.65400 9.89900 26.42800
C  40.25100 7.50200 23.84100
C  42.47000 10.33400 24.06200
C  41.93200 11.80500 24.28200
N  41.71800 10.49300 29.35500
C  42.79700 10.83200 28.45800
C  43.79600 11.51100 29.16100
C  43.35000 11.61900 30.49700
C  42.10700 11.02300 30.54500
C  45.04800 12.11500 28.54400
C  43.73800 12.20600 31.70000
O  44.70600 12.87000 32.04600
C  42.55100 11.86400 32.72700
C  43.06500 11.12500 33.88800
O  43.55600 9.96900 33.95100
O  42.73000 11.86800 35.03800
C  43.04400 11.25700 36.35200
H  36.72600 8.28000 31.89200
H  38.05700 7.56100 25.67600
H  43.64600 10.53300 26.58600
H  40.41500 10.23000 34.28800
H  37.65800 10.10000 33.58800
H  39.52700 8.02100 34.79500
H  38.21900 7.39400 33.68200
H  37.85700 8.40700 35.10600
H  38.39600 12.14200 33.28900
H  40.02300 12.67100 33.72800
H  39.08200 11.15900 35.88100
H  37.85600 12.45100 35.52100
H  34.12300 7.42300 29.81000
H  35.13800 7.29100 31.12900
H  34.89400 5.90500 30.05900
H  33.64900 6.82100 27.32000
H  34.62000 5.42400 28.07000
H  33.98600 5.41000 26.37800
H  39.77100 9.47600 24.16100
H  42.67500 8.54800 25.03200
H  39.45100 7.77100 23.15100
H  40.02400 6.59600 24.40300
H  41.16200 7.29500 23.28100
H  42.18300 9.96900 23.07600
H  43.55400 10.42300 23.99400
H  42.73000 12.31200 24.82500
H  41.05400 11.84300 24.92700
H  41.68600 12.24300 23.31500
H  45.29500 11.75700 27.54500
H  45.82900 11.83100 29.25000
H  44.98500 13.20200 28.49400
H  41.99200 12.73800 33.06000
H  42.35100 11.68200 37.07900
H  44.02900 11.51500 36.74100
H  42.87800 10.18000 36.33500
Mg 10.13600 48.59200 26.88400
C  8.43100 48.05400 29.98000
C  12.83100 49.81000 28.59800
C  11.59000 48.98400 24.01300
C  7.20800 47.74300 25.19200
N  10.48000 48.94400 29.09300
C  9.67300 48.67600 30.16600
C  10.36800 48.97500 31.45600
C  11.57200 49.97900 30.93900
C  11.67300 49.56100 29.44300
C  11.24300 51.50400 31.10000
C  10.94900 47.67700 32.21600
C  10.16300 47.39700 33.56100
H  10.82700 48.19000 34.73700
N  11.93700 49.20600 26.36200
C  12.92300 49.69700 27.23900
C  14.07900 49.96200 26.48600
C  13.79800 49.64800 25.13300
C  12.38500 49.24000 25.13700
C  15.39300 50.56600 27.09200
C  14.73700 49.61800 23.96200
O  14.41600 49.23700 22.81200
C  16.23300 49.73000 24.18800
N  9.37900 48.64900 24.86900
C  10.24400 48.68000 23.84000
C  9.60300 48.39600 22.48000
C  8.17100 47.92100 22.91000
C  8.25500 48.09800 24.41400
C  9.57800 49.45200 21.45900
C  7.92500 46.42600 22.66000
C  8.09300 46.08300 21.19000
N  8.19300 48.14800 27.41300
C  7.11500 47.75100 26.57700
C  5.99700 47.46400 27.41200
C  6.44800 47.51800 28.75700
C  7.83200 47.87300 28.69900
C  4.63100 47.27900 26.91500
C  6.07700 47.35700 30.11400
O  5.01200 46.97700 30.54200
C  7.37300 47.64300 30.95900
C  7.61900 46.33200 31.68200
O  8.30700 45.40400 31.25900
O  6.96400 46.32900 32.93700
C  6.94400 45.04900 33.58600
H  13.74200 50.10700 29.12100
H  12.00700 49.01000 23.00400
H  6.28500 47.46200 24.68200
H  9.65700 49.45600 32.12800
H  12.46100 49.72200 31.51600
H  12.17000 52.04600 31.28900
H  10.48800 51.63100 31.87600
H  10.84500 51.90000 30.16600
H  11.97000 47.75000 32.58900
H  11.00600 46.78300 31.59500
H  10.07700 46.32500 33.73700
H  9.17300 47.81500 33.37700
H  15.69000 51.42700 26.49300
H  16.17800 49.81000 27.06300
H  15.27300 50.97500 28.09500
H  16.50600 50.71400 24.56800
H  16.72400 49.67900 23.21600
H  16.52900 48.88600 24.81100
H  10.27200 47.65200 22.04900
H  7.34700 48.53600 22.54700
H  8.64000 49.98100 21.28800
H  10.09900 49.09100 20.57300
H  10.08900 50.30600 21.90500
H  6.90700 46.20800 22.98000
H  8.55700 45.82000 23.31000
H  7.27100 45.61500 20.64900
H  9.00800 45.49400 21.13400
H  8.42800 46.94700 20.61600
H  4.14100 48.20700 26.62100
H  4.05300 46.78400 27.69500
H  4.67500 46.49600 26.15800
H  7.20800 48.45300 31.66900
H  7.89300 44.53100 33.45200
H  6.08200 44.52400 33.17300
H  6.76700 45.09400 34.66100

