158

Mg 29.16100 57.90800 41.33200
C  26.40900 55.90900 40.21900
C  31.24200 55.74600 39.63300
C  31.64100 60.18000 41.35200
C  26.86700 60.28700 42.54300
N  28.82400 56.07100 40.04600
C  27.63500 55.39600 39.65000
C  27.89000 54.15300 38.88400
C  29.41800 53.96300 39.23000
C  29.85000 55.39300 39.62300
C  29.76300 52.97400 40.32800
C  27.45000 54.22400 37.39900
C  28.34700 54.60000 36.16800
H  27.61100 55.27100 34.97000
N  31.23900 57.89300 40.75200
C  31.90700 56.88200 40.14200
C  33.28400 57.23700 40.00200
C  33.44300 58.55100 40.39000
C  32.08100 58.95700 40.86900
C  34.25300 56.21200 39.38600
C  34.70300 59.33500 40.29800
O  35.67200 58.84500 39.70500
C  34.79200 60.71900 40.72100
N  29.19800 59.93500 41.89600
C  30.40200 60.56600 41.91100
C  30.16200 62.04000 42.45300
C  28.62500 62.07800 42.88400
C  28.17300 60.70500 42.35500
C  31.14500 62.64200 43.54500
C  27.89800 63.27100 42.23600
C  26.98500 64.05600 43.10700
N  27.06800 57.99300 41.63400
C  26.29600 59.06600 42.12700
C  24.88600 58.66400 42.11200
C  24.90000 57.44200 41.37000
C  26.26300 57.13800 41.00700
C  23.75400 59.53400 42.55000
C  24.03600 56.49100 40.64200
O  22.83500 56.36800 40.51400
C  25.00200 55.43200 39.94900
C  24.68700 54.08600 40.39200
O  24.55500 53.73900 41.59800
O  24.45600 53.24900 39.21500
C  23.69000 52.05700 39.42700
H  31.91000 54.93600 39.33400
H  32.41600 60.94900 41.34600
H  26.11700 60.96000 42.96400
H  27.36700 53.37600 39.44200
H  29.86300 53.63500 38.29100
H  30.64400 52.37600 40.09300
H  28.91100 52.33000 40.54800
H  29.92300 53.61900 41.19200
H  26.65000 54.96400 37.35900
H  27.01100 53.27200 37.10100
H  28.75300 53.63800 35.85600
H  29.16100 55.21700 36.54800
H  35.28500 56.40800 39.67500
H  33.96900 56.16000 38.33500
H  34.06500 55.23200 39.82500
H  34.15400 61.34400 40.09500
H  35.80300 61.08100 40.53300
H  34.48200 60.72100 41.76600
H  30.23700 62.68200 41.57600
H  28.48800 62.03000 43.96400
H  30.57400 63.19700 44.28900
H  31.70500 63.34100 42.92300
H  31.82000 61.98700 44.09500
H  27.43500 62.91000 41.31800
H  28.66700 63.97600 41.92000
H  27.03700 65.13300 42.94500
H  27.48400 63.95500 44.07100
H  25.96900 63.66100 43.11300
H  23.94600 60.57800 42.30300
H  23.43800 59.23700 43.55000
H  22.93600 59.27900 41.87500
H  24.75600 55.52000 38.89100
H  23.62300 51.82300 40.49000
H  24.34900 51.31900 38.96900
H  22.64400 52.10600 39.12400
Mg 17.40400 51.51400 26.11900
C  19.36800 50.01500 28.50900
C  15.00800 52.14300 28.28700
C  15.63800 52.94800 23.60300
C  19.82200 50.53900 23.64800
N  17.15200 50.85900 28.13600
C  18.16300 50.47500 28.98100
C  17.77000 50.80300 30.47800
C  16.19300 51.06300 30.35900
C  16.07300 51.36700 28.84900
C  15.27500 49.85400 30.85900
C  18.76000 51.87200 30.97100
C  18.49900 52.44400 32.41400
H  17.50200 51.80600 33.30600
N  15.63500 52.52900 26.01000
C  14.78600 52.63700 27.04100
C  13.60200 53.28200 26.61700
C  13.73400 53.47800 25.18500
C  15.05500 53.05300 24.90500
C  12.52600 53.65500 27.61100
C  12.72400 54.13200 24.27500
O  13.01300 54.48100 23.13400
C  11.28900 54.44600 24.74700
N  17.70200 51.58400 23.93500
C  16.79600 52.26400 23.18500
C  17.27700 52.46000 21.66900
C  18.70800 51.76100 21.72500
C  18.72900 51.23100 23.20100
C  16.28200 51.98800 20.54800
C  19.88900 52.60600 21.35200
C  20.84500 51.96500 20.30800
N  19.24800 50.43000 25.98800
C  20.08800 50.03500 24.94700
C  21.19700 49.27600 25.49600
C  20.96100 49.30300 26.91500
C  19.76600 49.93400 27.09600
C  22.27300 48.68900 24.70100
C  21.46200 48.81500 28.18000
O  22.41900 48.10200 28.46000
C  20.60300 49.42600 29.24400
C  20.28100 48.45400 30.33500
O  19.66200 47.41600 30.14700
O  20.53300 49.03500 31.53800
C  20.00900 48.35700 32.69800
H  14.22400 52.11100 29.04600
H  15.00400 53.30700 22.79000
H  20.57000 50.29800 22.89100
H  18.01300 49.89100 31.02300
H  16.00600 51.90400 31.02700
H  14.40100 50.21800 31.40000
H  15.87500 49.27000 31.55800
H  15.11600 49.28300 29.94500
H  18.84100 52.72400 30.29600
H  19.80400 51.60600 31.13800
H  18.28100 53.49900 32.25300
H  19.34800 52.53800 33.09100
H  12.15800 54.64000 27.32600
H  12.90100 53.67400 28.63400
H  11.76300 52.90500 27.39900
H  10.84700 53.69500 25.40200
H  10.74600 54.58000 23.81200
H  11.31700 55.40000 25.27300
H  17.36300 53.53900 21.54300
H  18.68600 50.89900 21.05800
H  16.86200 51.34600 19.88500
H  16.04900 52.86500 19.94500
H  15.41700 51.43400 20.91200
H  20.47400 52.92000 22.21600
H  19.50200 53.51000 20.88000
H  20.22600 51.41900 19.59700
H  21.46600 51.27600 20.88100
H  21.46400 52.66300 19.74500
H  22.73400 49.39000 24.00400
H  21.86800 47.79000 24.23700
H  23.10600 48.35400 25.32000
H  21.24400 50.20100 29.66500
H  20.23400 49.03600 33.52000
H  20.49100 47.50000 33.16700
H  18.94800 48.10600 32.66900

