158

Mg 26.37600 0.16900 29.40100
C  28.21800 -0.54600 32.32900
C  23.69500 0.69000 31.18900
C  24.84000 0.96800 26.51900
C  29.24100 -0.79400 27.53200
N  26.03500 -0.02800 31.54100
C  26.91800 -0.13000 32.53400
C  26.17500 0.10100 33.87900
C  24.67800 0.36800 33.52900
C  24.76000 0.21800 31.97900
C  23.72800 -0.63300 34.20300
C  26.90100 1.22200 34.77200
C  26.03000 1.60200 35.99000
H  26.79500 2.20700 37.19900
N  24.45300 0.74200 28.98300
C  23.41000 0.81600 29.83200
C  22.20900 1.13300 29.10200
C  22.54600 1.30600 27.74000
C  24.03400 1.05400 27.72000
C  20.90100 1.07900 29.86300
C  21.67700 1.55300 26.49000
O  22.16100 1.71700 25.35900
C  20.20700 1.47400 26.65000
N  26.99500 -0.01700 27.32500
C  26.12500 0.54800 26.38100
C  26.83500 0.62700 25.00600
C  28.28300 0.06000 25.30700
C  28.16000 -0.34500 26.80900
C  26.12700 -0.25500 23.86000
C  29.37200 1.04100 25.01300
C  30.81600 0.51500 24.64700
N  28.33400 -0.67600 29.77100
C  29.29900 -1.00600 28.89500
C  30.47900 -1.51000 29.61900
C  30.15500 -1.30000 31.03000
C  28.80000 -0.76500 31.02900
C  31.81600 -1.91800 29.08700
C  30.59400 -1.36500 32.42700
O  31.69300 -1.58500 32.92600
C  29.35400 -0.87300 33.29300
C  29.01900 -1.84000 34.28800
O  28.32300 -2.83300 34.12900
O  29.67100 -1.49500 35.42800
C  29.84100 -2.55900 36.47900
H  22.83900 0.99100 31.79700
H  24.50400 1.53600 25.65000
H  30.15700 -1.00700 26.97600
H  26.37500 -0.80800 34.44600
H  24.35000 1.38100 33.76100
H  23.97900 -0.67500 35.26300
H  23.76100 -1.65700 33.83300
H  22.70100 -0.29400 34.06900
H  27.19500 2.11200 34.21600
H  27.82400 0.80900 35.18100
H  25.38800 0.78200 36.31200
H  25.41600 2.37900 35.53500
H  20.25200 0.35000 29.37700
H  20.54300 2.10800 29.85000
H  20.97200 0.78700 30.91100
H  19.90600 0.55400 27.15100
H  19.75900 1.51600 25.65800
H  19.80000 2.34400 27.16600
H  26.81900 1.64400 24.61400
H  28.46400 -0.83900 24.71700
H  25.82600 -1.20800 24.29400
H  26.91000 -0.50100 23.14200
H  25.30700 0.30700 23.41200
H  29.40700 1.74800 25.84200
H  28.99500 1.59800 24.15500
H  31.14800 1.23000 23.89400
H  30.79800 -0.54100 24.38100
H  31.46900 0.53700 25.51900
H  32.05700 -1.20000 28.30200
H  31.95500 -2.93000 28.70800
H  32.52900 -1.55200 29.82500
H  29.72900 -0.02900 33.87200
H  30.66500 -3.10600 36.02100
H  28.96100 -3.19500 36.57600
H  30.21800 -2.17100 37.42400
Mg 41.83700 7.57100 29.23600
C  43.50800 9.17400 31.77900
C  39.64200 6.22500 31.55600
C  40.35500 5.91100 26.72300
C  44.14300 8.82400 26.96300
N  41.72000 7.69300 31.46300
C  42.41700 8.48800 32.27200
C  41.86500 8.42900 33.70800
C  40.81000 7.25200 33.62500
C  40.71300 6.99200 32.14200
C  41.11900 5.99500 34.49800
C  41.34500 9.81500 34.03700
C  40.48200 10.00900 35.28500
H  40.98800 11.01300 36.37300
N  40.19500 6.26500 29.16700
C  39.36700 5.87900 30.23100
C  38.31000 4.98900 29.75700
C  38.48500 4.87700 28.38500
C  39.74700 5.71300 28.05000
C  37.33200 4.32300 30.58200
C  37.57800 4.29600 27.33200
O  37.94100 4.18900 26.12100
C  36.24800 3.66900 27.71300
N  42.24200 7.27600 27.11900
C  41.53000 6.62000 26.31700
C  42.08000 6.54300 24.88000
C  42.97900 7.82900 24.86300
C  43.17000 8.01100 26.38000
C  42.88600 5.18100 24.62800
C  42.41800 9.05300 24.07400
C  41.31200 9.84100 24.69300
N  43.53100 8.78200 29.35100
C  44.36500 9.09400 28.35300
C  45.40400 9.87000 28.93400
C  45.12400 10.02100 30.35000
C  43.95200 9.26000 30.48600
C  46.58400 10.38900 28.19700
C  45.51900 10.58900 31.58500
O  46.45200 11.35000 31.90600
C  44.49700 10.12400 32.59400
C  45.33500 9.42400 33.64200
O  45.98200 8.35000 33.54800
O  45.25400 10.11500 34.83500
C  45.98000 9.41800 36.01600
H  38.86400 5.88500 32.24200
H  39.91000 5.45300 25.83700
H  44.86800 9.31100 26.30800
H  42.59200 8.20000 34.48700
H  39.81000 7.61800 33.86000
H  40.31300 5.73500 35.18500
H  42.04800 6.20000 35.03000
H  41.38300 5.14800 33.86500
H  40.82100 10.11500 33.12900
H  42.17900 10.47900 34.26500
H  40.39100 9.03600 35.76700
H  39.54100 10.34900 34.85200
H  36.29700 4.66200 30.63100
H  37.62500 4.38000 31.63000
H  37.24700 3.25800 30.36500
H  35.76000 3.40500 26.77500
H  35.65300 4.34000 28.33200
H  36.34000 2.75400 28.29700
H  41.30600 6.62700 24.11600
H  43.85600 7.56800 24.27200
H  42.49200 4.80900 23.68300
H  42.70800 4.39400 25.36200
H  43.96700 5.28100 24.52700
H  42.11700 8.69500 23.09000
H  43.23800 9.74300 23.87500
H  40.71400 9.26000 25.39500
H  40.71100 10.31000 23.91400
H  41.72700 10.67800 25.25500
H  46.45700 10.40800 27.11500
H  47.36700 9.63900 28.30800
H  47.08900 11.25100 28.63200
H  44.15500 11.06000 33.03600
H  47.05200 9.57100 35.88700
H  45.79900 8.34500 36.09100
H  45.64000 9.81400 36.97300

