158

Mg 0.81800 8.88200 26.71900
C  1.26700 10.91500 29.41600
C  0.55200 6.13500 28.98800
C  0.74700 6.75100 24.06000
C  1.09600 11.58100 24.59400
N  0.85400 8.58600 28.97800
C  1.08200 9.58900 29.84200
C  1.11400 9.08200 31.30700
C  1.13700 7.50700 31.14100
C  0.78100 7.37800 29.64200
C  2.45400 6.78000 31.43600
C  -0.01100 9.63800 32.23500
C  -0.28400 8.88500 33.61800
H  0.86800 8.42500 34.46100
N  0.61000 6.80600 26.54900
C  0.47700 5.90200 27.57500
C  0.22100 4.57800 26.98800
C  0.47100 4.61300 25.57400
C  0.57400 6.10800 25.35500
C  -0.00100 3.33500 27.82100
C  0.45900 3.45100 24.57500
O  0.54600 3.74300 23.42100
C  0.22400 1.99300 25.01300
N  0.79600 9.16300 24.63800
C  0.82300 8.14500 23.76800
C  0.92600 8.77700 22.33700
C  0.53400 10.18200 22.56400
C  0.83300 10.31200 23.98900
C  2.37300 8.56100 21.74400
C  -0.97900 10.44900 22.26700
C  -1.36800 11.35700 21.10100
N  1.23400 10.84800 26.89900
C  1.27500 11.85400 26.01300
C  1.69200 13.09600 26.67100
C  1.54400 12.76100 27.99300
C  1.34900 11.39300 28.06000
C  1.84200 14.43000 25.96300
C  1.73100 13.33000 29.30400
O  1.93700 14.46100 29.59600
C  1.45900 12.12100 30.24300
C  2.53400 11.96700 31.22400
O  3.67900 11.67500 30.94300
O  2.04500 12.25200 32.46300
C  2.93800 12.06500 33.63300
H  0.59200 5.25200 29.63000
H  0.60900 6.20500 23.12500
H  1.06300 12.41500 23.89100
H  2.10400 9.39000 31.64500
H  0.35500 7.00700 31.71100
H  3.30700 7.37400 31.76300
H  2.88100 6.53600 30.46400
H  2.27000 5.96900 32.14100
H  -0.89800 9.41900 31.64000
H  0.22000 10.66400 32.52100
H  -1.08300 8.15000 33.51500
H  -0.84500 9.67300 34.12100
H  -0.95700 2.91600 27.50500
H  -0.23900 3.57400 28.85800
H  0.85500 2.66000 27.83900
H  0.54600 1.24400 24.29000
H  -0.81300 1.88600 25.33200
H  0.93700 1.75000 25.80100
H  0.28500 8.26400 21.62000
H  1.27200 10.74900 21.99800
H  2.23500 8.06500 20.78300
H  3.00400 7.92600 22.36600
H  2.92600 9.48600 21.58100
H  -1.30200 11.09500 23.08300
H  -1.61200 9.56200 22.29100
H  -0.57900 11.46500 20.35700
H  -1.74700 12.31000 21.47200
H  -2.21000 10.81800 20.66600
H  2.40900 14.35500 25.03500
H  2.19800 15.10600 26.74000
H  0.84600 14.77400 25.68500
H  0.56000 12.36500 30.80900
H  3.57400 12.94000 33.76600
H  3.47100 11.11400 33.60800
H  2.31200 12.16100 34.52000
Mg 26.48300 50.85100 26.43300
C  24.56700 51.93200 29.01100
C  28.89700 49.83100 28.82700
C  28.31600 49.37300 24.04100
C  24.45800 52.29300 24.13200
N  26.81700 51.12500 28.72800
C  25.73600 51.29900 29.49400
C  26.07100 51.11200 31.00900
C  27.65100 50.90000 30.85500
C  27.82100 50.55900 29.38400
C  28.56000 52.04500 31.37100
C  25.27100 50.00500 31.62300
C  24.85900 50.28200 33.12100
H  25.88000 50.70000 34.24600
N  28.37500 49.81600 26.38800
C  29.17900 49.47400 27.51500
C  30.22900 48.63100 27.10700
C  30.10500 48.45800 25.64600
C  28.90000 49.25300 25.28300
C  31.27100 48.05700 27.97600
C  30.82500 47.58900 24.77000
O  30.61700 47.47500 23.62600
C  31.96500 46.70100 25.26200
N  26.48800 50.90800 24.32400
C  27.22100 50.07300 23.56500
C  26.60200 49.84600 22.19500
C  25.22300 50.76500 22.26300
C  25.38000 51.36000 23.63300
C  27.54600 50.13700 20.97400
C  23.87200 50.04600 22.04100
C  22.81600 50.67500 21.06300
N  24.87100 51.99500 26.54700
C  24.10900 52.52900 25.46800
C  22.95800 53.21900 26.08500
C  23.07400 52.98900 27.44800
C  24.24900 52.26200 27.69400
C  21.86600 53.86900 25.36600
C  22.40500 53.17900 28.71200
O  21.27600 53.62600 28.95400
C  23.38000 52.52400 29.85200
C  23.81000 53.61500 30.75500
O  24.66400 54.46600 30.51700
O  23.08600 53.67300 31.95300
C  23.58200 54.66100 33.01800
H  29.63700 49.56500 29.58500
H  28.79300 48.82200 23.22800
H  23.65100 52.54600 23.44100
H  26.00900 52.01000 31.62300
H  28.00800 50.01600 31.38500
H  27.90900 52.83900 31.73700
H  29.19800 52.44100 30.58100
H  29.08700 51.67100 32.24800
H  25.86400 49.09100 31.58900
H  24.36300 49.83700 31.04400
H  24.32400 49.43300 33.54700
H  24.07400 51.03500 33.04000
H  31.18600 48.44400 28.99200
H  32.25000 48.37400 27.61500
H  31.39200 46.98300 27.83700
H  32.66300 47.38600 25.74300
H  32.39700 46.21300 24.38800
H  31.43000 46.01000 25.91400
H  26.30900 48.81000 22.02500
H  25.37100 51.66100 21.66000
H  27.24100 50.96800 20.33800
H  27.53100 49.25200 20.33700
H  28.57600 50.39400 21.21900
H  23.40500 50.07700 23.02600
H  24.13800 49.02300 21.77500
H  22.47600 49.84300 20.44700
H  23.16800 51.43200 20.36200
H  21.95900 51.13800 21.55300
H  21.13000 54.28800 26.05200
H  21.30700 53.22800 24.68300
H  22.30000 54.57100 24.65400
H  22.77300 51.75600 30.33200
H  22.89900 54.80000 33.85600
H  23.70300 55.61400 32.50400
H  24.50900 54.32500 33.48200

