158

Mg 34.68600 2.81700 29.84900
C  32.20700 3.78000 32.18400
C  36.95800 2.59900 32.46000
C  37.07400 1.98400 27.62500
C  32.36300 3.29600 27.28400
N  34.59000 3.30300 32.01600
C  33.46300 3.53500 32.80700
C  33.78600 3.55500 34.31100
C  35.31400 3.32700 34.32600
C  35.61600 2.98700 32.83300
C  36.20500 4.35600 35.03400
C  33.05700 2.49800 35.10900
C  33.00100 2.52700 36.64200
H  33.86700 3.48400 37.39100
N  36.68000 2.42700 30.00300
C  37.46000 2.36600 31.22100
C  38.82600 1.98000 30.82400
C  38.92500 1.74200 29.47400
C  37.54000 2.07100 28.95000
C  39.94700 1.82800 31.79000
C  40.04200 1.37200 28.61300
O  39.81200 1.06200 27.46800
C  41.50300 1.32000 29.15000
N  34.71200 2.81200 27.74800
C  35.78500 2.28400 27.07500
C  35.34400 1.99200 25.55100
C  33.94700 2.59200 25.44500
C  33.65200 2.95600 26.90400
C  36.36300 2.57800 24.45600
C  32.98200 1.68900 24.55000
C  32.04600 0.78900 25.31100
N  32.65100 3.38700 29.69700
C  31.86500 3.52500 28.59000
C  30.56200 3.99700 29.02700
C  30.62400 4.16500 30.42000
C  31.96200 3.79000 30.77500
C  29.27900 4.02200 28.20000
C  29.92700 4.52900 31.60200
O  28.80000 5.03500 31.75800
C  30.86500 4.19200 32.85800
C  31.02000 5.47300 33.59100
O  31.44900 6.56100 33.09900
O  30.77900 5.21900 34.89000
C  31.06600 6.25100 35.90700
H  37.64800 2.51200 33.30300
H  37.79500 1.65600 26.87400
H  31.68500 3.52300 26.45800
H  33.51900 4.51600 34.75100
H  35.52700 2.45600 34.94500
H  36.79900 4.91200 34.30900
H  36.84300 3.86900 35.77200
H  35.67300 5.01200 35.72300
H  33.63400 1.62700 34.79700
H  32.05500 2.44300 34.68400
H  33.02200 1.52900 37.08100
H  31.99200 2.83400 36.91500
H  40.31300 0.80100 31.77800
H  39.62300 2.11300 32.79000
H  40.74600 2.52400 31.53600
H  41.69200 2.33400 29.50400
H  42.21900 1.04200 28.37600
H  41.64000 0.65300 30.00000
H  35.28400 0.90400 25.54700
H  34.06300 3.60100 25.05100
H  36.95000 3.47000 24.67800
H  35.84800 2.83000 23.52900
H  37.07900 1.77600 24.27700
H  33.46200 1.00600 23.85000
H  32.45200 2.41700 23.93600
H  31.06400 1.12600 24.97900
H  32.20900 0.80600 26.38900
H  32.05600 -0.22800 24.91900
H  29.59000 3.52700 27.28000
H  28.97800 5.06800 28.14400
H  28.55600 3.43900 28.77000
H  30.43700 3.46500 33.54800
H  31.98900 5.95700 36.40600
H  30.35600 6.27800 36.73400
H  31.21500 7.23600 35.46500
Mg 49.13100 45.60400 41.03400
C  45.84600 46.58900 40.20100
C  48.76200 42.56200 39.56600
C  52.54600 44.96400 41.39900
C  49.72400 48.93800 42.10300
N  47.49800 44.78400 39.97000
C  46.25300 45.25300 39.83000
C  45.40500 44.15600 39.07600
C  46.23000 42.90900 39.31400
C  47.61600 43.41200 39.58200
C  45.75300 41.97600 40.53900
C  45.36200 44.51100 37.54400
C  44.22000 43.83800 36.78800
H  44.40500 43.78500 35.28500
N  50.43700 43.88700 40.68000
C  50.01700 42.77500 40.04700
C  51.14700 41.88500 40.04500
C  52.24400 42.53500 40.65400
C  51.77600 43.89700 40.90500
C  51.05900 40.49200 39.54300
C  53.53900 41.88000 41.06900
O  53.83900 40.75100 40.68300
C  54.58200 42.43300 41.98100
N  51.00900 46.81400 41.78400
C  52.24900 46.32600 41.81700
C  53.22000 47.44400 42.13700
C  52.33100 48.72400 42.44600
C  50.90500 48.14600 42.12500
C  54.33000 47.20600 43.20700
C  52.68600 50.09700 41.70400
C  53.68900 50.99300 42.45700
N  48.07900 47.39000 41.09300
C  48.43400 48.63000 41.51600
C  47.33200 49.58600 41.29600
C  46.26300 48.80900 40.82700
C  46.81800 47.51600 40.68000
C  47.26600 51.08600 41.56000
C  44.86300 48.78200 40.49900
O  44.01400 49.69700 40.52000
C  44.52900 47.31300 39.96700
C  43.41300 46.76200 40.74600
O  43.51500 46.33800 41.83800
O  42.26100 46.65800 39.99800
C  41.12100 45.86800 40.51200
H  48.58300 41.52300 39.28000
H  53.62400 44.79100 41.42400
H  49.94300 49.97600 42.36300
H  44.39500 44.08200 39.47900
H  46.35700 42.24500 38.45900
H  44.77200 42.26900 40.91300
H  46.19800 42.06800 41.53000
H  45.72500 40.92400 40.25800
H  46.27700 44.21000 37.03400
H  45.40300 45.59400 37.42300
H  43.22200 44.23100 36.98000
H  44.07800 42.81200 37.12600
H  51.78000 40.21000 38.77500
H  50.13400 40.21200 39.04000
H  51.23900 39.76300 40.33300
H  55.27700 42.95300 41.32200
H  54.97200 41.52900 42.44900
H  54.14300 43.14000 42.68500
H  53.75900 47.75700 41.24200
H  52.48800 48.82100 43.52000
H  54.56000 46.14800 43.33900
H  54.14900 47.67800 44.17300
H  55.14300 47.78100 42.76400
H  51.78000 50.67800 41.53000
H  53.04600 49.93800 40.68800
H  54.58200 51.22300 41.87500
H  54.03600 50.41100 43.31100
H  53.18500 51.92800 42.69800
H  46.27100 51.44100 41.83000
H  47.54100 51.55500 40.61600
H  47.93700 51.20000 42.41200
H  44.21800 47.20000 38.92900
H  40.22300 46.25300 40.02900
H  40.82300 46.07000 41.54100
H  41.21100 44.79600 40.33700

