158

Mg 6.85000 53.01500 40.23500
C  6.00800 49.59600 40.07600
C  10.02800 52.18400 39.57300
C  7.43700 56.25700 39.93200
C  3.39200 53.61700 40.64000
N  7.82400 51.11400 39.78800
C  7.37400 49.81500 39.82200
C  8.49300 48.77800 39.69900
C  9.73700 49.67500 39.79100
C  9.18600 51.06800 39.65300
C  10.65100 49.54100 41.02200
C  8.52200 47.99100 38.33900
C  8.41300 48.90800 37.15400
H  7.49800 48.56100 35.98000
N  8.44500 54.05000 39.74800
C  9.73100 53.55700 39.61600
C  10.64700 54.62300 39.30700
C  9.92600 55.84600 39.28900
C  8.58000 55.44200 39.68300
C  12.12100 54.36000 38.97900
C  10.46700 57.24700 38.88500
O  11.64100 57.43000 38.50100
C  9.53600 58.37200 38.62600
N  5.59600 54.70200 40.17300
C  6.08300 55.97300 40.23500
C  5.08700 57.00300 40.43600
C  3.72900 56.19000 40.43000
C  4.26200 54.72200 40.42500
C  5.35500 57.83100 41.74400
C  2.77000 56.30700 39.17200
C  1.42500 56.81800 39.44500
N  5.07100 51.89600 40.44000
C  3.70600 52.28200 40.62200
C  2.89200 51.18400 40.80400
C  3.74500 50.03300 40.59300
C  5.07300 50.59100 40.37200
C  1.40200 51.16600 41.06500
C  3.74500 48.52900 40.44500
O  2.86200 47.63800 40.49900
C  5.24300 48.23100 40.19800
C  5.24700 47.40400 38.94100
O  4.98900 47.75400 37.80200
O  5.54700 46.14100 39.32900
C  5.71400 45.07800 38.32200
H  11.04400 51.91400 39.27700
H  7.57600 57.33900 39.90200
H  2.34000 53.89200 40.74200
H  8.40700 48.12100 40.56500
H  10.33400 49.52200 38.89200
H  10.48400 50.37500 41.70400
H  11.67800 49.60100 40.66100
H  10.37800 48.60400 41.50800
H  7.69000 47.29100 38.26000
H  9.51200 47.53700 38.31000
H  9.40700 49.00800 36.71900
H  8.10800 49.91900 37.42300
H  12.30600 54.16200 37.92300
H  12.32400 53.44200 39.53100
H  12.81400 55.08600 39.40300
H  10.04700 59.27000 38.27900
H  9.10700 58.59300 39.60300
H  8.71000 58.12700 37.95700
H  5.01500 57.70600 39.60600
H  3.17000 56.41800 41.33700
H  6.15800 57.43400 42.36500
H  4.45000 57.98700 42.33100
H  5.78000 58.75900 41.36300
H  2.61200 55.36600 38.64500
H  3.20200 57.01900 38.46800
H  1.33600 57.40600 40.35900
H  0.67800 56.02700 39.36900
H  1.14700 57.39900 38.56500
H  0.90200 51.64700 40.22400
H  1.17000 51.55600 42.05600
H  1.05300 50.13500 41.11300
H  5.69900 47.66700 41.01100
H  4.73300 44.71700 38.01000
H  6.25100 44.19900 38.67800
H  6.27100 45.41400 37.44700
Mg -12.46600 16.49300 42.30200
C  -9.70000 14.51400 41.62800
C  -10.96300 18.98500 40.55100
C  -15.27400 18.00300 42.38000
C  -14.04400 13.49000 43.68700
N  -10.61300 16.64200 40.91800
C  -9.56700 15.69700 40.94600
C  -8.31200 16.31400 40.24500
C  -8.76000 17.80400 39.98900
C  -10.20900 17.82300 40.50700
C  -7.76200 18.78300 40.73200
C  -7.93400 15.66100 38.89300
C  -6.44200 15.48500 38.52700
H  -5.87000 16.34900 37.42700
N  -12.99600 18.29700 41.65200
C  -12.26300 19.23400 41.07000
C  -13.00800 20.44400 40.92300
C  -14.30400 20.22400 41.39000
C  -14.25200 18.80400 41.85600
C  -12.35900 21.69000 40.24900
C  -15.39700 21.19400 41.43800
O  -15.20700 22.32100 40.94300
C  -16.74000 20.93900 41.99100
N  -14.44800 15.80800 42.93800
C  -15.41200 16.72100 42.82100
C  -16.78300 16.04700 43.12000
C  -16.42400 14.53600 43.45100
C  -14.85500 14.61200 43.43300
C  -17.44200 16.90900 44.28900
C  -17.04600 13.58600 42.41800
C  -17.63400 12.16800 42.87000
N  -12.03100 14.46800 42.75300
C  -12.68500 13.39200 43.33400
C  -11.78800 12.29100 43.53000
C  -10.54800 12.72800 42.99400
C  -10.77200 14.03800 42.40500
C  -12.04800 11.00200 44.30000
C  -9.18200 12.31600 42.74500
O  -8.66800 11.28500 43.14900
C  -8.55200 13.44800 41.88200
C  -7.50700 14.03000 42.78300
O  -7.71500 14.62600 43.80300
O  -6.23200 13.80000 42.33500
C  -5.18700 14.48000 43.12400
H  -10.42200 19.87900 40.23300
H  -16.19500 18.56900 42.22200
H  -14.40500 12.53100 44.06400
H  -7.46300 16.17300 40.91400
H  -8.76000 18.10400 38.94100
H  -8.14300 19.27300 41.62800
H  -7.45500 19.53600 40.00700
H  -6.93500 18.24600 41.19600
H  -8.40200 16.12900 38.02700
H  -8.50600 14.73800 38.79900
H  -6.19300 14.45200 38.28100
H  -5.78700 15.83400 39.32400
H  -12.77200 22.60800 40.66800
H  -12.50300 21.62000 39.17100
H  -11.29700 21.70100 40.49300
H  -16.62000 20.50000 42.98200
H  -17.34100 20.35300 41.29600
H  -17.22100 21.90600 42.13500
H  -17.50700 16.00800 42.30600
H  -16.83600 14.38300 44.44900
H  -16.81300 17.72500 44.64400
H  -17.59800 16.15800 45.06400
H  -18.46800 17.23000 44.10800
H  -16.31500 13.42800 41.62600
H  -17.99200 14.03700 42.11900
H  -17.20100 11.89400 43.83200
H  -17.27500 11.39100 42.19500
H  -18.72200 12.22200 42.82800
H  -11.33300 10.80200 45.09800
H  -11.98700 10.19200 43.57300
H  -13.04800 10.97000 44.73100
H  -8.00800 12.98300 41.06100
H  -4.23400 14.01700 42.86900
H  -5.32000 14.34600 44.19700
H  -5.23800 15.52800 42.82800

