158

Mg 44.36600 4.31800 46.77800
C  42.15700 7.06500 46.62700
C  41.39200 2.23700 46.58400
C  46.26000 1.67500 46.47700
C  47.09100 6.45300 46.56600
N  42.14000 4.62000 46.40300
C  41.47900 5.83400 46.43800
C  39.95700 5.66000 46.29700
C  39.78900 4.14200 46.50900
C  41.18000 3.64100 46.50900
C  38.89800 3.80000 47.71500
C  39.52800 6.22700 44.85300
C  38.11100 6.74200 44.55600
H  37.62600 6.79900 43.11000
N  43.95100 2.28600 46.57600
C  42.71300 1.62300 46.56700
C  42.93000 0.23100 46.48800
C  44.35900 0.01200 46.51200
C  44.93600 1.37700 46.53600
C  41.72000 -0.81000 46.60200
C  45.09200 -1.37200 46.44300
O  44.35400 -2.32500 46.45100
C  46.56900 -1.54300 46.21900
N  46.44900 4.14400 46.53300
C  46.97100 2.91700 46.46700
C  48.54000 3.09100 46.45300
C  48.83200 4.63200 46.66800
C  47.42100 5.15500 46.61700
C  49.31900 2.09500 47.40700
C  49.94600 5.33300 45.75800
C  51.29700 4.55400 45.67300
N  44.58700 6.33500 46.69900
C  45.78800 7.07000 46.64600
C  45.47100 8.45600 46.73900
C  44.06700 8.52300 46.74800
C  43.56400 7.17200 46.72900
C  46.45700 9.63900 46.61500
C  42.95400 9.37800 46.84900
O  43.02300 10.58700 46.88500
C  41.70000 8.50100 46.78100
C  40.91700 8.64500 48.04800
O  40.81500 7.74400 48.86200
O  40.10300 9.80300 48.07000
C  39.02200 9.69000 49.06800
H  40.47000 1.65100 46.59200
H  46.99700 0.87000 46.48300
H  47.94600 7.12500 46.47100
H  39.39200 6.21500 47.04700
H  39.33600 3.67300 45.63600
H  38.12500 3.07600 47.45700
H  38.33000 4.67700 48.02500
H  39.47100 3.44900 48.57300
H  39.60600 5.33100 44.23800
H  40.25100 6.97400 44.52600
H  37.87200 7.69800 45.02200
H  37.44700 6.13400 45.17100
H  41.88300 -1.43900 47.47700
H  41.84900 -1.44100 45.72300
H  40.75900 -0.30000 46.53100
H  47.12000 -1.20300 47.09600
H  46.75100 -0.96100 45.31600
H  46.67400 -2.62500 46.14500
H  48.71100 2.77700 45.42400
H  49.25000 4.86600 47.64700
H  50.07100 2.64700 47.97000
H  49.79100 1.24500 46.91300
H  48.60000 1.87100 48.19400
H  50.07600 6.30500 46.23200
H  49.56200 5.55000 44.76100
H  51.34300 3.55400 46.10400
H  52.06900 5.20500 46.08400
H  51.50300 4.63400 44.60500
H  46.91400 9.64600 45.62600
H  47.34400 9.52300 47.23800
H  46.01500 10.62900 46.72900
H  41.11900 8.84800 45.92700
H  39.42500 9.63600 50.07900
H  38.33900 8.89800 48.75900
H  38.40800 10.58200 48.94500
Mg 48.70500 35.03700 27.58900
C  46.71100 33.30200 30.10200
C  49.10700 37.55300 29.97600
C  50.14500 36.67800 25.18400
C  47.78300 32.49200 25.31500
N  48.09100 35.40300 29.79600
C  47.36900 34.48400 30.59900
C  47.43100 34.96300 32.06500
C  47.64700 36.49500 31.93000
C  48.25000 36.54100 30.46600
C  46.41600 37.53800 32.14000
C  48.59000 34.36700 32.79500
C  48.30100 34.29000 34.29200
H  47.28600 35.22100 34.92400
N  49.68800 36.71400 27.71500
C  49.73300 37.71000 28.68000
C  50.57600 38.73500 28.31100
C  50.76000 38.57800 26.89800
C  50.24200 37.23200 26.52100
C  50.95600 39.87600 29.19900
C  51.31800 39.51500 25.92700
O  51.62700 39.18700 24.76000
C  51.65600 40.99600 26.36200
N  48.79000 34.64900 25.43600
C  49.59900 35.42200 24.72100
C  49.79700 34.85100 23.27800
C  49.03300 33.52800 23.39500
C  48.48200 33.52200 24.76800
C  49.40900 35.88500 22.13300
C  49.99100 32.28000 23.14400
C  50.96900 31.72700 24.12300
N  47.45000 33.28400 27.57700
C  47.28500 32.26600 26.60400
C  46.42300 31.22800 27.22800
C  46.14900 31.63500 28.54300
C  46.82400 32.86000 28.72500
C  46.07200 29.90800 26.62500
C  45.54400 31.07500 29.74200
O  44.92300 30.02500 29.92700
C  45.72600 32.26700 30.77000
C  45.94700 31.70600 32.12900
O  46.90800 30.95500 32.48300
O  44.86800 32.08800 32.89900
C  44.89100 31.61300 34.31600
H  49.35400 38.25000 30.77900
H  50.74700 37.18400 24.42600
H  47.55200 31.64000 24.67200
H  46.48200 34.75400 32.55900
H  48.46800 36.84300 32.55700
H  46.56100 38.44500 32.72800
H  45.53300 37.03400 32.53200
H  46.21800 37.90700 31.13400
H  49.52300 34.92700 32.73400
H  48.74000 33.37800 32.36100
H  49.26000 34.25300 34.80900
H  47.96700 33.26300 34.44200
H  50.83100 40.88400 28.80500
H  52.01400 39.64900 29.32700
H  50.47400 39.87000 30.17700
H  50.71500 41.47900 26.62600
H  52.17800 41.45900 25.52400
H  52.31800 40.91600 27.22500
H  50.83900 34.53300 23.30900
H  48.29000 33.54400 22.59800
H  49.19900 36.84100 22.61300
H  48.58100 35.59900 21.48400
H  50.29500 35.92500 21.49900
H  50.54300 32.49200 22.22900
H  49.30500 31.48800 22.84300
H  51.95500 31.43200 23.76500
H  50.47900 30.89400 24.62700
H  51.12400 32.40400 24.96300
H  47.00900 29.35200 26.65700
H  45.69500 29.92100 25.60300
H  45.37500 29.33800 27.24000
H  44.80500 32.84900 30.75200
H  43.95800 31.52000 34.87200
H  45.45600 32.44300 34.73900
H  45.39200 30.65300 34.43800

