158

Mg 44.03700 3.31300 47.56600
C  42.15800 6.28900 47.43400
C  41.03600 1.55300 47.62900
C  45.85300 0.56800 47.32800
C  46.92500 5.30300 47.00000
N  41.89100 3.90400 47.35700
C  41.34200 5.16000 47.49100
C  39.78100 5.11300 47.46900
C  39.53200 3.55000 47.63600
C  40.92600 2.96400 47.70600
C  38.63300 3.08100 48.77000
C  39.05900 5.69300 46.31200
C  39.62100 5.14200 44.98400
H  40.05000 6.32200 43.99800
N  43.49400 1.27500 47.45800
C  42.19200 0.75600 47.63100
C  42.31000 -0.67300 47.49300
C  43.65900 -1.02500 47.25500
C  44.42500 0.25100 47.33300
C  41.13000 -1.55300 47.67200
C  44.17700 -2.42000 46.98600
O  43.39300 -3.40600 47.01700
C  45.62200 -2.60600 46.65900
N  46.03800 3.02200 47.33900
C  46.56900 1.76000 47.27300
C  48.13700 1.70300 47.07300
C  48.41400 3.21100 46.90700
C  47.01600 3.91400 47.11600
C  48.83700 0.96300 48.23100
C  49.12600 3.49300 45.48100
C  50.63300 3.77000 45.51000
N  44.51000 5.33600 47.37400
C  45.70100 5.98300 47.11500
C  45.47700 7.38600 47.17100
C  44.12300 7.54200 47.28400
C  43.53800 6.28500 47.37200
C  46.53800 8.41900 46.96100
C  43.04000 8.54800 47.31000
O  43.06400 9.77900 47.34300
C  41.72100 7.74200 47.52800
C  41.11700 8.15300 48.87700
O  41.62900 8.00600 49.99800
O  39.79500 8.54200 48.66000
C  39.01100 8.69000 49.85600
H  40.10500 0.98800 47.71400
H  46.49600 -0.31200 47.28200
H  47.87200 5.80700 46.79800
H  39.36000 5.54600 48.37700
H  39.03300 3.14500 46.75600
H  39.36700 2.93800 49.56300
H  38.10200 2.13300 48.69300
H  37.98700 3.89900 49.08700
H  39.20000 6.77300 46.35600
H  38.00300 5.49000 46.49400
H  38.95500 4.42000 44.51200
H  40.48600 4.48200 45.06400
H  40.97600 -2.14500 46.77000
H  40.16700 -1.05400 47.77900
H  41.26100 -2.28100 48.47300
H  46.21400 -2.44200 47.55900
H  45.77700 -1.82300 45.91700
H  45.74000 -3.58600 46.19800
H  48.34000 1.21400 46.12100
H  49.14700 3.60100 47.61400
H  49.70700 1.54200 48.54100
H  49.15200 -0.04400 47.95700
H  48.14900 0.82100 49.06500
H  48.65000 4.39700 45.10100
H  48.96500 2.67900 44.77400
H  51.05300 3.30300 46.40100
H  50.85500 4.83700 45.46800
H  51.02100 3.22600 44.64900
H  47.38800 8.25800 47.62400
H  45.99500 9.29400 47.31800
H  46.91100 8.48200 45.93900
H  41.05700 7.99000 46.70100
H  37.98000 8.96400 49.63200
H  39.33500 9.40700 50.61000
H  38.99200 7.72500 50.36100
Mg 6.41700 55.56000 42.13000
C  5.90500 52.13800 42.06100
C  9.33200 55.15600 40.32800
C  6.31500 58.85500 41.54800
C  3.13300 55.83800 43.65600
N  7.38700 53.85200 41.26700
C  6.98500 52.55400 41.25900
C  7.91900 51.67100 40.35700
C  9.21500 52.58500 40.25900
C  8.59500 53.96600 40.58700
C  10.24700 52.33100 41.37200
C  7.16200 51.53200 38.98300
C  7.62100 50.20500 38.21700
H  6.83500 49.85900 36.98900
N  7.63600 56.86100 41.07700
C  8.86900 56.50100 40.49500
C  9.46300 57.66700 39.95500
C  8.58000 58.79800 40.22500
C  7.40300 58.24400 40.93400
C  10.78300 57.68200 39.19100
C  8.77700 60.26300 39.93600
O  9.76000 60.66100 39.36800
C  7.74500 61.31400 40.00900
N  4.77500 57.11500 42.29800
C  5.10400 58.39700 42.13500
C  3.97100 59.33700 42.57400
C  2.98000 58.34400 43.13900
C  3.65600 56.96700 42.97400
C  4.37700 60.44000 43.70100
C  1.56800 58.26700 42.46500
C  0.42000 57.89600 43.38800
N  4.90900 54.24800 42.99000
C  3.65200 54.47500 43.59300
C  3.10900 53.27400 44.14200
C  3.88400 52.30900 43.47600
C  4.95700 52.99200 42.79600
C  1.79900 53.14800 44.84200
C  4.06500 50.91900 43.21800
O  3.42400 49.91600 43.57000
C  5.27500 50.75700 42.28800
C  4.91800 49.97600 41.04000
O  3.83400 50.09200 40.39200
O  5.79500 48.95100 40.93500
C  5.30800 47.79800 40.23000
H  10.29600 54.88500 39.89100
H  6.47800 59.92400 41.70000
H  2.14800 55.84900 44.12800
H  8.10900 50.72100 40.85800
H  9.59400 52.54900 39.23700
H  11.13600 51.91600 40.89700
H  9.94300 51.66600 42.18100
H  10.61400 53.27100 41.78200
H  7.24300 52.50300 38.49500
H  6.12500 51.42300 39.29900
H  7.83600 49.35500 38.86600
H  8.58000 50.42400 37.74700
H  10.64600 57.76000 38.11200
H  11.46800 56.89300 39.50200
H  11.34300 58.57300 39.47500
H  6.76300 60.85400 39.90200
H  7.84200 62.01700 39.18100
H  7.82900 61.83100 40.96500
H  3.48000 59.79300 41.71400
H  2.75500 58.38300 44.20500
H  5.36300 60.14700 44.06000
H  3.63800 60.34900 44.49800
H  4.41800 61.45900 43.31700
H  1.56000 57.63400 41.57800
H  1.36100 59.27600 42.10600
H  -0.25100 58.73100 43.58700
H  0.79500 57.55000 44.35100
H  -0.12200 57.12300 42.84300
H  1.29000 54.08600 45.06400
H  1.81600 52.59500 45.78100
H  1.06900 52.60500 44.24200
H  5.96000 50.14400 42.87400
H  5.81700 47.73100 39.26800
H  4.23000 47.87200 40.09000
H  5.54700 46.96500 40.89100

