158

Mg 40.51100 9.08700 29.27000
C  42.61400 10.51000 31.81800
C  38.69000 7.58300 31.57100
C  39.13600 7.33300 26.72400
C  43.08200 10.11300 26.96300
N  40.77400 8.95400 31.37000
C  41.52200 9.78300 32.23800
C  41.14000 9.45000 33.73700
C  39.86800 8.54300 33.58700
C  39.74500 8.35900 32.04500
C  39.85300 7.14400 34.32300
C  40.84300 10.70500 34.64100
C  40.10000 10.50400 35.98400
H  40.87300 10.86800 37.28500
N  38.95300 7.81400 29.18200
C  38.34000 7.28200 30.25600
C  37.16600 6.50600 29.80200
C  37.35100 6.40700 28.36400
C  38.56400 7.19400 28.02600
C  36.35900 5.74800 30.82400
C  36.60900 5.65100 27.36300
O  36.84400 5.58900 26.14900
C  35.34500 4.86900 27.70000
N  41.01000 8.78500 27.18600
C  40.21700 8.13600 26.35600
C  40.61600 8.22700 24.86900
C  41.99700 8.94600 24.97400
C  42.01300 9.34300 26.46000
C  40.72200 6.84300 24.10100
C  42.21900 10.14300 24.00800
C  41.38600 11.44100 24.23800
N  42.39800 10.22400 29.30500
C  43.31100 10.52100 28.30100
C  44.48800 11.20600 28.86000
C  44.22600 11.28700 30.23200
C  42.95000 10.64100 30.48200
C  45.66300 11.63500 28.06500
C  44.72100 11.79200 31.47900
O  45.76800 12.38600 31.72800
C  43.67900 11.24800 32.53100
C  44.36900 10.48300 33.55000
O  44.99700 9.48300 33.47500
O  44.32000 11.15800 34.73800
C  44.75800 10.48700 36.02200
H  38.09300 7.12000 32.36000
H  38.72700 6.81600 25.85300
H  43.80600 10.36700 26.18600
H  42.03000 8.90800 34.05800
H  39.01000 9.16900 33.83200
H  40.64500 7.01500 35.06100
H  39.79100 6.28100 33.65900
H  38.81300 7.13900 34.64700
H  40.48000 11.57400 34.09200
H  41.69700 11.26100 35.02700
H  39.77400 9.46600 36.04200
H  39.17100 11.04600 35.80700
H  36.75000 5.81900 31.83900
H  36.29700 4.68000 30.61300
H  35.29000 5.96000 30.84400
H  34.58100 5.45100 28.21500
H  35.68400 4.06200 28.35000
H  34.86400 4.55900 26.77200
H  39.86500 8.81700 24.34300
H  42.75300 8.16200 24.91800
H  40.05600 6.80400 23.23800
H  40.56000 6.02500 24.80300
H  41.71000 6.64800 23.68500
H  41.91000 9.75500 23.03700
H  43.26600 10.44700 23.99100
H  41.95000 12.16700 24.82500
H  40.44600 11.31600 24.77500
H  41.11700 11.92500 23.29900
H  45.75100 11.07800 27.13300
H  46.47100 11.43300 28.76900
H  45.66400 12.68700 27.77900
H  43.21200 12.09500 33.03300
H  44.95800 9.43900 35.80100
H  44.04900 10.66200 36.83100
H  45.72200 10.92000 36.28800
Mg 7.08200 53.72000 41.73600
C  6.20600 50.37400 41.31900
C  10.17100 53.00900 40.16600
C  7.83300 57.06300 41.36100
C  3.89900 54.45300 42.57500
N  7.95300 51.90200 40.72600
C  7.48900 50.61200 40.77500
C  8.52300 49.58000 40.31800
C  9.80800 50.48300 40.33800
C  9.30100 51.91800 40.35400
C  10.79200 50.15000 41.52000
C  8.13700 48.87300 38.92900
C  7.57000 49.76100 37.84500
H  7.10800 49.11800 36.55900
N  8.86300 54.91400 41.05100
C  9.92900 54.37600 40.37500
C  10.84800 55.45200 40.09200
C  10.25400 56.69300 40.42700
C  8.91600 56.23600 41.00900
C  12.17100 55.19800 39.36800
C  10.77400 58.09300 40.13100
O  11.81900 58.26400 39.53000
C  9.97700 59.34100 40.49900
N  6.11200 55.44800 41.94100
C  6.58200 56.67600 41.78000
C  5.47500 57.76500 42.21500
C  4.26100 56.91000 42.61900
C  4.75400 55.48400 42.35200
C  5.82900 58.92200 43.12300
C  2.95600 57.21500 41.96000
C  1.71500 57.50100 42.95600
N  5.39100 52.66900 41.94400
C  4.15700 53.03500 42.38000
C  3.28800 51.84600 42.51900
C  4.09800 50.79800 42.16700
C  5.37700 51.32100 41.78500
C  1.89200 51.87700 42.87300
C  4.18100 49.36700 41.95400
O  3.23300 48.59600 42.10400
C  5.61100 49.04900 41.54100
C  5.34000 48.37300 40.23100
O  4.86100 48.83400 39.25700
O  5.65700 47.00300 40.40200
C  5.19400 46.22800 39.21000
H  11.09300 52.68400 39.68000
H  7.99300 58.14200 41.42100
H  2.89800 54.62700 42.97400
H  8.49300 48.74700 41.02100
H  10.43400 50.44700 39.44600
H  10.40200 49.41100 42.21900
H  10.93200 51.02700 42.15300
H  11.70900 49.73300 41.10400
H  7.71100 47.89200 39.14200
H  9.08300 48.65100 38.43500
H  8.29700 50.49900 37.50400
H  6.75000 50.41000 38.15200
H  12.72800 56.10600 39.13900
H  12.08400 54.55000 38.49600
H  12.86300 54.70800 40.05300
H  8.94700 59.20900 40.16700
H  10.38700 60.26600 40.09500
H  10.15900 59.40900 41.57200
H  5.30800 58.28700 41.27200
H  4.03600 56.90700 43.68600
H  5.30500 58.97100 44.07700
H  5.55200 59.87100 42.66400
H  6.89000 58.89100 43.37000
H  2.73500 56.43000 41.23700
H  3.06700 58.12200 41.36400
H  2.11300 58.05800 43.80500
H  1.19400 56.57600 43.20200
H  1.11000 58.27300 42.48100
H  1.42800 52.85600 42.74900
H  1.82500 51.75000 43.95300
H  1.37700 51.13900 42.25800
H  6.06900 48.36900 42.26000
H  5.53200 45.19500 39.27900
H  5.54800 46.67700 38.28200
H  4.10800 46.25900 39.12100

