158

Mg 1.33900 -1.32100 43.36700
C  4.77300 -0.72500 42.68300
C  0.65300 1.74400 41.95600
C  -1.83100 -2.35500 43.06400
C  2.21100 -4.58400 44.41000
N  2.55700 0.25700 42.32300
C  3.88800 0.24700 42.09400
C  4.32500 1.58000 41.47700
C  3.04600 2.49300 41.54500
C  2.04000 1.51600 42.05000
C  3.13900 3.66800 42.53300
C  5.08000 1.42600 40.10100
C  4.36500 0.50700 39.08000
H  4.65300 0.68500 37.58600
N  -0.38200 -0.43300 42.60300
C  -0.44700 0.90600 42.16400
C  -1.84800 1.18800 41.92400
C  -2.53900 -0.01000 42.24500
C  -1.59600 -1.01800 42.70200
C  -2.45200 2.55000 41.54000
C  -4.02600 -0.25600 41.98900
O  -4.66300 0.72100 41.59600
C  -4.83300 -1.49600 42.21200
N  0.36300 -3.10900 43.59300
C  -0.98600 -3.34700 43.46300
C  -1.42900 -4.71600 43.98000
C  -0.07400 -5.43700 44.16800
C  0.88800 -4.31100 44.19100
C  -2.34400 -4.72100 45.23300
C  0.21200 -6.57800 43.21500
C  0.67100 -7.91000 43.87400
N  3.09000 -2.40600 43.62200
C  3.33300 -3.68000 44.16400
C  4.75200 -3.82800 44.38000
C  5.32200 -2.75000 43.73000
C  4.31400 -1.87400 43.35400
C  5.44000 -5.02800 44.90000
C  6.62500 -2.23100 43.26800
O  7.75800 -2.74100 43.27600
C  6.29200 -0.83300 42.53400
C  7.05500 0.20900 43.23500
O  8.24300 0.54100 42.96500
O  6.32900 0.74200 44.22900
C  6.88300 1.79200 45.07200
H  0.38000 2.78500 41.76900
H  -2.83400 -2.77600 42.96900
H  2.45900 -5.53700 44.88200
H  5.09000 1.91300 42.17800
H  2.73800 3.01900 40.64100
H  2.99300 3.36300 43.56900
H  2.39000 4.41300 42.26600
H  4.14300 4.09300 42.52500
H  6.08300 1.00900 40.19900
H  5.17200 2.39600 39.61400
H  3.28500 0.61100 39.18400
H  4.75400 -0.48300 39.32000
H  -1.75800 3.37600 41.69300
H  -3.28000 2.81800 42.19600
H  -2.88900 2.42000 40.55000
H  -5.73100 -1.27600 41.63500
H  -5.04800 -1.66400 43.26700
H  -4.33600 -2.32700 41.71000
H  -2.03400 -5.20600 43.21800
H  -0.04300 -5.84200 45.17900
H  -1.78800 -4.77300 46.16900
H  -3.21500 -5.36700 45.11800
H  -2.79800 -3.73500 45.12900
H  0.98300 -6.30700 42.49300
H  -0.71800 -6.68900 42.65800
H  1.74800 -8.01400 43.73800
H  0.15600 -8.66800 43.28400
H  0.42700 -7.82300 44.93300
H  4.78400 -5.39600 45.68700
H  6.42300 -4.71800 45.25500
H  5.49200 -5.71400 44.05400
H  6.73800 -1.07100 41.56800
H  6.23200 2.02400 45.91500
H  7.09700 2.62800 44.40600
H  7.76200 1.26900 45.44700
Mg 6.76600 55.59700 40.89600
C  4.25000 53.19600 40.71700
C  8.98100 53.20400 40.08700
C  8.96700 58.10800 40.26100
C  4.28400 58.01700 41.61200
N  6.53700 53.57500 40.20600
C  5.46800 52.74600 40.24800
C  5.82300 51.31500 39.82200
C  7.32100 51.26300 40.09700
C  7.66800 52.74400 40.11700
C  7.69700 50.54700 41.46700
C  5.40500 51.19100 38.31500
C  4.56500 50.01400 37.95800
H  5.05500 49.23800 36.69500
N  8.69700 55.69800 40.23400
C  9.47900 54.54800 40.03900
C  10.79900 54.98700 39.71600
C  10.82200 56.38300 39.64300
C  9.46100 56.74800 40.00400
C  11.88500 54.00900 39.32200
C  12.05100 57.21300 39.22400
O  13.14900 56.70900 39.23000
C  11.84600 58.67900 38.78000
N  6.55100 57.76000 40.80400
C  7.66100 58.56000 40.50600
C  7.34100 60.04100 40.73300
C  5.88900 60.08100 41.15200
C  5.52300 58.52900 41.24200
C  8.20900 60.79800 41.74900
C  4.86200 60.82100 40.23100
C  3.90200 61.69500 40.99400
N  4.69600 55.68800 41.15000
C  3.85800 56.64300 41.54000
C  2.47600 56.12400 41.73100
C  2.63300 54.75200 41.53500
C  3.98700 54.55700 41.09700
C  1.23700 56.93700 42.07700
C  1.89600 53.48600 41.58400
O  0.71900 53.28000 41.86400
C  2.94100 52.42700 40.95000
C  2.32300 51.79900 39.76500
O  2.22100 52.26700 38.61800
O  1.81800 50.56400 40.18000
C  1.31000 49.70700 39.15600
H  9.74400 52.42800 39.99500
H  9.73900 58.88000 40.25900
H  3.55400 58.75400 41.95300
H  5.32400 50.66100 40.53700
H  7.83100 50.79200 39.25700
H  8.33400 49.70300 41.20500
H  6.83400 50.17400 42.02000
H  8.27300 51.24200 42.07800
H  6.29700 51.10600 37.69400
H  4.98500 52.13600 37.97000
H  3.52300 50.31900 37.85500
H  4.58500 49.34300 38.81600
H  12.30100 54.50100 38.44300
H  11.55200 53.00800 39.04800
H  12.58400 54.02200 40.15900
H  12.44800 58.94400 37.91100
H  12.23900 59.35500 39.53900
H  10.80900 58.90600 38.52900
H  7.50500 60.53500 39.77600
H  5.84100 60.48500 42.16300
H  7.81000 61.04600 42.73300
H  8.64400 61.71300 41.34900
H  8.91400 60.08100 42.17100
H  4.23200 60.07900 39.73900
H  5.37000 61.37900 39.44400
H  4.26200 61.87500 42.00700
H  2.89200 61.29000 40.94200
H  3.91000 62.59200 40.37500
H  0.95900 57.62400 41.27800
H  1.42200 57.55200 42.95800
H  0.49100 56.15400 42.21400
H  3.11700 51.66800 41.71200
H  1.07500 50.22700 38.22700
H  0.39100 49.21000 39.46600
H  2.08100 48.96000 38.97000

