158

Mg 48.32500 35.38300 27.16400
C  46.34900 33.73200 29.72100
C  48.70800 37.86800 29.60300
C  49.98600 37.07200 24.82700
C  47.75000 32.74200 25.03700
N  47.61800 35.71400 29.42300
C  46.97100 34.85600 30.22600
C  47.04200 35.36100 31.69900
C  47.35100 36.83400 31.55900
C  47.99100 36.82200 30.13400
C  46.27700 37.88300 31.70900
C  48.21700 34.60700 32.47300
C  48.14200 34.61000 33.96900
H  47.22000 35.61900 34.73900
N  49.32200 37.17900 27.18400
C  49.36600 38.04000 28.34100
C  50.26400 39.19400 27.98400
C  50.60200 39.01800 26.58600
C  49.92800 37.75200 26.10500
C  50.57000 40.28900 28.96400
C  51.48700 39.83200 25.62400
O  51.72500 39.67200 24.44100
C  52.07600 41.13600 26.24000
N  48.70100 35.01900 25.22700
C  49.47900 35.85700 24.47100
C  49.74100 35.23600 23.06700
C  49.15100 33.82700 23.13000
C  48.48800 33.84200 24.57900
C  49.30300 36.15300 21.92100
C  50.19900 32.57500 22.91200
C  50.05200 31.93600 21.54200
N  47.31400 33.59500 27.33000
C  47.23400 32.59500 26.36100
C  46.45000 31.51200 26.89100
C  46.02600 31.89700 28.24300
C  46.58300 33.20700 28.45700
C  46.22700 30.18400 26.20400
C  45.22900 31.58400 29.39000
O  44.56600 30.55400 29.70300
C  45.34400 32.81000 30.37000
C  45.53700 32.48900 31.78700
O  46.53200 32.00000 32.26500
O  44.36500 32.66500 32.52100
C  44.40900 32.01600 33.83100
H  48.76000 38.74500 30.25200
H  50.48800 37.56800 23.99400
H  47.56600 31.87300 24.40200
H  46.12800 35.09200 32.22800
H  48.07100 37.25500 32.26100
H  45.33500 37.37800 31.92400
H  46.07800 38.54700 30.86700
H  46.42300 38.50800 32.59100
H  49.18600 35.06800 32.28100
H  48.37000 33.58700 32.12000
H  49.15900 34.65800 34.35600
H  47.75100 33.61300 34.17200
H  51.62700 40.54900 28.90900
H  50.28500 39.95000 29.96000
H  50.08400 41.25800 28.84800
H  52.52200 41.85000 25.54900
H  52.91100 40.80400 26.85700
H  51.26800 41.75400 26.63300
H  50.81400 35.16500 22.89000
H  48.29400 33.79400 22.45700
H  48.65300 35.68700 21.18000
H  50.14600 36.39400 21.27300
H  48.83300 37.02900 22.36800
H  50.01100 31.88600 23.73500
H  51.18700 33.02800 22.99300
H  49.80500 32.73200 20.84000
H  49.22200 31.23000 21.53500
H  50.91000 31.36300 21.18900
H  47.17200 29.82100 25.80100
H  45.56700 30.47200 25.38600
H  45.66300 29.42300 26.74500
H  44.38500 33.32900 30.36900
H  44.99900 31.10800 33.95400
H  43.45400 31.58200 34.12900
H  44.86300 32.73700 34.51000
Mg 0.95200 42.74900 26.09400
C  2.20900 42.77300 29.35900
C  -2.07300 41.78900 27.54600
C  -0.14400 41.70300 23.11900
C  4.04600 43.48600 24.86400
N  0.22000 42.43400 28.34700
C  0.87200 42.46800 29.45900
C  -0.02400 42.43600 30.66400
C  -1.47200 42.15100 29.99400
C  -1.08900 42.06400 28.51900
C  -2.08200 40.84300 30.52800
C  0.08700 43.59600 31.69600
C  0.45500 43.15800 33.21600
H  -0.59100 43.72800 34.19800
N  -0.92200 42.05200 25.35300
C  -2.01800 41.73000 26.08300
C  -3.13700 41.26100 25.23100
C  -2.63100 41.30500 23.90400
C  -1.18200 41.69000 24.07200
C  -4.61200 40.99200 25.65400
C  -3.34300 41.11800 22.54300
O  -2.68800 41.23000 21.52500
C  -4.89800 40.90200 22.30900
N  1.80500 42.77400 24.29800
C  1.16500 42.18200 23.19400
C  2.10500 42.04400 22.04800
C  3.33600 42.99800 22.48000
C  3.11800 43.03600 23.98000
C  2.46400 40.59800 21.58100
C  3.46100 44.41400 21.71800
C  4.07500 44.31300 20.32600
N  2.83400 43.09600 26.89300
C  4.00800 43.40800 26.23800
C  5.06500 43.45400 27.21200
C  4.43500 43.23900 28.45200
C  3.08400 43.04200 28.23100
C  6.56000 43.48300 26.93300
C  4.65200 42.99000 29.86600
O  5.67600 42.90900 30.49100
C  3.21400 42.82200 30.54400
C  3.17200 41.59900 31.39900
O  3.03600 40.44300 31.03400
O  3.39800 41.92900 32.78700
C  3.34500 40.74500 33.65200
H  -3.07000 41.58000 27.93900
H  -0.49800 41.36400 22.14300
H  4.94800 43.74400 24.30500
H  0.20600 41.56000 31.27100
H  -2.18600 42.95100 30.18800
H  -3.13900 41.04800 30.70000
H  -1.66700 40.56800 31.49800
H  -1.88700 39.99500 29.87200
H  -0.78900 44.24000 31.77500
H  0.87600 44.26700 31.35800
H  1.38600 43.68200 33.43000
H  0.63600 42.09100 33.34600
H  -4.76400 41.26100 26.70000
H  -5.03800 40.00500 25.47900
H  -5.24600 41.78200 25.25100
H  -5.41000 41.82000 22.59500
H  -5.02400 40.19100 23.12600
H  -5.13100 40.42500 21.35700
H  1.55700 42.40700 21.17900
H  4.21900 42.37200 22.35500
H  2.55700 39.87400 22.39000
H  3.41500 40.63500 21.04900
H  1.72900 40.27600 20.84300
H  3.93300 45.19500 22.31300
H  2.43100 44.75000 21.59400
H  4.42400 43.30700 20.09300
H  4.94800 44.96600 20.33400
H  3.41200 44.65000 19.52900
H  6.80800 44.54400 26.95500
H  6.76400 43.04200 25.95700
H  7.02600 42.96900 27.77400
H  3.16500 43.72100 31.15800
H  2.51300 40.11200 33.34600
H  3.30300 41.15000 34.66400
H  4.25400 40.14400 33.63700

