158

Mg 0.56400 7.72000 27.52500
C  1.49000 9.76400 30.07700
C  0.37400 5.03800 29.72300
C  -0.13100 5.59400 24.88500
C  0.97800 10.34900 25.33000
N  1.02100 7.42000 29.59900
C  1.25500 8.45300 30.51200
C  1.10300 7.88600 31.92900
C  1.18900 6.30100 31.66600
C  0.85500 6.22800 30.20800
C  2.48500 5.60900 32.04100
C  -0.25500 8.34300 32.66800
C  -0.35100 8.02000 34.18000
H  1.02300 7.89700 34.90000
N  0.32300 5.53600 27.35200
C  0.15200 4.63100 28.42700
C  -0.34000 3.39200 27.83000
C  -0.38100 3.52500 26.45200
C  -0.09900 4.95600 26.19400
C  -0.61200 2.23700 28.72500
C  -0.76700 2.48900 25.39000
O  -0.78000 2.73000 24.20400
C  -1.13900 1.04600 25.82900
N  0.51200 7.98400 25.36900
C  0.19100 6.97900 24.51300
C  0.24700 7.44300 23.10600
C  0.63400 8.92600 23.20000
C  0.67000 9.17000 24.71700
C  1.37000 6.64100 22.38800
C  -0.16000 9.93400 22.34200
C  -1.40000 10.49200 22.91400
N  1.06700 9.73700 27.60700
C  1.18400 10.71800 26.63500
C  1.54000 11.97600 27.30000
C  1.69100 11.67600 28.66800
C  1.32400 10.29500 28.78300
C  1.91800 13.33300 26.57300
C  2.08100 12.10100 29.99700
O  2.55300 13.13500 30.38700
C  1.89000 10.96100 30.97800
C  3.01600 10.75200 31.95900
O  3.92000 9.95100 32.02800
O  2.68400 11.57800 32.99500
C  3.50800 11.53100 34.24900
H  0.15400 4.27800 30.47600
H  -0.44100 4.99400 24.02700
H  1.08400 11.23200 24.69700
H  1.91700 8.31500 32.51300
H  0.44500 5.73900 32.23100
H  2.93200 5.09200 31.19200
H  2.33600 4.90500 32.86000
H  3.17100 6.41700 32.29500
H  -1.12600 7.94900 32.14400
H  -0.30300 9.43200 32.64300
H  -0.92200 7.09200 34.22600
H  -0.88100 8.75100 34.79000
H  -1.63200 1.98500 28.43500
H  -0.63200 2.52700 29.77600
H  0.10000 1.44400 28.49700
H  -0.42400 0.54900 26.48600
H  -1.30600 0.46300 24.92400
H  -2.16100 0.97300 26.19900
H  -0.71000 7.20900 22.63900
H  1.66000 9.02500 22.84800
H  2.00500 6.10000 23.08900
H  2.00500 7.26200 21.75600
H  0.88300 5.90000 21.75400
H  -0.36500 9.54500 21.34500
H  0.58300 10.73000 22.39200
H  -1.15400 11.45000 23.37200
H  -1.80400 9.74700 23.60000
H  -2.10400 10.64700 22.09600
H  2.54200 13.02600 25.73400
H  2.40000 14.12500 27.14600
H  0.95800 13.74600 26.26100
H  1.05800 11.24100 31.62400
H  2.89200 11.08700 35.03100
H  3.82700 12.50900 34.60800
H  4.43700 10.97400 34.13200
Mg 9.72700 48.37600 25.63700
C  7.93000 48.62600 28.64500
C  12.50000 49.52300 27.21500
C  11.27900 48.30200 22.72400
C  6.60500 47.49900 23.94800
N  10.09700 49.03900 27.62000
C  9.28300 48.96500 28.72600
C  10.06600 49.29000 29.89300
C  11.31900 50.03400 29.37300
C  11.28900 49.53500 27.96900
C  11.17700 51.56900 29.46900
C  10.31300 48.17600 30.90700
C  9.72200 48.47200 32.24600
H  9.79000 47.29700 33.22300
N  11.71300 48.70300 25.09200
C  12.72600 49.07700 25.88200
C  13.96900 49.11000 25.15800
C  13.60000 48.88000 23.76400
C  12.14900 48.62500 23.80300
C  15.30500 49.26300 25.93400
C  14.45900 48.87600 22.59200
O  14.02900 48.59600 21.43700
C  15.94200 49.04600 22.79600
N  8.97200 48.01400 23.66400
C  9.91200 48.00900 22.59100
C  9.15900 47.80900 21.22200
C  7.84700 47.14100 21.80100
C  7.78000 47.63900 23.18400
C  8.82000 49.02600 20.34400
C  7.85500 45.56400 21.76600
C  8.93800 44.85100 22.61800
N  7.67300 48.21600 26.11200
C  6.52800 47.80000 25.35600
C  5.33900 47.87600 26.20200
C  5.84600 48.15400 27.50800
C  7.29200 48.33700 27.40200
C  3.86500 47.69700 25.81900
C  5.49100 48.29100 28.93400
O  4.48300 48.08600 29.56000
C  6.82500 48.66700 29.68100
C  7.06300 47.57300 30.68400
O  7.49700 46.47900 30.49000
O  6.60300 47.95200 31.92200
C  6.48700 46.90200 32.99200
H  13.35200 49.88100 27.79700
H  11.68800 48.40400 21.71700
H  5.69900 47.08600 23.49900
H  9.42500 50.02500 30.37800
H  12.21200 49.94900 29.99100
H  10.44700 51.97800 30.16700
H  11.02600 51.97200 28.46800
H  12.14500 52.03600 29.65100
H  11.37400 48.09400 31.14200
H  9.97800 47.18400 30.60400
H  8.82500 49.09100 32.22200
H  10.40400 49.21400 32.66100
H  15.88700 48.37500 25.68800
H  15.17200 49.40600 27.00600
H  15.82300 50.16000 25.59400
H  16.55700 48.78400 21.93600
H  16.22500 48.32900 23.56700
H  16.15300 50.06400 23.12400
H  9.80800 47.14800 20.64700
H  7.01000 47.56900 21.24900
H  9.44500 49.87500 20.62100
H  7.79700 49.38600 20.46100
H  9.06600 48.87800 19.29300
H  8.12400 45.34800 20.73200
H  6.86700 45.17200 22.00700
H  9.55900 45.56700 23.15700
H  9.52100 44.20000 21.96800
H  8.50100 44.20800 23.38200
H  3.56900 48.10100 24.85000
H  3.30000 48.25000 26.56900
H  3.54800 46.66200 25.94500
H  6.74300 49.62500 30.19400
H  7.03700 47.15100 33.89900
H  6.69200 45.90500 32.60300
H  5.43400 47.02400 33.24700

