158

Mg -1.23700 17.61700 27.05800
C  -1.47800 15.23700 29.65100
C  -2.04400 20.08700 29.17200
C  -1.35800 19.64900 24.24600
C  -1.55300 14.80200 24.78300
N  -1.52700 17.59200 29.09100
C  -1.67600 16.54800 30.01700
C  -2.09800 17.07700 31.37800
C  -2.32500 18.62400 31.20000
C  -1.94100 18.79000 29.66200
C  -3.70700 19.19100 31.54500
C  -1.10200 16.59300 32.44000
C  -0.76900 17.43700 33.65100
H  -0.44900 16.81200 35.06900
N  -1.57800 19.53900 26.79400
C  -1.88500 20.42800 27.80900
C  -1.79400 21.74900 27.30100
C  -1.62000 21.62200 25.79900
C  -1.52800 20.20200 25.50400
C  -1.98600 22.90700 28.12000
C  -1.37900 22.74600 24.81400
O  -1.36100 22.60800 23.61700
C  -1.01200 24.16800 25.33600
N  -1.41900 17.29800 24.84900
C  -1.36900 18.30200 23.93500
C  -1.26300 17.82300 22.52700
C  -1.22700 16.26600 22.67100
C  -1.42100 16.08100 24.18900
C  -2.40400 18.41400 21.56000
C  0.15500 15.68600 22.17900
C  1.52600 16.10700 22.83000
N  -1.30300 15.38200 27.18300
C  -1.47400 14.48200 26.18100
C  -1.66700 13.13000 26.75500
C  -1.57800 13.39800 28.09800
C  -1.39500 14.80300 28.32300
C  -2.16600 11.88900 25.98300
C  -1.73000 12.77100 29.35700
O  -1.90600 11.64600 29.76200
C  -1.78200 13.99700 30.42700
C  -0.76400 13.65100 31.44000
O  0.42700 14.12000 31.46400
O  -1.32000 12.80300 32.39500
C  -0.40300 12.30100 33.41100
H  -2.16000 20.92100 29.86700
H  -1.29400 20.31300 23.38200
H  -1.64100 13.93100 24.13100
H  -3.04500 16.59200 31.61300
H  -1.64600 19.22700 31.80200
H  -4.23600 18.48500 32.18400
H  -4.25100 19.38900 30.62100
H  -3.47100 20.16900 31.96300
H  -0.13200 16.39400 31.98500
H  -1.54200 15.72900 32.93800
H  -1.61500 18.11700 33.75200
H  0.03800 18.02300 33.21000
H  -2.82100 23.41500 27.63700
H  -1.04700 23.45900 28.15400
H  -2.17500 22.70500 29.17400
H  -0.00700 24.03800 25.73800
H  -1.70300 24.56800 26.07800
H  -0.94500 24.80200 24.45200
H  -0.31700 18.13200 22.08200
H  -2.09300 15.85900 22.14800
H  -1.89900 19.07600 20.85700
H  -3.01400 19.04000 22.21100
H  -3.02600 17.70700 21.01100
H  0.29800 15.93600 21.12700
H  0.15000 14.59900 22.26600
H  1.36600 17.02000 23.40400
H  2.17500 16.56800 22.08600
H  2.00600 15.25800 23.31800
H  -1.48400 11.56800 25.19500
H  -3.11300 12.09400 25.48400
H  -2.39700 11.03000 26.61300
H  -2.79600 13.89900 30.81500
H  -0.92300 11.69700 34.15500
H  0.01900 13.15500 33.94100
H  0.33900 11.61800 32.99700
Mg -5.03300 25.23900 26.22300
C  -3.58600 26.55900 29.12800
C  -6.83400 23.02500 28.21100
C  -6.00400 23.61100 23.40000
C  -2.72500 27.15900 24.42300
N  -5.18700 24.95100 28.41100
C  -4.52000 25.58100 29.41700
C  -5.14400 25.22700 30.77300
C  -5.97700 23.92600 30.48300
C  -5.97000 23.95000 28.94400
C  -5.26400 22.66800 31.08800
C  -5.92300 26.36200 31.42000
C  -5.51100 26.81100 32.89100
H  -5.12800 25.71000 33.88000
N  -6.32300 23.67700 25.84000
C  -7.03900 22.94600 26.80300
C  -7.90000 21.93700 26.08500
C  -7.74100 22.13400 24.66500
C  -6.63600 23.17300 24.55100
C  -8.86000 20.97900 26.83000
C  -8.53900 21.55200 23.46600
O  -8.30000 21.87100 22.34000
C  -9.73500 20.63600 23.74700
N  -4.47600 25.34600 24.21600
C  -5.04700 24.60800 23.22600
C  -4.37800 24.77600 21.89400
C  -3.54200 26.08600 22.13800
C  -3.54400 26.21100 23.68800
C  -3.54600 23.55200 21.36600
C  -4.04900 27.40800 21.48900
C  -3.22800 28.01300 20.32200
N  -3.46600 26.65400 26.61600
C  -2.63800 27.36000 25.81400
C  -1.73600 28.20400 26.58200
C  -2.04500 27.93800 27.83700
C  -3.08400 26.95000 27.83200
C  -0.89400 29.22000 25.95100
C  -1.70000 28.26900 29.24200
O  -0.84900 29.04200 29.70600
C  -2.73700 27.35200 30.09500
C  -1.87100 26.45300 31.01600
O  -1.35600 25.35000 30.77000
O  -1.86900 27.11900 32.25800
C  -1.15100 26.47500 33.38600
H  -7.27700 22.22300 28.80500
H  -6.27900 23.13700 22.45500
H  -2.06400 27.80700 23.84300
H  -4.31600 25.06500 31.46200
H  -7.04200 23.91000 30.71600
H  -6.15000 22.07700 31.31900
H  -4.64900 22.83700 31.97200
H  -4.58700 22.23600 30.35200
H  -6.98500 26.11400 31.40100
H  -5.91400 27.29300 30.85200
H  -6.41100 27.19400 33.37200
H  -4.76800 27.60900 32.89000
H  -8.73000 19.97000 26.43900
H  -9.90900 21.26900 26.78300
H  -8.51700 20.91600 27.86300
H  -10.45500 21.04900 24.45300
H  -9.32600 19.68300 24.08400
H  -10.17500 20.52800 22.75500
H  -5.11900 25.00600 21.12900
H  -2.55700 25.94300 21.69400
H  -3.61400 22.66300 21.99300
H  -2.52100 23.91100 21.27100
H  -4.02100 23.21800 20.44300
H  -4.29500 28.14800 22.25000
H  -5.06400 27.16400 21.17700
H  -2.45300 27.29100 20.06700
H  -2.96300 29.02900 20.61800
H  -3.77300 28.16900 19.39200
H  -0.23400 28.68100 25.27100
H  -0.42800 29.75700 26.77700
H  -1.57300 29.79900 25.32500
H  -3.40800 27.91400 30.74500
H  -0.12000 26.46600 33.03300
H  -1.42000 25.44700 33.63300
H  -1.33400 27.13300 34.23500

