158

Mg 50.18800 34.56200 27.89100
C  48.05200 33.63100 30.54500
C  50.88200 37.38200 29.49700
C  51.95100 35.47500 25.21800
C  48.99000 31.69300 26.21400
N  49.58100 35.33000 29.80100
C  48.81000 34.71300 30.81600
C  49.08700 35.44700 32.13000
C  49.47100 36.92300 31.66400
C  50.09900 36.52600 30.22700
C  48.31900 37.93600 31.56800
C  50.21400 34.76700 32.90700
C  50.27300 34.92100 34.51700
H  49.18000 35.77800 35.24200
N  51.31000 36.17800 27.43000
C  51.49100 37.28800 28.21200
C  52.45800 38.13200 27.55700
C  52.73600 37.58400 26.25800
C  52.03500 36.34500 26.26800
C  52.95400 39.36200 28.29000
C  53.65300 38.06000 25.18900
O  53.86300 37.46800 24.13800
C  54.57400 39.17000 25.50300
N  50.15000 33.82600 25.85200
C  51.10800 34.34600 25.03600
C  51.43300 33.44000 23.87900
C  50.65100 32.08200 24.27300
C  49.83100 32.58700 25.52600
C  51.02700 34.08800 22.54000
C  51.61000 30.92200 24.60000
C  51.13300 29.51100 24.10600
N  48.77600 32.96500 28.18800
C  48.47100 31.86300 27.51100
C  47.58700 30.97700 28.23900
C  47.31500 31.67900 29.38900
C  48.12000 32.84200 29.37900
C  47.08300 29.68400 27.67900
C  46.52900 31.65800 30.61900
O  45.80400 30.83700 31.10500
C  47.01100 32.95800 31.44600
C  47.37400 32.46500 32.79300
O  48.34600 31.78200 32.95000
O  46.41800 32.92800 33.71400
C  46.63400 32.46700 35.06700
H  51.14300 38.20000 30.17100
H  52.75800 35.53700 24.48500
H  48.90500 30.77700 25.62500
H  48.18900 35.47400 32.74800
H  50.13400 37.45600 32.34500
H  47.67000 37.94400 32.44300
H  47.72500 37.58400 30.72500
H  48.68100 38.94900 31.39400
H  51.15700 35.13100 32.49900
H  50.07800 33.68900 32.81900
H  51.29500 35.15600 34.81300
H  50.15000 33.89600 34.86400
H  54.04200 39.36900 28.34500
H  52.54400 39.57600 29.27700
H  52.70100 40.22800 27.67900
H  54.11900 40.06800 25.92300
H  55.19500 39.45000 24.65300
H  55.25500 38.80500 26.27200
H  52.51200 33.29600 23.91900
H  50.02500 31.80600 23.42500
H  50.71900 35.10500 22.78000
H  50.16100 33.59700 22.09500
H  51.94200 34.05600 21.94700
H  51.69100 30.86200 25.68500
H  52.61300 30.91500 24.17300
H  52.02100 28.96900 23.78100
H  50.44600 29.56800 23.26200
H  50.74300 29.07900 25.02800
H  47.41300 29.62800 26.64200
H  45.99600 29.72900 27.73900
H  47.49300 28.83000 28.21800
H  46.11200 33.57100 31.51000
H  47.60300 32.79400 35.44400
H  46.58200 31.37900 35.09700
H  45.82900 32.73100 35.75300
Mg -11.37000 38.20300 41.25200
C  -9.36100 35.38600 40.61100
C  -8.99600 40.17500 39.93500
C  -13.64500 40.62400 40.90500
C  -13.85300 35.99600 42.25900
N  -9.38200 37.81700 40.37700
C  -8.69900 36.56900 40.27100
C  -7.28000 36.83200 39.59400
C  -7.23700 38.43900 39.57200
C  -8.63900 38.87700 39.98900
C  -6.12900 38.91700 40.63400
C  -7.30300 36.21300 38.15000
C  -6.12300 35.19700 37.83400
H  -5.19000 35.60800 36.77600
N  -11.18000 40.27400 40.88200
C  -10.19100 40.82300 40.28100
C  -10.40700 42.24700 40.11400
C  -11.80000 42.47700 40.32700
C  -12.31100 41.10600 40.73500
C  -9.38700 43.26700 39.55700
C  -12.56700 43.76400 40.13000
O  -12.02100 44.88300 39.85900
C  -14.05400 43.73500 40.18700
N  -13.52300 38.35900 41.48900
C  -14.23200 39.45600 41.35700
C  -15.73300 39.09000 41.32800
C  -15.78500 37.63700 41.99500
C  -14.27500 37.31400 41.90600
C  -16.72000 40.13300 42.05100
C  -16.70100 36.57700 41.33200
C  -17.93200 36.34200 42.19300
N  -11.59100 36.18500 41.53700
C  -12.60700 35.46400 42.03300
C  -12.20100 34.08600 42.35100
C  -10.95700 33.96400 41.65800
C  -10.57300 35.31200 41.27800
C  -12.97700 33.06300 43.11600
C  -9.83700 33.09100 41.31200
O  -9.68700 31.91400 41.57000
C  -8.84800 33.92900 40.51900
C  -7.46300 33.75400 40.99200
O  -6.60600 33.12700 40.43000
O  -7.25300 34.46400 42.13200
C  -5.92900 34.23500 42.81200
H  -8.20400 40.85100 39.60700
H  -14.47300 41.25200 40.56900
H  -14.52000 35.20500 42.60700
H  -6.52100 36.28600 40.15400
H  -6.94300 38.85100 38.60700
H  -5.10300 38.66500 40.36500
H  -6.52100 38.44700 41.53600
H  -6.20800 39.98100 40.86000
H  -7.23200 37.03300 37.43600
H  -8.27000 35.72000 38.05600
H  -6.58300 34.23600 37.60500
H  -5.54700 34.96600 38.73000
H  -9.65400 43.47900 38.52200
H  -8.34900 42.99700 39.75300
H  -9.39300 44.12100 40.23500
H  -14.44400 44.75200 40.15700
H  -14.30500 43.32100 41.16400
H  -14.47900 43.09900 39.41100
H  -16.00500 39.15900 40.27500
H  -15.87300 37.83800 43.06300
H  -17.10300 40.74900 41.23800
H  -16.24100 40.82600 42.74300
H  -17.59700 39.63400 42.46200
H  -16.25500 35.60100 41.13600
H  -17.12100 37.04600 40.44200
H  -18.01900 35.26700 42.34500
H  -18.83900 36.75100 41.74600
H  -17.87100 36.72200 43.21300
H  -14.04000 33.29600 43.17300
H  -12.58400 33.00900 44.13100
H  -12.69000 32.09800 42.69700
H  -8.76400 33.59800 39.48400
H  -5.11100 33.90700 42.17000
H  -6.05200 33.55000 43.65100
H  -5.49000 35.16700 43.16900

