158

Mg 1.98800 -1.44400 44.89100
C  5.31500 -0.44600 44.41300
C  0.96500 1.22500 42.94400
C  -1.25800 -2.61500 45.20800
C  3.16400 -4.38100 46.31700
N  3.10700 0.16300 43.80300
C  4.41600 0.37100 43.74600
C  4.68200 1.56000 42.81500
C  3.31700 2.16100 42.58300
C  2.39000 1.10300 43.11200
C  3.07700 3.57500 43.18000
C  5.39800 1.15600 41.42900
C  6.30400 2.25600 40.81700
H  7.51200 1.75000 40.03200
N  0.01900 -0.76100 44.27300
C  -0.13600 0.33400 43.46500
C  -1.55000 0.53600 43.22300
C  -2.27600 -0.55100 43.89500
C  -1.20400 -1.36100 44.50300
C  -2.14700 1.59200 42.32200
C  -3.73100 -0.82800 43.84100
O  -4.50100 -0.18800 43.15300
C  -4.31300 -1.98500 44.51900
N  1.04800 -3.28300 45.55900
C  -0.24800 -3.53200 45.62400
C  -0.50600 -4.95100 46.11700
C  0.87900 -5.46400 46.55200
C  1.78500 -4.34000 46.06000
C  -1.50100 -4.97300 47.25200
C  1.18200 -6.88600 46.14300
C  1.40900 -7.82900 47.38700
N  3.90900 -2.27400 45.23700
C  4.16400 -3.46100 45.90200
C  5.58600 -3.51900 46.17600
C  6.11300 -2.31700 45.58900
C  5.04900 -1.59500 45.08200
C  6.37700 -4.55700 46.83600
C  7.32700 -1.57700 45.32300
O  8.47600 -1.79500 45.63300
C  6.83100 -0.38800 44.41300
C  7.31700 0.88100 45.01800
O  7.23500 1.28500 46.20300
O  7.99900 1.55800 44.04200
C  8.54500 2.89300 44.38000
H  0.64100 2.10000 42.37600
H  -2.23000 -3.02300 45.49300
H  3.40400 -5.32400 46.81300
H  5.34600 2.22700 43.36400
H  3.12800 2.29300 41.51700
H  2.32000 3.53200 43.96300
H  2.74700 4.23600 42.37900
H  4.06600 3.84300 43.55000
H  4.65500 0.89500 40.67400
H  5.99200 0.25300 41.57100
H  6.55300 2.88900 41.66800
H  5.66600 2.84700 40.15900
H  -2.20200 1.45200 41.24300
H  -1.52000 2.46800 42.48900
H  -3.07700 1.94600 42.76800
H  -4.25900 -2.92200 43.96500
H  -5.35800 -1.67500 44.50700
H  -4.17900 -2.09000 45.59600
H  -0.79600 -5.46700 45.20100
H  0.91300 -5.33600 47.63400
H  -2.07900 -5.83500 46.92000
H  -1.96800 -4.01600 47.48800
H  -1.07300 -5.26900 48.21000
H  2.17000 -6.90000 45.68100
H  0.42500 -7.26400 45.45600
H  2.39300 -8.29100 47.30500
H  0.61300 -8.55700 47.23700
H  1.30000 -7.32300 48.34600
H  5.63900 -5.09100 47.43400
H  7.22200 -4.21900 47.43400
H  6.67000 -5.16500 45.98000
H  7.22400 -0.55300 43.41000
H  7.79200 3.48600 44.89900
H  8.64000 3.44100 43.44200
H  9.48400 2.84300 44.93000
Mg -11.96600 16.21400 42.22300
C  -8.91500 14.73400 41.88400
C  -10.65700 19.16500 40.84400
C  -15.06400 17.42100 41.73200
C  -13.32000 13.00500 42.97000
N  -9.97700 16.81000 41.32700
C  -8.89300 16.02700 41.32800
C  -7.69300 16.75300 40.69300
C  -8.26100 18.21300 40.47400
C  -9.72900 18.09300 40.84900
C  -7.55000 19.37700 41.32600
C  -7.25300 16.11300 39.35700
C  -5.71800 16.19200 39.00100
H  -5.28100 17.00000 37.79000
N  -12.73100 18.10500 41.53300
C  -12.01100 19.15500 41.09800
C  -12.95300 20.25300 40.81000
C  -14.24600 19.81600 41.13200
C  -14.06000 18.39200 41.44700
C  -12.44700 21.50200 40.14100
C  -15.54400 20.55600 41.04700
O  -15.53600 21.75200 40.68600
C  -17.05300 19.86600 41.20900
N  -13.88700 15.28800 42.08600
C  -14.94800 16.07800 42.03900
C  -16.30100 15.20700 42.21900
C  -15.73300 13.86600 42.64900
C  -14.22300 14.05000 42.60100
C  -17.37600 15.76800 43.22000
C  -16.20500 12.63000 41.85400
C  -17.05300 11.72500 42.70800
N  -11.25200 14.28100 42.70000
C  -11.89600 13.14200 43.04700
C  -10.91000 12.13700 43.32600
C  -9.70800 12.67100 42.85500
C  -9.99500 13.99100 42.42500
C  -11.18700 10.87900 44.01300
C  -8.36100 12.37100 42.65900
O  -7.72300 11.36900 42.92600
C  -7.82900 13.71900 41.96800
C  -6.86500 14.18300 42.96000
O  -7.10000 14.77700 44.01200
O  -5.58300 13.99900 42.53100
C  -4.45800 14.51500 43.37200
H  -10.18900 20.05600 40.42100
H  -16.11700 17.67900 41.59600
H  -13.75400 12.01100 43.09300
H  -6.93300 16.78300 41.47300
H  -8.16700 18.50200 39.42800
H  -6.59600 19.00000 41.69600
H  -8.06200 19.71700 42.22700
H  -7.31400 20.24300 40.70700
H  -7.80700 16.59100 38.54900
H  -7.50800 15.05600 39.28100
H  -5.35200 15.17600 38.85500
H  -5.16100 16.55400 39.86600
H  -11.95800 21.28700 39.19100
H  -11.72600 21.89500 40.85900
H  -13.13200 22.31800 39.91000
H  -17.80800 20.63700 41.05200
H  -17.25800 19.44200 42.19200
H  -17.25500 19.06800 40.49400
H  -16.66400 15.25400 41.19200
H  -15.99600 13.75200 43.70100
H  -18.20400 16.04300 42.56600
H  -17.04800 16.67400 43.73100
H  -17.73000 15.02400 43.93400
H  -15.30600 12.06700 41.60300
H  -16.75700 12.93100 40.96400
H  -17.57300 12.27800 43.49100
H  -16.47500 10.89800 43.12100
H  -17.90300 11.31800 42.16000
H  -11.37200 10.14200 43.23200
H  -12.10100 10.87700 44.60800
H  -10.30000 10.60500 44.58400
H  -7.30100 13.51300 41.03700
H  -4.81000 15.42500 43.85800
H  -3.60600 14.84100 42.77600
H  -4.12700 13.85300 44.17300

