158

Mg 25.94800 -0.76900 29.14700
C  28.04700 -1.05300 31.94100
C  23.24900 -0.77200 31.29000
C  23.96700 -0.74200 26.53400
C  28.74700 -1.26700 27.07000
N  25.70600 -1.00500 31.43900
C  26.69200 -1.07800 32.31800
C  26.10300 -1.07400 33.79800
C  24.52800 -1.01700 33.50400
C  24.43800 -0.95400 31.96100
C  23.62700 -2.19900 34.04800
C  26.75100 -0.04100 34.78300
C  25.81800 0.64600 35.86400
H  26.49800 1.22900 37.14900
N  23.98600 -0.68800 28.97100
C  23.01100 -0.54100 29.92600
C  21.73200 -0.29600 29.34000
C  21.87500 -0.30100 27.91400
C  23.29400 -0.59600 27.76000
C  20.46900 -0.43500 30.13700
C  20.86600 -0.12200 26.79600
O  21.07700 -0.17600 25.59300
C  19.46700 0.11900 27.17100
N  26.33100 -0.77800 27.04700
C  25.30500 -0.91400 26.25000
C  25.80300 -0.88600 24.80100
C  27.36000 -1.08200 24.91100
C  27.54800 -1.16000 26.41100
C  25.15000 -2.07500 23.87800
C  28.13100 0.11100 24.34300
C  28.53300 -0.02500 22.85200
N  28.01200 -0.98000 29.47000
C  28.98200 -1.19700 28.49100
C  30.29000 -1.27400 29.18700
C  29.98100 -1.21100 30.54400
C  28.59200 -1.08600 30.65700
C  31.57100 -1.63600 28.46400
C  30.47500 -1.21700 31.86500
O  31.58700 -1.35300 32.27100
C  29.26800 -1.11500 32.87100
C  29.26800 -2.27500 33.92000
O  28.87600 -3.37600 33.67600
O  29.68100 -1.84200 35.09800
C  29.42100 -2.60500 36.31500
H  22.49800 -0.68400 32.07800
H  23.41300 -0.66500 25.59600
H  29.60000 -1.45900 26.41700
H  26.31700 -2.10400 34.08500
H  24.17200 -0.03800 33.82600
H  24.16200 -3.03400 34.50000
H  22.98500 -2.68800 33.31500
H  22.98600 -1.84600 34.85500
H  27.10000 0.80900 34.19700
H  27.55000 -0.44700 35.40300
H  25.02000 -0.03800 36.15300
H  25.28300 1.37200 35.25200
H  19.55800 -0.28700 29.55600
H  20.34000 0.38600 30.84200
H  20.48500 -1.24100 30.87000
H  19.09800 -0.79500 27.63500
H  18.95200 0.21600 26.21500
H  19.38200 1.04200 27.74400
H  25.60300 0.13100 24.46300
H  27.64900 -2.06300 24.53300
H  24.95100 -1.60600 22.91500
H  24.31000 -2.58500 24.34900
H  25.79500 -2.91000 23.60200
H  29.01100 0.30100 24.95800
H  27.59100 1.05700 24.36700
H  28.11300 0.66600 22.12100
H  28.31400 -1.02500 22.47900
H  29.59800 0.18200 22.74600
H  31.29300 -1.89100 27.44200
H  31.84400 -2.59200 28.91100
H  32.43200 -0.98300 28.60700
H  29.56400 -0.14100 33.26000
H  30.27100 -3.20600 36.64000
H  28.56700 -3.25900 36.14000
H  29.11900 -1.88700 37.07700
Mg 40.78600 7.69200 29.82700
C  42.72000 9.41300 32.31800
C  38.50700 6.90400 32.03800
C  39.07400 6.20400 27.24700
C  43.54800 8.19000 27.69500
N  40.78200 8.07200 31.86400
C  41.53500 8.81100 32.76500
C  41.07500 8.75200 34.19500
C  39.79900 7.71900 34.01000
C  39.69300 7.52200 32.50300
C  39.97100 6.46500 34.79600
C  40.88300 10.07100 34.96700
C  39.80000 10.14600 36.03100
H  39.87600 11.18200 37.11400
N  39.06100 6.62100 29.73800
C  38.13500 6.43600 30.73700
C  36.92000 5.84900 30.19200
C  37.18200 5.57200 28.83400
C  38.48700 6.15100 28.59600
C  35.63300 5.69100 30.96200
C  36.26100 5.09400 27.72000
O  36.57900 4.82300 26.56600
C  34.82200 4.88000 28.05100
N  41.29600 7.17900 27.87400
C  40.39500 6.66600 26.96300
C  40.93800 6.48300 25.59600
C  42.28100 7.21500 25.78600
C  42.39500 7.58300 27.21400
C  41.17200 5.00900 25.05700
C  42.53300 8.43300 24.88800
C  41.70500 9.71200 25.05600
N  42.75300 8.60400 29.90200
C  43.74600 8.72800 28.96500
C  44.88600 9.44000 29.42300
C  44.50700 9.75100 30.78300
C  43.22000 9.24600 31.01400
C  46.12900 9.83400 28.65900
C  44.95900 10.40600 31.99800
O  46.02200 10.94900 32.26500
C  43.82300 10.19800 33.03400
C  44.44200 9.44700 34.20200
O  44.99900 8.44900 34.11500
O  44.14200 10.03900 35.41700
C  44.62900 9.34200 36.67800
H  37.85800 6.61300 32.86600
H  38.56400 5.84200 26.35200
H  44.34600 8.27800 26.95500
H  41.83000 8.20300 34.75800
H  38.86000 8.18300 34.31100
H  39.25700 6.49500 35.61900
H  40.93000 6.55200 35.30700
H  39.86700 5.54700 34.21800
H  40.72600 10.92700 34.31000
H  41.78200 10.31400 35.53400
H  39.88800 9.15800 36.48300
H  38.80500 10.28800 35.61000
H  35.19000 4.69800 31.04500
H  34.85600 6.39100 30.65500
H  35.91200 6.06000 31.94900
H  34.80300 4.04600 28.75200
H  34.29000 4.56100 27.15400
H  34.42600 5.78900 28.50300
H  40.32100 7.14600 24.99000
H  43.16000 6.59900 25.59500
H  40.70400 4.32300 25.76400
H  42.22100 4.71500 25.01800
H  40.85700 4.88400 24.02100
H  42.38900 8.07300 23.87000
H  43.59600 8.66800 24.94800
H  41.17200 9.69800 26.00600
H  40.87800 9.78000 24.34800
H  42.25600 10.65200 25.02100
H  46.98300 9.56500 29.28100
H  46.18000 10.91000 28.49200
H  46.08400 9.27500 27.72500
H  43.42000 11.10000 33.49300
H  45.66600 9.61200 36.87900
H  44.41500 8.27500 36.61000
H  43.99300 9.62700 37.51500

