158

Mg 7.93400 2.99800 27.72900
C  9.60500 1.67000 30.53900
C  6.01100 4.90400 29.68200
C  6.05400 3.62600 24.96700
C  9.43800 0.34700 25.79000
N  7.95400 3.27400 29.85100
C  8.62300 2.60200 30.86300
C  8.28000 3.11300 32.22400
C  7.11700 4.12700 31.91200
C  6.98800 4.14200 30.37000
C  5.84900 3.73300 32.67900
C  9.53600 3.61400 32.99500
C  9.10500 4.58600 34.18500
H  9.74200 4.13900 35.45100
N  6.36800 4.22300 27.32400
C  5.69300 4.96400 28.26900
C  4.86200 5.88500 27.62300
C  4.81800 5.50400 26.25200
C  5.80700 4.43500 26.10000
C  4.21400 7.00300 28.36900
C  3.88700 6.00000 25.20500
O  3.88200 5.63000 24.03900
C  2.89400 7.14000 25.57700
N  7.90100 2.18000 25.60100
C  6.97700 2.60100 24.71000
C  7.09000 1.91500 23.40100
C  8.29900 0.86000 23.67100
C  8.58600 1.17900 25.11500
C  5.76400 1.22400 22.96000
C  9.58400 1.07300 22.78900
C  9.98600 -0.19500 21.92900
N  9.36100 1.52900 27.96700
C  9.84100 0.52500 27.11700
C  10.60300 -0.42900 27.87800
C  10.63300 0.08900 29.15300
C  9.79600 1.25000 29.18200
C  11.31400 -1.68100 27.38800
C  11.17400 -0.16900 30.39700
O  11.92500 -1.07400 30.78800
C  10.56000 0.88700 31.39800
C  9.86500 0.12500 32.52500
O  8.76100 -0.38800 32.41600
O  10.55600 0.18900 33.64200
C  10.23300 -0.69700 34.81200
H  5.50300 5.53500 30.41500
H  5.40700 3.90600 24.13300
H  9.85100 -0.53800 25.30200
H  7.96000 2.22500 32.76900
H  7.51000 5.11400 32.15300
H  5.81700 4.26000 33.63300
H  5.79400 2.66800 32.90500
H  4.99300 4.07900 32.10100
H  10.25800 4.01200 32.28200
H  9.96800 2.77200 33.53400
H  8.02300 4.63200 34.30600
H  9.59200 5.53800 33.97400
H  4.52500 7.10600 29.40900
H  3.14100 6.81300 28.33600
H  4.45800 7.94300 27.87500
H  2.26700 7.47500 24.75000
H  3.48500 7.99400 25.90700
H  2.25400 6.85900 26.41300
H  7.37800 2.61300 22.61400
H  7.98600 -0.18300 23.63500
H  4.98200 1.41700 23.69500
H  5.79900 0.15800 22.73400
H  5.43700 1.76600 22.07300
H  10.44000 1.21200 23.45000
H  9.46200 1.89400 22.08300
H  10.96900 -0.60400 22.16100
H  10.00600 -0.00400 20.85600
H  9.25700 -0.97700 22.13900
H  10.59100 -2.41900 27.04200
H  11.84900 -2.23600 28.15900
H  11.82100 -1.48300 26.44400
H  11.30500 1.54000 31.85400
H  9.71700 -1.63000 34.58700
H  9.50700 -0.09700 35.36100
H  11.13500 -0.91900 35.38300
Mg 47.59800 25.44300 28.80600
C  49.11400 27.42100 31.35000
C  46.99900 23.06200 31.05800
C  46.84600 23.38900 26.21200
C  49.13100 27.69000 26.48500
N  47.95500 25.32900 30.98200
C  48.46700 26.27100 31.84800
C  48.19700 25.86900 33.29600
C  47.91500 24.36700 33.13900
C  47.70800 24.18700 31.62300
C  48.93800 23.42800 33.70500
C  47.10700 26.68900 34.08000
C  47.43900 27.14500 35.50700
H  46.29100 27.21400 36.53900
N  46.82600 23.51400 28.64300
C  46.58700 22.71300 29.70100
C  45.98900 21.46700 29.21500
C  45.78000 21.62500 27.81300
C  46.44700 22.86600 27.49600
C  45.69600 20.28000 30.13900
C  45.07600 20.77200 26.76200
O  45.03000 20.90400 25.55300
C  44.34700 19.59100 27.29100
N  47.91000 25.61100 26.69200
C  47.46700 24.57800 25.88200
C  47.76900 24.98400 24.41900
C  48.42300 26.38800 24.39600
C  48.47600 26.60600 25.93900
C  48.73000 23.93100 23.86300
C  47.46100 27.48100 23.77100
C  48.23800 28.60400 22.98100
N  48.74100 27.27200 28.95700
C  49.16200 28.07400 27.88100
C  49.89600 29.19100 28.46200
C  49.81700 29.03100 29.85000
C  49.17700 27.83800 30.05700
C  50.59200 30.18900 27.60500
C  50.40000 29.53000 31.16700
O  51.03800 30.51900 31.50500
C  49.73300 28.53100 32.21300
C  50.83400 28.14000 33.13000
O  51.69200 27.33200 32.88200
O  50.73000 28.69400 34.39400
C  51.68500 28.24400 35.40000
H  46.86500 22.28500 31.81300
H  46.71200 22.71900 25.36000
H  49.64100 28.30200 25.73800
H  49.16500 26.00700 33.77600
H  46.94100 24.17800 33.59000
H  49.18900 23.54300 34.76000
H  49.83500 23.36100 33.09000
H  48.45200 22.45200 33.67600
H  46.15400 26.17300 34.19900
H  46.87900 27.58600 33.50400
H  47.60000 28.21500 35.36800
H  48.32100 26.69300 35.96000
H  46.14000 19.41400 29.64900
H  44.66200 19.97900 30.30800
H  46.15500 20.53700 31.09400
H  43.53500 20.02500 27.87300
H  45.09300 18.95400 27.76700
H  43.84800 19.20500 26.40200
H  46.87600 24.98700 23.79500
H  49.46400 26.46200 24.08000
H  48.12700 23.23600 23.28000
H  49.23900 23.50600 24.72800
H  49.44600 24.36500 23.16600
H  46.85300 27.98800 24.51900
H  46.71600 27.08400 23.08200
H  47.83900 28.54500 21.96800
H  49.25700 28.22300 23.05300
H  48.09700 29.63500 23.30700
H  50.34500 30.12400 26.54500
H  51.61500 29.82600 27.51300
H  50.57200 31.20800 27.99100
H  49.12200 29.04800 32.95300
H  52.60300 28.83100 35.36600
H  51.83200 27.16700 35.32000
H  51.36400 28.45100 36.42100

