158

Mg 40.54200 8.02200 29.28400
C  42.19600 9.44200 31.94200
C  38.37600 6.67900 31.51400
C  38.79700 6.86500 26.78300
C  43.25000 8.72500 27.26600
N  40.34900 8.06400 31.51400
C  41.03500 8.84200 32.34800
C  40.43900 8.78700 33.75500
C  39.36300 7.61200 33.59600
C  39.36600 7.37600 32.11000
C  39.73900 6.33700 34.42200
C  39.87100 10.20100 34.21400
C  39.85100 10.43100 35.75500
H  40.92700 11.36200 36.35900
N  38.80600 7.01400 29.18000
C  38.03800 6.45500 30.18800
C  37.00700 5.63300 29.61400
C  37.07800 5.81000 28.20600
C  38.24700 6.63400 27.98400
C  36.05000 4.88400 30.60500
C  36.13300 5.33100 27.13900
O  36.29700 5.74200 25.99400
C  34.97600 4.45800 27.44100
N  40.97000 7.89500 27.30100
C  40.02600 7.51000 26.38700
C  40.67000 7.25800 24.92800
C  41.98300 8.09600 25.07200
C  42.07700 8.29300 26.63000
C  40.88300 5.79900 24.39000
C  41.87700 9.46800 24.30000
C  41.07300 10.61300 25.00600
N  42.41600 8.95200 29.44000
C  43.44000 9.10600 28.61800
C  44.54500 9.76900 29.23600
C  44.11900 9.98900 30.53200
C  42.79300 9.37700 30.64000
C  45.84500 9.99700 28.55700
C  44.41200 10.49300 31.87000
O  45.43300 11.01600 32.19100
C  43.22100 10.24300 32.80200
C  43.72200 9.45300 34.00200
O  44.03800 8.26500 34.04100
O  43.71000 10.27200 35.09400
C  43.88700 9.52500 36.30000
H  37.78900 6.18600 32.29200
H  38.42400 6.41600 25.86000
H  44.11100 8.95100 26.63300
H  41.16800 8.54800 34.52900
H  38.41400 8.03600 33.92400
H  38.99700 6.07000 35.17400
H  40.69700 6.51900 34.91100
H  39.89200 5.58600 33.64700
H  38.79900 10.19000 34.01900
H  40.31400 11.02300 33.65000
H  39.74300 9.45300 36.22500
H  38.87300 10.86400 35.96900
H  36.21400 5.16500 31.64500
H  36.33100 3.83100 30.59900
H  34.98900 4.87100 30.35500
H  35.27900 3.76500 28.22500
H  34.67600 4.00900 26.49500
H  34.15200 5.08300 27.78600
H  40.11700 7.86000 24.20700
H  42.79600 7.49700 24.66200
H  41.04100 5.07000 25.18500
H  41.72600 5.75600 23.70100
H  39.97000 5.43700 23.91800
H  41.44600 9.25800 23.32100
H  42.88400 9.84600 24.12300
H  40.21100 10.95600 24.43500
H  41.78100 11.43600 25.10200
H  40.59200 10.35600 25.95000
H  45.81800 10.99800 28.12700
H  46.09800 9.28700 27.77000
H  46.58100 9.87000 29.35100
H  42.79100 11.18600 33.13900
H  43.53800 10.12500 37.14100
H  44.94500 9.27500 36.37500
H  43.15800 8.71500 36.31900
Mg 9.26800 47.23400 26.43700
C  7.23200 47.01300 29.26500
C  11.90800 47.99600 28.49600
C  11.09400 48.07500 23.70300
C  6.40900 47.32900 24.36500
N  9.50000 47.45700 28.57400
C  8.59300 47.23200 29.56400
C  9.15800 47.36700 31.03500
C  10.67600 47.73700 30.73400
C  10.72600 47.86400 29.14000
C  11.24100 48.95800 31.45600
C  9.10700 46.07600 31.91800
C  10.18100 45.89000 33.04700
H  9.67600 45.37700 34.38800
N  11.33200 47.64900 26.05300
C  12.22500 47.91600 27.08300
C  13.53400 48.15700 26.50600
C  13.33300 48.24800 25.10000
C  11.91400 47.86400 24.87800
C  14.84800 48.32400 27.26200
C  14.32200 48.60400 23.90100
O  13.91000 48.67500 22.78700
C  15.70500 48.78300 24.19700
N  8.83900 47.42500 24.31600
C  9.76600 47.98100 23.49700
C  9.22200 48.31400 22.12100
C  7.72000 47.86900 22.27800
C  7.63200 47.53600 23.76000
C  9.27300 49.90900 21.82400
C  7.28200 46.71200 21.35500
C  5.86000 46.83200 20.82500
N  7.26300 47.07100 26.70100
C  6.16900 47.13100 25.77300
C  4.97600 46.95900 26.46900
C  5.31800 46.89500 27.84000
C  6.74800 46.94700 27.92500
C  3.56800 46.89300 25.90000
C  4.83400 46.71600 29.15300
O  3.73100 46.38000 29.60700
C  6.04000 46.88800 30.15800
C  5.97400 45.73000 30.99000
O  6.45200 44.60400 30.70700
O  5.41900 46.05900 32.22200
C  5.31500 44.92600 33.18000
H  12.69200 48.29600 29.19500
H  11.76700 48.32700 22.88100
H  5.47600 47.36500 23.79900
H  8.59400 48.16000 31.52600
H  11.36200 46.89300 30.80300
H  11.25600 49.86400 30.84900
H  12.19100 48.59300 31.84600
H  10.78900 49.22700 32.41100
H  9.07500 45.21700 31.24800
H  8.12300 46.15000 32.38200
H  10.68200 46.84100 33.22700
H  10.92700 45.28700 32.52900
H  15.45200 49.14600 26.88000
H  15.45000 47.41900 27.34900
H  14.59000 48.66200 28.26600
H  16.33800 48.87200 23.31400
H  16.09900 48.04400 24.89300
H  15.72100 49.78000 24.63800
H  9.72100 47.67300 21.39400
H  7.11300 48.75200 22.07600
H  10.25700 50.28500 22.10100
H  8.43400 50.47800 22.22500
H  9.21100 50.01800 20.74100
H  7.32200 45.82700 21.99100
H  7.98300 46.64800 20.52300
H  5.37100 47.75500 21.13800
H  5.32300 45.98200 21.24600
H  5.82500 46.70700 19.74300
H  3.09500 45.98100 26.26400
H  3.56900 46.78100 24.81500
H  3.06000 47.77600 26.28900
H  5.85800 47.72500 30.83200
H  4.24000 44.90500 33.35800
H  5.77600 45.37300 34.06200
H  5.80200 43.96900 32.99300

