158

Mg 7.79200 53.30700 42.01000
C  7.13900 50.00200 41.36100
C  10.97600 52.90000 40.89400
C  8.05500 56.70100 41.77100
C  4.42000 53.79600 42.88000
N  8.83900 51.61900 40.99800
C  8.47400 50.34300 40.98200
C  9.66900 49.40400 40.47500
C  10.93400 50.29100 40.53100
C  10.25900 51.68900 40.79200
C  11.96800 49.76700 41.55900
C  9.45500 48.75600 39.11700
C  9.11000 49.56200 37.90300
H  8.01100 48.95900 36.96300
N  9.34000 54.59700 41.55100
C  10.55100 54.20300 41.14600
C  11.35600 55.37500 40.95500
C  10.52100 56.50100 40.90000
C  9.22400 55.96300 41.41800
C  12.81100 55.25800 40.57100
C  10.91200 57.97700 40.57100
O  12.05100 58.16600 40.19100
C  10.05200 59.29000 40.73400
N  6.44200 54.98900 42.30000
C  6.85900 56.32300 42.25100
C  5.63900 57.29300 42.38100
C  4.45100 56.33100 42.60100
C  5.14400 54.92900 42.67100
C  5.83500 58.32100 43.49400
C  3.46100 56.32100 41.40900
C  2.00900 56.74200 41.74700
N  6.07600 52.20000 42.11600
C  4.78900 52.46000 42.56100
C  4.06700 51.20000 42.62900
C  4.91300 50.23000 42.29500
C  6.12200 50.84600 41.89100
C  2.58900 50.97700 43.02600
C  5.13800 48.79500 42.20000
O  4.45000 47.86500 42.54600
C  6.48700 48.58600 41.48000
C  6.34800 47.79900 40.26200
O  6.20000 48.23300 39.12800
O  6.27800 46.48100 40.69600
C  6.36300 45.59200 39.53700
H  12.01800 52.73500 40.61300
H  8.16700 57.78800 41.75800
H  3.40600 54.06200 43.18600
H  9.69500 48.51700 41.10800
H  11.39200 50.35300 39.54300
H  11.99200 50.22900 42.54600
H  12.92600 49.86100 41.04800
H  11.82000 48.69700 41.70300
H  8.76400 47.91800 39.20600
H  10.42800 48.31600 38.89700
H  9.91800 49.60100 37.17200
H  8.83000 50.58500 38.15300
H  13.38100 54.34700 40.75700
H  13.24400 56.07500 41.14900
H  13.00700 55.49600 39.52600
H  9.04300 59.39100 40.33200
H  10.54400 60.06300 40.14400
H  9.96000 59.59200 41.77700
H  5.47600 57.95000 41.52600
H  3.91900 56.53400 43.53000
H  5.77500 59.32700 43.08000
H  6.77700 58.19600 44.02800
H  5.03700 58.32200 44.23700
H  3.47200 55.41700 40.80000
H  3.76400 57.15400 40.77600
H  1.87100 56.55800 42.81300
H  1.31600 56.13300 41.16700
H  1.86600 57.78100 41.45100
H  2.06100 51.92700 43.11200
H  2.66500 50.44200 43.97300
H  2.14600 50.18900 42.41700
H  7.10200 47.97600 42.14200
H  7.24600 45.89400 38.97500
H  5.38200 45.52600 39.06500
H  6.60400 44.60900 39.94100
Mg -11.56200 16.23500 41.24100
C  -8.48100 14.65800 40.76100
C  -10.12800 19.13500 39.74500
C  -14.62500 17.58000 41.04100
C  -13.00900 13.05600 41.59300
N  -9.47500 16.79100 40.15600
C  -8.33000 16.00200 40.32000
C  -7.12400 16.69500 39.73800
C  -7.65200 18.15600 39.52300
C  -9.20700 18.05200 39.89100
C  -6.82100 19.21100 40.38700
C  -6.63700 16.00100 38.43600
C  -5.10400 16.31200 37.99800
H  -5.11900 17.03400 36.57000
N  -12.22700 18.10200 40.72300
C  -11.50000 19.16300 40.17900
C  -12.34900 20.35800 40.19900
C  -13.69200 19.96100 40.58000
C  -13.56500 18.48900 40.88300
C  -11.89400 21.79100 39.76000
C  -14.89500 20.84300 40.49500
O  -14.79300 22.03000 40.25500
C  -16.16600 20.38100 41.11600
N  -13.55400 15.38600 41.36800
C  -14.57800 16.17300 41.18200
C  -15.88200 15.33900 41.34500
C  -15.35700 13.92300 41.28400
C  -13.87000 14.09300 41.42900
C  -16.65200 15.79100 42.61600
C  -15.60900 13.17700 39.92900
C  -16.53300 11.88000 39.91900
N  -10.90000 14.30000 41.38900
C  -11.59500 13.11400 41.52700
C  -10.60400 12.03700 41.78900
C  -9.35700 12.60300 41.48100
C  -9.65100 13.98400 41.18700
C  -10.90000 10.54300 41.99400
C  -8.02200 12.32200 41.30800
O  -7.46300 11.25000 41.45100
C  -7.36800 13.63300 40.96700
C  -6.46800 14.06400 42.07300
O  -6.76900 14.44900 43.17800
O  -5.14100 13.75100 41.66600
C  -4.13900 13.75800 42.73600
H  -9.66100 20.10900 39.58500
H  -15.63100 18.00400 41.07600
H  -13.46500 12.07800 41.75700
H  -6.36600 16.65200 40.52000
H  -7.63600 18.42600 38.46700
H  -6.46600 19.95300 39.67200
H  -6.15100 18.68700 41.06800
H  -7.53100 19.67600 41.07200
H  -7.27800 16.38800 37.64400
H  -6.90400 14.94500 38.40200
H  -4.53700 15.39300 37.84800
H  -4.73000 16.99800 38.75800
H  -12.56900 21.91500 38.91400
H  -10.82600 21.79800 39.54100
H  -12.14300 22.57500 40.47600
H  -16.75200 21.26300 41.37300
H  -16.02100 19.89600 42.08200
H  -16.79800 19.80400 40.44200
H  -16.43700 15.61900 40.44900
H  -15.72700 13.43300 42.18400
H  -16.71200 16.87700 42.67700
H  -16.06600 15.42500 43.46000
H  -17.64100 15.33400 42.64700
H  -14.69300 12.80000 39.47500
H  -16.19900 13.81900 39.27400
H  -15.96100 10.97300 39.72800
H  -17.36100 11.89300 39.21000
H  -16.95200 11.73100 40.91400
H  -11.40300 10.11500 41.12700
H  -11.57800 10.39500 42.83400
H  -9.93100 10.06800 42.14600
H  -6.71900 13.50400 40.10000
H  -4.39000 12.95700 43.43100
H  -4.08800 14.67200 43.32900
H  -3.11300 13.62100 42.39300

