158

Mg 47.59000 23.84000 28.34100
C  48.37000 26.05100 30.94200
C  46.67000 21.45400 30.69100
C  47.16400 21.58300 25.82900
C  48.51700 26.14900 26.08400
N  47.42100 23.83400 30.58500
C  47.77000 24.84000 31.45700
C  47.70200 24.34100 32.89200
C  47.25400 22.89100 32.72700
C  47.03300 22.70900 31.24900
C  48.26000 21.87800 33.22500
C  46.79400 25.30700 33.81200
C  47.18200 25.30700 35.36400
H  46.53100 26.39800 36.21300
N  46.88100 21.80300 28.18700
C  46.59700 21.04300 29.31200
C  46.19900 19.74100 28.87200
C  46.37800 19.71300 27.43400
C  46.72500 21.07400 27.08600
C  45.80500 18.56700 29.80400
C  46.22300 18.51700 26.46700
O  46.23300 18.74900 25.25900
C  46.01700 17.08700 26.90900
N  47.75300 23.91700 26.29500
C  47.60400 22.84200 25.45700
C  48.01600 23.12500 24.05000
C  48.17700 24.65700 24.09300
C  48.18000 24.94200 25.58500
C  49.28300 22.23600 23.63600
C  47.06900 25.37900 23.28000
C  45.78500 25.62300 24.02100
N  48.45200 25.65800 28.41800
C  48.74800 26.52800 27.43800
C  49.25900 27.75100 27.95200
C  49.14000 27.55700 29.30700
C  48.59700 26.31400 29.57300
C  49.76100 29.00000 27.21300
C  49.43300 28.26100 30.52800
O  50.08500 29.28000 30.78700
C  48.86300 27.39100 31.68100
C  49.99300 27.20800 32.55400
O  50.97100 26.48800 32.28600
O  49.65000 27.70200 33.78600
C  50.67200 27.55500 34.82900
H  46.32300 20.67700 31.37500
H  47.14500 20.92400 24.95800
H  48.90100 26.84200 25.33200
H  48.72100 24.48300 33.25100
H  46.32600 22.79200 33.29100
H  47.70600 21.04900 33.66300
H  48.99800 22.17600 33.97000
H  48.86200 21.57700 32.36700
H  45.73200 25.06400 33.80000
H  46.92700 26.35000 33.52300
H  48.27100 25.28300 35.41100
H  46.79400 24.31400 35.59000
H  45.70800 17.57600 29.36000
H  44.82500 18.79600 30.22200
H  46.46600 18.49300 30.66800
H  45.11300 16.88800 27.48400
H  46.89500 16.82000 27.49800
H  46.11100 16.35900 26.10300
H  47.18800 22.93500 23.36700
H  49.05700 24.90800 23.50100
H  48.87500 21.38200 23.09500
H  49.73400 21.91100 24.57500
H  50.02300 22.83300 23.10300
H  46.93600 24.81500 22.35700
H  47.43200 26.36000 22.97400
H  45.69300 24.97300 24.89200
H  45.02100 25.28700 23.31900
H  45.65000 26.64200 24.38200
H  50.60600 29.35700 27.80100
H  48.90200 29.66600 27.13000
H  50.09000 28.72700 26.21000
H  48.07100 27.93900 32.19200
H  50.07200 27.35000 35.71600
H  51.02000 28.58700 34.87500
H  51.52600 26.90500 34.63900
Mg 30.39100 58.52100 39.09900
C  27.40700 56.66500 37.77000
C  32.22600 55.81100 37.93500
C  33.09900 60.33800 39.22000
C  28.35500 61.35400 39.23800
N  29.76500 56.36100 38.28300
C  28.59400 55.91000 37.82900
C  28.77300 54.52700 37.19000
C  30.26800 54.19900 37.50300
C  30.82000 55.49100 38.02000
C  30.48100 53.08600 38.52700
C  28.43300 54.50300 35.66800
C  27.62200 53.25000 35.21900
H  26.88300 53.39500 33.91800
N  32.38500 58.05300 38.75500
C  32.92600 56.90100 38.31600
C  34.41100 56.95800 38.25500
C  34.65100 58.37200 38.51800
C  33.35000 58.99700 38.85600
C  35.36600 55.87700 37.91900
C  36.01900 59.02500 38.57300
O  36.95500 58.35900 38.08100
C  36.35600 60.45700 39.02900
N  30.67500 60.50200 39.07100
C  31.87200 61.05000 39.26300
C  31.81000 62.51600 39.75700
C  30.32300 62.82900 39.65000
C  29.72500 61.47700 39.30500
C  32.35500 62.80200 41.16700
C  30.00100 63.98200 38.63700
C  28.89400 64.98100 39.00200
N  28.25500 58.91200 38.79200
C  27.69300 60.12700 38.83400
C  26.29900 59.99600 38.46000
C  26.11300 58.69000 37.93700
C  27.30100 58.00100 38.22100
C  25.37600 61.14800 38.39300
C  25.29300 57.73200 37.28000
O  24.16000 57.95600 36.79000
C  26.08600 56.37800 37.18600
C  25.45100 55.25500 37.99800
O  25.43900 55.07900 39.21200
O  25.03700 54.34100 37.04300
C  24.74600 53.03900 37.67600
H  32.71000 54.84400 37.78100
H  33.96100 60.97100 39.44200
H  27.71900 62.22800 39.39700
H  28.10500 53.82900 37.69500
H  30.83200 53.95200 36.60400
H  30.45300 52.10100 38.06200
H  29.73500 53.17200 39.31700
H  31.52000 53.18600 38.83900
H  29.39900 54.45300 35.16500
H  27.98600 55.45400 35.37900
H  26.78300 53.04100 35.88300
H  28.35800 52.45700 35.08200
H  35.37900 55.66000 36.85100
H  34.90900 54.96800 38.31100
H  36.39500 56.03300 38.24300
H  37.44000 60.56700 39.08100
H  35.90900 60.76100 39.97600
H  36.02800 61.18500 38.28800
H  32.34800 63.18300 39.08300
H  29.89700 63.07000 40.62400
H  32.52700 61.86000 41.68600
H  31.79100 63.57200 41.69300
H  33.32200 63.24800 40.93500
H  29.86800 63.54400 37.64800
H  30.87000 64.63600 38.55700
H  28.37700 64.45900 39.80700
H  28.38900 65.25700 38.07700
H  29.20300 65.96900 39.34300
H  25.28600 61.54000 37.38000
H  25.59200 62.00800 39.02700
H  24.35000 60.81600 38.55100
H  26.12100 56.13900 36.12300
H  24.30600 52.35300 36.95200
H  24.04700 53.10000 38.51000
H  25.61200 52.58100 38.15500

