158

Mg 7.89800 3.27300 27.39100
C  9.42400 1.83800 30.35000
C  6.07900 5.33500 29.51600
C  6.57600 4.49200 24.71600
C  9.58500 0.70800 25.64700
N  7.83900 3.61000 29.67900
C  8.63100 2.95900 30.66900
C  8.42800 3.64400 32.04300
C  7.23200 4.69400 31.74500
C  6.98500 4.54500 30.22300
C  5.89200 4.56700 32.54300
C  9.68400 4.24800 32.79600
C  9.86700 3.79200 34.28100
H  10.52900 4.77500 35.28100
N  6.48900 4.67900 27.14900
C  5.84300 5.43100 28.10400
C  5.00200 6.43100 27.44200
C  5.23900 6.28600 26.03000
C  6.14400 5.15400 25.90200
C  4.17700 7.45300 28.15600
C  4.77200 7.09000 24.80900
O  5.12100 6.84200 23.67600
C  3.74100 8.12800 25.03900
N  8.03500 2.63200 25.45600
C  7.39800 3.41800 24.49600
C  7.67000 2.87300 23.06400
C  8.57200 1.66800 23.42800
C  8.69400 1.61100 24.89600
C  6.35300 2.59000 22.19400
C  9.90300 1.64100 22.63700
C  10.06700 0.29700 21.91600
N  9.16900 1.63800 27.87000
C  9.84500 0.77800 26.99200
C  10.64800 -0.16000 27.72900
C  10.61000 0.32000 29.06400
C  9.67200 1.34600 29.06700
C  11.52200 -1.27100 27.14400
C  11.07700 0.02100 30.38000
O  11.79000 -0.86600 30.86400
C  10.47100 1.19300 31.25500
C  9.88600 0.61100 32.45900
O  8.71000 0.28100 32.46500
O  10.71900 0.64300 33.55900
C  10.04800 0.17200 34.77100
H  5.65700 6.10900 30.16000
H  6.20100 4.79500 23.73600
H  10.08300 -0.05800 25.05000
H  8.16400 2.77000 32.63900
H  7.64200 5.68500 31.94100
H  5.08800 4.17900 31.91800
H  5.61800 5.50100 33.03200
H  6.11200 3.76000 33.24200
H  9.66500 5.33800 32.81700
H  10.61500 3.99600 32.28800
H  10.59400 2.98300 34.35100
H  8.90900 3.52200 34.72500
H  4.54200 8.45000 27.91200
H  4.07200 7.29000 29.22900
H  3.15000 7.48900 27.79500
H  4.06500 9.05700 25.50800
H  2.93600 7.58800 25.53900
H  3.35200 8.39300 24.05600
H  8.24700 3.65200 22.56500
H  7.95800 0.80000 23.18800
H  5.48400 2.81000 22.81300
H  6.24400 1.54500 21.90400
H  6.18800 3.36800 21.44900
H  10.77000 1.86000 23.25900
H  9.76100 2.45300 21.92400
H  9.08200 -0.01900 21.57300
H  10.48800 -0.53900 22.47500
H  10.58300 0.48200 20.97400
H  11.66700 -2.08000 27.85900
H  12.47900 -0.95100 26.73200
H  10.96600 -1.81700 26.38100
H  11.27900 1.86900 31.53400
H  9.43400 0.86400 35.34900
H  10.83100 -0.17500 35.44500
H  9.45000 -0.70100 34.51100
Mg 26.44800 49.75500 27.14500
C  24.28700 51.22600 29.66000
C  28.53200 48.78200 29.72000
C  28.65600 49.17200 24.78500
C  24.43500 51.49000 24.73800
N  26.47600 50.17400 29.46300
C  25.43800 50.67300 30.23800
C  25.64300 50.21400 31.72800
C  27.05600 49.59800 31.73500
C  27.39500 49.45100 30.18700
C  28.10400 50.41600 32.53900
C  24.50300 49.42500 32.37100
C  23.99500 49.98400 33.66500
H  24.97800 50.68700 34.60900
N  28.25800 48.92500 27.22000
C  28.94600 48.53200 28.36700
C  30.29600 47.92400 28.00400
C  30.39300 48.21300 26.56500
C  29.11200 48.85000 26.10800
C  31.35500 47.34900 28.85800
C  31.62100 48.03400 25.58800
O  31.56100 48.35500 24.38600
C  32.86400 47.48100 26.11500
N  26.64300 50.34100 25.13400
C  27.52000 49.76000 24.29200
C  27.09800 49.94900 22.82400
C  25.67200 50.49000 22.87600
C  25.58700 50.83400 24.36300
C  27.97300 50.90800 22.08100
C  24.62300 49.42600 22.35700
C  23.85600 49.82700 21.08100
N  24.62700 50.99800 27.14500
C  23.97400 51.62000 26.08500
C  22.91100 52.42900 26.64100
C  22.96700 52.24900 28.04200
C  24.06800 51.38100 28.31200
C  21.90200 53.24100 25.96600
C  22.38700 52.72900 29.33200
O  21.39100 53.43100 29.61300
C  23.25100 52.00000 30.43400
C  23.72800 53.01300 31.35800
O  24.83600 53.51200 31.21500
O  22.84900 53.19600 32.38100
C  23.10900 54.29800 33.42800
H  29.19500 48.38500 30.49200
H  29.34600 48.81000 24.02000
H  23.71000 51.92200 24.04500
H  25.68500 51.17000 32.25000
H  27.04100 48.60700 32.18800
H  27.69400 50.90100 33.42500
H  28.47600 51.18900 31.86600
H  28.97400 49.79200 32.74400
H  24.91900 48.44800 32.61600
H  23.73200 49.20200 31.63400
H  23.63900 49.06900 34.13700
H  23.16400 50.67300 33.51400
H  31.60200 46.36000 28.47100
H  30.96200 47.29100 29.87300
H  32.22600 48.00200 28.90300
H  33.40200 48.17700 26.75800
H  33.47300 47.18000 25.26300
H  32.57300 46.56700 26.63300
H  27.09100 48.93400 22.42700
H  25.56000 51.40000 22.28700
H  27.53800 51.88100 21.85300
H  28.35400 50.36500 21.21600
H  28.85400 51.23300 22.63400
H  23.94100 49.26000 23.19100
H  25.09800 48.50800 22.00900
H  24.05200 49.13500 20.26200
H  24.10900 50.84700 20.79000
H  22.84600 49.74300 21.48000
H  22.37900 53.84100 25.19100
H  21.35100 53.92600 26.61000
H  21.12600 52.64300 25.48800
H  22.61200 51.36600 31.04900
H  23.25200 55.18300 32.80900
H  24.05400 54.12400 33.94200
H  22.25300 54.36000 34.10100

