158

Mg 34.87500 1.29200 29.38700
C  32.67400 3.02900 31.47800
C  37.32300 1.28700 31.87500
C  37.08900 0.18800 27.13700
C  32.57100 2.07100 26.82400
N  34.94100 2.04600 31.34100
C  33.90200 2.59800 32.05800
C  34.20300 2.58100 33.55500
C  35.66300 2.22900 33.61900
C  36.05800 1.82400 32.19300
C  36.61600 3.29300 34.13400
C  33.25200 1.52500 34.30400
C  32.77200 1.90400 35.74600
H  33.54400 2.92500 36.51600
N  37.00100 0.85900 29.45600
C  37.80600 0.85300 30.61200
C  39.05100 0.23100 30.25000
C  38.97500 -0.16900 28.88000
C  37.65200 0.31200 28.41800
C  40.14900 -0.02800 31.21500
C  39.85600 -0.95800 28.00100
O  39.49000 -1.43800 26.93300
C  41.24700 -1.33000 28.47200
N  34.83200 1.20300 27.35000
C  35.86500 0.66500 26.64300
C  35.40900 0.46000 25.14600
C  33.99600 1.08800 25.06400
C  33.77600 1.42500 26.49600
C  36.50900 1.09000 24.17600
C  32.93100 0.11000 24.46800
C  32.48900 0.35000 23.01800
N  32.93000 2.19300 29.15400
C  32.21100 2.42400 28.09100
C  30.90900 3.13500 28.43900
C  31.09700 3.48000 29.77800
C  32.35800 2.84000 30.14600
C  29.88500 3.70000 27.50900
C  30.59200 4.17000 30.94400
O  29.57400 4.83800 31.11000
C  31.46800 3.70100 32.14300
C  31.75600 4.90400 32.98300
O  32.49500 5.79600 32.66300
O  31.12600 4.92300 34.15800
C  31.27500 6.16500 34.85400
H  38.08800 1.33100 32.65200
H  37.69000 -0.20700 26.31500
H  31.84500 2.15700 26.01300
H  34.00000 3.59800 33.89100
H  35.81800 1.42600 34.33900
H  37.22200 3.61000 33.28600
H  37.26300 2.83100 34.88000
H  36.00100 4.09800 34.53800
H  33.79700 0.58300 34.36300
H  32.38300 1.41600 33.65500
H  32.68800 0.99900 36.34700
H  31.83000 2.43400 35.60300
H  40.50500 -1.05800 31.23300
H  39.92500 0.03100 32.27900
H  40.91500 0.67200 30.88000
H  41.31600 -2.10700 29.23400
H  41.70400 -0.44600 28.91700
H  41.90200 -1.61400 27.64900
H  35.37900 -0.59700 24.88300
H  34.01300 2.05800 24.56800
H  36.06000 1.76500 23.44800
H  36.81500 0.21300 23.60500
H  37.28800 1.61400 24.73100
H  32.03100 0.13900 25.08200
H  33.33300 -0.90000 24.54300
H  31.40200 0.37400 22.94000
H  32.94200 -0.24100 22.22200
H  32.94400 1.32000 22.81500
H  30.36700 4.34500 26.77400
H  29.22300 4.41100 28.00400
H  29.34000 2.89200 27.02100
H  30.79400 3.08500 32.73800
H  30.53500 6.89700 34.53100
H  32.23000 6.64500 35.06900
H  30.89700 5.85100 35.82700
Mg 30.18900 57.23800 40.50300
C  27.36500 55.30500 39.50300
C  32.15000 54.45700 39.85800
C  32.91300 59.27200 40.46400
C  28.03800 60.07700 40.40300
N  29.78600 55.14800 39.70500
C  28.57000 54.55300 39.41100
C  28.79600 53.20500 38.70600
C  30.12800 52.82700 39.41100
C  30.77200 54.22700 39.62900
C  30.10100 52.08300 40.82800
C  28.88500 53.35800 37.12100
C  27.91500 52.41700 36.31500
H  27.14300 52.89300 35.07600
N  32.28100 56.93200 40.25900
C  32.82800 55.69400 40.00000
C  34.30100 56.00800 40.02500
C  34.58100 57.38600 40.22400
C  33.24700 57.94600 40.32800
C  35.24100 54.93800 39.53700
C  36.00800 58.03100 40.29200
O  37.01400 57.37100 40.09300
C  36.29400 59.45200 40.79400
N  30.42600 59.30600 40.46400
C  31.64100 59.92200 40.54300
C  31.55300 61.43800 40.67900
C  29.97800 61.64800 40.74900
C  29.43800 60.24300 40.54800
C  32.22900 62.20000 41.90400
C  29.42700 62.62200 39.74400
C  28.22800 63.41900 40.26900
N  28.09800 57.64700 40.25600
C  27.37700 58.82200 40.25500
C  25.92200 58.52800 40.01100
C  25.87100 57.19800 39.75300
C  27.20000 56.70300 39.84600
C  24.76100 59.58300 39.93200
C  25.06100 56.03900 39.30000
O  23.91300 55.97700 39.09200
C  25.94600 54.77600 39.17700
C  25.55000 53.76400 40.15700
O  26.25700 53.44100 41.07900
O  24.36500 53.16400 39.77800
C  24.02800 51.81200 40.14000
H  32.81000 53.59700 39.72100
H  33.70100 60.02500 40.40700
H  27.31100 60.88600 40.49500
H  28.03700 52.49000 39.02400
H  30.80700 52.30700 38.73600
H  29.09700 51.66000 40.83800
H  30.17900 52.80900 41.63700
H  30.78400 51.24000 40.93800
H  29.93800 53.25300 36.86400
H  28.51600 54.34000 36.82300
H  27.32300 51.83700 37.02300
H  28.49000 51.58900 35.90100
H  34.80800 54.31700 38.75300
H  35.61700 54.22500 40.27000
H  36.07500 55.49500 39.10800
H  36.28700 60.23200 40.03300
H  37.22000 59.40300 41.36700
H  35.57800 59.68000 41.58400
H  31.95100 61.91300 39.78300
H  29.68800 62.02900 41.72900
H  33.00600 62.88800 41.56800
H  32.77600 61.47600 42.50800
H  31.50700 62.78200 42.47700
H  29.14900 62.23400 38.76400
H  30.09800 63.45400 39.53200
H  28.45200 64.48100 40.37400
H  27.83000 63.16100 41.25000
H  27.50400 63.25200 39.47200
H  24.96000 60.24000 39.08600
H  24.70800 60.14500 40.86500
H  23.88700 59.00000 39.64300
H  25.72100 54.28200 38.23200
H  23.09600 51.72400 40.69900
H  24.83300 51.31600 40.68200
H  23.86200 51.31600 39.18400

