158

Mg -1.25700 16.82700 26.37400
C  -1.92400 14.49400 28.96500
C  -1.79700 19.37500 28.68400
C  -1.25400 19.15600 23.92000
C  -1.58000 14.27600 24.04900
N  -1.81500 16.89400 28.54000
C  -1.86800 15.82900 29.42000
C  -1.83200 16.37900 30.86000
C  -1.97600 17.94200 30.71600
C  -1.78800 18.12200 29.20200
C  -3.50100 18.48600 31.17400
C  -0.47500 15.94900 31.61100
C  -0.28900 16.62600 32.98600
H  -0.37600 15.74200 34.28800
N  -1.34300 18.96000 26.31600
C  -1.63100 19.83200 27.39100
C  -1.65700 21.23500 26.91000
C  -1.53900 21.16900 25.50800
C  -1.32200 19.76500 25.18000
C  -1.87900 22.41800 27.85100
C  -1.67600 22.30000 24.54300
O  -1.74100 22.16300 23.31100
C  -1.87700 23.70500 25.06800
N  -1.45400 16.70500 24.29800
C  -1.30000 17.80800 23.51200
C  -1.24500 17.35400 21.95800
C  -1.02400 15.78200 22.08500
C  -1.42700 15.55800 23.52700
C  -2.48800 17.85500 21.15500
C  0.37100 15.19100 21.57000
C  1.52300 15.69600 22.41200
N  -1.65400 14.79400 26.43300
C  -1.76700 13.86200 25.37000
C  -1.88500 12.54300 25.94700
C  -2.01100 12.73300 27.31000
C  -1.81200 14.12500 27.54200
C  -1.95300 11.23900 25.22700
C  -2.14100 12.07000 28.58900
O  -2.13800 10.86700 28.83000
C  -2.44400 13.14700 29.63900
C  -1.69200 12.71500 30.85900
O  -0.51000 12.51800 30.78900
O  -2.47400 12.53800 31.93800
C  -1.84200 12.30100 33.22700
H  -1.85400 20.16200 29.43900
H  -1.18200 19.76300 23.01500
H  -1.41700 13.37100 23.45900
H  -2.75500 15.96900 31.26800
H  -1.18100 18.42800 31.28200
H  -3.35300 19.35500 31.81400
H  -4.06900 17.70100 31.67300
H  -4.01300 18.88200 30.29700
H  0.33600 16.29000 30.96700
H  -0.47600 14.85900 31.64600
H  -1.09300 17.33300 33.18800
H  0.56600 17.30100 32.93900
H  -2.76800 22.93000 27.48300
H  -0.99500 23.05400 27.89700
H  -1.98100 22.10700 28.89000
H  -2.85900 23.73700 25.53900
H  -1.97400 24.32400 24.17600
H  -1.05800 24.10800 25.66400
H  -0.36200 17.82800 21.53100
H  -1.83700 15.43000 21.44900
H  -3.08800 18.38000 21.89900
H  -3.14000 17.06800 20.77500
H  -2.25400 18.58900 20.38400
H  0.66500 15.62800 20.61600
H  0.41800 14.10300 21.62400
H  1.25700 16.01100 23.42000
H  1.92700 16.63500 22.03500
H  2.33800 14.97200 22.40200
H  -2.20200 11.36400 24.17400
H  -2.80700 10.76100 25.70600
H  -1.08000 10.59900 25.36100
H  -3.49100 13.18000 29.94200
H  -0.76400 12.14600 33.19800
H  -2.29600 11.48900 33.79400
H  -1.99100 13.13500 33.91300
Mg -1.16100 34.78100 26.35200
C  -2.89600 32.97600 28.85900
C  -0.37100 37.14400 28.73200
C  0.16100 36.68900 23.88500
C  -2.68600 32.75600 23.90600
N  -1.68800 35.06600 28.51200
C  -2.27800 34.15300 29.31700
C  -2.17200 34.63400 30.78600
C  -1.73600 36.06200 30.74500
C  -1.20000 36.13900 29.23500
C  -2.81600 37.10400 31.05500
C  -1.28900 33.67400 31.66700
C  -2.01000 33.04100 32.93900
H  -1.07000 32.90600 34.22100
N  -0.18600 36.59200 26.33600
C  0.06200 37.38600 27.42200
C  0.74200 38.59800 26.90900
C  0.96200 38.42200 25.54100
C  0.35800 37.18500 25.21500
C  1.11900 39.75200 27.76200
C  1.75200 39.28400 24.52900
O  1.93500 39.04200 23.34700
C  2.23500 40.53000 24.93500
N  -1.43500 34.85000 24.16800
C  -0.58000 35.63400 23.37700
C  -0.73500 35.30200 21.93600
C  -1.50500 33.88700 22.06200
C  -1.90800 33.84400 23.48700
C  -1.45900 36.41300 21.05300
C  -0.58700 32.68200 21.66400
C  0.54100 32.28400 22.63000
N  -2.48300 33.15300 26.28000
C  -3.01600 32.47400 25.22100
C  -3.80700 31.37400 25.81500
C  -3.83600 31.50300 27.24500
C  -2.94200 32.61300 27.49100
C  -4.45500 30.36400 24.91400
C  -4.28000 31.02100 28.45700
O  -5.02200 30.11400 28.68700
C  -3.69500 31.99300 29.59000
C  -4.81200 32.60900 30.32700
O  -5.28100 33.61400 29.96300
O  -5.22600 31.84000 31.40100
C  -6.18700 32.57000 32.20600
H  -0.15100 37.86200 29.52500
H  0.48900 37.29500 23.03800
H  -2.99500 31.95100 23.23500
H  -3.15300 34.64600 31.26100
H  -0.95100 36.24800 31.47700
H  -2.82200 37.22400 32.13900
H  -3.75800 36.85200 30.57000
H  -2.45100 38.01600 30.58400
H  -0.47000 34.20800 32.15000
H  -0.89100 32.86100 31.06000
H  -2.54200 32.09600 32.82700
H  -2.76000 33.79300 33.18600
H  0.55500 39.86600 28.68700
H  1.02200 40.65200 27.15400
H  2.15900 39.58800 28.04200
H  2.78400 40.50300 25.87600
H  1.32400 41.11300 25.07300
H  2.84800 41.03900 24.19100
H  0.21000 35.02500 21.46900
H  -2.43200 33.81600 21.49200
H  -0.70100 36.73900 20.34100
H  -1.56500 37.33900 21.61800
H  -2.43400 36.10600 20.67300
H  -0.08900 32.95900 20.73400
H  -1.10700 31.73900 21.49900
H  0.50300 31.21700 22.85100
H  0.66400 33.01100 23.43300
H  1.36400 32.49900 21.94900
H  -5.38100 30.85200 24.60800
H  -4.72800 29.39300 25.32800
H  -3.78800 30.32100 24.05300
H  -3.02300 31.37900 30.19000
H  -5.68600 33.45700 32.59300
H  -6.44900 31.90200 33.02700
H  -7.10200 32.77200 31.64900

