158

Mg -2.66600 34.87500 26.90100
C  -4.32700 33.14200 29.52900
C  -1.81200 37.30000 29.02700
C  -1.20100 36.39000 24.24800
C  -4.26900 32.66900 24.64700
N  -3.09400 35.25800 29.07500
C  -3.67200 34.30500 29.94900
C  -3.33700 34.77400 31.34000
C  -2.74600 36.20200 31.21100
C  -2.51700 36.31900 29.69100
C  -3.73300 37.39300 31.60700
C  -2.47400 33.76200 32.07900
C  -3.27400 33.06400 33.26800
H  -2.28100 32.99000 34.59100
N  -1.57400 36.57200 26.66400
C  -1.36000 37.48200 27.70600
C  -0.50900 38.53800 27.17100
C  -0.41100 38.36500 25.74100
C  -1.13900 37.05100 25.50600
C  0.14400 39.63100 28.00800
C  0.21000 39.27000 24.67700
O  0.11500 39.01100 23.50000
C  1.00000 40.46000 25.02500
N  -2.81100 34.63200 24.77400
C  -2.02100 35.32100 23.87700
C  -2.09900 34.73900 22.47800
C  -2.84800 33.36400 22.73800
C  -3.37100 33.55100 24.16200
C  -2.77400 35.76600 21.53000
C  -2.13800 31.96200 22.73000
C  -0.93900 31.65800 23.66200
N  -3.97300 33.21100 27.01300
C  -4.57900 32.47700 26.02900
C  -5.22100 31.38600 26.55400
C  -5.26700 31.56100 27.93700
C  -4.46000 32.75000 28.15700
C  -5.98400 30.33800 25.69700
C  -5.67000 31.13600 29.29800
O  -6.34700 30.21900 29.72600
C  -5.02800 32.10700 30.34200
C  -6.11700 32.66500 31.19300
O  -6.75000 33.71600 30.98400
O  -6.26300 31.89900 32.37200
C  -7.41700 32.29200 33.22600
H  -1.30700 38.01400 29.68000
H  -0.53600 36.73100 23.45200
H  -4.60700 31.87800 23.97500
H  -4.32300 35.01100 31.74000
H  -1.81900 36.37700 31.75800
H  -4.14600 37.91500 30.74400
H  -3.20000 38.16300 32.16400
H  -4.47700 37.08200 32.34100
H  -1.61000 34.28100 32.49500
H  -2.16200 32.92600 31.45300
H  -3.57100 32.07900 32.90900
H  -4.17500 33.65300 33.43500
H  0.11100 39.36800 29.06500
H  -0.39400 40.54700 27.76700
H  1.20800 39.70700 27.78300
H  1.79100 40.01800 25.63000
H  0.27500 40.97100 25.65900
H  1.41300 40.94900 24.14300
H  -1.07400 34.59600 22.13900
H  -3.71700 33.22600 22.09400
H  -2.82700 36.77100 21.94800
H  -3.80600 35.47600 21.33500
H  -2.21300 35.87400 20.60100
H  -1.70400 31.76200 21.75000
H  -2.85800 31.14500 22.77100
H  -1.35800 30.87600 24.29600
H  -0.68800 32.59100 24.16600
H  -0.07700 31.22700 23.15300
H  -5.54400 30.20400 24.70900
H  -7.03600 30.61700 25.63500
H  -5.92900 29.36300 26.18100
H  -4.27700 31.61800 30.96100
H  -8.25800 32.68400 32.65300
H  -7.15400 33.17800 33.80400
H  -7.64600 31.50600 33.94500
Mg -11.56300 17.22000 42.10300
C  -8.44900 15.59100 42.15100
C  -10.06600 19.95500 40.89700
C  -14.64500 18.54200 41.57900
C  -13.06500 14.11800 42.71200
N  -9.47800 17.60300 41.56400
C  -8.36300 16.92500 41.77200
C  -7.12100 17.65300 41.12700
C  -7.66100 19.05700 41.08400
C  -9.18700 18.87100 41.16400
C  -7.05700 19.95200 42.12900
C  -6.75300 17.10300 39.72000
C  -5.18800 16.92300 39.57600
H  -4.84600 15.63500 38.79100
N  -12.25700 19.04000 41.42400
C  -11.47000 20.01600 40.97500
C  -12.25100 21.14900 40.45000
C  -13.61200 20.79500 40.74800
C  -13.58700 19.42300 41.32000
C  -11.62000 22.42700 39.87200
C  -14.83700 21.70100 40.65100
O  -14.69500 22.90600 40.34400
C  -16.33900 21.25000 41.03500
N  -13.59400 16.40900 41.86700
C  -14.64200 17.21800 41.88300
C  -15.97900 16.46900 42.25000
C  -15.45000 15.04100 42.56400
C  -13.95000 15.21500 42.44900
C  -16.81500 16.98300 43.53100
C  -15.94600 13.71600 41.79300
C  -16.55100 12.59900 42.61600
N  -10.91100 15.23200 42.34800
C  -11.64900 14.07900 42.52900
C  -10.78300 12.96700 42.60700
C  -9.48000 13.53900 42.40900
C  -9.63800 14.89200 42.32200
C  -11.18200 11.60500 43.02600
C  -8.06000 13.24100 42.32700
O  -7.43000 12.20300 42.31000
C  -7.36700 14.58800 42.17200
C  -6.32500 14.68800 43.31900
O  -6.58700 15.00000 44.46500
O  -5.10000 14.74700 42.72700
C  -3.94200 15.23500 43.45000
H  -9.38500 20.75500 40.60000
H  -15.67700 18.87000 41.44000
H  -13.56800 13.22100 43.07800
H  -6.29800 17.62500 41.84100
H  -7.35600 19.39400 40.09300
H  -6.11700 19.49600 42.44000
H  -7.76300 20.00300 42.95700
H  -6.78300 20.90800 41.68200
H  -7.08800 17.70000 38.87200
H  -7.31700 16.17200 39.65400
H  -4.58800 16.91800 40.48600
H  -4.91800 17.82200 39.02100
H  -10.58500 22.25800 39.57100
H  -11.61500 23.18500 40.65500
H  -12.22100 22.79300 39.04000
H  -16.98700 22.12400 40.98000
H  -16.23300 20.86100 42.04700
H  -16.70100 20.40000 40.45700
H  -16.55300 16.44800 41.32400
H  -15.53800 14.89500 43.64100
H  -17.79800 17.26000 43.14900
H  -16.48400 17.94800 43.91600
H  -16.90100 16.32700 44.39700
H  -15.04500 13.36000 41.29300
H  -16.76000 14.04000 41.14400
H  -17.35200 12.02700 42.14700
H  -16.96300 12.91800 43.57300
H  -15.79800 11.82800 42.78000
H  -11.69300 11.48100 43.98000
H  -10.22700 11.08600 43.11200
H  -11.70100 11.07800 42.22500
H  -6.86100 14.50900 41.21000
H  -4.25400 15.44900 44.47200
H  -3.52700 16.12000 42.96900
H  -3.22300 14.42100 43.36100

