158

Mg 3.01300 -0.68300 43.66000
C  6.31000 0.39700 43.25900
C  1.90100 2.09400 41.84600
C  -0.07000 -2.10400 43.41500
C  4.18900 -3.60800 45.03800
N  3.95700 0.91700 42.43400
C  5.30500 1.22000 42.56800
C  5.50800 2.63500 42.14600
C  4.18500 3.28700 42.06000
C  3.27400 2.02600 42.17900
C  3.86200 4.37400 43.14600
C  6.33900 2.78800 40.84000
C  5.81700 2.18600 39.54800
H  5.71700 3.16700 38.38300
N  1.08900 -0.02700 42.83600
C  0.85400 1.15400 42.16600
C  -0.54100 1.23100 41.83700
C  -1.17600 -0.05300 42.24700
C  -0.07600 -0.78200 42.94500
C  -1.11800 2.47700 41.21200
C  -2.56100 -0.44000 41.95200
O  -3.28900 0.32400 41.39500
C  -3.08000 -1.85100 42.23400
N  2.22300 -2.69100 44.04300
C  0.92600 -2.99700 43.95900
C  0.65600 -4.47600 44.13800
C  2.01000 -4.94300 44.69900
C  2.89700 -3.69800 44.59600
C  -0.57900 -4.78300 44.97300
C  2.74500 -6.13800 43.85900
C  3.59700 -7.08100 44.67800
N  4.94100 -1.52300 44.13600
C  5.23000 -2.55500 44.86200
C  6.64700 -2.61600 45.10500
C  7.12000 -1.46800 44.48500
C  6.01300 -0.80200 43.94500
C  7.33700 -3.64500 45.84400
C  8.27200 -0.66500 44.24500
O  9.46800 -0.82700 44.55700
C  7.80800 0.64600 43.43600
C  8.16100 1.86800 44.22500
O  8.79700 2.83700 43.83200
O  7.98400 1.64500 45.59400
C  8.56800 2.65400 46.45300
H  1.57000 2.96000 41.26900
H  -1.04400 -2.59900 43.39400
H  4.45000 -4.56200 45.50100
H  6.02600 3.10600 42.98200
H  4.09600 3.86600 41.14100
H  3.40600 5.19600 42.59300
H  4.76100 4.71800 43.65700
H  3.10700 4.05400 43.86400
H  7.28500 2.27600 41.01200
H  6.66400 3.80200 40.60800
H  4.82300 1.77600 39.72400
H  6.44800 1.32400 39.33400
H  -0.87700 2.52200 40.15000
H  -0.75500 3.38800 41.68800
H  -2.19300 2.57800 41.36400
H  -4.04700 -1.92900 41.73700
H  -3.19700 -2.08600 43.29200
H  -2.41500 -2.53300 41.70400
H  0.57500 -4.93700 43.15300
H  1.87600 -5.28200 45.72600
H  -1.16300 -3.92400 45.30200
H  -0.23200 -5.30300 45.86500
H  -1.28500 -5.38100 44.39700
H  3.29500 -5.80200 42.98000
H  2.02800 -6.80200 43.37500
H  3.30300 -8.11900 44.52700
H  3.66800 -6.82600 45.73600
H  4.61700 -7.06100 44.29300
H  7.57300 -4.56200 45.30500
H  6.60000 -3.92400 46.59700
H  8.21300 -3.21600 46.33100
H  8.34600 0.69200 42.48900
H  9.65700 2.68500 46.45300
H  8.28200 2.55500 47.50100
H  8.11500 3.59600 46.14400
Mg 0.01300 43.08800 25.84900
C  2.49700 42.98900 28.42700
C  -2.32500 42.39500 28.34500
C  -2.15100 42.92000 23.40100
C  2.66500 43.22600 23.51100
N  0.13800 42.60700 28.06600
C  1.23300 42.73000 28.93000
C  0.74000 42.61200 30.41000
C  -0.79400 42.19300 30.28700
C  -0.98500 42.36500 28.75500
C  -1.12000 40.78900 30.95400
C  1.08600 43.94000 31.20800
C  1.35000 43.75900 32.76300
H  0.88600 42.42800 33.42700
N  -2.04900 42.82300 25.85500
C  -2.82200 42.55100 26.95000
C  -4.17000 42.49600 26.49400
C  -4.19300 42.67200 25.05700
C  -2.78500 42.85100 24.69200
C  -5.28700 42.36600 27.47000
C  -5.39700 42.60000 24.09400
O  -5.23700 42.73400 22.89300
C  -6.79200 42.14400 24.50400
N  0.19500 43.24500 23.75300
C  -0.86300 43.05100 22.91600
C  -0.58100 43.11900 21.41700
C  1.00500 43.19500 21.42600
C  1.35300 43.24800 22.95100
C  -1.09700 41.94600 20.62700
C  1.78000 44.37900 20.62700
C  1.24100 45.84100 20.80300
N  2.13700 43.15000 25.88900
C  3.02200 43.23900 24.87800
C  4.32600 43.16800 25.39900
C  4.17300 43.12400 26.76500
C  2.84400 43.11900 27.05900
C  5.71300 43.24200 24.63100
C  4.88500 43.00800 28.04100
O  6.04200 42.80500 28.31600
C  3.77400 43.09200 29.19500
C  4.05800 41.91100 30.09100
O  3.85200 40.73000 29.88000
O  4.57700 42.42800 31.20600
C  4.61300 41.43000 32.35400
H  -3.05400 42.34300 29.15600
H  -2.93900 42.83100 22.65100
H  3.51300 43.07700 22.83800
H  1.36800 41.96100 31.01900
H  -1.41600 42.92700 30.79900
H  -0.30500 40.54400 31.63600
H  -1.29500 40.02100 30.20000
H  -2.07000 40.93800 31.46800
H  0.35600 44.73000 31.03200
H  2.02400 44.41700 30.92300
H  0.92800 44.61500 33.28800
H  2.43500 43.78600 32.85900
H  -6.23900 42.75900 27.11400
H  -5.10900 42.98100 28.35200
H  -5.52400 41.33600 27.74000
H  -7.07100 42.91000 25.22800
H  -6.74800 41.13300 24.90900
H  -7.48400 42.12900 23.66200
H  -0.91800 44.04200 20.94600
H  1.45400 42.21900 21.24500
H  -1.74600 41.41800 21.32600
H  -0.28600 41.33900 20.22400
H  -1.67300 42.29600 19.77000
H  1.77700 44.08700 19.57700
H  2.78000 44.54600 21.02800
H  0.58000 46.07900 19.97000
H  2.03500 46.56700 20.98000
H  0.74200 46.00000 21.75900
H  6.49100 43.53300 25.33700
H  5.72100 43.92300 23.78000
H  5.99200 42.27000 24.22400
H  3.93200 44.03200 29.72200
H  5.67800 41.31600 32.55700
H  4.21600 40.43100 32.17200
H  4.16000 41.90500 33.22400

