158

Mg -0.09100 8.13200 26.89000
C  0.50800 10.01900 29.62500
C  -0.20800 5.30400 28.87500
C  -0.34600 6.27500 24.04200
C  0.23900 10.98200 24.85100
N  0.12900 7.73700 28.96300
C  0.31500 8.69300 29.90800
C  0.23800 8.03500 31.37800
C  0.29300 6.47400 31.09100
C  0.09200 6.49700 29.53000
C  1.65500 5.67600 31.41300
C  -1.11300 8.41500 32.05600
C  -1.19400 8.37600 33.60100
H  0.02600 7.92000 34.43900
N  -0.40900 6.13800 26.47400
C  -0.33500 5.13300 27.46600
C  -0.56300 3.84000 26.80900
C  -0.64300 4.06000 25.38700
C  -0.43700 5.53700 25.21000
C  -0.66400 2.49100 27.51700
C  -0.90400 3.07200 24.21600
O  -0.92200 3.44000 23.08900
C  -1.28500 1.66400 24.57400
N  -0.10800 8.58600 24.84900
C  -0.25400 7.64500 23.84100
C  -0.17600 8.32500 22.39400
C  -0.34000 9.80700 22.72100
C  0.00900 9.79500 24.19700
C  1.18200 8.11800 21.64600
C  -1.64400 10.48700 22.32500
C  -2.99900 9.80900 22.47200
N  0.40600 10.11700 27.17300
C  0.48700 11.17000 26.25200
C  0.86500 12.32700 26.99100
C  0.98000 11.91500 28.29900
C  0.58800 10.60200 28.35100
C  1.17900 13.66900 26.36900
C  1.27500 12.32900 29.65400
O  1.65900 13.46200 30.06000
C  0.84900 11.15200 30.55300
C  2.11900 10.85000 31.37700
O  3.14400 10.33100 30.98800
O  1.90200 11.13200 32.68600
C  2.90900 10.63000 33.63200
H  -0.27100 4.40500 29.49200
H  -0.24200 5.66200 23.14400
H  0.24200 11.85700 24.19700
H  1.14400 8.32000 31.91400
H  -0.45700 5.82900 31.54900
H  1.53200 4.72600 31.93300
H  2.25500 6.35500 32.01900
H  2.20500 5.46600 30.49600
H  -1.92000 7.78300 31.68500
H  -1.44100 9.42700 31.81500
H  -2.10200 7.84100 33.87600
H  -1.35600 9.41300 33.89500
H  -1.65400 2.06700 27.68300
H  -0.16200 2.62700 28.47600
H  -0.05300 1.74000 27.01600
H  -0.40000 1.07300 24.80800
H  -1.62500 1.25000 23.62400
H  -2.01800 1.74200 25.37600
H  -0.95400 8.03000 21.69000
H  0.43600 10.35300 22.18400
H  1.09100 7.33900 20.88900
H  1.97600 7.78000 22.31200
H  1.44400 8.92600 20.96400
H  -1.44800 10.70400 21.27500
H  -1.72600 11.39900 22.91600
H  -3.31600 9.53100 21.46700
H  -3.71000 10.49100 22.94000
H  -2.88600 8.95000 23.13300
H  1.20700 14.48400 27.09200
H  0.58900 14.01300 25.51900
H  2.16700 13.40800 25.98900
H  0.03400 11.47000 31.20300
H  2.73700 11.06900 34.61500
H  3.95100 10.78800 33.35300
H  2.67900 9.57300 33.76600
Mg 49.09800 34.02500 26.15000
C  46.96900 33.11900 28.78700
C  49.39900 37.13600 27.56800
C  50.83400 35.10200 23.42200
C  48.20500 31.13000 24.44000
N  48.06600 35.06700 27.95700
C  47.57400 34.39900 29.05200
C  47.43300 35.28000 30.26600
C  48.02500 36.66000 29.76500
C  48.53000 36.29000 28.31100
C  47.12000 37.83300 30.00300
C  48.08300 34.79700 31.59300
C  47.18700 35.02400 32.84400
H  47.54500 36.17100 33.82200
N  50.00500 35.87700 25.60700
C  50.03700 37.01500 26.32400
C  50.82000 37.96100 25.76400
C  51.27700 37.42300 24.50600
C  50.66200 36.06400 24.44500
C  51.17400 39.27300 26.38400
C  52.15700 38.09100 23.48300
O  52.43200 37.56100 22.45400
C  52.94600 39.34600 23.74200
N  49.47800 33.16700 24.16000
C  50.30200 33.79000 23.29200
C  50.68700 32.90100 22.12400
C  49.63400 31.70000 22.27700
C  49.06700 31.93300 23.68100
C  50.44800 33.52200 20.68900
C  50.17500 30.22200 22.03400
C  50.97900 29.93500 20.78000
N  47.88800 32.38200 26.57100
C  47.59400 31.30600 25.75600
C  46.68000 30.38800 26.45300
C  46.44800 31.07900 27.67800
C  47.12900 32.30600 27.69200
C  46.25700 28.93100 25.95000
C  45.75400 30.97100 28.91000
O  45.05200 30.05400 29.35900
C  45.98900 32.32100 29.60100
C  46.22900 31.98000 31.05100
O  47.29700 31.71900 31.52900
O  45.09100 31.98900 31.77400
C  45.19900 31.67400 33.25700
H  49.72100 37.96800 28.19800
H  51.45500 35.47300 22.60400
H  48.00000 30.16600 23.97000
H  46.35400 35.36400 30.38900
H  48.90500 37.05100 30.27600
H  46.16900 37.45300 30.37800
H  46.97100 38.26300 29.01200
H  47.55200 38.59000 30.65700
H  48.78500 35.61600 31.75100
H  48.48900 33.79300 31.46800
H  47.01800 34.09900 33.39400
H  46.18000 35.31900 32.54900
H  50.75300 39.53800 27.35400
H  50.91500 40.16600 25.81700
H  52.24900 39.19800 26.54900
H  53.47400 39.26600 24.69200
H  52.23500 40.14300 23.95900
H  53.64700 39.63000 22.95800
H  51.72300 32.57800 22.23500
H  48.78100 31.84400 21.61300
H  50.05400 32.79900 19.97600
H  51.42200 33.70000 20.23400
H  49.84100 34.42700 20.64600
H  49.23300 29.68800 21.90900
H  50.56300 29.72800 22.92500
H  50.54800 29.20900 20.09100
H  51.96700 29.55400 21.03800
H  51.16800 30.88200 20.27400
H  46.81300 28.22400 26.56700
H  46.29500 28.73900 24.87800
H  45.24100 28.75300 26.30300
H  44.98300 32.71600 29.46000
H  45.52300 32.64200 33.64000
H  46.01300 31.00900 33.54400
H  44.26500 31.32100 33.69400

