158

Mg 47.43800 34.02200 26.57300
C  45.91600 32.81200 29.40000
C  47.88200 37.01200 28.28900
C  48.55000 35.49500 23.59000
C  46.62200 31.19000 24.69200
N  47.02100 34.80000 28.59500
C  46.44400 34.07900 29.60200
C  46.70100 34.73000 30.93100
C  46.97600 36.22600 30.52300
C  47.35500 35.99700 29.05800
C  45.73100 37.22600 30.66100
C  47.86800 34.07100 31.65500
C  47.85000 34.32200 33.16400
H  46.67500 35.09900 33.68800
N  48.17400 35.99700 26.05600
C  48.33700 36.99400 26.93900
C  49.11500 38.07600 26.31300
C  49.22200 37.69200 24.92100
C  48.67400 36.33400 24.79200
C  49.42700 39.41200 26.96800
C  49.95300 38.45000 23.78000
O  50.15300 37.98700 22.68000
C  50.32600 39.95100 24.06400
N  47.24500 33.50100 24.38300
C  48.03500 34.16500 23.45800
C  48.24300 33.41400 22.10400
C  47.66900 32.03600 22.53500
C  47.16700 32.23900 23.95000
C  47.59100 34.12900 20.89600
C  48.66100 30.80400 22.44200
C  49.76700 30.62900 23.50700
N  46.42900 32.37600 26.89200
C  46.23800 31.26200 26.10000
C  45.62400 30.20100 26.92100
C  45.43900 30.83200 28.19500
C  45.94700 32.12100 28.16500
C  45.27700 28.86900 26.48000
C  44.84800 30.63800 29.42700
O  44.06300 29.73400 29.73100
C  45.01400 31.86500 30.31300
C  45.41600 31.39700 31.61300
O  46.52100 31.13700 31.99000
O  44.29400 31.32500 32.40500
C  44.37600 31.41200 33.90200
H  48.32700 37.75800 28.95100
H  49.10700 35.80700 22.70400
H  46.54500 30.28200 24.09100
H  45.74900 34.66700 31.45900
H  47.88100 36.51500 31.05800
H  44.86500 36.77600 31.14700
H  45.50300 37.61500 29.66900
H  45.96300 38.09000 31.28300
H  48.82700 34.34100 31.21400
H  47.86200 32.98300 31.57900
H  48.69100 34.93200 33.49500
H  47.93500 33.30900 33.55700
H  50.50800 39.47700 27.08700
H  48.98500 39.53800 27.95700
H  49.16100 40.28700 26.37400
H  50.72900 40.28800 23.10900
H  51.14100 39.87600 24.78400
H  49.48300 40.55000 24.40700
H  49.31300 33.48700 21.91100
H  46.85500 31.86800 21.82900
H  46.87400 33.44000 20.45000
H  48.40900 34.32600 20.20300
H  47.11400 35.06900 21.17400
H  49.13500 30.98000 21.47600
H  48.09500 29.87600 22.36700
H  50.70200 30.94900 23.04500
H  49.86100 29.62100 23.91200
H  49.55100 31.35200 24.29400
H  46.19200 28.55300 25.97800
H  44.52600 28.90800 25.69100
H  44.88300 28.21800 27.26000
H  44.00000 32.25400 30.41300
H  44.80900 30.49600 34.30400
H  43.38700 31.61400 34.31400
H  45.00500 32.26200 34.16800
Mg 35.28400 49.15200 24.92200
C  35.77100 47.24700 27.85700
C  34.79600 51.86200 26.85200
C  34.80600 50.81600 22.11000
C  36.21500 46.29700 23.09800
N  35.05500 49.44100 27.10000
C  35.45400 48.59500 28.09200
C  35.38800 49.30500 29.44800
C  35.26000 50.82300 29.10100
C  35.06300 50.72000 27.58200
C  34.00600 51.54300 29.75600
C  36.64300 48.94900 30.33000
C  36.38300 48.35100 31.75000
H  34.94900 48.41300 32.32900
N  34.86100 51.04900 24.57700
C  34.64900 52.04100 25.45200
C  34.49000 53.33400 24.82000
C  34.38400 53.01700 23.42900
C  34.72100 51.57200 23.30600
C  34.41600 54.60800 25.66900
C  34.10600 53.92200 22.30400
O  34.26000 53.59800 21.17400
C  33.74700 55.39300 22.40500
N  35.21900 48.53800 22.87500
C  35.15800 49.46200 21.87800
C  35.64900 48.91800 20.51300
C  36.49500 47.63000 20.98500
C  35.99800 47.48700 22.44300
C  34.32400 48.53000 19.68800
C  38.09000 47.67800 20.90500
C  38.84200 46.39700 20.35000
N  35.77400 47.18900 25.30900
C  36.14500 46.16100 24.44900
C  36.70600 45.01500 25.16400
C  36.50400 45.35000 26.56800
C  35.95400 46.67300 26.58400
C  37.23100 43.80200 24.50600
C  36.60700 44.85800 27.88600
O  37.07300 43.79600 28.37100
C  36.17500 46.10100 28.81900
C  35.08900 45.56800 29.67200
O  33.91200 45.51200 29.35700
O  35.59000 44.83200 30.76100
C  34.50700 44.25400 31.57000
H  34.63600 52.80800 27.37300
H  34.42700 51.30700 21.21100
H  36.55000 45.41000 22.55500
H  34.43200 48.90300 29.78200
H  36.22200 51.31000 29.26000
H  34.28800 52.47800 30.24000
H  33.56200 50.90900 30.52300
H  33.33400 51.93200 28.99100
H  37.09000 49.90500 30.60600
H  37.39500 48.36400 29.80100
H  37.02300 48.79100 32.51500
H  36.88700 47.38600 31.80400
H  34.25700 55.48600 25.04200
H  35.40800 54.77200 26.08800
H  33.66900 54.40500 26.43700
H  32.89600 55.55600 23.06800
H  33.43500 55.68400 21.40200
H  34.65400 55.91500 22.71000
H  36.39100 49.62200 20.13700
H  36.37500 46.71200 20.40900
H  33.53800 49.16600 20.09500
H  34.06300 47.48500 19.85900
H  34.52600 48.77800 18.64700
H  38.47700 47.94400 21.88900
H  38.25000 48.49300 20.19900
H  39.91900 46.55400 20.28800
H  38.57800 46.12000 19.32900
H  38.61000 45.46100 20.85800
H  37.94300 44.17900 23.77100
H  36.30500 43.34200 24.16100
H  37.75600 43.28400 25.30800
H  37.04500 46.22500 29.46400
H  33.95900 43.48000 31.03200
H  33.90300 45.02500 32.04600
H  35.15300 43.63800 32.19500

