158

Mg 1.74500 -1.77100 44.51400
C  5.13800 -1.19800 43.69000
C  0.91300 0.61700 42.30800
C  -1.42300 -2.88600 44.75000
C  2.91300 -4.50800 46.35200
N  2.90800 -0.53300 42.94000
C  4.28100 -0.46600 42.88300
C  4.60200 0.65900 41.88300
C  3.28900 1.41200 41.68100
C  2.29500 0.46200 42.29900
C  3.11000 2.82500 42.28500
C  5.38200 0.20700 40.63600
C  6.48300 1.11800 40.16200
H  7.04400 0.90900 38.72000
N  -0.00700 -1.22500 43.62800
C  -0.18600 -0.10300 42.82700
C  -1.59000 0.13200 42.64300
C  -2.24500 -0.90800 43.29600
C  -1.19000 -1.73800 43.91200
C  -2.21100 1.25800 41.88100
C  -3.69200 -0.96300 43.40800
O  -4.43500 -0.13100 42.86800
C  -4.47500 -1.96200 44.24900
N  0.91900 -3.49900 45.29300
C  -0.46800 -3.71300 45.30400
C  -0.77500 -4.83400 46.33400
C  0.61400 -5.49800 46.53200
C  1.58600 -4.42900 46.03000
C  -1.53300 -4.37700 47.63200
C  0.88700 -6.88000 45.84300
C  1.35500 -8.01100 46.71800
N  3.62000 -2.54000 45.16200
C  3.93900 -3.57500 45.96400
C  5.42000 -3.79200 46.06900
C  5.92800 -2.86200 45.24700
C  4.79000 -2.11500 44.64800
C  6.11500 -4.87000 46.72600
C  7.17200 -2.31000 44.67400
O  8.31600 -2.61100 44.89100
C  6.67600 -1.11600 43.73900
C  7.15100 0.16900 44.41000
O  6.61200 0.78500 45.28800
O  8.35100 0.52500 43.85400
C  8.96800 1.78400 44.31900
H  0.58600 1.50500 41.76300
H  -2.45200 -3.17000 44.98400
H  3.12200 -5.39700 46.95100
H  5.20000 1.44500 42.34500
H  3.08500 1.56400 40.62100
H  3.65700 3.68700 41.90500
H  3.35800 2.68100 43.33700
H  2.07700 3.07800 42.04700
H  4.68700 0.25700 39.79800
H  5.77800 -0.80400 40.72700
H  7.28900 1.01400 40.88800
H  6.11100 2.12800 40.33800
H  -2.76600 1.96600 42.49500
H  -2.92600 0.76600 41.22200
H  -1.41900 1.77800 41.34100
H  -5.51300 -1.89800 43.92200
H  -4.37300 -1.96300 45.33400
H  -4.31600 -2.98900 43.92100
H  -1.47800 -5.50500 45.83900
H  0.90900 -5.63300 47.57300
H  -1.09200 -4.72900 48.56500
H  -2.51100 -4.85400 47.57900
H  -1.59400 -3.31900 47.38000
H  1.58400 -6.81100 45.00800
H  -0.03700 -7.24400 45.39600
H  1.30500 -7.84500 47.79400
H  2.42600 -8.01500 46.51900
H  0.84000 -8.93200 46.44300
H  6.21600 -4.71500 47.80000
H  7.09100 -5.03200 46.26800
H  5.56300 -5.77900 46.48500
H  7.17500 -1.12700 42.76900
H  8.34000 2.58500 43.92900
H  9.88400 1.96100 43.75500
H  9.10700 1.98500 45.38200
Mg 0.99800 7.30000 25.59100
C  1.78500 9.13200 28.45600
C  1.20400 4.40700 27.40900
C  0.92000 5.72800 22.71500
C  1.35600 10.34700 23.79200
N  1.32800 6.86900 27.76500
C  1.57200 7.78900 28.80100
C  1.56400 6.97900 30.19500
C  1.58000 5.48400 29.71900
C  1.38100 5.58300 28.20100
C  2.97400 4.74700 30.11900
C  0.43300 7.39600 31.03300
C  0.81500 7.87300 32.42900
H  2.11000 7.47100 33.17900
N  0.88000 5.31700 25.11300
C  0.93500 4.26200 25.97500
C  0.78500 3.06800 25.22300
C  0.78400 3.38500 23.84500
C  0.88100 4.84600 23.85800
C  0.59300 1.70200 25.89500
C  0.64800 2.46600 22.68000
O  0.49900 2.91200 21.54200
C  0.52900 0.91200 22.79300
N  1.06200 7.94200 23.46900
C  1.01600 7.14000 22.45900
C  0.92000 7.78900 21.12800
C  0.66400 9.32400 21.52600
C  1.05300 9.24400 23.02200
C  2.22300 7.54200 20.17900
C  -0.77800 9.95300 21.27700
C  -0.86300 11.39300 20.73600
N  1.45500 9.31600 25.94700
C  1.53300 10.45800 25.14000
C  1.89800 11.66900 25.91600
C  2.00000 11.10300 27.19600
C  1.73300 9.71700 27.19100
C  1.87700 13.21300 25.51900
C  2.19000 11.53200 28.58800
O  2.40100 12.63300 29.10100
C  1.99300 10.22800 29.45000
C  3.08600 10.08600 30.37900
O  4.16400 9.58100 30.14600
O  2.78500 10.55400 31.63900
C  4.05000 10.80200 32.45900
H  1.23900 3.51300 28.03500
H  0.78000 5.19400 21.77300
H  1.55600 11.28100 23.26100
H  2.50700 7.17000 30.70700
H  0.83300 4.84600 30.19000
H  3.64000 5.36300 30.72200
H  3.48700 4.53900 29.18000
H  2.85400 3.88400 30.77400
H  -0.30300 6.59300 30.99900
H  0.07200 8.35000 30.64700
H  -0.01300 7.93900 33.13500
H  1.00200 8.94600 32.41600
H  -0.29500 1.30800 25.40000
H  0.41400 1.78100 26.96700
H  1.41900 1.03300 25.65200
H  1.44300 0.59500 23.29500
H  0.57300 0.44000 21.81100
H  -0.39600 0.63400 23.29900
H  0.08200 7.38700 20.55800
H  1.40400 9.89600 20.96700
H  2.23600 7.93300 19.16200
H  2.49300 6.48600 20.14900
H  2.98100 8.14200 20.68300
H  -1.46100 9.71400 22.09300
H  -1.30100 9.32700 20.55500
H  -1.22300 11.48800 19.71100
H  0.14200 11.81400 20.70800
H  -1.61200 11.85800 21.37700
H  2.88300 13.60400 25.36900
H  1.35900 13.73200 26.32500
H  1.32400 13.43100 24.60500
H  1.07000 10.33900 30.01900
H  4.77200 11.28600 31.80200
H  4.54600 9.88100 32.76400
H  3.91500 11.45500 33.32200

