158

Mg 2.05900 -1.16300 43.67400
C  5.52100 -0.33600 43.04500
C  1.19700 1.74700 42.13400
C  -1.04200 -2.37000 43.41600
C  3.24300 -4.20500 44.83300
N  3.23000 0.51400 42.77000
C  4.57600 0.64000 42.55800
C  5.02600 1.96300 41.91300
C  3.63700 2.71500 41.93800
C  2.57900 1.55800 42.25600
C  3.52100 3.93100 42.92100
C  5.66500 1.87400 40.46100
C  6.91100 2.68700 40.11900
H  6.93100 3.61000 38.94400
N  0.27900 -0.35100 43.02000
C  0.11300 0.86300 42.40500
C  -1.23200 1.01400 42.05100
C  -1.94000 -0.10200 42.49800
C  -0.92900 -1.06500 43.01600
C  -1.81800 2.17300 41.43600
C  -3.46200 -0.30000 42.44700
O  -4.20400 0.49700 41.91200
C  -4.18200 -1.45100 43.06700
N  1.26200 -3.08000 43.96800
C  -0.04600 -3.29700 43.93800
C  -0.42400 -4.74600 44.43200
C  0.98600 -5.26000 44.96300
C  1.91500 -4.17400 44.48100
C  -1.67200 -4.83500 45.32800
C  1.34300 -6.64400 44.23400
C  2.00900 -7.70400 45.21600
N  4.00300 -2.12100 43.97900
C  4.28700 -3.28300 44.57900
C  5.69400 -3.34100 44.82500
C  6.23100 -2.25500 44.21600
C  5.16600 -1.55300 43.71500
C  6.45300 -4.36500 45.64600
C  7.48700 -1.53900 43.96100
O  8.65200 -1.72200 44.30500
C  7.03800 -0.42700 43.02100
C  7.75200 0.85300 43.34800
O  8.45400 1.42700 42.53500
O  7.48100 1.35100 44.57100
C  7.93000 2.72900 44.82900
H  0.94900 2.75200 41.78700
H  -2.10900 -2.60400 43.40400
H  3.49800 -5.15200 45.31300
H  5.61000 2.42400 42.71000
H  3.22300 3.06100 40.99100
H  4.51200 4.19000 43.29400
H  2.81900 3.71200 43.72600
H  3.18100 4.79700 42.35500
H  4.94500 2.14700 39.69000
H  5.92400 0.82200 40.34600
H  7.69700 1.96700 39.89400
H  7.11300 3.32600 40.97900
H  -2.53000 1.88800 40.66200
H  -1.14600 2.84600 40.90400
H  -2.22100 2.73700 42.27600
H  -5.21900 -1.16700 43.24500
H  -3.79400 -1.71000 44.05200
H  -4.04700 -2.28100 42.37400
H  -0.56700 -5.21900 43.46000
H  1.08700 -5.24400 46.04800
H  -1.38100 -5.43400 46.19100
H  -2.56100 -5.26000 44.86400
H  -1.92200 -3.85000 45.72100
H  2.04100 -6.45100 43.41900
H  0.48700 -7.08000 43.72000
H  1.45800 -8.64400 45.17900
H  2.15400 -7.34300 46.23400
H  2.98400 -7.95900 44.80200
H  5.95100 -5.32200 45.50700
H  6.31100 -3.98900 46.65900
H  7.52500 -4.45700 45.47100
H  7.41600 -0.71900 42.04000
H  7.36400 3.37600 44.16000
H  8.98100 2.87800 44.58000
H  7.65600 3.08400 45.82300
Mg 54.20100 23.45400 44.32600
C  51.40700 25.25600 43.35000
C  52.92300 20.63700 42.95600
C  57.30700 21.97400 44.58700
C  55.55000 26.49800 45.38200
N  52.44800 23.07900 43.26500
C  51.37900 23.93800 43.01600
C  50.36400 23.30200 42.09700
C  50.64300 21.75600 42.34700
C  52.14600 21.80800 42.91100
C  49.70700 21.12100 43.37000
C  50.71200 23.52400 40.62800
C  49.58300 23.99000 39.68200
H  49.51500 23.27700 38.33300
N  55.06500 21.52700 43.83000
C  54.29400 20.45500 43.43100
C  55.21600 19.31000 43.27700
C  56.56800 19.66900 43.64000
C  56.33500 21.11500 44.02900
C  54.71900 17.95800 42.80700
C  57.83800 18.82300 43.55900
O  57.78700 17.65500 43.16700
C  59.20500 19.38800 43.91300
N  56.19100 24.20600 44.82800
C  57.33000 23.37900 44.87000
C  58.53000 24.17200 45.35900
C  57.95400 25.62000 45.59500
C  56.49600 25.43000 45.21200
C  59.50300 23.62900 46.49400
C  58.70500 26.72800 44.69800
C  58.90400 28.13900 45.21600
N  53.62400 25.50900 44.51400
C  54.22000 26.64900 45.08100
C  53.26500 27.74300 45.15900
C  52.16400 27.23300 44.43000
C  52.41700 25.90800 44.01500
C  53.51900 29.05200 45.87900
C  50.88300 27.66800 43.89000
O  50.26600 28.75300 44.02800
C  50.40000 26.37700 43.09700
C  50.48700 26.81800 41.67600
O  51.45300 26.93400 41.02500
O  49.13600 27.16300 41.32200
C  49.05400 27.72300 39.92800
H  52.43800 19.75000 42.54400
H  58.26100 21.56700 44.93000
H  56.02300 27.43600 45.68000
H  49.32500 23.58700 42.26700
H  50.64100 21.14600 41.44400
H  50.09000 21.25100 44.38300
H  49.53400 20.05500 43.21800
H  48.72500 21.57200 43.22800
H  50.93900 22.59000 40.11400
H  51.52400 24.25100 40.62200
H  49.60200 25.00100 39.27400
H  48.58700 23.86600 40.10500
H  54.00000 18.09400 41.99900
H  54.29500 17.44800 43.67200
H  55.53900 17.39500 42.36200
H  59.32800 20.20400 43.20000
H  60.03000 18.68000 43.83600
H  59.22400 19.80900 44.91800
H  59.15800 24.11700 44.46900
H  58.05200 25.89600 46.64600
H  59.51200 22.54100 46.42300
H  59.15800 23.94900 47.47800
H  60.51200 23.98100 46.28100
H  58.15700 26.75800 43.75600
H  59.68300 26.28200 44.51900
H  58.92600 28.71300 44.29000
H  59.82600 28.33000 45.76600
H  58.00600 28.40700 45.77300
H  54.59200 29.19600 45.99700
H  53.01600 29.20800 46.83300
H  53.21100 29.82400 45.17400
H  49.36400 26.10900 43.30200
H  49.98100 27.78900 39.35800
H  48.80300 28.75800 40.15900
H  48.31100 27.23400 39.29900

