158

Mg 54.38700 24.04100 44.90000
C  51.53100 26.11600 44.17500
C  52.32800 21.32400 44.07200
C  57.02100 22.07800 44.60800
C  56.23200 26.90600 45.27800
N  52.20100 23.79400 44.10500
C  51.31600 24.73000 43.90900
C  50.03100 24.09800 43.44000
C  50.15700 22.55000 43.75100
C  51.66900 22.51100 44.06500
C  49.24700 22.02000 44.95300
C  49.75000 24.31900 41.94100
C  50.95200 24.25600 40.88600
H  51.93800 23.05800 40.75600
N  54.68400 21.88600 44.49100
C  53.69600 20.96500 44.26900
C  54.35800 19.66100 44.17000
C  55.72000 19.86300 44.59200
C  55.87000 21.32600 44.62500
C  53.64300 18.34000 43.81900
C  56.80900 18.77000 44.70500
O  56.56500 17.59900 44.46900
C  58.24200 19.10400 45.05100
N  56.32900 24.45800 44.69000
C  57.28400 23.47700 44.67200
C  58.66900 24.09000 45.04700
C  58.41000 25.62500 44.97000
C  56.89600 25.67600 44.99700
C  59.15400 23.61400 46.51300
C  58.97100 26.24000 43.71700
C  58.80500 25.58600 42.25700
N  53.98600 26.11800 44.69900
C  54.84700 27.13000 45.02200
C  54.09000 28.30300 45.25100
C  52.82100 27.97300 44.90400
C  52.77500 26.62800 44.57700
C  54.63400 29.58300 45.81800
C  51.41600 28.49700 44.70900
O  50.91500 29.62200 44.89300
C  50.56000 27.26300 44.21800
C  50.17800 27.58900 42.88500
O  50.92300 27.78600 41.91900
O  48.83000 27.88700 42.96200
C  48.37100 28.62400 41.74500
H  51.78200 20.42500 43.78200
H  57.93200 21.48300 44.52300
H  56.86100 27.75500 45.55300
H  49.11700 24.38300 43.96000
H  49.89900 22.02500 42.83200
H  48.72800 21.16800 44.51400
H  48.50200 22.71500 45.34200
H  49.88700 21.64900 45.75400
H  49.16900 25.23800 41.86500
H  49.00000 23.62500 41.56300
H  51.50300 25.14600 41.18900
H  50.65000 24.46100 39.85900
H  54.22000 17.68000 43.17100
H  52.65000 18.53300 43.41200
H  53.51300 17.89300 44.80400
H  58.72300 19.43300 44.13000
H  58.70900 18.12900 45.18500
H  58.39800 19.78800 45.88600
H  59.41500 23.71900 44.34300
H  58.79600 26.25100 45.77400
H  58.48800 22.79600 46.78800
H  59.07700 24.29100 47.36400
H  60.14800 23.18800 46.37900
H  59.98600 26.54800 43.96500
H  58.43100 27.17300 43.55500
H  58.06800 26.20000 41.73900
H  58.45000 24.55500 42.25800
H  59.77500 25.65400 41.76400
H  54.00000 30.41600 45.51200
H  55.66200 29.77500 45.51300
H  54.54600 29.57100 46.90500
H  49.61700 26.97700 44.68500
H  47.44600 29.18700 41.87100
H  48.21600 27.92500 40.92300
H  49.13900 29.26100 41.30800
Mg 36.01100 49.90900 24.72400
C  36.18100 48.11200 27.74500
C  34.63000 52.52500 26.40700
C  35.39700 51.44200 21.67500
C  36.71900 46.89400 23.06800
N  35.68800 50.37400 26.87800
C  35.70900 49.47400 27.88400
C  35.40700 50.19500 29.23700
C  34.73800 51.57700 28.77400
C  35.01500 51.49500 27.24200
C  33.25100 51.77000 29.22700
C  36.60200 50.33800 30.13500
C  36.50900 49.90700 31.62200
H  35.07600 49.63100 32.17200
N  35.20200 51.76500 24.15500
C  34.75400 52.69500 24.98500
C  34.43400 53.96600 24.31300
C  34.73800 53.69900 22.96000
C  35.07500 52.25900 22.85300
C  33.82500 55.21300 24.96700
C  34.68300 54.70300 21.84100
O  34.94700 54.42800 20.65600
C  34.40800 56.16200 21.95100
N  36.03900 49.26100 22.74000
C  35.85600 50.11900 21.68500
C  36.19400 49.36900 20.36400
C  36.66700 48.01100 20.84100
C  36.45000 48.00000 22.33500
C  34.96200 49.24400 19.43700
C  38.11000 47.78500 20.46200
C  39.19000 48.76800 20.96200
N  36.43000 47.96100 25.23600
C  36.68800 46.84500 24.50000
C  37.11400 45.70200 25.32900
C  36.94300 46.20700 26.56400
C  36.41600 47.48500 26.45700
C  37.61400 44.29200 25.01000
C  37.04600 45.86800 27.97400
O  37.42200 44.85300 28.52600
C  36.46500 47.09200 28.83200
C  35.36600 46.63400 29.66300
O  34.18800 46.87600 29.42700
O  35.84800 45.84500 30.72800
C  34.92800 45.16100 31.63200
H  34.32900 53.43100 26.93600
H  35.39000 51.99800 20.73600
H  37.00500 45.97800 22.54700
H  34.64200 49.57300 29.70000
H  35.35200 52.39500 29.15100
H  32.74800 51.00900 29.82400
H  32.73700 51.95300 28.28300
H  33.20400 52.70900 29.77800
H  37.00600 51.35100 30.14300
H  37.31800 49.65500 29.67700
H  36.94800 50.62900 32.31000
H  37.11300 49.00100 31.67700
H  34.61700 55.71700 25.52100
H  33.09000 54.88900 25.70400
H  33.28200 55.83700 24.25700
H  34.83400 56.77600 21.15800
H  34.92000 56.56900 22.82300
H  33.35100 56.42500 21.99800
H  36.87900 50.07200 19.88900
H  36.13900 47.14900 20.43100
H  34.32900 50.13100 19.40400
H  34.32000 48.39900 19.68800
H  35.35100 49.13900 18.42400
H  38.04800 47.93700 19.38500
H  38.53200 46.80300 20.67600
H  39.89300 48.25500 21.61900
H  38.78600 49.64400 21.46900
H  39.69900 49.19600 20.09900
H  36.97400 43.61100 25.57100
H  38.65700 44.00700 25.15300
H  37.53100 44.11900 23.93700
H  37.32000 47.43600 29.41400
H  33.99200 44.88100 31.15000
H  34.74900 45.79600 32.49900
H  35.41500 44.24000 31.95400

