158

Mg 26.26400 1.18600 28.16600
C  27.85800 0.89100 31.24900
C  23.27900 1.69800 29.93300
C  24.66000 1.15800 25.28500
C  29.18500 0.24300 26.57700
N  25.67800 1.34400 30.39700
C  26.52300 1.35200 31.42400
C  25.79300 1.57100 32.74500
C  24.30600 1.73700 32.29300
C  24.43900 1.68300 30.78400
C  23.34100 0.70800 32.88500
C  26.32200 2.69800 33.78700
C  26.68900 2.36000 35.21500
H  26.56500 3.41200 36.33800
N  24.25200 1.34500 27.66500
C  23.17900 1.58600 28.54200
C  21.99200 1.74300 27.79300
C  22.30000 1.55000 26.40400
C  23.77800 1.28300 26.37700
C  20.57800 1.95500 28.35700
C  21.38100 1.45900 25.14400
O  21.76000 1.19900 24.02300
C  19.92500 1.82900 25.30100
N  26.85200 0.77000 26.18800
C  26.00500 1.04000 25.16000
C  26.81000 0.93300 23.79000
C  28.25300 0.53000 24.17900
C  28.14000 0.55200 25.71500
C  26.13900 0.01900 22.73100
C  29.38600 1.58100 23.77900
C  29.65300 1.71100 22.27600
N  28.09500 0.67000 28.76000
C  29.16500 0.24700 28.00400
C  30.23900 -0.20300 28.86600
C  29.81500 0.15600 30.15400
C  28.48300 0.68500 30.01100
C  31.59900 -0.70500 28.40800
C  30.16800 0.09900 31.56800
O  31.20800 -0.19800 32.13600
C  28.91400 0.63500 32.28500
C  28.56700 -0.29000 33.35000
O  27.64600 -1.08000 33.35200
O  29.37100 -0.11400 34.47800
C  29.05300 -0.85200 35.61800
H  22.32300 1.81500 30.44900
H  24.16900 1.16100 24.31000
H  30.09900 -0.10700 26.09300
H  25.87300 0.56000 33.14300
H  23.91000 2.73600 32.47500
H  23.84400 0.12600 33.65600
H  22.94400 0.12300 32.05500
H  22.64700 1.33100 33.44900
H  25.54500 3.46200 33.80000
H  27.15400 3.18900 33.28200
H  27.71300 2.04200 35.41100
H  26.08400 1.48400 35.44900
H  19.96100 2.56600 27.69800
H  20.59400 2.49400 29.30400
H  20.14600 0.95600 28.41800
H  19.49800 1.90200 24.30100
H  19.92500 2.87400 25.61200
H  19.36100 1.23700 26.02200
H  26.84800 1.95600 23.41400
H  28.64200 -0.42900 23.83700
H  25.25800 -0.45900 23.16000
H  26.78100 -0.72900 22.26600
H  25.80100 0.64200 21.90400
H  30.37600 1.22300 24.06200
H  29.23000 2.51000 24.32700
H  29.04000 0.96700 21.76800
H  30.66500 1.48800 21.93800
H  29.36100 2.70700 21.94200
H  32.21600 -0.59000 29.29900
H  31.85000 -0.06800 27.56000
H  31.54700 -1.76200 28.14700
H  29.13100 1.59400 32.75500
H  29.26300 -1.88700 35.34700
H  28.04800 -0.75200 36.02800
H  29.69800 -0.49600 36.42100
Mg 35.71500 48.97000 25.43000
C  35.90700 46.89200 28.30600
C  34.38000 51.39400 27.30400
C  34.91400 50.55700 22.59200
C  36.91900 46.11000 23.51900
N  35.33200 49.12500 27.58000
C  35.48800 48.22900 28.50400
C  35.15100 48.79000 29.93800
C  34.45900 50.15700 29.57600
C  34.80600 50.27200 28.07600
C  32.98400 50.21900 29.95900
C  36.52600 48.82300 30.62400
C  36.49300 48.33900 32.08300
H  35.14900 48.29000 32.88900
N  34.89100 50.73200 25.04000
C  34.49300 51.66300 25.95200
C  34.14500 52.95300 25.32700
C  34.25300 52.67200 23.96500
C  34.68000 51.24400 23.82600
C  33.98900 54.24400 26.11400
C  34.06400 53.65300 22.74600
O  34.21900 53.34800 21.58400
C  33.75600 55.07700 23.02100
N  35.87200 48.38500 23.35800
C  35.50700 49.25600 22.38400
C  35.84100 48.71300 20.99100
C  36.66600 47.40800 21.26200
C  36.49400 47.33100 22.84300
C  34.52900 48.45700 20.17200
C  38.16400 47.48300 20.76900
C  39.22800 47.87300 21.83100
N  36.26100 46.91800 25.73300
C  36.67600 45.94900 24.90400
C  36.87800 44.70800 25.66700
C  36.65300 45.06400 27.02700
C  36.27300 46.42500 26.98600
C  37.43300 43.41100 25.22200
C  36.63000 44.55600 28.31500
O  36.96400 43.41100 28.75800
C  36.13500 45.69200 29.25900
C  34.84300 45.27600 29.84000
O  33.73400 45.41000 29.32900
O  35.03500 44.67900 31.09300
C  33.82000 44.22900 31.79600
H  33.86200 52.12200 27.93300
H  34.90100 51.08100 21.63400
H  37.18300 45.13600 23.10200
H  34.51200 48.15000 30.54600
H  34.93400 50.96700 30.12900
H  32.41300 50.42300 29.05300
H  32.79600 50.84300 30.83300
H  32.61100 49.23400 30.24000
H  36.71700 49.88100 30.80700
H  37.37500 48.47300 30.03700
H  37.10100 49.04500 32.64800
H  36.87300 47.31800 32.10400
H  33.70600 54.07400 27.15200
H  33.23700 54.89900 25.67400
H  35.01000 54.62100 26.05100
H  32.87200 55.27600 23.62700
H  33.54000 55.55500 22.06500
H  34.59200 55.60100 23.48400
H  36.55800 49.31700 20.43400
H  36.28600 46.48200 20.83100
H  34.28300 49.40900 19.70200
H  33.69200 48.20200 20.82100
H  34.57900 47.64200 19.44900
H  38.32000 48.16400 19.93300
H  38.37400 46.48700 20.37900
H  39.78000 48.61100 21.24900
H  39.81400 46.96200 21.95000
H  39.08100 48.31900 22.81500
H  38.28900 43.57700 24.56800
H  36.55700 43.01400 24.70900
H  37.70600 42.71700 26.01700
H  36.86600 45.85000 30.05200
H  33.47400 43.42000 31.15300
H  33.05200 44.98900 31.93900
H  34.13000 43.80500 32.75100

