158

Mg 43.71000 4.40100 47.42400
C  41.58200 7.08200 46.90600
C  41.00900 2.20300 47.11700
C  45.85600 1.80200 47.24300
C  46.44900 6.58700 47.26400
N  41.55600 4.64600 46.88800
C  40.85900 5.87100 46.72400
C  39.36000 5.56500 46.34800
C  39.30500 4.02100 46.53900
C  40.69800 3.58400 46.77400
C  38.25300 3.57600 47.66200
C  39.07700 5.98900 44.87600
C  37.85300 6.89100 44.59500
H  37.21200 6.64100 43.21000
N  43.43400 2.37000 47.27600
C  42.26000 1.65900 47.34400
C  42.50400 0.24500 47.20600
C  43.89100 0.09900 47.21100
C  44.47200 1.48000 47.19200
C  41.41500 -0.69600 47.20100
C  44.63000 -1.19600 47.03600
O  44.07300 -2.26700 46.76100
C  46.11800 -1.36200 47.14600
N  45.79100 4.19300 47.25600
C  46.44000 3.03700 47.30000
C  47.94100 3.16100 47.56600
C  48.15200 4.68500 47.51000
C  46.75200 5.19700 47.29400
C  48.71800 2.36500 48.72100
C  49.20500 5.13900 46.37800
C  50.68100 5.28500 46.73000
N  43.94000 6.42700 47.25200
C  45.10700 7.13800 47.16200
C  44.75300 8.51900 47.06400
C  43.36600 8.56600 47.02700
C  42.94400 7.24900 47.07900
C  45.72800 9.67800 46.83400
C  42.23000 9.43000 46.88800
O  42.19500 10.62900 46.89600
C  41.00500 8.49300 46.82000
C  40.07800 9.06000 47.88100
O  40.00800 8.66800 49.04200
O  39.16700 9.94600 47.27800
C  38.14600 10.62200 48.08300
H  40.16700 1.55800 46.85900
H  46.55000 0.96900 47.36800
H  47.17800 7.40000 47.23700
H  38.79500 6.15800 47.06600
H  38.86700 3.56900 45.64900
H  37.55000 4.37500 47.89600
H  38.85300 3.34000 48.54000
H  37.79400 2.67800 47.24800
H  39.10200 5.13300 44.20300
H  39.90100 6.66100 44.63800
H  38.06900 7.95900 44.64000
H  37.12900 6.67700 45.38000
H  41.72300 -1.64400 46.76000
H  40.55600 -0.41400 46.59300
H  41.12100 -0.78900 48.24700
H  46.51600 -0.82000 46.28800
H  46.43400 -2.39900 47.26100
H  46.38100 -0.95400 48.12200
H  48.42800 2.81800 46.65300
H  48.49000 5.02500 48.48800
H  49.34600 1.62300 48.22800
H  48.05900 1.92100 49.46700
H  49.48600 3.03200 49.11300
H  48.95400 6.16400 46.10700
H  49.11100 4.45000 45.53900
H  50.97900 4.27500 47.01100
H  50.80300 5.83300 47.66400
H  51.25300 5.76800 45.93800
H  45.09000 10.54500 47.00300
H  46.08000 9.76200 45.80600
H  46.50800 9.82200 47.58200
H  40.64700 8.59000 45.79500
H  37.82400 9.95500 48.88300
H  37.24500 10.65400 47.47100
H  38.59700 11.55500 48.41900
Mg -1.80600 34.29900 26.24400
C  -3.37000 32.71400 28.95800
C  -0.96300 36.88300 28.45400
C  -0.64800 36.02000 23.70000
C  -3.38600 32.02600 24.03900
N  -2.20100 34.71600 28.41300
C  -2.66000 33.81600 29.37700
C  -2.43900 34.29300 30.84500
C  -1.91800 35.76000 30.59000
C  -1.65400 35.82300 29.05400
C  -2.83100 36.97600 31.12900
C  -1.43600 33.28000 31.51800
C  -2.09000 32.51800 32.68300
H  -1.20800 32.40000 33.92000
N  -0.81100 36.09800 26.13200
C  -0.59300 37.01300 27.07200
C  0.25900 38.17800 26.56800
C  0.45500 37.92300 25.14100
C  -0.38200 36.65500 24.92200
C  0.62500 39.36300 27.49900
C  1.12000 38.71500 24.06000
O  1.07100 38.27700 22.96600
C  1.94500 39.91600 24.42000
N  -2.20900 34.21100 24.23300
C  -1.41200 34.86400 23.40000
C  -1.70500 34.51500 21.92300
C  -2.33200 33.09600 22.10100
C  -2.61200 33.07600 23.54500
C  -2.70200 35.59900 21.26000
C  -1.40600 31.98900 21.49900
C  -0.28100 31.55200 22.35900
N  -3.23100 32.74000 26.41500
C  -3.74700 31.87100 25.42100
C  -4.51300 30.89300 26.14500
C  -4.33900 31.11700 27.45800
C  -3.63300 32.29200 27.60000
C  -5.19000 29.70800 25.41200
C  -4.60300 30.58600 28.79300
O  -5.19900 29.55500 29.15700
C  -3.95600 31.54700 29.79200
C  -5.03400 31.95400 30.77600
O  -5.77000 32.94300 30.71200
O  -5.06100 30.95200 31.76800
C  -6.06400 31.23300 32.79900
H  -0.65400 37.69800 29.11000
H  -0.15000 36.41600 22.81200
H  -3.61700 31.33000 23.22900
H  -3.41800 34.20400 31.31700
H  -0.99900 35.92000 31.15400
H  -2.46200 37.56300 31.97100
H  -3.83800 36.65100 31.39100
H  -2.96500 37.76600 30.39000
H  -0.66700 33.93000 31.93500
H  -1.08100 32.55900 30.78200
H  -2.28800 31.49600 32.36000
H  -3.07100 32.83300 33.04000
H  1.51400 39.13100 28.08500
H  -0.16700 39.48400 28.23800
H  0.79500 40.27100 26.91900
H  2.73100 39.48200 25.03700
H  1.32900 40.67900 24.89600
H  2.29700 40.18600 23.42400
H  -0.75100 34.45600 21.39900
H  -3.32700 33.07400 21.65500
H  -2.23600 36.09700 20.40900
H  -2.83600 36.41500 21.97000
H  -3.63100 35.11200 20.96400
H  -1.11900 32.31100 20.49800
H  -2.10300 31.15300 21.53800
H  -0.43400 30.55100 22.76100
H  -0.20100 32.13700 23.27600
H  0.63400 31.45000 21.77600
H  -4.71100 29.66200 24.43400
H  -6.20200 30.07400 25.23800
H  -5.00200 28.82300 26.02100
H  -3.20900 30.98300 30.35100
H  -5.76600 32.07000 33.43100
H  -6.26600 30.38100 33.44700
H  -7.00000 31.49100 32.30400

