158

Mg 36.11300 2.46000 30.07400
C  33.51700 2.92600 32.40900
C  38.28100 2.58800 32.66800
C  38.43500 1.51900 27.83200
C  33.69900 2.34300 27.47600
N  35.88400 2.78900 32.28000
C  34.76000 2.93400 33.03000
C  35.06300 3.02900 34.53700
C  36.66500 3.14600 34.54000
C  36.97700 2.74600 33.05800
C  37.06500 4.53600 34.92100
C  34.62400 1.74700 35.36900
C  34.17300 1.91400 36.87800
H  34.75400 3.05200 37.76900
N  38.08700 2.06400 30.18800
C  38.80100 2.23300 31.34700
C  40.14300 1.82300 31.08900
C  40.18400 1.47700 29.70900
C  38.87200 1.67600 29.13900
C  41.17300 1.72600 32.10400
C  41.30700 0.98600 28.86400
O  41.24200 0.83300 27.64700
C  42.63200 0.69400 29.47700
N  36.07800 2.24500 27.88600
C  37.20200 1.86300 27.23300
C  36.95500 1.60700 25.69000
C  35.38000 1.77600 25.51000
C  35.01000 2.15500 27.02700
C  37.74700 2.58200 24.79000
C  34.60300 0.59900 24.78100
C  33.93600 -0.43700 25.69500
N  34.09900 2.60000 29.91000
C  33.22900 2.60400 28.78200
C  31.83800 2.58500 29.24300
C  31.86400 2.78000 30.63100
C  33.26200 2.78900 30.97400
C  30.63600 2.51200 28.29000
C  31.12700 2.90500 31.88900
O  29.91800 2.88900 32.09600
C  32.16900 2.92300 33.06000
C  31.85900 4.19400 33.78900
O  32.16100 5.31700 33.46200
O  31.23900 3.89400 34.96000
C  31.29800 4.93200 36.02300
H  39.08900 2.76300 33.38200
H  39.11800 1.31900 27.00400
H  33.09500 2.19000 26.57900
H  34.47400 3.87600 34.88800
H  37.21400 2.46900 35.19400
H  38.03600 4.48300 35.41500
H  36.35800 5.06000 35.56400
H  37.37900 5.05800 34.01700
H  35.42100 1.00800 35.44800
H  33.78000 1.26100 34.87900
H  34.26900 0.89700 37.25600
H  33.11500 2.15800 36.78200
H  41.03000 2.51100 32.84600
H  42.18900 1.89200 31.74700
H  41.15700 0.77600 32.63800
H  42.49300 0.15400 30.41400
H  43.23800 1.59100 29.60000
H  43.23300 0.06800 28.81800
H  37.19700 0.55400 25.54500
H  34.97500 2.68500 25.06700
H  37.05400 3.03600 24.08200
H  38.59500 2.08300 24.32000
H  38.11700 3.31000 25.51200
H  35.14100 0.00300 24.04300
H  33.81600 0.94600 24.11100
H  34.52800 -0.44200 26.61000
H  33.92000 -1.44200 25.27300
H  32.89100 -0.26500 25.95400
H  30.86100 1.70300 27.59500
H  30.51300 3.48600 27.81800
H  29.76900 2.32000 28.92300
H  31.99800 1.99400 33.60400
H  32.34100 5.24600 35.98000
H  30.98100 4.74400 37.04800
H  30.78000 5.83500 35.70000
Mg 26.70700 49.96300 25.73800
C  24.86100 51.58800 28.40000
C  29.03600 49.26600 28.17100
C  28.71000 49.01300 23.31000
C  24.72000 51.79500 23.52800
N  26.70400 50.17800 28.09100
C  25.90400 50.87100 28.93300
C  26.35100 50.71700 30.39600
C  27.79300 50.13200 30.24100
C  27.84700 49.83800 28.73200
C  28.90500 51.09300 30.68000
C  25.36200 49.86500 31.23600
C  24.96200 50.42000 32.60900
H  25.92500 50.49100 33.84300
N  28.49100 49.10800 25.69900
C  29.31700 48.88700 26.84500
C  30.45500 48.07000 26.42200
C  30.27600 47.90000 24.98200
C  29.16100 48.70600 24.58200
C  31.59200 47.56100 27.23800
C  30.86900 46.79300 24.02400
O  30.56100 46.66700 22.83400
C  31.80000 45.75800 24.52900
N  26.57100 50.11100 23.74000
C  27.53300 49.70700 22.92400
C  27.32200 50.01400 21.48200
C  25.89400 50.74600 21.45800
C  25.71600 50.94400 23.00900
C  28.37900 50.93800 20.79400
C  24.76900 49.92100 20.87400
C  24.70500 48.49300 21.41000
N  25.05300 51.33300 25.86800
C  24.37900 51.97500 24.90000
C  23.42100 52.89400 25.39300
C  23.49400 52.75000 26.77500
C  24.56700 51.79500 27.05200
C  22.61400 53.89700 24.65100
C  22.97100 53.10700 28.10200
O  22.03800 53.79400 28.40200
C  23.90700 52.45700 29.19500
C  24.28100 53.55300 30.09500
O  25.22500 54.37300 29.91000
O  23.30500 53.58600 31.11200
C  23.58300 54.70500 32.02300
H  29.72500 49.04300 28.98900
H  29.43100 48.72500 22.54300
H  24.09600 52.35100 22.82400
H  26.44400 51.69300 30.87300
H  27.95900 49.21500 30.80600
H  29.03600 51.75600 29.82400
H  29.80700 50.53000 30.91900
H  28.61200 51.67700 31.55200
H  25.79600 48.87000 31.32800
H  24.47300 49.62700 30.65200
H  24.06900 49.87000 32.90600
H  24.55000 51.41600 32.44400
H  31.46200 47.99000 28.23200
H  32.57100 47.83300 26.84400
H  31.66000 46.47400 27.28700
H  31.21000 45.31600 25.33200
H  32.76200 46.14800 24.86300
H  32.03400 45.15600 23.65100
H  27.34400 49.07900 20.92200
H  25.91100 51.65100 20.85000
H  29.40300 50.96900 21.16800
H  28.13600 52.00000 20.76400
H  28.46600 50.52500 19.78900
H  24.93700 49.88000 19.79700
H  23.83400 50.43800 21.09100
H  25.01900 48.63100 22.44400
H  25.29700 47.81600 20.79500
H  23.66000 48.21000 21.28400
H  23.26200 54.44200 23.96500
H  22.13900 54.68900 25.22900
H  21.87000 53.36000 24.06300
H  23.32700 51.77000 29.81100
H  22.78500 54.79400 32.75900
H  23.68400 55.66500 31.51600
H  24.47900 54.48900 32.60600

