158

Mg 16.86600 52.69500 26.51800
C  18.83900 51.33700 29.04300
C  14.57400 53.65400 28.93900
C  14.82600 53.76800 24.06000
C  18.92100 51.28200 24.09900
N  16.79500 52.59000 28.72500
C  17.71900 52.05700 29.53900
C  17.37400 52.25500 30.98800
C  15.81300 52.48400 30.88800
C  15.73100 52.99900 29.41800
C  14.91600 51.22700 31.13100
C  18.20800 53.44300 31.54500
C  18.75800 53.31400 32.92100
H  17.81700 52.55700 33.86300
N  14.95100 53.56300 26.48500
C  14.28100 54.00400 27.59800
C  13.20600 54.92900 27.22400
C  13.26600 54.92800 25.80500
C  14.36000 54.05600 25.37100
C  12.35300 55.68600 28.20900
C  12.31700 55.67900 24.89700
O  12.43600 55.68500 23.69900
C  11.07000 56.38000 25.31900
N  16.77600 52.44800 24.29300
C  15.86200 53.03500 23.52000
C  16.15100 52.92300 22.05900
C  17.45900 52.10000 22.02100
C  17.76800 51.93900 23.53800
C  14.98300 52.37100 21.12000
C  18.50800 52.85700 21.20000
C  19.41600 53.99900 21.79600
N  18.52700 51.59600 26.48000
C  19.26600 51.09700 25.41800
C  20.46600 50.39600 25.92200
C  20.25700 50.43600 27.33500
C  19.13700 51.18100 27.61900
C  21.61300 49.76800 25.19000
C  20.84900 50.02100 28.55300
O  21.90600 49.43600 28.76400
C  19.92900 50.64600 29.74000
C  19.48000 49.64000 30.64600
O  18.51500 48.94100 30.38400
O  20.18700 49.65200 31.84200
C  19.66600 48.64400 32.81800
H  13.89600 53.90500 29.75700
H  14.25300 54.23700 23.25800
H  19.59700 50.87000 23.34600
H  17.55100 51.33900 31.55200
H  15.56300 53.25300 31.61900
H  14.21300 51.55800 31.89500
H  15.41000 50.33100 31.50700
H  14.43500 50.82300 30.24000
H  17.72000 54.40500 31.39000
H  19.13300 53.44600 30.96900
H  18.90800 54.30100 33.36000
H  19.70700 52.78600 33.01300
H  12.79800 55.69700 29.20400
H  11.31600 55.35300 28.24500
H  12.35000 56.73500 27.91400
H  11.41500 57.16600 25.99100
H  10.41400 55.69900 25.86000
H  10.42200 56.76600 24.53200
H  16.48900 53.90700 21.73400
H  17.21400 51.13200 21.58500
H  15.29600 51.55800 20.46500
H  14.58100 53.17400 20.50300
H  14.22100 51.98800 21.79900
H  17.96500 53.30100 20.36500
H  19.25400 52.19400 20.76400
H  19.07200 54.12400 22.82300
H  19.13100 54.94200 21.32900
H  20.49200 53.87500 21.67500
H  21.32300 49.66300 24.14400
H  21.81900 48.78600 25.61700
H  22.49200 50.37900 25.39300
H  20.49500 51.38700 30.30500
H  18.60300 48.44600 32.68200
H  19.74700 49.03800 33.83100
H  20.28900 47.74900 32.84600
Mg -10.28100 38.98600 40.93300
C  -8.39600 36.19400 39.88400
C  -7.84800 41.02600 39.34200
C  -12.41700 41.48700 41.24600
C  -12.63900 36.71800 42.23100
N  -8.43400 38.60700 39.61400
C  -7.79700 37.39400 39.39700
C  -6.46300 37.55500 38.54100
C  -6.24600 39.12800 38.76800
C  -7.60700 39.62300 39.29200
C  -5.00500 39.50000 39.63400
C  -6.63800 37.22000 37.05400
C  -5.73800 36.29100 36.33900
H  -5.33500 36.56800 34.95400
N  -10.10900 41.02000 40.48700
C  -9.07600 41.67200 39.87200
C  -9.33200 43.08700 40.00200
C  -10.69300 43.28200 40.46700
C  -11.12700 41.87100 40.78400
C  -8.27500 44.22300 39.69200
C  -11.36800 44.62000 40.67200
O  -10.73300 45.65800 40.45600
C  -12.78000 44.83000 41.30800
N  -12.37900 39.03300 41.38400
C  -12.99500 40.24200 41.51500
C  -14.52400 39.97500 41.87800
C  -14.54800 38.42800 42.22900
C  -13.10000 38.02500 41.93500
C  -15.11200 40.81000 43.07600
C  -15.61800 37.64500 41.42100
C  -16.14800 36.35000 42.09100
N  -10.48700 36.88700 41.10300
C  -11.44700 36.17500 41.83100
C  -11.01700 34.79100 41.87400
C  -9.82500 34.73600 41.13300
C  -9.62000 36.01700 40.62600
C  -11.65600 33.64500 42.55100
C  -8.79900 33.86400 40.55900
O  -8.62000 32.65000 40.67700
C  -7.83500 34.78700 39.74500
C  -6.56500 34.61100 40.35600
O  -5.78100 33.67900 40.08000
O  -6.20500 35.59200 41.34600
C  -5.03900 35.34300 42.17200
H  -7.02800 41.65900 38.99700
H  -13.05600 42.37200 41.21800
H  -13.25700 35.99100 42.76300
H  -5.70700 36.88300 38.94500
H  -5.96500 39.62200 37.83800
H  -4.20800 39.81900 38.96200
H  -4.59800 38.56800 40.02600
H  -5.22800 40.15000 40.48000
H  -6.50500 38.13800 36.48200
H  -7.66000 36.85100 36.97600
H  -6.23600 35.32400 36.26800
H  -4.88900 36.11700 37.00000
H  -8.33400 44.89600 38.83600
H  -7.42000 43.59900 39.43200
H  -7.99100 44.77600 40.58700
H  -12.94900 45.87300 41.57400
H  -12.93600 44.36700 42.28300
H  -13.45900 44.59600 40.48700
H  -15.13100 40.21200 41.00500
H  -14.71000 38.17700 43.27700
H  -14.32000 41.47300 43.42400
H  -15.40500 40.24800 43.96400
H  -15.91300 41.46200 42.72700
H  -15.13200 37.23000 40.53700
H  -16.40900 38.35300 41.17500
H  -17.23500 36.41300 42.04400
H  -15.85600 36.10700 43.11300
H  -15.66200 35.60100 41.46600
H  -12.72300 33.84600 42.64300
H  -11.27800 33.75700 43.56700
H  -11.40400 32.65200 42.17600
H  -7.68400 34.46500 38.71500
H  -5.08000 36.05000 43.00100
H  -4.13200 35.54500 41.60200
H  -5.11300 34.32200 42.54500

