158

Mg 43.35900 41.99500 26.71000
C  42.52300 44.41400 29.17400
C  44.03000 39.83200 29.26800
C  44.41200 39.99700 24.37200
C  43.00000 44.63900 24.37400
N  43.33100 42.12500 28.93700
C  42.88000 43.17300 29.72500
C  42.74300 42.71300 31.19400
C  43.50600 41.35500 31.17400
C  43.56000 41.06800 29.66900
C  44.90500 41.50800 31.89600
C  41.18900 42.64500 31.66800
C  40.85400 43.53800 32.84200
H  39.95800 43.12800 33.97500
N  44.06700 40.08300 26.79400
C  44.31200 39.33600 27.88900
C  44.66100 38.02200 27.50400
C  44.82700 38.04500 26.09900
C  44.41500 39.39700 25.67700
C  44.94500 36.91500 28.50600
C  45.30000 36.91700 25.17600
O  45.35900 37.06200 24.00400
C  45.83400 35.60700 25.80600
N  43.59100 42.29700 24.65100
C  44.01300 41.21400 23.84400
C  43.98600 41.58500 22.32400
C  43.71000 43.16600 22.44100
C  43.34800 43.37800 23.92700
C  45.18900 41.22300 21.41600
C  42.59400 43.53600 21.49100
C  42.85800 44.75800 20.62700
N  42.88500 44.13500 26.73600
C  42.81100 45.03500 25.67100
C  42.41500 46.33300 26.27100
C  42.22600 46.09800 27.65500
C  42.60300 44.79000 27.88500
C  42.15000 47.57300 25.61200
C  41.80400 46.69400 28.91000
O  41.35900 47.81800 29.23500
C  42.01500 45.62000 29.98800
C  43.00000 46.14300 30.91700
O  44.13100 46.45700 30.57400
O  42.47900 46.32700 32.13800
C  43.32900 47.05500 33.11800
H  44.24100 39.16400 30.10600
H  44.84000 39.37200 23.58500
H  42.84500 45.37900 23.58600
H  43.24700 43.44500 31.82500
H  42.93500 40.59200 31.70200
H  44.93300 40.80000 32.72500
H  44.96300 42.54600 32.22400
H  45.79300 41.38500 31.27600
H  40.97700 41.61000 31.93900
H  40.52000 42.73300 30.81300
H  40.54400 44.46100 32.35200
H  41.78500 43.79800 33.34500
H  46.00600 36.68800 28.40500
H  44.33600 36.02600 28.34300
H  44.85000 37.17000 29.56200
H  46.09700 34.94400 24.98200
H  44.99500 35.07800 26.25900
H  46.71500 35.80200 26.41700
H  43.12800 41.02100 21.95800
H  44.67400 43.66600 22.34200
H  46.13400 41.08800 21.94300
H  45.31800 42.13300 20.83100
H  44.85500 40.43500 20.74100
H  41.67800 43.65400 22.06900
H  42.24300 42.69300 20.89600
H  43.87000 45.16100 20.65500
H  42.30800 45.56600 21.11100
H  42.67000 44.62100 19.56200
H  41.10100 47.58000 25.31600
H  42.74800 47.48700 24.70500
H  42.38100 48.44600 26.22300
H  41.10000 45.28300 30.47500
H  43.33100 46.54200 34.07900
H  42.91500 48.06100 33.18900
H  44.38700 47.20600 32.90300
Mg 27.14000 50.30100 25.91300
C  24.94800 51.30300 28.53200
C  29.42900 49.55000 28.29100
C  29.28100 49.61200 23.40700
C  24.95200 51.73600 23.54100
N  27.12800 50.45000 28.17600
C  26.13200 50.78700 29.00200
C  26.52900 50.62700 30.50300
C  27.99400 50.13100 30.38800
C  28.19700 49.92800 28.87600
C  29.06600 51.09900 30.97400
C  25.49100 49.69600 31.27600
C  24.74600 50.23900 32.53400
H  24.42100 49.26200 33.71500
N  29.09900 49.58400 25.85400
C  29.87200 49.33400 26.94800
C  31.16200 48.90800 26.58100
C  31.15700 48.90800 25.12100
C  29.80900 49.31300 24.75400
C  32.17200 48.31000 27.50700
C  32.24900 48.75500 24.06000
O  32.07100 48.94900 22.86100
C  33.67800 48.54400 24.52200
N  27.16100 50.73800 23.74300
C  28.07800 50.18600 22.91900
C  27.70400 50.31300 21.46600
C  26.24500 50.88300 21.52300
C  26.06200 51.12800 23.01700
C  28.74700 51.09800 20.58300
C  25.03100 50.11000 20.93400
C  24.37300 50.68700 19.68300
N  25.31500 51.37700 25.95000
C  24.55900 51.86900 24.91800
C  23.34200 52.41100 25.44300
C  23.48700 52.16700 26.84300
C  24.63200 51.52800 27.12900
C  22.37200 53.16800 24.77100
C  22.80500 52.44600 28.18000
O  21.75400 53.00400 28.34600
C  23.79100 51.94200 29.31400
C  24.10900 53.05700 30.23200
O  24.96700 53.86600 30.07400
O  23.38600 53.13000 31.41900
C  23.90000 53.99700 32.52200
H  30.13400 49.27500 29.07800
H  29.81300 49.13600 22.58000
H  24.18100 51.99700 22.81300
H  26.57900 51.57400 31.04000
H  28.27500 49.18800 30.85700
H  29.69200 51.43000 30.14500
H  29.80000 50.51200 31.52600
H  28.66000 51.88600 31.61000
H  26.10100 48.83600 31.55100
H  24.79400 49.19100 30.60800
H  23.78600 50.64500 32.21300
H  25.34500 51.02000 33.00100
H  33.01800 47.85600 26.99200
H  31.77200 47.45600 28.05500
H  32.46700 49.07200 28.22800
H  33.93200 49.41000 25.13400
H  34.28200 48.53800 23.61500
H  33.79100 47.61800 25.08600
H  27.71300 49.32400 21.00700
H  26.38300 51.86100 21.06300
H  29.17200 51.84500 21.25300
H  28.37100 51.56700 19.67400
H  29.53700 50.40400 20.29500
H  24.28300 49.97900 21.71600
H  25.37000 49.10500 20.68400
H  24.46300 49.96500 18.87100
H  24.97000 51.49000 19.25000
H  23.34000 51.03100 19.72000
H  22.28200 52.92000 23.71300
H  22.68700 54.21100 24.73500
H  21.37700 53.22800 25.21200
H  23.33200 51.17500 29.93700
H  23.40200 54.96100 32.41500
H  24.97600 54.13700 32.61600
H  23.59500 53.55300 33.47000

