158

Mg 23.99900 -5.13900 45.30900
C  25.86200 -2.55600 43.71100
C  21.24800 -4.30000 43.64300
C  22.58500 -8.20800 46.19800
C  27.05300 -6.25500 46.67000
N  23.70100 -3.75400 43.67700
C  24.47300 -2.74000 43.24500
C  23.77400 -1.88200 42.17400
C  22.27600 -2.24000 42.48800
C  22.37200 -3.44600 43.40200
C  21.46200 -1.13500 43.23000
C  24.26300 -2.15600 40.73700
C  24.64600 -1.03200 39.85800
H  24.09200 -1.15900 38.41900
N  22.04900 -6.02800 45.12900
C  21.11100 -5.50300 44.39500
C  19.94900 -6.41300 44.47200
C  20.27600 -7.52900 45.26000
C  21.70800 -7.31200 45.60700
C  18.66600 -6.12900 43.60600
C  19.37300 -8.72500 45.60100
O  18.21600 -8.68000 45.25400
C  19.87000 -9.82800 46.34700
N  24.70500 -6.94600 46.32600
C  23.93800 -8.02900 46.58100
C  24.76000 -9.24500 47.11700
C  26.08500 -8.51800 47.53600
C  25.97300 -7.12400 46.73900
C  24.18700 -10.01900 48.30400
C  27.41300 -9.31400 47.17000
C  28.44200 -9.48400 48.29800
N  26.02700 -4.41500 45.41400
C  27.14400 -5.03100 45.96600
C  28.25500 -4.14300 45.76600
C  27.75400 -3.18000 44.88600
C  26.41900 -3.40100 44.66500
C  29.66800 -4.19400 46.34600
C  28.16700 -2.10500 44.08900
O  29.30100 -1.64900 43.96700
C  26.89200 -1.60800 43.17200
C  26.56700 -0.27600 43.65200
O  26.00300 0.02000 44.69300
O  27.10900 0.61700 42.69600
C  26.85000 2.03700 42.99900
H  20.32500 -3.89300 43.22500
H  22.25800 -9.24000 46.33900
H  27.99300 -6.54400 47.14600
H  23.86700 -0.81000 42.35000
H  21.68800 -2.40600 41.58500
H  22.23000 -0.48700 43.65200
H  20.75300 -1.51900 43.96400
H  20.90100 -0.50800 42.53800
H  23.46100 -2.64100 40.18200
H  25.12100 -2.81700 40.86300
H  25.72800 -0.98700 39.98000
H  24.25600 -0.11000 40.29100
H  18.79700 -6.74400 42.71600
H  18.62000 -5.09000 43.28100
H  17.72500 -6.39600 44.08800
H  20.52800 -10.25900 45.59200
H  18.99500 -10.44300 46.55700
H  20.27800 -9.43700 47.27900
H  24.99400 -9.96100 46.33000
H  26.08000 -8.30700 48.60500
H  24.69300 -9.79300 49.24200
H  24.39200 -11.06300 48.06600
H  23.13800 -9.85200 48.55000
H  27.97700 -8.88400 46.34200
H  27.10200 -10.32600 46.91300
H  28.16000 -10.17000 49.09700
H  28.87700 -8.54400 48.63600
H  29.28200 -10.01500 47.85100
H  30.33200 -3.59400 45.72400
H  29.95300 -5.23400 46.50000
H  29.52900 -3.69100 47.30300
H  27.14600 -1.69200 42.11500
H  27.36000 2.51800 42.16500
H  27.35400 2.25700 43.94100
H  25.77500 2.21500 42.98700
Mg 44.35200 5.07200 47.54700
C  42.04000 7.81100 47.51600
C  41.66800 2.97900 47.03000
C  46.56400 2.66200 46.93400
C  46.92000 7.45300 47.18700
N  42.15200 5.34100 47.45100
C  41.46900 6.56400 47.39900
C  39.92600 6.31100 47.39000
C  39.83000 4.68100 47.35700
C  41.29800 4.30100 47.28000
C  38.93800 4.07100 48.50300
C  39.11800 6.99200 46.23800
C  40.03600 7.17700 45.00700
H  39.43900 6.69500 43.66900
N  44.18200 3.04000 47.16200
C  42.97500 2.35200 46.97100
C  43.25500 1.01600 46.62100
C  44.64000 0.89900 46.46000
C  45.18700 2.20600 46.86800
C  42.18400 -0.01900 46.32700
C  45.30400 -0.40900 45.95800
O  44.74200 -1.52000 45.77900
C  46.73200 -0.31500 45.57200
N  46.44400 5.03100 47.17100
C  47.16300 3.88300 46.99900
C  48.65000 4.04000 47.12200
C  48.73300 5.59100 46.92400
C  47.30700 6.10800 47.08900
C  49.24000 3.60300 48.47700
C  49.24900 5.93900 45.51400
C  50.62200 5.48400 45.16300
N  44.50400 7.16300 47.37300
C  45.63100 7.97700 47.28500
C  45.18700 9.33000 47.24200
C  43.81900 9.33400 47.44600
C  43.38500 7.98700 47.44900
C  46.11600 10.52100 47.15100
C  42.62100 10.14900 47.65200
O  42.51400 11.38100 47.73700
C  41.42400 9.24300 47.66000
C  40.58500 9.44700 48.90600
O  40.60300 8.74300 49.91400
O  39.52500 10.32100 48.63700
C  38.27600 10.22300 49.47600
H  40.81400 2.33300 46.81600
H  47.34300 1.90200 46.83900
H  47.81300 8.05100 46.99300
H  39.48600 6.65900 48.32400
H  39.45700 4.37200 46.38100
H  39.55700 3.63300 49.28700
H  38.31800 3.22400 48.21200
H  38.29100 4.81100 48.97400
H  38.76600 7.99200 46.49100
H  38.24300 6.39500 45.98000
H  41.04900 6.78700 45.09800
H  40.12600 8.26200 44.96900
H  41.15300 0.26400 46.54000
H  42.34400 -0.93300 46.89900
H  42.22500 -0.24300 45.26000
H  46.95300 -1.13900 44.89400
H  47.29700 -0.57300 46.46700
H  47.04000 0.59800 45.06200
H  49.04700 3.62200 46.19600
H  49.40400 6.01400 47.67200
H  49.93900 4.31300 48.92100
H  49.67300 2.60300 48.48600
H  48.44600 3.45300 49.20800
H  49.15100 7.02400 45.47700
H  48.48200 5.56000 44.83900
H  51.12900 4.72100 45.75400
H  51.15200 6.43600 45.17800
H  50.70200 5.12900 44.13500
H  45.62900 11.49400 47.07500
H  46.69600 10.42200 46.23300
H  46.83300 10.35600 47.95500
H  40.87500 9.53900 46.76500
H  38.27400 11.08400 50.14400
H  38.25900 9.41100 50.20400
H  37.38800 10.13300 48.85100

