158

Mg 35.57200 48.59500 25.36800
C  35.99900 46.69700 28.29600
C  34.37400 51.13700 27.32700
C  34.61100 50.14400 22.53300
C  36.30400 45.69300 23.52700
N  35.06100 48.80500 27.58400
C  35.33000 47.88100 28.62500
C  35.01900 48.49700 29.93500
C  34.30000 49.86900 29.59000
C  34.64200 49.98200 28.08200
C  32.74300 49.93500 29.81900
C  36.26700 48.74600 30.94300
C  36.09200 48.73900 32.43000
H  34.67000 48.58500 32.99900
N  34.63600 50.41300 25.03200
C  34.29100 51.34400 25.91300
C  33.93300 52.58200 25.26100
C  33.87500 52.26200 23.91600
C  34.39700 50.88700 23.75000
C  33.77200 53.91200 25.92500
C  33.41800 53.19400 22.74600
O  33.28600 52.80300 21.57200
C  33.10100 54.64400 22.96000
N  35.29100 47.93400 23.37500
C  35.00000 48.83000 22.39300
C  35.13400 48.17700 21.03900
C  35.72500 46.77200 21.33300
C  35.75800 46.77300 22.85300
C  33.80900 48.09700 20.24100
C  37.19000 46.51500 20.68300
C  38.36300 47.09300 21.48300
N  36.08900 46.63600 25.76200
C  36.55100 45.70500 24.91500
C  37.07800 44.58400 25.71800
C  36.81400 44.91800 27.04900
C  36.22100 46.21000 26.96800
C  37.77800 43.35700 25.21800
C  36.91600 44.46600 28.36400
O  37.33800 43.38500 28.78200
C  36.45400 45.64700 29.25600
C  35.38100 45.13900 30.13500
O  34.20000 44.96500 29.76800
O  35.96100 44.86200 31.32200
C  34.93900 44.63100 32.30400
H  34.02000 51.90800 28.01400
H  34.51500 50.71300 21.60600
H  36.54600 44.77900 22.98000
H  34.24000 47.91000 30.42100
H  34.72800 50.71800 30.12400
H  32.31800 50.03400 28.82000
H  32.37500 50.83600 30.31000
H  32.27200 49.07300 30.29100
H  36.73900 49.71000 30.75500
H  36.99500 47.95000 30.79000
H  36.40800 49.73300 32.74600
H  36.66200 48.00300 32.99700
H  32.92400 54.52100 25.61200
H  34.60200 54.56600 25.66000
H  33.65000 53.78100 27.00000
H  33.88600 55.13300 23.53700
H  32.11600 54.62200 23.42700
H  33.08400 55.00000 21.93000
H  35.81900 48.70300 20.37400
H  34.96500 46.05300 21.02700
H  33.00700 48.61600 20.76600
H  33.59900 47.06400 19.96500
H  34.02600 48.68500 19.34900
H  37.31000 47.02500 19.72700
H  37.51900 45.48700 20.53000
H  37.99500 47.44400 22.44700
H  38.74300 48.02100 21.05500
H  39.07900 46.28200 21.61700
H  38.40100 43.12100 26.08000
H  38.29500 43.51700 24.27100
H  36.96900 42.63000 25.14700
H  37.29200 45.95100 29.88300
H  34.60100 43.61400 32.10300
H  34.05600 45.27000 32.26800
H  35.49800 44.67000 33.23900
Mg 0.53100 43.52000 25.97200
C  2.50300 43.32400 28.66600
C  -2.26000 42.92900 27.84800
C  -1.45400 43.16100 23.11600
C  3.35400 43.72500 23.89500
N  0.23800 42.96400 27.95400
C  1.15400 43.22500 28.95900
C  0.52800 43.25700 30.37700
C  -0.92500 42.76500 30.13400
C  -1.00100 42.92500 28.53800
C  -1.30600 41.30900 30.53600
C  0.52700 44.65600 31.03200
C  0.76100 44.72400 32.58900
H  0.44100 43.42200 33.38600
N  -1.65400 43.24000 25.53900
C  -2.59300 43.03200 26.50300
C  -3.90900 42.92600 25.93200
C  -3.65500 43.00900 24.53800
C  -2.21900 43.17300 24.31400
C  -5.23200 42.71300 26.64500
C  -4.72800 42.99300 23.34400
O  -4.51100 42.85000 22.15300
C  -6.14100 43.04000 23.65600
N  0.89500 43.30000 23.72700
C  -0.04000 43.18200 22.79200
C  0.54200 42.87200 21.42500
C  2.02500 43.33500 21.67400
C  2.12000 43.53700 23.22900
C  0.29700 41.41400 20.95500
C  2.34000 44.60000 20.81400
C  1.65400 45.93400 21.19000
N  2.68300 43.52800 26.15800
C  3.67800 43.68100 25.24300
C  4.89800 43.67700 25.93700
C  4.49200 43.58600 27.33100
C  3.13600 43.44000 27.37900
C  6.34300 43.80900 25.49700
C  4.94900 43.57100 28.71600
O  6.03100 43.48700 29.16000
C  3.65700 43.54900 29.56000
C  3.91800 42.48200 30.51500
O  3.64200 41.28500 30.34000
O  4.50800 42.96300 31.67000
C  4.72600 42.06400 32.81200
H  -3.06500 42.84600 28.58100
H  -2.16100 43.01600 22.29700
H  4.18800 44.04900 23.27000
H  1.03900 42.55400 31.03500
H  -1.67300 43.47900 30.47700
H  -2.11200 41.47200 31.25200
H  -0.45400 40.80400 30.99100
H  -1.74200 40.76100 29.70100
H  -0.35300 45.21500 30.71500
H  1.42200 45.13900 30.64100
H  0.08000 45.44800 33.03600
H  1.76400 45.07100 32.83800
H  -4.99400 42.74900 27.70800
H  -5.52400 41.75800 26.20800
H  -5.87400 43.55300 26.37600
H  -6.45400 42.17700 24.24300
H  -6.61300 42.93200 22.68000
H  -6.49100 43.95000 24.14300
H  -0.06500 43.51400 20.78600
H  2.74700 42.58400 21.35100
H  -0.23200 41.28000 20.01100
H  -0.44100 40.96600 21.62000
H  1.22300 40.84500 20.87400
H  1.97500 44.39400 19.80800
H  3.40400 44.77900 20.65900
H  2.31500 46.71200 20.80800
H  1.65800 45.97200 22.27900
H  0.61700 45.95500 20.85400
H  6.53900 43.22700 24.59600
H  6.89600 43.38400 26.33400
H  6.51500 44.85800 25.25600
H  3.51000 44.44900 30.15600
H  5.77500 42.06900 33.10800
H  4.32000 41.06400 32.66000
H  4.11400 42.46900 33.61900

