158

Mg 35.63300 1.75100 29.08000
C  33.60500 2.83700 31.65100
C  38.18700 1.30800 31.30900
C  37.70400 1.31300 26.61600
C  32.96200 2.24100 26.83500
N  35.83600 2.27200 31.21700
C  34.88900 2.54000 32.14300
C  35.39700 2.32300 33.57500
C  36.90500 2.11000 33.31800
C  37.00100 1.92000 31.84500
C  37.72600 3.38000 33.75000
C  34.69100 1.20300 34.40800
C  34.05800 1.59600 35.77400
H  34.64600 2.79000 36.50400
N  37.62500 1.16800 28.93500
C  38.46900 0.95900 29.98900
C  39.72200 0.59200 29.54500
C  39.66100 0.76200 28.09100
C  38.28500 1.05400 27.81800
C  40.93700 0.26800 30.49700
C  40.70200 0.48500 27.00800
O  40.48800 0.74000 25.88200
C  42.07300 -0.13800 27.32900
N  35.31500 1.83800 26.99800
C  36.42300 1.64900 26.19100
C  36.04700 1.75900 24.65800
C  34.52000 1.91000 24.77300
C  34.19000 1.92300 26.27100
C  36.75600 2.87600 23.83200
C  33.71400 0.83800 23.98600
C  33.06400 1.42800 22.71000
N  33.65600 2.47500 29.14500
C  32.66200 2.54200 28.21100
C  31.54200 3.18200 28.75600
C  31.80700 3.28100 30.12000
C  33.15500 2.77700 30.30400
C  30.24300 3.56400 27.99900
C  31.27500 3.62000 31.40600
O  30.11600 3.86100 31.75600
C  32.43200 3.36700 32.52200
C  32.67600 4.60000 33.34000
O  33.58300 5.42100 33.15600
O  31.69700 4.66200 34.32000
C  31.86400 5.89400 35.08900
H  38.89700 1.06600 32.10300
H  38.36400 1.17900 25.75700
H  32.24200 2.44700 26.04100
H  35.24000 3.20600 34.19500
H  37.33700 1.20700 33.74700
H  38.31500 3.63700 32.87000
H  38.46000 3.18500 34.53200
H  37.11300 4.27000 33.89000
H  35.43100 0.42300 34.58700
H  33.85500 0.84500 33.80800
H  34.27800 0.74500 36.41900
H  33.01400 1.69100 35.47400
H  41.18600 -0.79200 30.46000
H  40.71500 0.44700 31.54900
H  41.71100 0.94300 30.13200
H  42.08600 -0.78100 28.20900
H  42.76000 0.68100 27.54200
H  42.35300 -0.77400 26.49000
H  36.23300 0.76800 24.24400
H  34.23500 2.89700 24.41100
H  36.09100 3.45300 23.19000
H  37.40200 2.30100 23.16800
H  37.29400 3.64800 24.38300
H  33.02800 0.39400 24.70700
H  34.42900 0.08700 23.65000
H  33.37500 2.45300 22.50800
H  31.98300 1.40200 22.84600
H  33.40300 0.76800 21.91100
H  30.37900 4.23300 27.15000
H  29.42400 4.05400 28.52600
H  29.81700 2.71800 27.45800
H  32.08100 2.63100 33.24500
H  30.99900 6.01800 35.74000
H  31.98600 6.82600 34.53700
H  32.64100 5.54100 35.76700
Mg -10.78900 15.73100 43.09100
C  -7.35900 16.31000 43.05700
C  -11.26500 19.11400 42.80900
C  -14.04300 15.14300 42.10700
C  -10.17100 12.29100 42.83200
N  -9.39200 17.49500 42.79600
C  -8.03900 17.47600 42.98000
C  -7.46000 18.88200 42.80900
C  -8.75700 19.78300 42.96700
C  -9.93800 18.73400 42.93400
C  -8.84600 20.55400 44.32000
C  -6.81900 19.09500 41.38300
C  -5.42300 19.75700 41.35200
H  -4.34200 19.25000 40.38300
N  -12.43900 16.95200 42.49200
C  -12.42900 18.32200 42.53900
C  -13.70700 18.87000 42.16900
C  -14.53700 17.72300 41.85900
C  -13.66300 16.51500 42.13400
C  -14.05000 20.30400 41.98900
C  -15.93900 17.91300 41.48000
O  -16.52000 18.97600 41.50300
C  -16.69000 16.70600 41.17100
N  -12.00000 13.98200 42.59700
C  -13.31100 14.03100 42.44700
C  -13.95600 12.57100 42.34500
C  -12.63900 11.69200 42.30100
C  -11.55200 12.73700 42.69200
C  -14.81100 12.20200 43.53000
C  -12.44400 10.95100 40.92200
C  -12.34900 9.41800 41.00300
N  -9.17600 14.46200 43.02900
C  -9.03800 13.11000 42.97400
C  -7.62200 12.72500 43.15800
C  -6.91700 13.96300 43.15800
C  -7.87800 14.97400 43.10400
C  -7.08800 11.31500 43.14200
C  -5.55600 14.59400 43.14000
O  -4.42200 14.10000 43.06100
C  -5.81200 16.11800 43.29800
C  -5.40300 16.43100 44.68800
O  -6.05700 16.52700 45.72400
O  -4.05200 16.61900 44.64400
C  -3.21500 16.81600 45.83000
H  -11.29900 20.20200 42.72000
H  -15.01500 14.85000 41.70500
H  -10.07300 11.23500 42.57400
H  -6.82100 18.99600 43.68400
H  -8.84500 20.43100 42.09500
H  -8.94000 21.57500 43.94900
H  -7.93100 20.47200 44.90600
H  -9.72800 20.17400 44.83500
H  -7.63400 19.46800 40.76400
H  -6.72600 18.07600 41.00700
H  -5.01300 19.49100 42.32700
H  -5.45900 20.84600 41.32100
H  -13.25200 20.87600 42.46000
H  -14.87600 20.57600 42.64500
H  -14.30800 20.48700 40.94600
H  -17.70700 16.91900 40.84100
H  -16.95400 16.20600 42.10200
H  -16.17900 15.98900 40.52800
H  -14.45500 12.60000 41.37600
H  -12.76700 10.92800 43.06800
H  -15.83900 12.01800 43.21800
H  -14.80300 12.89400 44.37300
H  -14.65700 11.23300 44.00300
H  -11.49800 11.23000 40.45800
H  -13.13800 11.32800 40.17100
H  -11.39800 9.13300 40.55200
H  -13.21300 9.05400 40.44800
H  -12.27900 8.95900 41.99000
H  -7.40700 10.74700 44.01500
H  -6.00000 11.30000 43.07500
H  -7.30400 10.80400 42.20300
H  -5.23400 16.66500 42.55300
H  -2.53700 15.96900 45.93800
H  -3.65700 17.09700 46.78500
H  -2.54700 17.66300 45.66600

