158

Mg 43.40200 42.58200 26.26800
C  42.19200 44.62300 28.83500
C  44.89300 40.66100 28.60400
C  44.30500 40.56400 23.68400
C  42.21500 45.00200 23.98200
N  43.66800 42.81100 28.46200
C  42.88800 43.53100 29.24300
C  43.05000 43.09200 30.78700
C  43.82800 41.73700 30.70100
C  44.23300 41.78200 29.15300
C  45.10100 41.59700 31.61100
C  41.64800 42.92700 31.51400
C  41.53500 41.85900 32.67800
H  40.74800 42.21600 33.93300
N  44.52500 40.88200 26.12500
C  45.10400 40.27700 27.24200
C  45.90400 39.14100 26.76000
C  45.58800 38.95100 25.33700
C  44.75400 40.16700 24.98300
C  46.78900 38.27100 27.75300
C  46.08900 37.88000 24.38000
O  45.88600 38.03100 23.17300
C  46.97200 36.79100 24.84200
N  43.43900 42.85600 24.03500
C  43.70300 41.74700 23.25400
C  43.38500 42.10500 21.81900
C  42.66300 43.50600 21.93300
C  42.62400 43.79400 23.42900
C  44.58400 42.16000 20.85400
C  41.20600 43.62100 21.24100
C  40.00700 43.05000 22.00400
N  42.51900 44.46400 26.33100
C  42.05900 45.31900 25.36000
C  41.47500 46.49700 25.92900
C  41.40900 46.20200 27.28100
C  42.07900 44.99400 27.44900
C  41.00400 47.66900 25.19900
C  40.92500 46.76400 28.54400
O  40.25800 47.78800 28.74100
C  41.40400 45.74800 29.64100
C  42.10300 46.49500 30.66100
O  43.27000 46.85200 30.54100
O  41.37600 46.67200 31.86700
C  42.11000 47.33600 32.91100
H  45.34500 39.97000 29.31900
H  44.75700 39.87200 22.97100
H  41.76400 45.69800 23.27100
H  43.72500 43.85800 31.16900
H  43.24100 40.82400 30.80800
H  45.15600 42.28600 32.45300
H  45.98500 41.75100 30.99200
H  45.12300 40.62300 32.10100
H  40.80600 42.74900 30.84500
H  41.58800 43.87700 32.04400
H  42.58300 41.77300 32.96400
H  41.22300 40.88300 32.30400
H  46.26900 37.34400 27.99400
H  46.90000 38.84600 28.67200
H  47.75500 38.09600 27.27800
H  46.58200 36.15000 25.63300
H  47.91800 37.25800 25.11500
H  47.02200 36.18900 23.93500
H  42.69500 41.41300 21.33700
H  43.22900 44.34800 21.53500
H  44.82800 43.14200 20.44800
H  44.58200 41.48300 20.00000
H  45.49200 42.01400 21.44000
H  41.25600 43.19600 20.23800
H  40.89600 44.65300 21.07300
H  39.49200 42.21900 21.52000
H  39.29800 43.84100 22.24800
H  40.40100 42.59300 22.91100
H  40.10500 47.40900 24.64000
H  41.76000 47.99400 24.48400
H  40.81300 48.50900 25.86600
H  40.53600 45.29400 30.11900
H  42.80500 46.62000 33.35000
H  41.41000 47.80000 33.60500
H  42.74700 48.14200 32.54800
Mg 5.23600 54.28500 40.95400
C  4.18800 50.87500 40.71700
C  7.95500 53.39300 38.92000
C  6.11400 57.49700 40.77400
C  2.11800 55.00000 42.30900
N  5.90600 52.34500 39.83700
C  5.32800 51.11700 39.91000
C  5.99700 50.16000 38.92500
C  7.37600 50.91400 38.69900
C  7.09500 52.33100 39.20800
C  8.63600 50.25100 39.28800
C  5.12500 49.80600 37.75900
C  4.98400 48.33000 37.31300
H  5.46800 47.84100 35.94500
N  6.85200 55.27600 40.07100
C  7.84100 54.75400 39.31300
C  8.92500 55.81100 39.16000
C  8.39300 57.03300 39.65400
C  7.13600 56.64900 40.19600
C  10.30100 55.39900 38.65200
C  9.12200 58.30100 39.71500
O  10.22200 58.41100 39.14000
C  8.65500 59.53100 40.51100
N  4.21200 55.95700 41.37400
C  4.77800 57.17300 41.23800
C  3.80100 58.25900 41.70900
C  2.49000 57.47400 42.07400
C  2.93500 56.03800 41.86600
C  4.27300 59.14800 42.86000
C  1.33000 57.76700 41.04600
C  -0.06300 57.98400 41.59000
N  3.47000 53.21200 41.62600
C  2.28800 53.61700 42.16200
C  1.61900 52.41400 42.56100
C  2.27400 51.34000 42.04100
C  3.42400 51.87300 41.42200
C  0.32100 52.35500 43.43500
C  2.31100 49.83600 41.97000
O  1.72600 48.92100 42.50800
C  3.57700 49.49000 41.11600
C  3.22500 48.47900 40.13500
O  2.24000 48.51500 39.40300
O  4.09600 47.37100 40.28200
C  3.52600 46.11100 39.78500
H  8.89500 53.14000 38.42600
H  6.30100 58.57300 40.79900
H  1.19400 55.34200 42.78000
H  6.23900 49.16800 39.30700
H  7.43700 51.02300 37.61600
H  9.55100 50.46300 38.73500
H  8.55500 49.22700 39.65000
H  8.69600 50.83400 40.20700
H  5.36400 50.42400 36.89300
H  4.07400 50.05600 37.90000
H  3.90800 48.15800 37.28300
H  5.35000 47.56200 37.99400
H  10.45400 54.37100 38.98200
H  10.99900 55.93700 39.29300
H  10.44400 55.61100 37.59200
H  7.78400 59.99300 40.04600
H  9.53100 60.16800 40.63700
H  8.45300 59.20200 41.53000
H  3.63200 58.92300 40.86100
H  2.08400 57.66200 43.06800
H  4.33500 60.19500 42.56300
H  5.17600 58.75500 43.32500
H  3.49000 59.18600 43.61700
H  1.32500 56.99000 40.28200
H  1.38600 58.69300 40.47400
H  -0.78500 57.47900 40.94900
H  -0.30800 59.03300 41.42500
H  -0.21100 57.59900 42.59900
H  -0.19300 53.31300 43.36200
H  0.41800 52.29400 44.51900
H  -0.37000 51.56700 43.13400
H  4.38300 49.11200 41.74400
H  3.64900 46.01500 38.70600
H  2.54200 45.87400 40.18800
H  4.21500 45.35300 40.15900

