158

Mg 47.32600 16.59900 28.07700
C  45.19900 16.29500 30.97000
C  49.55100 18.37700 30.09900
C  49.04700 17.31000 25.24800
C  44.75400 15.25800 26.27300
N  47.37900 17.15500 30.31600
C  46.45900 16.83900 31.28200
C  46.90300 17.36100 32.61400
C  48.16600 18.26300 32.29200
C  48.44600 17.97800 30.80400
C  48.06200 19.82300 32.54400
C  47.22700 16.14200 33.56600
C  47.13400 16.37700 35.06100
H  47.31700 17.78000 35.58100
N  49.13300 17.59200 27.71000
C  49.86900 18.24100 28.71900
C  50.96900 18.89400 28.04800
C  50.99500 18.43000 26.66300
C  49.67400 17.73900 26.44500
C  51.94800 19.70200 28.87200
C  52.00600 18.73000 25.62700
O  51.90400 18.43200 24.43700
C  53.20800 19.58800 25.92500
N  46.91400 16.52900 26.12200
C  47.76600 16.83000 25.11400
C  47.21800 16.59000 23.77500
C  45.85500 15.80100 24.03000
C  45.81400 15.82000 25.62600
C  46.98500 17.93300 22.99400
C  45.98600 14.24600 23.69100
C  45.05300 13.71200 22.59000
N  45.34000 15.95900 28.50100
C  44.41700 15.39100 27.66900
C  43.18100 15.05300 28.40500
C  43.48400 15.46500 29.68600
C  44.79000 15.95100 29.71300
C  41.92000 14.47700 27.88300
C  42.87800 15.54700 31.02700
O  41.84000 15.09700 31.48200
C  44.02100 16.07800 31.90500
C  43.50200 17.27700 32.63200
O  43.47500 18.39400 32.12200
O  42.98000 16.93200 33.82600
C  42.53500 17.95600 34.76800
H  50.28100 18.95500 30.67000
H  49.52500 17.55900 24.29800
H  43.91500 14.90000 25.67200
H  46.17600 18.03900 33.06100
H  49.01300 17.85100 32.84100
H  47.07300 19.97900 32.97500
H  47.97100 20.40600 31.62800
H  48.86700 20.12700 33.21300
H  48.23700 15.78800 33.36200
H  46.54600 15.32300 33.33600
H  47.91800 15.76300 35.50300
H  46.20800 15.97000 35.46700
H  52.44600 18.89400 29.40700
H  51.38100 20.34900 29.54200
H  52.61800 20.23200 28.19500
H  53.79900 19.76300 25.02700
H  53.76700 19.28500 26.81000
H  52.92800 20.57800 26.28400
H  48.04400 15.95300 23.45700
H  44.99600 16.39100 23.70900
H  45.96100 18.10700 22.66400
H  47.72700 17.96600 22.19600
H  47.21500 18.78300 23.63600
H  45.80200 13.63900 24.57800
H  46.97900 14.04600 23.28800
H  45.50500 13.98400 21.63600
H  44.02700 14.08100 22.61700
H  44.95900 12.62700 22.63900
H  41.90800 13.43900 28.21400
H  41.80400 14.62300 26.80900
H  41.10000 14.94200 28.43000
H  44.29200 15.26700 32.58100
H  41.45700 18.03400 34.62300
H  43.00500 18.91000 34.53000
H  42.55900 17.64500 35.81200
Mg -1.14100 34.00800 27.25400
C  -3.04800 32.39500 29.63300
C  0.29500 35.94900 29.74000
C  0.17100 36.02600 24.83500
C  -2.97800 32.32600 24.74300
N  -1.49300 34.25100 29.40700
C  -2.22100 33.36100 30.11800
C  -1.95800 33.64300 31.62300
C  -0.98900 34.79300 31.64900
C  -0.70600 35.04300 30.18800
C  -1.38400 36.07400 32.44200
C  -1.37100 32.28300 32.32800
C  -2.03700 31.86900 33.58900
H  -1.26600 32.15000 34.89500
N  0.09700 35.76000 27.28600
C  0.62600 36.36700 28.42200
C  1.37200 37.50700 28.00700
C  1.34200 37.57500 26.58600
C  0.47300 36.48800 26.14500
C  2.04000 38.36400 29.05600
C  2.05500 38.52500 25.65600
O  2.00600 38.31200 24.46100
C  2.62100 39.81500 26.16000
N  -1.42900 34.16600 25.07200
C  -0.62400 34.98200 24.34400
C  -0.88100 34.83100 22.83300
C  -1.72500 33.58800 22.88200
C  -2.18400 33.35300 24.31600
C  -1.59400 36.08900 22.22700
C  -1.10800 32.34400 22.15300
C  0.02800 31.58800 22.91100
N  -2.75500 32.74300 27.08900
C  -3.24800 32.02300 26.03600
C  -4.20000 31.01600 26.53100
C  -4.16100 31.13800 27.94900
C  -3.18900 32.13900 28.23700
C  -5.06200 30.01900 25.78000
C  -4.68200 30.62800 29.16500
O  -5.55900 29.84700 29.34900
C  -3.89900 31.40800 30.31400
C  -4.98700 32.09500 31.15300
O  -5.62200 33.12300 30.85600
O  -5.24200 31.38300 32.32400
C  -6.32500 31.94200 33.18900
H  0.79900 36.45000 30.56900
H  0.71700 36.58900 24.07500
H  -3.34800 31.54600 24.07500
H  -2.91900 33.85900 32.09100
H  -0.06000 34.43500 32.09300
H  -1.24000 37.00400 31.89300
H  -0.72700 35.96600 33.30500
H  -2.43700 36.00800 32.71700
H  -0.30200 32.42000 32.49300
H  -1.42100 31.45100 31.62500
H  -2.26000 30.80200 33.57000
H  -2.99900 32.38100 33.58400
H  3.07200 38.43000 28.71200
H  1.94100 37.96800 30.06600
H  1.57400 39.34900 29.10400
H  2.95900 40.38000 25.29100
H  3.54500 39.61500 26.70200
H  1.95600 40.27400 26.89100
H  0.10300 34.66400 22.39600
H  -2.62600 33.77300 22.29700
H  -1.43600 36.96300 22.85900
H  -2.67300 36.10000 22.07600
H  -1.05800 36.24500 21.29100
H  -0.61200 32.64300 21.22900
H  -1.88400 31.63700 21.85700
H  -0.38200 30.65200 23.29200
H  0.54200 32.21300 23.64200
H  0.77600 31.23900 22.19900
H  -5.09200 30.15700 24.69900
H  -6.07200 30.21700 26.13800
H  -4.65100 29.04500 26.04700
H  -3.36300 30.69500 30.94000
H  -7.09600 32.32900 32.52300
H  -5.90900 32.69500 33.85900
H  -6.84700 31.17700 33.76300

