158

Mg 8.81000 47.51100 27.57000
C  6.82100 47.20500 30.44000
C  11.52700 47.93400 29.44600
C  10.44900 48.29100 24.72000
C  5.72900 47.59400 25.63700
N  9.10300 47.55700 29.62400
C  8.21300 47.34200 30.63700
C  8.85100 47.25600 32.02800
C  10.28700 47.70100 31.68200
C  10.33400 47.69500 30.14000
C  10.78900 49.10500 32.17600
C  8.82000 45.87600 32.76000
C  9.95600 45.42100 33.73600
H  9.51900 44.89300 35.11000
N  10.77400 48.01000 27.16600
C  11.80100 48.10600 28.08100
C  13.05600 48.20200 27.39900
C  12.71300 48.41100 26.00800
C  11.25600 48.29800 25.91600
C  14.37700 48.20900 28.14800
C  13.69600 48.46400 24.88400
O  13.34600 48.65400 23.70800
C  15.21000 48.43300 25.11000
N  8.10400 47.83200 25.50000
C  9.05100 48.07400 24.52800
C  8.44700 48.44200 23.13900
C  6.97000 47.92800 23.36300
C  6.90700 47.68400 24.92000
C  8.54900 49.97500 22.84500
C  6.63800 46.55900 22.54700
C  5.51300 46.75500 21.55100
N  6.73100 47.36600 27.95100
C  5.62600 47.51000 27.06700
C  4.35900 47.39300 27.80000
C  4.82900 47.25000 29.18300
C  6.24000 47.24600 29.17400
C  2.94400 47.64300 27.20700
C  4.45000 47.06100 30.56900
O  3.34900 46.95100 31.13500
C  5.70300 46.86700 31.42300
C  5.75200 45.48400 31.86000
O  6.07700 44.52000 31.13600
O  5.30600 45.35400 33.17600
C  5.48400 43.99900 33.75800
H  12.49100 48.02400 29.94900
H  11.07500 48.66900 23.91000
H  4.80200 47.54500 25.06100
H  8.43200 48.01600 32.68800
H  11.00300 46.89200 31.82100
H  10.12900 49.46900 32.96400
H  10.69000 49.92100 31.46100
H  11.78300 49.07600 32.62400
H  8.80900 45.10900 31.98500
H  7.97300 45.70100 33.42400
H  10.54400 46.31900 33.92200
H  10.58500 44.75600 33.14400
H  15.00400 47.51900 27.58300
H  14.31200 47.87400 29.18300
H  14.72600 49.24200 28.13600
H  15.53100 48.94600 26.01600
H  15.54700 48.93000 24.20000
H  15.57300 47.40600 25.06200
H  9.01000 47.93200 22.35700
H  6.25300 48.71800 23.14100
H  8.70800 50.43100 23.82300
H  7.62400 50.36600 22.41900
H  9.39400 50.14900 22.17900
H  6.34900 45.78700 23.26000
H  7.54000 46.14300 22.09900
H  5.04200 47.73300 21.45300
H  4.67500 46.13700 21.87400
H  5.92900 46.39500 20.61000
H  2.35000 46.82800 27.62100
H  2.86000 47.78100 26.12900
H  2.51000 48.48600 27.74400
H  5.68800 47.56400 32.26100
H  6.51000 43.70500 33.53600
H  4.69500 43.28100 33.53500
H  5.60100 44.05600 34.84000
Mg -0.92900 44.06100 26.09300
C  1.48000 43.39000 28.53000
C  -3.35800 43.36200 28.53100
C  -3.19200 43.55800 23.76700
C  1.56900 44.18200 23.61900
N  -0.89100 43.33800 28.28200
C  0.21000 43.46200 29.10200
C  -0.04700 43.21900 30.57900
C  -1.60900 42.95500 30.49800
C  -2.04000 43.34400 29.00700
C  -2.11300 41.55900 30.99000
C  0.42600 44.45500 31.42500
C  0.77000 44.07400 32.91600
H  0.18000 42.71600 33.37900
N  -3.08200 43.64800 26.13900
C  -3.90200 43.59400 27.22400
C  -5.24300 43.56600 26.77600
C  -5.19400 43.34400 25.40500
C  -3.71000 43.43300 25.06200
C  -6.41900 43.61900 27.74100
C  -6.31600 43.18600 24.50800
O  -6.15900 43.10000 23.35000
C  -7.75300 43.15900 25.04400
N  -0.87000 44.16400 24.01800
C  -1.92800 43.78700 23.32300
C  -1.70400 43.93700 21.76000
C  -0.18100 44.24600 21.74600
C  0.24900 44.20200 23.22600
C  -2.03000 42.64700 20.86900
C  0.16000 45.63200 21.09700
C  0.05200 46.91200 21.94800
N  1.13000 44.05400 26.06000
C  2.06800 44.07200 24.98300
C  3.39100 43.89100 25.51400
C  3.23300 43.68400 26.92900
C  1.81600 43.76700 27.19800
C  4.63500 44.02400 24.66500
C  3.89400 43.39300 28.12800
O  5.08000 43.22400 28.43100
C  2.78300 43.14500 29.16700
C  2.99500 41.84400 29.83800
O  2.78900 40.77900 29.32700
O  3.56200 42.04400 31.09600
C  3.90600 40.86900 31.91400
H  -4.15000 43.11300 29.24000
H  -3.87900 43.19200 23.00100
H  2.24400 44.22600 22.76200
H  0.41600 42.25700 30.79900
H  -2.13300 43.66700 31.13400
H  -2.59100 40.97400 30.20300
H  -2.83900 41.72300 31.78600
H  -1.24100 41.05300 31.40300
H  -0.41400 45.14000 31.53900
H  1.31000 44.92700 30.99500
H  0.38400 44.84900 33.57700
H  1.85700 44.15400 32.93400
H  -6.95000 42.66800 27.78300
H  -6.98300 44.42000 27.26200
H  -6.07900 44.06600 28.67500
H  -8.52500 42.92900 24.30900
H  -8.09200 44.12700 25.41200
H  -7.82800 42.33000 25.74800
H  -2.39400 44.68500 21.37000
H  0.37600 43.52200 21.15200
H  -2.08600 41.78800 21.53800
H  -1.32700 42.45100 20.06000
H  -3.01800 42.83700 20.45000
H  -0.35000 45.74500 20.14000
H  1.21500 45.55500 20.83500
H  -0.33100 47.77300 21.39900
H  1.05100 47.24600 22.23000
H  -0.52200 46.81700 22.86900
H  5.47900 44.35900 25.26800
H  4.37500 44.70300 23.85300
H  4.85700 43.00000 24.36800
H  2.92200 43.84500 29.99100
H  3.43800 40.66000 32.87600
H  4.92000 40.94300 32.30700
H  3.72400 39.98700 31.30000

