158

Mg -2.63300 17.11800 26.28500
C  -3.25900 14.89700 28.72600
C  -3.30600 19.78100 28.46300
C  -2.12100 19.38700 23.79800
C  -2.15600 14.52400 23.95400
N  -3.08800 17.34800 28.41300
C  -3.25300 16.22400 29.16600
C  -3.66100 16.71100 30.58700
C  -4.13600 18.20600 30.32700
C  -3.40700 18.47300 29.04900
C  -5.58700 18.39200 30.25200
C  -2.47900 16.53600 31.53700
C  -2.70200 16.00800 32.97900
H  -1.53300 15.63500 33.80900
N  -2.57900 19.34700 26.20600
C  -2.83800 20.18400 27.21600
C  -2.63500 21.53200 26.70700
C  -2.36200 21.46200 25.32100
C  -2.37700 20.02800 25.03100
C  -2.83900 22.85300 27.62900
C  -2.09700 22.56500 24.32800
O  -1.95100 22.43800 23.11300
C  -2.04900 23.98100 24.83200
N  -2.25600 16.97100 24.12900
C  -2.09200 18.06200 23.39100
C  -1.78800 17.71200 21.97700
C  -1.57000 16.14400 21.96700
C  -2.10300 15.81300 23.41000
C  -2.71600 18.23100 20.87200
C  -0.08700 15.83600 21.78500
C  0.83700 16.25300 22.96600
N  -2.81800 15.11700 26.27400
C  -2.53600 14.18700 25.32300
C  -2.75600 12.84600 25.84200
C  -3.11000 13.10700 27.20900
C  -3.08100 14.47700 27.37400
C  -2.49400 11.55000 25.08900
C  -3.54600 12.40500 28.41600
O  -3.69500 11.21200 28.60900
C  -3.43900 13.58200 29.52600
C  -2.15900 13.19300 30.23200
O  -1.11800 13.83100 30.23700
O  -2.40400 12.13600 31.04600
C  -1.59300 12.07600 32.24100
H  -3.40400 20.54300 29.23900
H  -1.89600 20.06900 22.97500
H  -2.09700 13.64200 23.31300
H  -4.53000 16.20000 31.00100
H  -3.72200 18.87200 31.08400
H  -6.10800 17.53700 30.68300
H  -5.82600 18.46700 29.19100
H  -5.87100 19.32000 30.74900
H  -2.14000 17.55600 31.71700
H  -1.69600 15.92800 31.08300
H  -3.26600 15.07800 32.90100
H  -3.40000 16.63700 33.53000
H  -3.23800 22.64100 28.62100
H  -3.65900 23.48700 27.29000
H  -1.94000 23.47000 27.63700
H  -1.24400 24.08500 25.56100
H  -2.96200 24.25200 25.36100
H  -1.89700 24.66600 23.99800
H  -0.82200 18.18500 21.79700
H  -2.18100 15.58200 21.26200
H  -2.09100 18.63200 20.07500
H  -3.27300 19.04300 21.34000
H  -3.40500 17.48800 20.47100
H  0.22700 16.29400 20.84700
H  -0.00800 14.76200 21.61600
H  1.45500 15.51800 23.48100
H  0.36500 16.87400 23.72700
H  1.56600 16.93200 22.52400
H  -3.31400 11.19400 24.46500
H  -2.28700 10.85300 25.90000
H  -1.60000 11.61700 24.47000
H  -4.27000 13.66100 30.22600
H  -0.93800 12.92000 32.45700
H  -1.02600 11.14900 32.32400
H  -2.37700 12.05300 32.99800
Mg 25.82500 50.87900 26.42100
C  23.50200 51.88700 28.89000
C  28.09300 50.36200 29.02200
C  28.22200 50.76700 24.07900
C  23.52300 51.97700 24.04500
N  25.75400 51.07500 28.69500
C  24.68100 51.24900 29.41400
C  24.90500 50.96200 30.89600
C  26.48000 50.76200 30.88600
C  26.80400 50.73900 29.37000
C  27.27900 51.85300 31.62500
C  24.15700 49.71200 31.47100
C  23.14200 49.92500 32.64300
H  23.37000 49.17500 33.93800
N  27.82800 50.37100 26.50600
C  28.51700 50.18500 27.64900
C  29.85500 49.74300 27.24900
C  29.91300 49.86300 25.82900
C  28.62200 50.33600 25.39500
C  30.91100 49.31200 28.21100
C  31.06100 49.51800 24.91800
O  30.92200 49.64000 23.73300
C  32.30800 49.01300 25.51300
N  25.90700 51.28000 24.29500
C  26.98300 51.17500 23.52800
C  26.62400 51.49700 21.98900
C  25.08300 51.72100 22.06300
C  24.79400 51.64500 23.53700
C  27.49800 52.71800 21.64100
C  24.20400 50.70600 21.20100
C  23.85400 51.15600 19.77000
N  23.96300 51.80200 26.40400
C  23.10500 52.11400 25.36300
C  21.86200 52.64100 25.91300
C  21.99400 52.61700 27.28400
C  23.25600 52.05800 27.55200
C  20.73000 53.20400 25.05600
C  21.32500 52.89100 28.52100
O  20.21600 53.35400 28.78900
C  22.35500 52.41400 29.68600
C  22.74900 53.62100 30.47700
O  23.66900 54.41700 30.21000
O  21.81500 53.77900 31.48000
C  22.14300 54.86800 32.41200
H  28.84300 50.05700 29.75400
H  29.04000 50.84200 23.36000
H  22.69800 52.20300 23.36600
H  24.64200 51.86000 31.45600
H  26.66400 49.78500 31.33200
H  27.59900 51.69400 32.65500
H  26.80100 52.81200 31.42200
H  28.25600 51.97800 31.15900
H  24.91000 49.02300 31.85300
H  23.48000 49.28700 30.73000
H  22.16600 49.63100 32.25800
H  23.31700 50.97100 32.89300
H  31.04400 48.23200 28.26500
H  30.77800 49.77800 29.18800
H  31.85500 49.77900 27.92800
H  32.17100 48.25900 26.28800
H  32.81400 49.93500 25.80000
H  32.84800 48.56100 24.68200
H  26.91000 50.62800 21.39600
H  24.89400 52.71100 21.64800
H  28.57300 52.53600 21.61800
H  27.34600 53.62800 22.22100
H  27.30700 52.91800 20.58600
H  23.24100 50.60000 21.70200
H  24.63300 49.71700 21.04300
H  24.06700 50.39700 19.01800
H  24.45000 52.02900 19.50400
H  22.79000 51.38200 19.69800
H  19.87900 53.32600 25.72600
H  20.36200 52.55900 24.25800
H  21.04000 54.18500 24.69800
H  21.99800 51.66800 30.39600
H  23.03000 54.69400 33.02000
H  21.35900 55.07800 33.13900
H  22.31000 55.84900 31.96700

