158

Mg 48.37000 14.95700 28.17200
C  46.40000 14.99700 31.24400
C  50.48800 17.04100 29.72600
C  50.07300 14.92200 25.27200
C  45.73300 13.04200 26.69400
N  48.34600 15.94800 30.19500
C  47.54500 15.72900 31.31300
C  48.16600 16.38900 32.56300
C  49.27400 17.35700 31.91300
C  49.35900 16.79100 30.49300
C  49.04500 18.89200 31.91600
C  48.63500 15.31100 33.64400
C  48.38000 15.43500 35.13200
H  49.51200 15.34400 36.12900
N  50.09300 15.82000 27.60700
C  50.89500 16.64400 28.42400
C  52.21400 16.70700 27.81400
C  52.13100 16.19900 26.52200
C  50.71500 15.62700 26.41800
C  53.42100 17.33900 28.46400
C  53.19200 15.96900 25.46000
O  53.02500 15.41500 24.39400
C  54.63800 16.39300 25.70300
N  47.82000 14.39700 26.14400
C  48.75600 14.38300 25.13200
C  48.43100 13.31800 24.04800
C  46.98500 12.81600 24.44100
C  46.84000 13.39300 25.86300
C  48.57400 13.81400 22.52000
C  46.93000 11.18800 24.53800
C  45.78200 10.46600 23.88900
N  46.37900 14.27800 28.71300
C  45.49000 13.48400 28.02700
C  44.35100 13.23000 28.94400
C  44.66800 13.70800 30.17000
C  45.92100 14.40600 30.04000
C  43.14300 12.40200 28.64200
C  44.26200 13.78400 31.58200
O  43.25900 13.32700 32.14000
C  45.42400 14.53100 32.32200
C  44.76900 15.69800 33.01300
O  44.05500 16.53000 32.48000
O  45.23500 15.80500 34.30700
C  44.75500 16.94300 34.98300
H  51.20100 17.71700 30.20200
H  50.69200 14.79700 24.38100
H  44.97000 12.33800 26.35400
H  47.35700 16.94400 33.03700
H  50.25900 17.22800 32.36200
H  49.84500 19.36300 32.48700
H  48.08100 19.18400 32.33300
H  49.14700 19.27300 30.90000
H  49.71800 15.26700 33.53500
H  48.08700 14.39200 33.43600
H  47.60300 14.70400 35.35800
H  47.95200 16.42800 35.27100
H  53.44900 18.38200 28.14900
H  54.31100 16.71100 28.41000
H  53.24900 17.46000 29.53300
H  54.80300 17.43300 25.98500
H  55.14800 16.04900 24.80300
H  55.00600 15.76800 26.51700
H  49.22200 12.58200 24.19100
H  46.16900 13.18400 23.81900
H  49.29500 14.62600 22.60100
H  47.56500 14.12000 22.24500
H  48.95200 13.01700 21.87900
H  47.15300 10.91500 25.57000
H  47.75000 10.86400 23.89800
H  45.06200 11.20800 23.54300
H  45.32400 9.71800 24.53700
H  46.05800 10.02700 22.93000
H  42.23700 12.69100 29.17300
H  43.40900 11.40000 28.97900
H  43.00800 12.27500 27.56800
H  45.68700 13.82000 33.10500
H  43.68300 17.07300 34.83900
H  45.37400 17.76900 34.63200
H  45.03300 16.77500 36.02300
Mg 6.58800 54.32700 41.41200
C  6.23200 50.81700 41.14600
C  9.72100 53.84900 39.84400
C  6.66600 57.50100 40.89800
C  3.19200 54.51200 42.15800
N  7.72500 52.50000 40.39300
C  7.40200 51.19800 40.48200
C  8.62100 50.37100 40.01800
C  9.81300 51.38500 39.97300
C  9.04800 52.64600 40.07200
C  10.95900 51.13400 40.96300
C  8.34200 49.49300 38.74900
C  7.15700 49.85700 37.80000
H  6.40700 48.79600 37.05900
N  7.98700 55.51900 40.51200
C  9.15500 55.17300 39.99900
C  9.98800 56.37800 39.87900
C  9.15700 57.50000 40.12000
C  7.88400 56.86000 40.55500
C  11.44200 56.42800 39.49100
C  9.57700 58.95900 40.05500
O  10.71700 59.31800 39.77100
C  8.60100 60.11400 40.30900
N  5.09500 55.73000 41.27400
C  5.41800 56.97900 41.26000
C  4.28100 57.92600 41.63600
C  3.09200 56.97300 41.63800
C  3.84800 55.63100 41.72000
C  4.54700 58.66200 42.99900
C  2.37000 57.02800 40.24700
C  0.80200 57.15300 40.36700
N  5.08600 53.00900 41.89500
C  3.84000 53.24100 42.34400
C  3.29300 52.01200 42.82200
C  4.21200 51.01100 42.43100
C  5.30000 51.70100 41.80700
C  2.01500 51.79300 43.54500
C  4.53600 49.61700 42.45100
O  3.88900 48.70900 42.97700
C  5.72500 49.40500 41.58700
C  5.29200 48.50800 40.45500
O  4.50200 48.79500 39.54600
O  5.92000 47.27900 40.61200
C  5.44100 46.12800 39.84000
H  10.69400 53.74100 39.36000
H  6.58700 58.57400 41.08200
H  2.16200 54.58700 42.51200
H  8.81800 49.72500 40.87300
H  10.28300 51.42700 38.99000
H  10.67600 50.32100 41.63100
H  11.12600 52.01000 41.59000
H  11.90200 50.88200 40.47900
H  8.20600 48.44000 38.99500
H  9.23600 49.66200 38.14800
H  7.65800 50.52200 37.09700
H  6.52800 50.57200 38.33000
H  11.90100 57.21400 38.89300
H  11.72100 55.45300 39.09000
H  12.06000 56.36800 40.38700
H  8.44000 60.12300 41.38700
H  7.70900 60.00400 39.69200
H  9.11400 61.01000 39.95800
H  4.12400 58.75900 40.95000
H  2.42500 56.99800 42.49900
H  5.62200 58.76900 43.14400
H  3.92500 58.32300 43.82800
H  4.23100 59.67200 42.73900
H  2.41100 55.99800 39.89300
H  2.75500 57.75200 39.52800
H  0.57700 58.21900 40.34300
H  0.48700 56.75500 41.33100
H  0.33500 56.71300 39.48600
H  1.43000 51.02300 43.04100
H  1.37600 52.67400 43.48800
H  2.37400 51.42200 44.50500
H  6.48300 48.97000 42.23800
H  6.07200 45.26800 40.06400
H  5.39100 46.21800 38.75500
H  4.48900 45.85700 40.29500

