158

Mg 7.20600 53.99700 40.81800
C  6.32800 50.59000 40.71700
C  10.19600 53.18400 39.33800
C  7.79800 57.31700 40.46600
C  3.88600 54.59500 41.61300
N  8.10700 52.10300 40.04000
C  7.63700 50.89400 40.15300
C  8.63100 49.84100 39.52400
C  9.95100 50.68000 39.49900
C  9.38600 52.06000 39.55600
C  11.09900 50.26100 40.56300
C  8.19700 49.21600 38.15500
C  8.42000 50.08700 36.83800
H  7.14000 50.45500 36.09800
N  8.81900 55.09100 40.08200
C  9.97500 54.53400 39.54200
C  11.02800 55.54900 39.36800
C  10.34000 56.78300 39.75200
C  8.95300 56.45700 40.13700
C  12.43800 55.32100 39.09300
C  10.97000 58.19800 39.83800
O  12.11000 58.35200 39.40100
C  10.32500 59.39300 40.46300
N  5.97600 55.76300 40.72100
C  6.44200 56.99000 40.74100
C  5.34400 58.06000 40.94000
C  4.07100 57.14400 41.14600
C  4.65400 55.73700 41.16800
C  5.75700 59.21000 42.04000
C  2.77000 57.27400 40.25200
C  1.40700 57.25500 40.93600
N  5.49300 52.87600 41.26400
C  4.23200 53.27300 41.55500
C  3.41400 52.07800 42.00300
C  4.23200 50.99700 41.70000
C  5.44200 51.56200 41.14100
C  2.07700 52.09500 42.67100
C  4.33200 49.54800 41.75900
O  3.50900 48.77800 42.13200
C  5.64500 49.24500 41.09200
C  5.36600 48.39100 39.88000
O  4.66000 48.74500 38.94000
O  5.90900 47.09400 39.92800
C  5.79200 46.23900 38.80400
H  11.20600 52.85200 39.08700
H  8.05700 58.37600 40.51300
H  2.85100 54.80600 41.89300
H  8.64500 48.89800 40.07000
H  10.41300 50.52200 38.52400
H  10.72600 49.53000 41.28000
H  11.22600 51.10300 41.24300
H  11.98800 49.92200 40.03100
H  7.12500 49.01700 38.16500
H  8.80000 48.31000 38.09200
H  9.00800 49.48900 36.14300
H  9.11700 50.91500 36.96000
H  13.04300 56.13000 39.50300
H  12.79000 55.11200 38.08300
H  12.64200 54.41400 39.66200
H  11.07800 60.14200 40.71200
H  9.93300 59.11500 41.44100
H  9.57100 59.80300 39.79100
H  5.24900 58.64700 40.02600
H  3.66600 57.27900 42.14900
H  6.73500 59.04000 42.49100
H  5.03600 59.30900 42.85200
H  5.77500 60.19100 41.56700
H  2.75200 56.44400 39.54700
H  2.88200 58.23600 39.75200
H  0.71600 57.96000 40.47400
H  1.59300 57.24000 42.01000
H  0.96700 56.30400 40.63600
H  1.53800 51.22600 42.29400
H  1.46500 52.99200 42.57700
H  2.23300 51.98200 43.74400
H  6.18400 48.59300 41.78000
H  6.52500 45.43800 38.90500
H  5.82300 46.90300 37.94000
H  4.79900 45.82200 38.96700
Mg 9.67400 47.60000 25.52100
C  7.39800 48.28000 28.08800
C  12.27100 48.69400 27.66400
C  11.90300 47.28200 23.04900
C  7.03000 47.46600 23.26500
N  9.79900 48.24900 27.60200
C  8.74300 48.44400 28.43100
C  9.20500 48.60500 29.91700
C  10.61300 49.24200 29.64900
C  10.96200 48.65800 28.18800
C  10.78200 50.81000 29.68100
C  9.17500 47.39700 30.79200
C  8.90600 47.63000 32.30200
H  9.11400 46.39400 33.16600
N  11.81000 47.78300 25.39000
C  12.66400 48.24100 26.37100
C  14.04800 48.17700 25.91800
C  14.00600 47.57500 24.56800
C  12.52500 47.50900 24.28600
C  15.16500 48.72800 26.60300
C  15.15600 47.12600 23.60200
O  14.94900 46.56800 22.55600
C  16.46600 47.42900 24.03900
N  9.42000 47.33400 23.46100
C  10.53300 47.22500 22.64900
C  10.07600 47.19500 21.17300
C  8.51800 47.20300 21.22900
C  8.30000 47.33300 22.73000
C  10.61800 48.39500 20.33000
C  7.75200 46.01000 20.56600
C  8.31800 44.62400 20.93400
N  7.64800 47.75700 25.63100
C  6.71300 47.56400 24.64700
C  5.36200 47.69500 25.22600
C  5.61300 47.85900 26.60600
C  7.01400 47.90000 26.80000
C  4.06400 47.71600 24.49900
C  4.92700 48.14300 27.75500
O  3.78400 48.24600 28.05500
C  6.07900 48.30200 28.87200
C  5.89600 47.12200 29.76200
O  6.04400 45.97200 29.53000
O  5.43200 47.65100 30.97900
C  5.13400 46.73100 32.04600
H  13.10800 49.06700 28.25700
H  12.62100 47.25000 22.22700
H  6.18900 47.57200 22.57600
H  8.50500 49.30000 30.38100
H  11.33500 48.92400 30.40100
H  11.52400 50.99300 30.45800
H  9.75100 51.06700 29.92500
H  10.99600 51.11600 28.65700
H  10.09600 46.82500 30.67400
H  8.37600 46.69700 30.54800
H  7.95200 48.12300 32.49100
H  9.67800 48.33000 32.62200
H  16.11000 48.23200 26.38600
H  15.08600 48.87000 27.68100
H  15.21000 49.68800 26.08800
H  17.10700 47.14600 23.20400
H  16.56100 46.69600 24.84000
H  16.69500 48.44800 24.35300
H  10.35800 46.22400 20.76500
H  8.12500 48.04700 20.66300
H  11.27100 48.99300 20.96500
H  9.83200 49.07500 20.00000
H  11.16100 47.94900 19.49600
H  7.90300 45.91600 19.49100
H  6.66800 46.12000 20.54900
H  8.83000 44.74100 21.88900
H  9.06500 44.46500 20.15600
H  7.63100 43.77800 20.94900
H  4.10600 48.21600 23.53200
H  3.23500 48.06000 25.11800
H  3.74100 46.68300 24.36800
H  5.93700 49.16800 29.51700
H  4.71500 45.75600 31.79700
H  4.48500 47.22700 32.76800
H  6.09200 46.44800 32.48100

