158

Mg 46.92800 23.78700 28.08200
C  47.89900 26.35600 30.62700
C  46.22300 21.78700 30.55600
C  46.18500 21.59500 25.73800
C  48.09400 25.99700 25.74300
N  46.98700 24.09100 30.41500
C  47.38600 25.15100 31.21100
C  46.97200 24.81900 32.66000
C  46.52200 23.31600 32.58900
C  46.53700 23.04200 31.12100
C  47.34400 22.32600 33.39500
C  46.04300 25.87000 33.35600
C  45.53000 25.48100 34.78500
H  45.35500 26.57700 35.86200
N  46.36100 21.95400 28.11300
C  46.09500 21.21700 29.22700
C  45.71100 19.87500 28.90800
C  45.53400 19.86400 27.50300
C  46.00900 21.22100 27.05900
C  45.46300 18.79600 29.99000
C  45.08500 18.78000 26.52100
O  44.93300 18.93700 25.27100
C  44.76000 17.42400 27.10800
N  47.17200 23.83300 26.04700
C  46.72900 22.84700 25.30100
C  47.03500 23.08400 23.80200
C  47.39000 24.60000 23.87400
C  47.53300 24.85800 25.31200
C  48.07600 22.11500 23.09500
C  46.22900 25.40100 23.12800
C  46.13300 25.18200 21.62900
N  47.79200 25.74000 28.10500
C  48.28900 26.47200 27.11100
C  48.87000 27.66500 27.56900
C  48.58700 27.70600 28.91900
C  48.06000 26.45200 29.24400
C  49.59600 28.66700 26.72400
C  48.75200 28.50100 30.07100
O  49.19800 29.63100 30.16200
C  48.20600 27.67300 31.28100
C  49.32800 27.60300 32.27900
O  50.33300 26.88400 32.12800
O  49.02100 28.30300 33.42800
C  49.82300 28.03400 34.69200
H  45.86800 21.08100 31.30900
H  45.87600 20.91600 24.94000
H  48.57000 26.69600 25.05200
H  47.95900 24.77000 33.11900
H  45.51800 23.20700 32.99900
H  46.78300 21.48600 33.80400
H  47.88000 22.78000 34.22900
H  48.01700 21.84000 32.68800
H  45.17700 25.96800 32.70100
H  46.64800 26.77300 33.44100
H  46.11800 24.67300 35.21900
H  44.49300 25.16700 34.66800
H  44.40000 18.57300 30.07900
H  45.70900 19.23900 30.95500
H  46.10900 17.93800 29.80200
H  45.69700 17.14900 27.59300
H  44.52900 16.73600 26.29500
H  43.97300 17.55900 27.85100
H  46.04200 22.98400 23.36400
H  48.39900 24.64000 23.46500
H  47.62300 21.95000 22.11800
H  48.08600 21.18100 23.65600
H  49.03800 22.58000 22.87900
H  46.37700 26.46400 23.31800
H  45.29400 25.06400 23.57600
H  46.89500 24.48700 21.27500
H  46.40100 26.13400 21.16900
H  45.17500 24.82300 21.25500
H  50.33600 28.12900 26.13200
H  50.15900 29.27100 27.43500
H  48.90400 29.22600 26.09400
H  47.32700 28.17700 31.68400
H  50.19100 28.98500 35.07800
H  50.59200 27.28400 34.50800
H  49.07500 27.62400 35.37100
Mg -4.65400 25.79100 25.79500
C  -3.76200 27.62500 28.64600
C  -6.12900 23.44300 27.61900
C  -5.18100 24.03400 22.99500
C  -2.69100 28.05600 23.90300
N  -4.76100 25.56000 27.90500
C  -4.51900 26.47900 28.93300
C  -5.00700 25.96700 30.33100
C  -5.64100 24.62400 29.90600
C  -5.52700 24.51800 28.33700
C  -4.99200 23.39800 30.54100
C  -6.06300 27.01000 30.96200
C  -6.40500 26.65600 32.44500
H  -5.73900 25.43800 33.13600
N  -5.59800 23.99000 25.40300
C  -6.27300 23.30800 26.23400
C  -7.09500 22.32100 25.59500
C  -6.72200 22.34200 24.20600
C  -5.81600 23.54500 24.15700
C  -8.07100 21.47000 26.43900
C  -7.19000 21.60500 23.06800
O  -6.75500 21.61600 21.91200
C  -8.33600 20.63800 23.30400
N  -4.11700 26.04700 23.64300
C  -4.35100 25.14300 22.76600
C  -3.61300 25.42400 21.45000
C  -2.86100 26.83300 21.62000
C  -3.26500 27.04800 23.15700
C  -2.64500 24.23300 20.94500
C  -3.48700 27.97300 20.72900
C  -4.93500 28.44400 21.07500
N  -3.48500 27.47900 26.13900
C  -2.71000 28.26200 25.25500
C  -2.06400 29.24200 26.04000
C  -2.48100 29.08000 27.35100
C  -3.30900 27.98200 27.40300
C  -1.21400 30.39000 25.55100
C  -2.34300 29.62300 28.65300
O  -1.61200 30.55100 29.08100
C  -3.13400 28.71100 29.59500
C  -2.21100 28.03500 30.60200
O  -1.06600 27.69100 30.41800
O  -2.80500 27.75500 31.83100
C  -2.08300 26.90400 32.83700
H  -6.64000 22.79700 28.33700
H  -5.27200 23.38200 22.12400
H  -2.09200 28.63100 23.19400
H  -4.17400 25.71200 30.98600
H  -6.69100 24.53300 30.18400
H  -5.78700 22.84500 31.04100
H  -4.13500 23.50700 31.20500
H  -4.66400 22.63400 29.83700
H  -6.87200 27.07500 30.23500
H  -5.64500 28.01600 30.93200
H  -7.45200 26.36700 32.34800
H  -6.38700 27.49000 33.14700
H  -7.96100 20.41700 26.18000
H  -9.11600 21.77600 26.39700
H  -7.84600 21.46400 27.50500
H  -8.63600 20.25500 22.32900
H  -9.19700 21.13600 23.75000
H  -7.93000 19.88000 23.97400
H  -4.34000 25.64600 20.66900
H  -1.77800 26.77900 21.51200
H  -1.61400 24.56200 21.07500
H  -2.92500 23.98000 19.92300
H  -2.91500 23.39800 21.59200
H  -3.38300 27.69000 19.68200
H  -2.86800 28.86600 20.81400
H  -5.36000 28.39300 20.07300
H  -4.83900 29.42700 21.53700
H  -5.38700 27.77400 21.80600
H  -0.67500 30.19100 24.62500
H  -0.43500 30.56900 26.29200
H  -1.70300 31.35300 25.40100
H  -3.91600 29.30400 30.07000
H  -1.01500 27.08800 32.95100
H  -2.18900 25.91300 32.39700
H  -2.65700 27.01400 33.75700

