158

Mg 53.34600 23.68500 44.63600
C  50.67700 25.91700 43.80700
C  51.62000 21.21700 42.99100
C  56.05500 21.89400 44.83300
C  54.90900 26.36100 46.20000
N  51.51500 23.68100 43.44200
C  50.60500 24.66900 43.26300
C  49.63500 24.25900 42.18400
C  49.61100 22.66000 42.41400
C  51.03200 22.47100 42.97000
C  48.56900 22.09700 43.34400
C  50.17000 24.67500 40.73300
C  49.11900 25.30600 39.84900
H  49.54900 26.17300 38.65500
N  53.76500 21.77100 44.00500
C  52.90600 20.85400 43.45700
C  53.51800 19.55800 43.49000
C  54.83300 19.79700 43.94000
C  54.91100 21.18000 44.35000
C  52.72800 18.29600 43.04700
C  55.91700 18.74700 44.10700
O  55.77100 17.56200 43.69100
C  57.23900 19.00100 44.74100
N  55.35600 24.16700 45.20900
C  56.26800 23.21200 45.24900
C  57.55500 23.74200 45.85600
C  57.19800 25.17300 46.26300
C  55.70600 25.30900 45.84700
C  58.03600 22.92200 47.03300
C  58.15900 26.23000 45.55100
C  57.90800 26.59500 44.10100
N  52.97100 25.71700 44.92300
C  53.62600 26.57800 45.76100
C  52.87200 27.73900 46.00000
C  51.70000 27.55700 45.28400
C  51.79600 26.31500 44.59600
C  53.23500 28.99100 46.83500
C  50.57900 28.21600 44.84700
O  50.21300 29.36500 45.13700
C  49.81300 27.21400 43.81400
C  49.50800 27.85200 42.51100
O  50.24300 27.83000 41.52300
O  48.21300 28.38000 42.53300
C  47.63700 29.12400 41.40400
H  50.92600 20.43700 42.67200
H  56.92300 21.24500 44.96900
H  55.29100 27.19900 46.78800
H  48.59200 24.54000 42.33200
H  49.43300 22.13900 41.47300
H  49.03200 22.12800 44.33000
H  48.43800 21.04300 43.09800
H  47.58000 22.55500 43.32000
H  50.41600 23.72000 40.27000
H  51.05800 25.30500 40.78000
H  48.54700 26.02500 40.43400
H  48.33500 24.59400 39.59300
H  52.71300 18.19800 41.96200
H  51.72200 18.40000 43.45500
H  53.32600 17.49300 43.47800
H  57.90900 18.14700 44.64700
H  57.15900 19.34300 45.77300
H  57.83900 19.73200 44.19700
H  58.25700 23.64100 45.02800
H  57.27300 25.28600 47.34500
H  59.09800 22.71100 46.90400
H  57.39300 22.04400 47.08600
H  57.85900 23.42000 47.98600
H  59.18400 25.89500 45.71300
H  58.17900 27.16400 46.11200
H  57.79800 27.67900 44.10000
H  57.03100 26.13300 43.64800
H  58.69700 26.29400 43.41200
H  52.34300 29.39600 47.31200
H  53.55500 29.80000 46.17800
H  53.95900 28.76400 47.61700
H  48.93000 26.97900 44.40900
H  46.57000 29.22300 41.60500
H  47.81600 28.56500 40.48500
H  48.08900 30.11500 41.45000
Mg 48.73300 35.77100 29.03800
C  46.28500 33.98400 30.96900
C  48.66500 38.33900 31.21200
C  50.15500 37.57600 26.65300
C  48.14500 33.25800 26.52600
N  47.48500 36.11500 30.79500
C  46.75100 35.25300 31.53700
C  46.44600 35.87200 32.91400
C  46.98700 37.32100 32.80500
C  47.83200 37.23900 31.51000
C  46.05100 38.49500 32.86700
C  47.03700 35.05300 34.17700
C  48.51600 35.14100 34.54500
H  48.83000 35.90200 35.82900
N  49.44100 37.69600 28.98400
C  49.40500 38.52600 29.97900
C  50.06600 39.82900 29.56900
C  50.42900 39.63700 28.20100
C  49.96900 38.26500 27.86900
C  50.38600 40.93200 30.45500
C  51.14000 40.54600 27.23200
O  51.68000 40.11000 26.20600
C  51.23100 42.07000 27.56200
N  49.12100 35.43100 26.91600
C  49.83100 36.30900 26.18200
C  50.02700 35.85400 24.71400
C  49.57100 34.34900 24.78800
C  48.94900 34.32100 26.17500
C  49.27300 36.68000 23.59200
C  50.68200 33.33100 24.57400
C  50.40300 32.26500 23.43100
N  47.68300 33.92500 28.82700
C  47.54400 33.03900 27.77300
C  46.61600 31.96400 28.11500
C  46.11900 32.37100 29.37400
C  46.69200 33.56100 29.74200
C  46.17700 30.65600 27.35900
C  45.20500 31.84900 30.41700
O  44.51700 30.81800 30.53700
C  45.18400 32.98800 31.46300
C  45.40300 32.37400 32.80100
O  46.23200 31.55600 33.08700
O  44.37900 32.82500 33.62500
C  44.13300 32.31400 34.96300
H  48.72600 39.13500 31.95800
H  50.71400 38.10300 25.87600
H  47.82200 32.58600 25.72900
H  45.37200 35.97800 33.06400
H  47.75200 37.51900 33.55500
H  46.48200 39.40800 33.28000
H  45.25600 38.16500 33.53500
H  45.61500 38.75100 31.90100
H  46.95600 34.02300 33.83100
H  46.46000 35.36600 35.04600
H  49.08300 35.54600 33.70700
H  48.93500 34.13700 34.60900
H  51.34500 41.38700 30.20700
H  50.49600 40.58200 31.48100
H  49.58700 41.66100 30.32600
H  50.39600 42.40200 28.17900
H  51.26500 42.57100 26.59500
H  52.23800 42.13200 27.97400
H  51.10000 35.95800 24.55400
H  48.82600 34.12900 24.02300
H  48.54300 37.37900 23.99900
H  48.67000 36.10200 22.89200
H  49.97800 37.28900 23.02600
H  50.76700 32.78300 25.51300
H  51.67700 33.75000 24.43000
H  49.49400 32.45500 22.86100
H  50.30500 31.28400 23.89500
H  51.27200 32.19600 22.77700
H  45.67000 30.08100 28.13400
H  46.96100 30.06300 26.88700
H  45.60900 30.93800 26.47300
H  44.22500 33.50600 31.43600
H  44.03400 33.11300 35.69800
H  44.90800 31.71200 35.43700
H  43.16700 31.80800 34.97200

