158

Mg 16.82900 -1.22100 28.54200
C  15.82600 0.53400 31.30900
C  18.96200 -2.96600 30.57200
C  18.18300 -2.59600 25.77100
C  14.95600 0.86500 26.48200
N  17.32000 -1.14000 30.72700
C  16.82400 -0.43000 31.65000
C  17.31500 -0.81500 33.04700
C  18.63900 -1.60000 32.75100
C  18.36400 -1.88900 31.30600
C  20.06200 -1.10100 33.13600
C  16.28900 -1.39800 34.02000
C  16.31800 -0.77300 35.44600
H  17.61600 -0.22100 35.93000
N  18.28600 -2.68500 28.28700
C  19.06300 -3.34800 29.21900
C  19.99500 -4.25700 28.47000
C  19.68400 -4.21500 27.10800
C  18.69100 -3.14000 26.97800
C  21.06300 -5.13800 29.22900
C  20.26800 -5.07600 25.90400
O  19.89600 -5.07800 24.72700
C  21.39800 -6.02400 26.13800
N  16.55600 -0.98400 26.37900
C  17.25100 -1.61000 25.48100
C  16.86200 -1.18400 24.06800
C  15.69600 -0.25700 24.27800
C  15.75000 -0.04200 25.80200
C  18.09500 -0.60600 23.16800
C  14.26700 -0.70600 23.85000
C  14.02300 -0.66800 22.34200
N  15.67300 0.37500 28.74100
C  14.93200 1.09500 27.85000
C  14.07200 2.10400 28.55200
C  14.38600 1.83600 29.90300
C  15.37400 0.81100 29.98500
C  13.12400 3.17300 27.93000
C  14.07700 2.20100 31.29700
O  13.20800 2.98900 31.70700
C  14.98600 1.44000 32.20000
C  15.88200 2.41200 32.82100
O  16.93200 2.76400 32.39300
O  15.25800 2.90000 33.94600
C  16.11800 3.80500 34.75600
H  19.69000 -3.56400 31.12500
H  18.55500 -3.05900 24.85500
H  14.48300 1.62200 25.85300
H  17.72600 0.09500 33.48700
H  18.44900 -2.52100 33.30200
H  20.57500 -0.78800 32.22600
H  20.61700 -1.88400 33.65400
H  19.93300 -0.24100 33.79300
H  16.33500 -2.48300 34.11100
H  15.30800 -1.29700 33.55500
H  16.02400 -1.50600 36.19700
H  15.58800 0.03200 35.36800
H  21.21600 -4.86700 30.27400
H  21.99300 -4.81300 28.76400
H  20.86600 -6.20800 29.17200
H  22.34200 -5.50900 26.31700
H  21.51600 -6.59100 25.21400
H  21.11700 -6.71200 26.93500
H  16.46200 -2.11700 23.67100
H  15.96600 0.68700 23.80600
H  18.59100 -1.44900 22.68700
H  18.85900 -0.22700 23.84800
H  17.61200 0.09800 22.49000
H  13.54900 0.00600 24.25600
H  14.07600 -1.76000 24.05100
H  13.37100 0.13800 22.00500
H  13.67900 -1.64700 22.00700
H  14.95700 -0.45300 21.82500
H  13.61600 3.56600 27.04000
H  12.96600 4.06800 28.53200
H  12.20400 2.66800 27.63500
H  14.39400 0.92200 32.95500
H  16.02100 3.52000 35.80300
H  15.81200 4.83400 34.57100
H  17.16600 3.67600 34.48600
Mg 6.76600 55.59700 40.89600
C  4.25000 53.19600 40.71700
C  8.98100 53.20400 40.08700
C  8.96700 58.10800 40.26100
C  4.28400 58.01700 41.61200
N  6.53700 53.57500 40.20600
C  5.46800 52.74600 40.24800
C  5.82300 51.31500 39.82200
C  7.32100 51.26300 40.09700
C  7.66800 52.74400 40.11700
C  7.69700 50.54700 41.46700
C  5.40500 51.19100 38.31500
C  4.56500 50.01400 37.95800
H  5.05500 49.23800 36.69500
N  8.69700 55.69800 40.23400
C  9.47900 54.54800 40.03900
C  10.79900 54.98700 39.71600
C  10.82200 56.38300 39.64300
C  9.46100 56.74800 40.00400
C  11.88500 54.00900 39.32200
C  12.05100 57.21300 39.22400
O  13.14900 56.70900 39.23000
C  11.84600 58.67900 38.78000
N  6.55100 57.76000 40.80400
C  7.66100 58.56000 40.50600
C  7.34100 60.04100 40.73300
C  5.88900 60.08100 41.15200
C  5.52300 58.52900 41.24200
C  8.20900 60.79800 41.74900
C  4.86200 60.82100 40.23100
C  3.90200 61.69500 40.99400
N  4.69600 55.68800 41.15000
C  3.85800 56.64300 41.54000
C  2.47600 56.12400 41.73100
C  2.63300 54.75200 41.53500
C  3.98700 54.55700 41.09700
C  1.23700 56.93700 42.07700
C  1.89600 53.48600 41.58400
O  0.71900 53.28000 41.86400
C  2.94100 52.42700 40.95000
C  2.32300 51.79900 39.76500
O  2.22100 52.26700 38.61800
O  1.81800 50.56400 40.18000
C  1.31000 49.70700 39.15600
H  9.74400 52.42800 39.99500
H  9.73900 58.88000 40.25900
H  3.55400 58.75400 41.95300
H  5.32400 50.66100 40.53700
H  7.83100 50.79200 39.25700
H  8.33400 49.70300 41.20500
H  6.83400 50.17400 42.02000
H  8.27300 51.24200 42.07800
H  6.29700 51.10600 37.69400
H  4.98500 52.13600 37.97000
H  3.52300 50.31900 37.85500
H  4.58500 49.34300 38.81600
H  12.30100 54.50100 38.44300
H  11.55200 53.00800 39.04800
H  12.58400 54.02200 40.15900
H  12.44800 58.94400 37.91100
H  12.23900 59.35500 39.53900
H  10.80900 58.90600 38.52900
H  7.50500 60.53500 39.77600
H  5.84100 60.48500 42.16300
H  7.81000 61.04600 42.73300
H  8.64400 61.71300 41.34900
H  8.91400 60.08100 42.17100
H  4.23200 60.07900 39.73900
H  5.37000 61.37900 39.44400
H  4.26200 61.87500 42.00700
H  2.89200 61.29000 40.94200
H  3.91000 62.59200 40.37500
H  0.95900 57.62400 41.27800
H  1.42200 57.55200 42.95800
H  0.49100 56.15400 42.21400
H  3.11700 51.66800 41.71200
H  1.07500 50.22700 38.22700
H  0.39100 49.21000 39.46600
H  2.08100 48.96000 38.97000

