158

Mg 24.54600 1.61300 29.04200
C  26.84300 1.40000 31.67800
C  22.05300 1.81200 31.27600
C  22.54500 1.45400 26.44300
C  27.31700 1.00400 26.89800
N  24.57100 1.65700 31.16300
C  25.60800 1.65000 32.09100
C  25.08400 1.69700 33.51700
C  23.60400 1.69200 33.38400
C  23.35600 1.76300 31.86400
C  22.74800 0.50500 33.96600
C  25.66600 2.86000 34.33700
C  26.33700 2.62500 35.75900
H  26.28900 3.62300 36.87200
N  22.51600 1.63600 28.86200
C  21.65400 1.70900 29.90100
C  20.37200 1.81500 29.41000
C  20.44800 1.63100 27.97700
C  21.85600 1.51300 27.65700
C  19.21500 2.01600 30.33600
C  19.29900 1.55200 26.98900
O  19.49600 1.41700 25.80700
C  17.90300 1.74600 27.41600
N  24.95800 1.35500 26.97000
C  23.89200 1.43900 26.12500
C  24.37100 1.51900 24.62700
C  25.96500 1.35200 24.76800
C  26.11900 1.25500 26.24200
C  23.83200 0.31000 23.79000
C  26.75600 2.50400 24.16600
C  26.60800 3.86200 24.71100
N  26.67800 1.30600 29.18600
C  27.65200 1.00600 28.27800
C  28.89600 0.81200 28.90900
C  28.65300 0.97800 30.28800
C  27.27300 1.27000 30.38600
C  30.18500 0.59500 28.33900
C  29.31400 1.01100 31.56100
O  30.45800 0.87700 31.84000
C  28.10900 1.33300 32.57100
C  28.16600 0.31800 33.60400
O  27.44900 -0.68700 33.75600
O  29.18700 0.61000 34.50400
C  29.25800 -0.23300 35.68300
H  21.21300 1.96800 31.95600
H  21.85500 1.36800 25.60100
H  28.13700 0.93600 26.18000
H  25.31300 0.76700 34.03700
H  23.14200 2.59200 33.79000
H  22.09200 -0.05800 33.30100
H  22.14700 0.82400 34.81800
H  23.42800 -0.30800 34.22000
H  24.89800 3.57500 34.63200
H  26.24800 3.54600 33.72200
H  27.40600 2.43600 35.66300
H  25.87900 1.72300 36.16500
H  18.46200 2.63800 29.85100
H  19.38200 2.31900 31.36900
H  18.67000 1.07800 30.44600
H  17.54800 1.16900 28.27100
H  17.23500 1.33800 26.65800
H  17.95900 2.82500 27.56200
H  23.97900 2.45800 24.23500
H  26.34900 0.42300 24.34700
H  23.48300 -0.43500 24.50400
H  24.51600 -0.23900 23.14200
H  23.05900 0.66200 23.10700
H  26.49600 2.63200 23.11500
H  27.80700 2.23700 24.27000
H  26.06300 3.93700 25.65100
H  26.30300 4.56200 23.93300
H  27.59600 4.21400 25.01000
H  30.99200 1.06300 28.90400
H  30.23100 1.08900 27.36900
H  30.47200 -0.45700 28.34800
H  28.23800 2.25600 33.13600
H  29.25800 -1.29200 35.42400
H  28.32900 0.06400 36.17000
H  29.98000 0.07700 36.43800
Mg 54.31800 24.95700 46.07300
C  51.73800 26.92500 44.90900
C  52.86400 22.25500 44.24400
C  57.31000 23.14700 46.29700
C  55.84700 27.59800 47.49700
N  52.57100 24.68900 44.66200
C  51.62100 25.61900 44.32000
C  50.51600 24.98900 43.49900
C  50.68600 23.52800 43.72000
C  52.11700 23.41900 44.37400
C  49.66900 22.86200 44.66100
C  50.76900 25.28500 41.96300
C  52.18000 25.78900 41.49500
H  53.30400 24.75900 41.39900
N  55.01100 23.04000 45.42200
C  54.23200 22.13900 44.64400
C  54.98900 20.90300 44.41500
C  56.24300 21.10400 45.12200
C  56.27600 22.44800 45.59000
C  54.45800 19.67500 43.74600
C  57.35400 20.03900 45.09500
O  57.15600 18.98900 44.55600
C  58.78900 20.28200 45.55400
N  56.37200 25.24600 46.82900
C  57.39600 24.39300 46.85300
C  58.69000 25.05000 47.38700
C  58.24100 26.54400 47.70800
C  56.68500 26.42500 47.40600
C  59.32500 24.29300 48.60200
C  58.89700 27.65300 46.83700
C  58.73600 27.52000 45.35200
N  53.94100 26.82800 46.29400
C  54.59000 27.74700 46.99300
C  53.75300 28.93000 46.96000
C  52.56700 28.66800 46.15300
C  52.78900 27.31400 45.71300
C  54.05800 30.24100 47.61400
C  51.35200 29.19000 45.64400
O  50.85100 30.29800 45.74300
C  50.69900 28.04600 44.75800
C  50.68100 28.64400 43.42700
O  51.61900 29.12500 42.76900
O  49.39600 28.31700 42.84200
C  49.24000 28.49800 41.38000
H  52.22900 21.45600 43.85700
H  58.24400 22.61700 46.49700
H  56.32600 28.53200 47.79600
H  49.54900 25.41900 43.75900
H  50.63200 22.92900 42.81000
H  48.75700 23.42400 44.46000
H  49.83700 22.82300 45.73700
H  49.55900 21.85100 44.27100
H  50.09400 26.08500 41.65700
H  50.45700 24.48500 41.29200
H  52.42900 26.67100 42.08500
H  52.17300 26.10400 40.45200
H  55.16100 19.31100 42.99700
H  53.48100 19.82000 43.28500
H  54.32500 18.87300 44.47300
H  59.42000 19.46100 45.21400
H  58.87600 20.39800 46.63400
H  59.23000 21.12800 45.02600
H  59.40700 24.98100 46.56800
H  58.50400 26.76700 48.74200
H  59.22500 24.92300 49.48600
H  60.34200 24.09700 48.26100
H  58.76600 23.38300 48.81900
H  59.93500 27.34500 46.96300
H  58.82200 28.68000 47.19300
H  57.79800 26.99700 45.16600
H  59.52000 27.03300 44.77200
H  58.51700 28.47800 44.88000
H  54.87200 30.21200 48.33900
H  53.17100 30.72600 48.02200
H  54.41200 31.01200 46.92900
H  49.69000 27.68300 44.95500
H  50.19100 28.35900 40.86500
H  48.75000 29.45600 41.20800
H  48.50300 27.76200 41.06000

