158

Mg -2.50200 18.36800 27.28900
C  -2.65400 15.95300 29.72600
C  -2.86400 20.82600 29.83100
C  -2.60300 20.70000 24.82200
C  -2.84000 15.83000 24.74900
N  -2.53900 18.30400 29.56800
C  -2.61000 17.15300 30.35600
C  -2.68200 17.56400 31.85200
C  -3.03400 19.12800 31.84100
C  -2.79900 19.46100 30.32400
C  -4.46300 19.43300 32.25100
C  -1.43900 17.10800 32.65800
C  -1.13200 17.87800 33.99100
H  -0.54600 16.96000 35.08700
N  -2.58200 20.41200 27.33300
C  -2.69600 21.24900 28.46500
C  -2.56000 22.64700 27.98600
C  -2.48600 22.64500 26.57900
C  -2.57000 21.20500 26.20700
C  -2.60900 23.78600 28.98500
C  -2.40300 23.79800 25.57600
O  -2.28100 23.67000 24.37000
C  -2.48600 25.19900 26.09500
N  -2.86600 18.22000 24.99700
C  -2.79600 19.37700 24.27100
C  -2.80100 19.03500 22.76000
C  -2.86600 17.47600 22.73900
C  -2.78800 17.17200 24.22500
C  -3.84900 19.67200 21.82500
C  -1.88500 16.66300 21.86700
C  -0.53500 16.51600 22.57500
N  -2.59200 16.31900 27.16600
C  -2.70400 15.44100 26.11900
C  -2.82600 14.07700 26.68000
C  -2.83000 14.23600 28.04400
C  -2.75200 15.64400 28.32600
C  -2.87300 12.82600 25.84900
C  -2.87700 13.48900 29.27100
O  -3.04900 12.28800 29.57600
C  -2.76500 14.60800 30.36700
C  -1.63100 14.18700 31.18900
O  -0.41200 14.27500 30.92900
O  -2.13600 13.52000 32.25300
C  -1.12600 12.82100 33.08800
H  -2.98600 21.62000 30.57000
H  -2.67100 21.50900 24.09100
H  -2.86000 15.11000 23.92800
H  -3.46400 16.96900 32.32300
H  -2.40600 19.72900 32.49800
H  -4.86700 20.03400 31.43600
H  -4.50600 20.11900 33.09800
H  -5.12500 18.57900 32.39300
H  -0.59900 17.26200 31.98200
H  -1.70000 16.07000 32.86400
H  -2.06900 18.29400 34.36000
H  -0.30800 18.57400 33.83400
H  -1.77100 24.37300 28.61100
H  -2.34600 23.41800 29.97600
H  -3.47100 24.44700 28.89200
H  -1.71200 25.49100 26.80400
H  -3.43000 25.15000 26.63800
H  -2.61200 25.94600 25.31100
H  -1.77600 19.27800 22.47900
H  -3.89000 17.23100 22.46000
H  -4.43800 20.30800 22.48600
H  -4.52000 18.98500 21.31000
H  -3.35400 20.24900 21.04300
H  -1.80700 17.16100 20.90000
H  -2.37500 15.73200 21.58400
H  -0.47200 15.64300 23.22500
H  -0.31500 17.33900 23.25500
H  0.25400 16.42000 21.83000
H  -3.28000 12.97500 24.84900
H  -3.46700 12.12600 26.43700
H  -1.86400 12.42400 25.75100
H  -3.68400 14.56100 30.95000
H  -0.30600 13.50600 33.30400
H  -0.82300 11.83000 32.74900
H  -1.57400 12.78200 34.08100
Mg 27.08700 49.05300 26.35900
C  24.79100 50.34100 28.90600
C  29.20800 48.02800 28.93500
C  29.13200 47.86900 24.12900
C  25.00900 50.45900 23.96300
N  26.97100 49.19200 28.66800
C  25.87700 49.66800 29.48700
C  26.19200 49.42600 30.99800
C  27.64700 48.83900 30.95100
C  27.98000 48.69600 29.45100
C  28.70800 49.69700 31.73200
C  25.16600 48.43900 31.67300
C  24.36200 49.04100 32.83400
H  24.19400 48.24700 34.11700
N  28.98500 48.20200 26.50400
C  29.68900 47.79500 27.62300
C  30.89000 47.09200 27.29600
C  30.84100 46.97000 25.84400
C  29.61300 47.67900 25.45600
C  31.87600 46.53300 28.29800
C  31.75000 46.34700 24.87000
O  31.60000 46.41300 23.62500
C  32.89700 45.65100 25.38200
N  27.13800 49.22200 24.27000
C  28.06700 48.55900 23.54600
C  27.65800 48.65700 21.98900
C  26.31500 49.39000 22.03900
C  26.08300 49.66300 23.51300
C  28.73000 49.37200 21.10600
C  25.19900 48.53600 21.38900
C  24.36400 47.51300 22.27000
N  25.27400 50.26600 26.36800
C  24.57100 50.72900 25.30200
C  23.38300 51.46700 25.79500
C  23.45500 51.41400 27.22100
C  24.56200 50.61100 27.52000
C  22.30000 52.04000 24.94900
C  22.74500 51.69700 28.46200
O  21.70300 52.27500 28.61500
C  23.66600 51.11100 29.63200
C  24.08200 52.21800 30.49200
O  24.78600 53.19800 30.16500
O  23.59500 52.01500 31.71400
C  24.06300 52.90900 32.78200
H  29.80600 47.63500 29.76000
H  29.64700 47.36500 23.30900
H  24.40800 50.88200 23.15500
H  26.12100 50.40600 31.46900
H  27.63500 47.85800 31.42600
H  28.22200 50.26400 32.52600
H  29.16000 50.42700 31.06200
H  29.51900 49.07800 32.11600
H  25.61300 47.49800 31.99300
H  24.50800 48.05300 30.89500
H  23.35600 49.12600 32.42200
H  24.63700 50.04700 33.15100
H  32.89000 46.79700 27.99700
H  31.92100 45.44500 28.33700
H  31.74600 46.85700 29.33100
H  33.59300 46.38200 25.79400
H  33.13300 44.95100 24.58000
H  32.58800 45.01900 26.21400
H  27.45100 47.62400 21.70800
H  26.34400 50.40000 21.62900
H  29.01100 48.71100 20.28500
H  29.66500 49.60600 21.61500
H  28.34100 50.29500 20.67700
H  25.57700 48.00400 20.51600
H  24.44300 49.09300 20.83500
H  23.33000 47.84700 22.34800
H  24.68200 47.29900 23.29000
H  24.42900 46.62300 21.64400
H  21.74900 51.39800 24.26200
H  22.77800 52.79800 24.32900
H  21.61100 52.34400 25.73700
H  23.04900 50.36000 30.12500
H  24.02900 53.93800 32.42300
H  25.11000 52.69200 32.99300
H  23.29500 52.84500 33.55200

