158

Mg 53.65700 23.73000 44.51300
C  50.91900 25.72300 43.80900
C  51.99900 21.06400 43.04800
C  56.60800 22.04600 44.40700
C  55.42600 26.56800 45.41600
N  51.74800 23.55100 43.34100
C  50.76000 24.42700 43.38900
C  49.60900 23.91500 42.49200
C  49.75500 22.33700 42.61700
C  51.28800 22.28300 43.02000
C  48.66200 21.54200 43.52700
C  49.74000 24.36900 41.03000
C  48.45200 24.36800 40.14500
H  48.03000 22.95300 39.63100
N  54.18300 21.81600 43.82800
C  53.27100 20.82900 43.41800
C  53.89800 19.56700 43.42600
C  55.25900 19.81400 43.83200
C  55.44200 21.28400 44.02000
C  53.23200 18.26500 43.14600
C  56.32600 18.71300 43.87500
O  56.09900 17.55900 43.55800
C  57.69900 18.94900 44.28300
N  55.83900 24.29600 44.53300
C  56.77100 23.39000 44.67300
C  58.15400 23.99100 44.83400
C  57.82200 25.53000 45.15200
C  56.23300 25.49700 45.05000
C  58.98000 23.22300 45.91800
C  58.48700 26.58000 44.19800
C  59.65900 27.31300 44.81400
N  53.23100 25.70700 44.75500
C  54.04300 26.73900 45.17400
C  53.28700 27.93600 45.40900
C  52.02800 27.60900 44.87400
C  52.05900 26.23900 44.47000
C  53.79800 29.07900 46.14000
C  50.69800 28.12600 44.58800
O  50.18900 29.21700 44.81500
C  50.01100 26.88000 43.73900
C  49.55700 27.42100 42.47200
O  50.27800 27.88500 41.60700
O  48.23100 27.36400 42.44100
C  47.51000 28.06300 41.35700
H  51.51000 20.14400 42.72300
H  57.52600 21.48700 44.59800
H  55.97700 27.41900 45.82200
H  48.64400 24.27000 42.85400
H  49.70500 21.88000 41.62800
H  48.63600 21.88300 44.56200
H  49.01900 20.51300 43.56900
H  47.65600 21.35500 43.15300
H  50.40200 23.69700 40.48300
H  50.11800 25.37700 40.86100
H  48.75700 25.04400 39.34700
H  47.61100 24.77400 40.70700
H  53.70300 17.50900 43.77400
H  53.41500 17.97300 42.11200
H  52.17500 18.32800 43.40700
H  58.17200 19.37900 43.40100
H  58.11700 17.98000 44.55500
H  57.71800 19.53700 45.20100
H  58.53000 23.90300 43.81500
H  57.94900 25.81000 46.19800
H  59.48600 23.84800 46.65300
H  59.66900 22.54200 45.41600
H  58.25800 22.66300 46.51200
H  57.75900 27.38000 44.06600
H  58.91000 26.22300 43.25900
H  59.30800 28.31800 45.05000
H  60.57300 27.24100 44.22500
H  59.94900 26.88300 45.77300
H  54.86700 29.29600 46.13900
H  53.58400 29.03400 47.20800
H  53.26300 29.93500 45.72800
H  49.05600 26.72900 44.24100
H  47.95400 27.70500 40.42800
H  47.79500 29.11400 41.39300
H  46.42600 27.94900 41.33700
Mg 47.59700 34.85700 27.67500
C  45.56800 33.52400 30.30100
C  48.18500 37.53700 29.77000
C  48.79600 36.61400 24.98400
C  46.34400 32.41500 25.58200
N  46.93300 35.44800 29.81400
C  46.21900 34.71600 30.65400
C  46.50800 35.19600 32.09000
C  46.94900 36.68400 31.87200
C  47.43600 36.55300 30.40800
C  45.79500 37.68600 32.05700
C  47.68700 34.35300 32.76300
C  47.52600 34.26500 34.33900
H  46.60200 35.29700 34.97500
N  48.48200 36.75600 27.43400
C  48.59300 37.70200 28.42800
C  49.33200 38.88500 27.87400
C  49.62200 38.50800 26.50300
C  48.94600 37.25500 26.22000
C  49.62800 40.17900 28.55800
C  50.33900 39.34500 25.47000
O  50.48800 38.97400 24.33800
C  50.68200 40.81100 25.67000
N  47.58500 34.51100 25.56900
C  48.03100 35.42700 24.70000
C  47.95200 34.91600 23.25800
C  47.18100 33.53400 23.45200
C  46.97100 33.47300 24.94600
C  47.31900 35.83400 22.22900
C  48.14200 32.38500 22.87400
C  49.43000 32.25300 23.53000
N  46.43500 33.15600 27.91000
C  46.12100 32.22400 27.01100
C  45.56900 31.06800 27.67600
C  45.24300 31.54800 28.93500
C  45.87900 32.80500 29.08400
C  45.13400 29.82800 26.99100
C  44.55000 31.23700 30.14500
O  43.96400 30.18700 30.47700
C  44.61400 32.56800 31.01800
C  44.89800 32.18200 32.42400
O  45.81100 31.50000 32.88500
O  43.74700 32.55700 33.14000
C  43.56200 32.06300 34.44600
H  48.42600 38.35400 30.45300
H  48.94200 37.22000 24.08700
H  45.85800 31.82800 24.80000
H  45.57300 35.21000 32.65100
H  47.86000 36.84100 32.44800
H  45.36400 37.86000 31.07200
H  46.09400 38.70000 32.32200
H  45.05000 37.33000 32.76900
H  48.65000 34.70700 32.39400
H  47.66900 33.34800 32.34100
H  48.52300 34.48600 34.72000
H  47.18000 33.28200 34.65900
H  50.68700 40.42900 28.63600
H  49.31100 40.11800 29.59900
H  49.04300 40.94500 28.04800
H  50.01700 41.49400 26.19900
H  51.03400 41.26800 24.74500
H  51.59400 40.68400 26.25200
H  48.97500 34.75900 22.91600
H  46.18800 33.31100 23.06300
H  47.87400 36.10100 21.32900
H  47.06000 36.78900 22.68600
H  46.36700 35.41900 21.90100
H  48.29700 32.49500 21.80100
H  47.56600 31.46800 22.99800
H  49.63200 31.26900 23.95400
H  49.42600 32.89800 24.40900
H  50.24700 32.41700 22.82800
H  45.77300 28.98300 27.24900
H  45.27300 29.95000 25.91700
H  44.05800 29.66500 27.04400
H  43.68100 33.12300 30.92900
H  44.37600 31.41900 34.77900
H  42.65300 31.49600 34.64700
H  43.33800 32.77800 35.23700

