158

Mg 25.81500 0.68800 28.75000
C  27.98300 0.51300 31.50400
C  23.19200 1.30900 30.89800
C  23.86600 0.38500 26.23000
C  28.58900 -0.14300 26.73800
N  25.60500 0.95200 30.97500
C  26.65000 0.86000 31.90000
C  26.10800 1.13400 33.25800
C  24.49700 1.03900 33.05300
C  24.41600 1.16100 31.56800
C  23.89300 -0.25900 33.64300
C  26.67500 2.43900 33.92100
C  25.93500 3.20500 34.96900
H  26.42200 2.78200 36.39600
N  23.77800 0.97000 28.56700
C  22.85400 1.33800 29.54500
C  21.53000 1.47900 28.90400
C  21.70100 1.15900 27.54500
C  23.17200 0.80000 27.35100
C  20.31200 1.79100 29.69100
C  20.67400 1.16400 26.43300
O  20.87400 0.65600 25.33300
C  19.31500 1.70600 26.72900
N  26.14800 0.03600 26.80800
C  25.20200 0.14300 25.85800
C  25.72200 -0.04700 24.45200
C  27.32600 0.13200 24.70500
C  27.37300 0.02000 26.20000
C  25.34500 -1.45200 23.83000
C  27.77900 1.62200 24.35400
C  29.21900 1.76200 23.71400
N  27.85300 0.23500 29.04900
C  28.88700 -0.02700 28.19200
C  30.20200 -0.16200 28.83200
C  29.86700 -0.00600 30.20800
C  28.43900 0.28300 30.22800
C  31.35100 -0.73800 28.16100
C  30.36400 -0.03600 31.56200
O  31.50600 -0.20100 32.02400
C  29.14900 0.30500 32.49200
C  29.00600 -0.85400 33.44000
O  28.81200 -2.03400 33.22600
O  29.10300 -0.29300 34.66100
C  29.16200 -1.14300 35.82500
H  22.48200 1.55600 31.69000
H  23.25000 0.20400 25.34600
H  29.45600 -0.13700 26.07400
H  26.53800 0.34800 33.87800
H  23.81300 1.82400 33.37500
H  23.35700 -0.12500 34.58300
H  24.80700 -0.85200 33.66700
H  23.26700 -0.89200 33.01500
H  26.85300 3.16700 33.13000
H  27.65800 2.26000 34.35700
H  24.90100 2.86700 34.89600
H  25.99700 4.25900 34.69800
H  20.42800 2.01700 30.75100
H  19.79100 0.83400 29.71200
H  19.80800 2.66000 29.26700
H  18.69200 1.12200 27.40600
H  18.74100 1.84600 25.81300
H  19.42500 2.67700 27.21400
H  25.24200 0.77800 23.92500
H  27.91200 -0.59100 24.13700
H  24.86300 -2.04400 24.60800
H  26.23500 -1.98600 23.49800
H  24.56600 -1.39500 23.07000
H  27.90900 2.24400 25.24000
H  27.04200 2.10300 23.71100
H  29.12900 2.09500 22.68000
H  29.74700 0.80900 23.71500
H  29.87200 2.39200 24.31800
H  31.16600 -1.14500 27.16700
H  31.87900 -1.51600 28.71300
H  32.12400 0.03100 28.16300
H  29.37200 1.30200 32.87200
H  30.11500 -0.90700 36.29900
H  28.92700 -2.18400 35.60200
H  28.35700 -1.03600 36.55100
Mg 35.46100 48.21100 26.39300
C  36.07500 46.19600 29.08600
C  34.35000 50.75000 28.44500
C  34.99200 50.16500 23.75300
C  36.51200 45.70600 24.19900
N  35.18200 48.41600 28.50600
C  35.53900 47.43100 29.44700
C  35.29400 47.99900 30.89900
C  34.45700 49.37300 30.57000
C  34.70800 49.54300 29.04700
C  32.93800 49.34000 30.84900
C  36.66300 48.29100 31.61100
C  36.78600 48.02000 33.10800
H  36.22800 49.20700 33.88900
N  34.82400 50.24200 26.14300
C  34.37700 51.11200 27.08000
C  34.02700 52.33700 26.50800
C  34.33100 52.25100 25.14300
C  34.81100 50.86200 24.94900
C  33.53700 53.55400 27.20200
C  34.30000 53.34600 24.08600
O  34.71100 53.05900 22.94400
C  33.80200 54.72300 24.36500
N  35.62100 47.93000 24.24900
C  35.31400 48.89100 23.39100
C  35.32100 48.45800 21.94000
C  35.96700 47.02300 22.07600
C  36.06500 46.82200 23.57100
C  33.81500 48.35000 21.39200
C  37.40200 46.86400 21.41600
C  38.53900 47.52000 22.16800
N  36.00100 46.28400 26.55900
C  36.54400 45.44700 25.60700
C  36.97600 44.16600 26.30000
C  36.78200 44.44000 27.67400
C  36.26600 45.72400 27.77900
C  37.59200 43.02300 25.56500
C  36.92700 43.91900 28.96500
O  37.24300 42.78300 29.29400
C  36.55100 45.10500 29.98100
C  35.60400 44.64500 31.00200
O  34.43600 44.29300 30.77100
O  36.19100 44.64600 32.27600
C  35.42900 43.99100 33.28200
H  33.91600 51.50200 29.10700
H  34.70500 50.82800 22.93400
H  36.80000 44.90400 23.51600
H  34.64000 47.31100 31.43500
H  34.84700 50.24700 31.09100
H  32.65800 50.10600 31.57100
H  32.68400 48.36500 31.26700
H  32.32200 49.49500 29.96300
H  36.99700 49.28600 31.31700
H  37.44000 47.68000 31.15200
H  37.81500 47.76700 33.36100
H  36.19000 47.13300 33.32700
H  32.80700 54.16500 26.67100
H  34.34300 54.20900 27.53200
H  32.97300 53.27100 28.09000
H  34.15600 55.38800 23.57800
H  34.36400 55.11100 25.21500
H  32.73500 54.88900 24.51800
H  35.90500 49.14900 21.33200
H  35.33200 46.29700 21.56800
H  33.03100 48.52400 22.12900
H  33.60800 47.34100 21.03500
H  33.66000 49.10900 20.62500
H  37.27900 47.43400 20.49500
H  37.45600 45.83000 21.07500
H  38.17100 48.18700 22.94800
H  39.11100 48.11100 21.45300
H  39.14700 46.70900 22.57100
H  37.70200 43.31800 24.52100
H  37.03500 42.08600 25.56200
H  38.52700 42.75900 26.05900
H  37.47500 45.25900 30.53800
H  34.95900 43.05800 32.97200
H  34.57100 44.62700 33.49800
H  36.02000 43.68900 34.14800

