158

Mg 40.25800 41.40000 27.37900
C  39.38300 43.64400 29.96500
C  41.53000 39.28800 29.76400
C  41.32500 39.33900 24.90800
C  39.63700 43.94400 25.03300
N  40.37900 41.41100 29.72600
C  39.75100 42.34100 30.46500
C  39.83400 41.90600 31.98400
C  40.79000 40.70300 31.89800
C  40.98900 40.42900 30.40400
C  42.20100 41.01100 32.59400
C  38.34700 41.83300 32.48000
C  37.95500 42.63200 33.76200
H  38.99600 42.58600 34.91500
N  41.22400 39.49200 27.33800
C  41.75500 38.83500 28.44000
C  42.25800 37.58200 27.97800
C  42.10200 37.46500 26.53200
C  41.51500 38.76300 26.21900
C  42.97000 36.58100 28.87000
C  42.55900 36.39900 25.62100
O  42.60100 36.64400 24.43700
C  43.02700 35.00300 26.09900
N  40.58900 41.66300 25.37400
C  40.90500 40.63700 24.54500
C  40.83600 41.07200 23.10800
C  39.95200 42.32900 23.15300
C  40.11800 42.69900 24.62300
C  42.13700 41.38300 22.32100
C  38.43100 42.07400 22.78400
C  37.69000 40.78400 23.12100
N  39.75700 43.41200 27.40700
C  39.58000 44.33200 26.37500
C  39.07600 45.57000 26.90400
C  38.99500 45.37600 28.30200
C  39.36000 43.94600 28.53300
C  38.75500 46.74400 26.08800
C  38.65600 45.87600 29.60200
O  38.21300 47.04200 29.76500
C  38.94600 44.92900 30.72000
C  39.99300 45.52800 31.68000
O  41.20000 45.37300 31.58900
O  39.33600 46.17000 32.73300
C  40.09400 46.89000 33.75400
H  41.79000 38.49600 30.46900
H  41.71300 38.83300 24.02100
H  39.60100 44.64900 24.20000
H  40.25700 42.75100 32.52700
H  40.22100 39.88400 32.33900
H  42.82700 41.61300 31.93600
H  42.64700 40.01600 32.57300
H  42.08700 41.45700 33.58200
H  38.02300 40.82400 32.73700
H  37.67100 42.12000 31.67400
H  36.99400 42.21400 34.06200
H  37.72100 43.60500 33.33000
H  43.10700 36.86200 29.91400
H  43.99800 36.38100 28.56800
H  42.53200 35.58400 28.82200
H  43.44500 34.48900 25.23300
H  42.19800 34.43500 26.52100
H  43.82100 35.12200 26.83600
H  40.30300 40.24400 22.64100
H  40.26900 43.09900 22.44900
H  42.25500 42.43800 22.07400
H  42.19300 40.93100 21.33000
H  42.94800 40.99300 22.93600
H  38.32000 42.40200 21.75000
H  38.00100 42.91100 23.33400
H  37.21300 40.47400 22.19200
H  36.96500 40.96900 23.91400
H  38.37900 39.99900 23.43400
H  38.98200 47.59200 26.73500
H  37.68800 46.87800 25.90700
H  39.42500 46.71500 25.23000
H  37.97700 44.76000 31.18900
H  40.79400 47.64100 33.38800
H  40.74000 46.18100 34.27200
H  39.49600 47.35100 34.54000
Mg 33.67100 48.62700 25.03700
C  34.09800 47.19900 28.23700
C  31.97300 51.24800 26.62300
C  33.16400 49.80300 22.09200
C  35.18100 45.69100 23.68200
N  33.31000 49.22200 27.25300
C  33.56700 48.52100 28.33400
C  33.28400 49.36600 29.61100
C  32.46800 50.55700 29.05100
C  32.64900 50.38600 27.54800
C  31.05600 50.63900 29.50700
C  34.50100 49.72000 30.35200
C  34.41400 49.69600 31.85600
H  33.01500 49.56000 32.54200
N  32.70100 50.31500 24.43300
C  32.07000 51.26100 25.17500
C  31.64400 52.35900 24.28200
C  31.90900 51.93800 22.96200
C  32.61600 50.59800 23.16000
C  30.99300 53.59500 24.71700
C  31.56500 52.71300 21.72600
O  31.91700 52.23600 20.65400
C  30.73700 54.00500 21.69000
N  34.12900 47.85500 23.14900
C  33.89100 48.58400 21.99000
C  34.47900 47.97400 20.73800
C  35.06300 46.65400 21.28500
C  34.85900 46.77800 22.78400
C  33.38800 47.84700 19.60300
C  36.56500 46.30100 20.78700
C  37.75900 46.75500 21.70500
N  34.31300 46.69600 25.66800
C  34.96200 45.69300 25.09700
C  35.31600 44.63600 26.02800
C  34.92800 45.22300 27.31100
C  34.42300 46.43800 27.05800
C  35.87300 43.30100 25.66800
C  34.97300 45.01300 28.77200
O  35.35200 44.04100 29.34500
C  34.40400 46.30100 29.38800
C  33.17000 45.79500 30.00400
O  32.08600 45.65900 29.45700
O  33.50800 45.46800 31.32500
C  32.44800 44.77100 32.12000
H  31.50600 52.10300 27.11600
H  32.99800 50.20700 21.09100
H  35.68500 44.81400 23.26900
H  32.63500 48.75700 30.24100
H  32.98000 51.49100 29.28300
H  30.70600 49.72800 29.99200
H  30.45800 50.70200 28.59700
H  30.85600 51.42200 30.23800
H  34.72200 50.75200 30.08200
H  35.35700 49.16200 29.97000
H  34.98500 50.52900 32.26500
H  34.93400 48.77300 32.11600
H  31.54000 54.44200 24.30500
H  31.12500 53.69600 25.79400
H  29.92300 53.68300 24.52500
H  29.80600 54.00500 22.25700
H  30.51000 54.28600 20.66100
H  31.35900 54.80000 22.10000
H  35.27600 48.68000 20.50500
H  34.40600 45.83400 20.99500
H  32.62900 48.62000 19.47900
H  32.82200 46.95400 19.87000
H  33.76700 47.68200 18.59400
H  36.79900 46.77600 19.83400
H  36.62200 45.21500 20.71200
H  37.52900 47.43500 22.52600
H  38.34400 47.38400 21.03500
H  38.34600 45.93500 22.11900
H  36.95600 43.35100 25.55600
H  35.37700 42.86900 24.79900
H  35.75500 42.62400 26.51400
H  35.16900 46.67400 30.07000
H  32.82700 43.75200 32.19800
H  31.47300 44.89500 31.64900
H  32.35600 45.26400 33.08800

