158

Mg 34.81300 3.50600 29.72800
C  32.85900 4.52800 32.36900
C  37.49400 3.22000 31.80800
C  36.82600 3.02100 27.07900
C  32.04500 3.83400 27.53500
N  35.17800 4.08400 31.91800
C  34.14000 4.15800 32.84400
C  34.76100 4.06000 34.23500
C  36.33100 3.84200 34.01000
C  36.36700 3.74600 32.43200
C  37.30900 4.98800 34.45200
C  34.09600 2.80900 34.94200
C  33.60300 3.07600 36.42600
H  34.27300 4.21400 37.15000
N  36.92700 3.08800 29.53000
C  37.82700 2.94200 30.49500
C  39.08800 2.42200 29.89000
C  38.88700 2.38700 28.46400
C  37.52700 2.86200 28.28500
C  40.28300 2.05500 30.70500
C  39.78700 1.90800 27.34200
O  39.49500 2.00200 26.12700
C  41.08000 1.23000 27.76800
N  34.42600 3.19200 27.62100
C  35.44500 3.17800 26.74300
C  34.93200 3.04100 25.32900
C  33.41800 2.98600 25.49800
C  33.25800 3.40400 26.96000
C  35.33100 4.32800 24.48600
C  32.76300 1.58800 25.19800
C  31.96600 1.47000 23.85900
N  32.89300 4.13300 29.88600
C  31.86700 4.24700 28.92100
C  30.64400 4.63800 29.58700
C  31.06400 4.84700 30.95500
C  32.41300 4.58800 31.03200
C  29.30500 4.71500 29.03000
C  30.52100 5.13700 32.26600
O  29.33500 5.32400 32.57700
C  31.66300 4.95300 33.25700
C  31.97800 6.16900 33.96300
O  32.52800 7.18300 33.60400
O  31.28100 6.06900 35.14000
C  31.09400 7.30000 35.90300
H  38.30000 3.02600 32.51900
H  37.34900 2.80900 26.14400
H  31.15000 3.68100 26.92800
H  34.61600 5.01000 34.75000
H  36.76900 2.92800 34.41000
H  38.13600 4.56600 35.02400
H  36.89400 5.81000 35.03400
H  37.78100 5.43100 33.57500
H  34.88100 2.05300 34.93400
H  33.29400 2.40000 34.32800
H  33.64600 2.17700 37.04100
H  32.56800 3.39900 36.31600
H  41.16400 2.47600 30.21900
H  40.44500 0.97800 30.66600
H  40.11900 2.42600 31.71600
H  41.39600 0.66900 26.88800
H  41.09900 0.57600 28.63900
H  41.81600 2.02500 27.88800
H  35.24100 2.17900 24.73800
H  32.95500 3.73200 24.85200
H  36.07400 4.83500 25.10200
H  34.55200 5.05900 24.26900
H  35.67700 4.05400 23.48900
H  32.19000 1.23600 26.05600
H  33.59000 0.88200 25.11900
H  30.96100 1.37700 24.27000
H  32.20900 0.63400 23.20200
H  31.99100 2.31400 23.16900
H  28.83500 5.68100 29.21000
H  28.64800 3.97800 29.49300
H  29.29500 4.64800 27.94200
H  31.61000 4.25600 34.09400
H  30.97300 7.13500 36.97400
H  30.38600 7.90400 35.33700
H  31.99900 7.90700 35.88800
Mg 42.30600 41.69100 27.39600
C  41.51500 44.07300 29.87400
C  43.29400 39.55000 29.93600
C  42.92100 39.39100 25.13800
C  41.52900 43.98300 24.98800
N  42.47400 41.82900 29.64200
C  41.97000 42.86100 30.43800
C  42.03500 42.47600 31.93900
C  42.76200 41.05400 31.89700
C  42.93800 40.82500 30.41700
C  44.07200 40.95000 32.73600
C  40.56400 42.51000 32.55700
C  40.34100 43.03500 34.00200
H  39.59000 42.15600 35.01600
N  43.07800 39.70200 27.52500
C  43.41500 38.99600 28.66400
C  43.74800 37.70600 28.28200
C  43.58900 37.65400 26.82900
C  43.13300 39.01200 26.40700
C  44.25600 36.75400 29.34000
C  43.88100 36.47800 25.94300
O  43.70600 36.53500 24.70100
C  44.29200 35.11500 26.62100
N  42.45200 41.75000 25.34500
C  42.75800 40.62400 24.58200
C  42.76500 40.97200 23.09000
C  42.08200 42.38000 23.05500
C  42.05300 42.74400 24.61300
C  44.17000 40.95600 22.43600
C  40.74800 42.37700 22.23600
C  39.54500 41.83500 23.00000
N  41.82700 43.75900 27.34500
C  41.45700 44.52500 26.27900
C  40.92000 45.78200 26.79700
C  40.92500 45.63000 28.21700
C  41.47800 44.41100 28.54400
C  40.46700 46.93800 25.94400
C  40.56500 46.28600 29.46600
O  39.96200 47.35300 29.63900
C  40.80500 45.22400 30.59200
C  41.72600 45.86300 31.59100
O  42.94200 46.09800 31.40200
O  41.06600 46.13400 32.71700
C  41.85600 46.65900 33.85700
H  43.34300 38.86600 30.78700
H  43.02800 38.69100 24.30600
H  41.35300 44.58300 24.09200
H  42.63700 43.19300 32.49800
H  42.07200 40.31600 32.30800
H  44.85900 40.59200 32.07100
H  43.89400 40.29500 33.58900
H  44.34100 41.93300 33.12300
H  40.21900 41.47800 32.62600
H  39.88200 42.98200 31.85000
H  39.78400 43.97100 34.02800
H  41.27000 43.30800 34.50100
H  43.94700 37.01200 30.35300
H  45.33900 36.71100 29.45900
H  43.81100 35.75900 29.34100
H  43.50800 34.89200 27.34500
H  45.29300 35.30900 27.00400
H  44.41800 34.33200 25.87300
H  42.10000 40.36900 22.47200
H  42.73400 42.96700 22.40800
H  44.11800 41.39400 21.44000
H  44.53700 39.94000 22.28700
H  44.83400 41.58800 23.02600
H  40.98100 41.84200 21.31500
H  40.64900 43.38900 21.84400
H  38.70200 42.52000 22.90500
H  39.54500 41.75200 24.08700
H  39.35900 40.91000 22.45500
H  39.63700 47.48600 26.39100
H  40.06900 46.62300 24.98000
H  41.23700 47.70900 25.89600
H  39.85900 44.97900 31.07500
H  42.35600 45.84200 34.37700
H  41.23800 47.24900 34.53500
H  42.56700 47.42600 33.55200

