158

Mg 2.96200 -1.80100 45.76100
C  6.26100 -0.72200 44.94900
C  1.69900 0.61000 43.47000
C  0.11700 -3.32100 45.96300
C  4.55700 -4.25400 47.64000
N  3.94400 -0.34000 44.27500
C  5.25700 -0.00600 44.25100
C  5.42700 1.07500 43.24800
C  4.02800 1.72600 43.14300
C  3.16700 0.61000 43.59600
C  3.80400 3.04300 43.97500
C  6.15600 0.58500 41.94800
C  7.55400 1.26900 41.67700
H  7.73000 2.05900 40.42200
N  1.11300 -1.42800 44.84700
C  0.80700 -0.39500 44.01400
C  -0.61900 -0.43900 43.76600
C  -1.16500 -1.51700 44.43700
C  0.01100 -2.18200 45.06800
C  -1.38100 0.54500 42.85800
C  -2.56200 -2.03200 44.27000
O  -3.40800 -1.40200 43.68800
C  -2.98500 -3.32300 44.81300
N  2.43900 -3.60500 46.59300
C  1.13700 -4.01200 46.57500
C  0.90100 -5.31800 47.39300
C  2.31600 -5.57100 48.03400
C  3.16300 -4.44200 47.41800
C  -0.29700 -5.18400 48.43800
C  2.92100 -6.97800 47.91800
C  2.95300 -7.87500 49.20900
N  4.99200 -2.33600 46.32100
C  5.41900 -3.33400 47.08300
C  6.90300 -3.36900 47.23600
C  7.27100 -2.30800 46.44700
C  6.09600 -1.80000 45.81800
C  7.80700 -4.34300 47.93800
C  8.36400 -1.35100 46.10800
O  9.50800 -1.18400 46.55700
C  7.78300 -0.39800 45.05100
C  7.95600 0.99300 45.63500
O  7.22800 1.48800 46.47100
O  9.16200 1.57000 45.10200
C  9.26100 2.98000 45.49900
H  1.29700 1.43300 42.87500
H  -0.83500 -3.83100 46.12300
H  4.97500 -4.88900 48.42300
H  6.05300 1.83900 43.70900
H  3.77100 1.96100 42.11000
H  3.13100 2.85500 44.81200
H  3.33800 3.75400 43.29300
H  4.73600 3.41200 44.40400
H  5.53100 0.48800 41.06100
H  6.32200 -0.48700 42.05900
H  8.19300 0.38600 41.69100
H  7.73500 1.89700 42.54900
H  -0.86900 1.47700 42.61600
H  -2.24400 0.97800 43.36300
H  -1.56900 0.06000 41.90000
H  -2.98100 -3.21700 45.89800
H  -2.21200 -4.01900 44.48800
H  -4.00000 -3.53400 44.47600
H  0.61500 -6.00200 46.59400
H  2.17700 -5.30300 49.08100
H  -0.62500 -4.14500 48.41300
H  0.02200 -5.54300 49.41700
H  -1.08900 -5.75700 47.95600
H  3.90900 -6.90300 47.46400
H  2.23700 -7.51800 47.26300
H  2.45300 -8.78300 48.87200
H  2.34100 -7.63700 50.07900
H  3.97000 -8.13000 49.50800
H  8.27500 -3.81400 48.76800
H  8.49700 -4.71200 47.17900
H  7.19600 -5.11500 48.40600
H  8.24500 -0.54900 44.07500
H  8.97700 3.03400 46.55000
H  8.60000 3.56300 44.85700
H  10.26600 3.39600 45.42700
Mg 6.49000 53.12200 41.01400
C  6.15000 49.71000 41.20000
C  9.76500 52.91600 40.39400
C  6.52600 56.60200 40.89800
C  3.01800 53.46400 41.27200
N  7.74800 51.45400 40.53800
C  7.45100 50.16000 40.81400
C  8.68900 49.37200 40.55000
C  9.81700 50.42900 40.80100
C  9.12700 51.70900 40.59500
C  10.64000 50.25800 42.06200
C  8.94100 48.52100 39.22900
C  8.89900 49.28600 37.89200
H  7.88800 48.83200 36.77200
N  7.88500 54.50900 40.53700
C  9.23400 54.23800 40.26900
C  9.90500 55.46300 39.97800
C  8.93500 56.48900 40.09700
C  7.71000 55.88900 40.58400
C  11.30200 55.41300 39.46900
C  9.23200 57.93400 39.79200
O  10.34800 58.27900 39.56900
C  8.12300 58.91400 39.62400
N  4.90600 54.85200 40.99800
C  5.22600 56.14400 41.08300
C  3.97600 57.01700 41.26800
C  2.84400 55.97500 41.08100
C  3.66300 54.69600 41.08800
C  4.04600 57.77400 42.65200
C  1.98600 56.07200 39.83300
C  0.41300 55.89800 39.98200
N  4.86800 51.94100 41.34200
C  3.47700 52.21900 41.45000
C  2.80200 50.86700 41.63500
C  3.83700 49.91000 41.64400
C  5.03300 50.59600 41.42600
C  1.29200 50.58100 41.83200
C  4.10400 48.54100 41.87700
O  3.34600 47.64200 42.26800
C  5.56800 48.28300 41.49900
C  5.58500 47.43000 40.37500
O  5.03400 47.68800 39.28400
O  6.20800 46.20200 40.69600
C  5.74300 45.08700 39.81300
H  10.82800 52.76400 40.19700
H  6.59300 57.69000 40.96100
H  1.94300 53.58200 41.42600
H  8.72200 48.62400 41.34300
H  10.66600 50.33400 40.12300
H  11.68000 50.54100 41.89700
H  10.53500 49.22000 42.37800
H  10.29200 50.95400 42.82500
H  8.11300 47.81200 39.22300
H  9.77700 47.82500 39.30600
H  9.87500 49.31700 37.40800
H  8.64700 50.33100 38.06900
H  12.12200 55.51800 40.17900
H  11.46400 56.18900 38.72100
H  11.48800 54.46600 38.96300
H  7.27700 58.56300 39.03400
H  8.47600 59.62700 38.87900
H  7.78600 59.46500 40.50200
H  3.99800 57.72900 40.44200
H  2.14800 56.02200 41.91900
H  3.44000 58.67400 42.54700
H  5.08200 57.99000 42.91500
H  3.57800 57.09700 43.36700
H  2.35600 55.49200 38.98700
H  2.13000 57.10900 39.52900
H  0.01800 56.70600 39.36600
H  -0.05000 56.01200 40.96200
H  0.00800 55.02100 39.47600
H  0.92800 50.53200 40.80500
H  0.77000 51.42000 42.29200
H  1.05800 49.66800 42.37900
H  5.88200 47.74000 42.39100
H  6.23800 45.10800 38.84200
H  4.65700 45.13600 39.73100
H  5.99900 44.06800 40.10400

