158

Mg 48.13600 45.87000 43.17100
C  44.89900 46.23000 42.11000
C  48.31800 42.72000 41.83900
C  51.64400 46.20600 42.93000
C  48.08300 49.15400 44.30600
N  46.80500 44.72000 42.07900
C  45.52900 45.10200 41.70100
C  44.87700 43.94200 40.93200
C  45.83100 42.72000 41.19300
C  47.09300 43.42300 41.74900
C  45.27100 41.65400 42.14400
C  44.68800 44.29700 39.41300
C  43.43900 43.54700 38.83100
H  43.52700 43.16600 37.33000
N  49.76000 44.63300 42.57800
C  49.59700 43.32600 42.08300
C  50.90400 42.77800 41.75300
C  51.90100 43.69000 42.15500
C  51.14000 44.88600 42.55700
C  51.11200 41.36300 41.20900
C  53.37300 43.47200 42.06600
O  53.80700 42.40000 41.67900
C  54.33000 44.61000 42.44100
N  49.56300 47.45200 43.43300
C  50.92200 47.29400 43.34800
C  51.64900 48.49900 43.96400
C  50.60200 49.50200 44.27400
C  49.33200 48.65500 44.06400
C  52.63700 48.10100 45.08000
C  50.63800 50.79300 43.32700
C  51.48900 51.98300 43.87700
N  46.71200 47.33000 43.45400
C  46.78900 48.60800 43.99000
C  45.44600 49.19700 43.99900
C  44.68000 48.32500 43.22300
C  45.51900 47.23600 42.85200
C  45.15400 50.66900 44.46900
C  43.39800 48.12900 42.60000
O  42.45100 48.95900 42.66200
C  43.43200 46.77100 41.82700
C  42.43200 45.81400 42.30100
O  41.46200 45.44400 41.64400
O  42.42400 45.65200 43.62700
C  41.27000 44.92700 44.18200
H  48.42100 41.66000 41.60000
H  52.72600 46.34800 42.94000
H  48.07500 50.18900 44.65400
H  43.89800 43.74200 41.36500
H  46.06600 42.18300 40.27300
H  44.31200 41.98000 42.54600
H  45.98100 41.65800 42.97100
H  45.26700 40.62800 41.77600
H  45.54500 43.99700 38.81000
H  44.44400 45.35600 39.32600
H  42.49700 44.04100 39.07200
H  43.43900 42.66400 39.47000
H  51.58700 41.41200 40.22900
H  50.24900 40.71300 41.05900
H  51.74800 40.71000 41.80600
H  54.41000 45.36200 41.65600
H  55.35900 44.34300 42.68400
H  53.99800 44.96400 43.41600
H  52.22300 48.95800 43.15900
H  50.66200 49.81800 45.31500
H  52.48200 47.03900 45.26800
H  52.49800 48.70000 45.98000
H  53.64800 48.20500 44.68300
H  49.65600 51.25900 43.23800
H  50.98700 50.57800 42.31700
H  51.64400 51.94400 44.95500
H  50.97100 52.94000 43.81800
H  52.41500 52.07700 43.31000
H  45.93600 51.41100 44.30900
H  44.85200 50.67500 45.51700
H  44.23700 50.92900 43.94000
H  43.23900 47.16400 40.82900
H  41.48000 44.55400 45.18400
H  40.74200 44.17500 43.59600
H  40.52500 45.64700 44.52100
Mg 35.95800 49.26600 26.07400
C  36.19100 47.30500 29.12900
C  34.92500 51.94500 27.98800
C  35.62300 50.93800 23.34500
C  37.27400 46.42600 24.34500
N  35.56200 49.53000 28.25200
C  35.71200 48.62400 29.28200
C  35.49200 49.34500 30.60200
C  34.94700 50.75000 30.19100
C  35.11200 50.74800 28.68200
C  33.44700 51.22200 30.70300
C  36.87700 49.36600 31.34000
C  36.80700 49.27200 32.91200
H  35.48700 49.10500 33.63200
N  35.28700 51.17000 25.71700
C  34.95700 52.15200 26.61400
C  34.78600 53.41900 25.88700
C  34.94100 53.12900 24.53300
C  35.24500 51.68800 24.44900
C  34.61800 54.79700 26.60100
C  35.01500 54.04500 23.29400
O  35.41900 53.68200 22.16300
C  34.62600 55.50600 23.49500
N  36.31500 48.65700 24.15700
C  36.17600 49.64000 23.18300
C  36.80400 49.15800 21.83800
C  37.34100 47.70000 22.21800
C  36.99100 47.59800 23.64900
C  35.79800 49.27800 20.69800
C  38.83400 47.46500 21.95300
C  39.39100 47.92500 20.60400
N  36.58900 47.29300 26.62100
C  37.00900 46.28600 25.76900
C  37.45100 45.14100 26.54800
C  37.13300 45.48600 27.89400
C  36.62900 46.80200 27.87300
C  38.07000 43.86600 26.08000
C  37.14100 45.03100 29.31500
O  37.49400 43.96100 29.83600
C  36.50700 46.20200 30.19900
C  35.30700 45.52100 30.88500
O  34.19300 45.35800 30.48300
O  35.77600 45.02800 32.09900
C  34.93100 44.27900 32.99400
H  34.66800 52.85400 28.53600
H  35.59900 51.50500 22.41200
H  37.75100 45.67100 23.71600
H  34.72400 48.84900 31.19500
H  35.64700 51.47600 30.60600
H  33.07000 50.55500 31.47800
H  32.72200 51.10900 29.89700
H  33.52200 52.22200 31.13000
H  37.30600 50.35300 31.16600
H  37.61600 48.67800 30.93100
H  37.19300 50.24700 33.21200
H  37.43700 48.45700 33.26900
H  34.87200 54.88300 27.65700
H  33.54800 54.99100 26.51800
H  35.03700 55.68800 26.13200
H  35.48000 56.03900 23.91100
H  33.74400 55.59700 24.12900
H  34.33500 55.92100 22.53000
H  37.66800 49.76300 21.56200
H  36.86500 46.95400 21.58100
H  35.16400 48.39200 20.71100
H  36.36100 49.34000 19.76700
H  35.22600 50.19600 20.84000
H  39.12200 46.41900 22.04900
H  39.31100 48.00000 22.77400
H  38.58300 48.04400 19.88200
H  40.01000 47.22300 20.04400
H  40.02400 48.81200 20.62500
H  37.35600 43.04300 26.06200
H  38.82600 43.43500 26.73800
H  38.50100 43.98100 25.08600
H  37.15500 46.65900 30.94700
H  34.30300 44.97400 33.55200
H  35.35600 43.56200 33.69600
H  34.22400 43.66800 32.43200

