158

Mg 30.28100 58.25700 39.91000
C  27.52800 56.39700 38.93900
C  32.32300 55.60000 39.02400
C  33.02900 60.43000 39.83300
C  28.14400 60.97200 40.32200
N  29.93900 56.15600 39.08000
C  28.74100 55.67300 38.71800
C  28.86700 54.23600 38.28700
C  30.43300 53.90200 38.41000
C  30.95500 55.30700 38.84300
C  30.89100 52.77900 39.40700
C  28.30200 53.96900 36.83600
C  28.85100 54.93900 35.79000
H  27.79800 55.80800 34.98400
N  32.44300 57.99400 39.68700
C  32.98200 56.85400 39.28300
C  34.41100 57.05600 39.22000
C  34.71500 58.49100 39.46800
C  33.34600 59.05300 39.67500
C  35.37500 55.87800 38.88000
C  36.06700 59.06200 39.42000
O  37.01600 58.32500 39.27800
C  36.37900 60.55400 39.50100
N  30.57700 60.35700 40.04600
C  31.79200 61.05800 40.04200
C  31.55200 62.49300 40.27000
C  30.05900 62.56900 40.77800
C  29.53000 61.21600 40.34500
C  32.63600 63.22400 41.06900
C  29.43900 63.92900 40.24100
C  29.03900 65.03900 41.28200
N  28.25700 58.60200 39.78700
C  27.51700 59.74100 39.98800
C  26.15400 59.45200 39.87600
C  26.07900 58.07200 39.51600
C  27.42600 57.61700 39.44700
C  24.98600 60.36200 40.06600
C  25.19200 57.05100 39.15200
O  23.99300 57.02500 39.01600
C  26.09600 55.87100 38.77600
C  25.75600 54.78700 39.72900
O  25.94700 54.77300 40.94800
O  25.36500 53.64800 38.96900
C  24.97500 52.46500 39.74300
H  32.97200 54.77000 38.73800
H  33.89400 61.07300 40.00200
H  27.45400 61.77900 40.57800
H  28.38000 53.69000 39.09600
H  30.94200 53.53700 37.51800
H  31.36400 51.89900 38.97300
H  29.97600 52.41400 39.87400
H  31.45700 53.28400 40.19000
H  27.21800 53.90400 36.93500
H  28.64900 52.96000 36.61600
H  29.39900 54.40700 35.01100
H  29.56700 55.56000 36.32900
H  35.32200 55.64400 37.81700
H  35.07500 54.97900 39.41800
H  36.45000 56.05700 38.89300
H  36.03800 60.93200 40.46400
H  35.81800 60.92800 38.64400
H  37.42100 60.77500 39.27200
H  31.54600 62.94200 39.27700
H  30.04100 62.56500 41.86800
H  32.28000 64.00300 41.74400
H  33.36300 63.68100 40.39700
H  33.08000 62.58800 41.83500
H  28.55400 63.57400 39.71400
H  30.02700 64.19500 39.36300
H  29.31000 64.81900 42.31400
H  27.96200 65.18200 41.20400
H  29.55000 65.96900 41.03200
H  25.02400 61.30100 39.51300
H  24.89600 60.55500 41.13500
H  24.11500 59.75500 39.82300
H  25.93500 55.68500 37.71400
H  25.82600 51.78500 39.74200
H  24.15100 51.88300 39.33000
H  24.71900 52.67500 40.78200
Mg 26.72400 51.16300 26.43900
C  24.96700 52.33200 29.17300
C  29.16700 50.08600 28.67700
C  28.57100 50.17200 23.75400
C  24.63500 52.98900 24.35600
N  26.94200 51.23900 28.70600
C  26.05900 51.60200 29.65500
C  26.42200 51.18500 31.05200
C  27.86800 50.63000 30.85200
C  27.98100 50.66100 29.30700
C  29.00800 51.40100 31.51900
C  25.35500 50.23400 31.72300
C  24.81400 50.71700 33.08000
H  25.86800 51.19000 34.10800
N  28.41800 50.02100 26.24100
C  29.29300 49.66500 27.31000
C  30.38800 48.87900 26.66600
C  30.08500 48.69400 25.31400
C  28.97000 49.66700 25.02400
C  31.40800 48.12800 27.50800
C  30.71400 47.87600 24.22300
O  30.22900 47.76800 23.07500
C  31.95500 47.16500 24.49900
N  26.67800 51.58200 24.33500
C  27.55900 51.03400 23.42700
C  27.15600 51.43100 21.98000
C  25.75200 52.22500 22.21300
C  25.68100 52.24600 23.75000
C  28.28300 52.28900 21.29800
C  24.39700 51.66100 21.59200
C  24.18400 51.97300 20.15100
N  25.14200 52.41100 26.69300
C  24.36500 53.06700 25.75900
C  23.21200 53.64300 26.36700
C  23.46300 53.45700 27.72400
C  24.64200 52.68500 27.89300
C  22.22500 54.42400 25.65500
C  22.94300 53.77800 29.01900
O  21.96600 54.45700 29.37400
C  23.88100 53.03700 30.00000
C  24.40600 54.14600 30.97500
O  25.22100 55.04300 30.74100
O  23.68100 54.03500 32.15900
C  23.83800 55.03900 33.20600
H  29.83300 49.70000 29.45200
H  29.29400 50.00500 22.95400
H  23.94900 53.40800 23.61700
H  26.41200 52.06300 31.69700
H  27.92300 49.64900 31.32400
H  29.81700 50.73800 31.82700
H  28.65500 51.80400 32.46800
H  29.37400 52.07400 30.74400
H  25.77600 49.23500 31.84200
H  24.56600 50.14200 30.97600
H  24.22200 49.96400 33.59800
H  24.20900 51.57600 32.78800
H  31.24300 47.05900 27.37300
H  31.43700 48.52200 28.52400
H  32.30300 48.43100 26.96500
H  32.76500 47.77000 24.90700
H  32.32700 46.66600 23.60400
H  31.74300 46.40100 25.24700
H  27.02700 50.54600 21.35700
H  25.98200 53.22800 21.85300
H  28.72000 53.04200 21.95500
H  27.88400 52.86000 20.46000
H  28.95600 51.63000 20.74900
H  23.49900 51.93900 22.14300
H  24.48000 50.57400 21.62600
H  24.29900 51.08900 19.52400
H  24.82400 52.81100 19.87500
H  23.17500 52.33200 19.94900
H  22.73800 55.38100 25.55900
H  21.24400 54.45400 26.13000
H  22.02700 54.08000 24.64000
H  23.29000 52.29600 30.53800
H  24.04700 56.05500 32.87300
H  24.50400 54.63500 33.96800
H  22.87100 55.18000 33.68800

