158

Mg 47.81300 35.49600 27.83500
C  46.06100 33.82800 30.22800
C  48.04500 38.16700 29.91700
C  48.92500 37.19700 25.17800
C  46.98200 32.83600 25.50900
N  47.10700 35.93600 29.85300
C  46.59500 35.01100 30.66900
C  46.66700 35.61800 32.14300
C  46.87000 37.11200 31.93200
C  47.36800 37.12600 30.51500
C  45.53800 37.77400 32.24200
C  47.74400 34.86500 33.07100
C  48.63200 35.56800 34.02300
H  47.92700 36.40300 35.12300
N  48.48500 37.32800 27.61100
C  48.53700 38.31300 28.60300
C  49.18500 39.43800 28.08600
C  49.50300 39.28700 26.71000
C  48.96600 37.86800 26.43200
C  49.41300 40.60800 28.96800
C  50.11300 40.20600 25.62400
O  50.47200 39.84800 24.53400
C  50.39800 41.56700 26.11500
N  47.96000 35.07500 25.62700
C  48.43500 35.95000 24.73800
C  48.21900 35.50600 23.28700
C  47.76400 34.08900 23.45700
C  47.68200 33.90700 24.97600
C  47.26600 36.57200 22.58200
C  48.67400 33.00000 22.75200
C  48.02400 31.97800 21.84600
N  46.83900 33.62400 27.86600
C  46.61800 32.62500 26.89500
C  45.87100 31.52300 27.47400
C  45.56200 31.99200 28.76400
C  46.25800 33.23700 28.98400
C  45.50700 30.21000 26.89500
C  44.87500 31.60600 29.94400
O  44.24600 30.61000 30.21700
C  45.10500 32.87500 30.87100
C  45.46500 32.41900 32.22700
O  46.37100 31.63300 32.50000
O  44.58400 32.88400 33.15500
C  44.75300 32.42800 34.53900
H  48.21900 38.96800 30.63800
H  49.28300 37.65100 24.25200
H  46.59200 31.97600 24.96000
H  45.69400 35.35500 32.55800
H  47.61200 37.58900 32.57200
H  45.65500 38.85600 32.19400
H  45.29400 37.67300 33.30000
H  44.77400 37.45100 31.53500
H  48.45000 34.25900 32.50200
H  47.15700 34.16000 33.66100
H  49.25100 36.21300 33.40000
H  49.30500 34.83900 34.47500
H  50.36700 41.11900 28.83700
H  49.45100 40.27000 30.00300
H  48.62600 41.35600 28.86900
H  51.30200 41.55900 26.72500
H  49.57200 41.89900 26.74400
H  50.50500 42.32100 25.33400
H  49.20700 35.35000 22.85200
H  46.69900 33.92500 23.29000
H  47.26300 37.44800 23.23100
H  46.27600 36.12800 22.47500
H  47.61300 36.66800 21.55300
H  49.19800 32.33100 23.43500
H  49.48000 33.44100 22.16600
H  48.01500 32.41600 20.84700
H  46.96400 31.87700 22.07600
H  48.49800 31.00000 21.92300
H  45.91200 30.13500 25.88600
H  44.44400 29.98400 26.80500
H  46.09100 29.49000 27.46900
H  44.16600 33.38900 31.07300
H  43.73400 32.36100 34.91900
H  45.34800 33.17000 35.07300
H  45.24500 31.45800 34.60400
Mg 9.24700 48.53400 25.22900
C  7.09800 48.85400 28.07600
C  11.76300 49.74800 27.14600
C  11.16900 48.53600 22.46400
C  6.40000 47.82700 23.26700
N  9.31900 49.33700 27.34400
C  8.40700 49.24600 28.32200
C  8.97900 49.82300 29.69900
C  10.36000 50.37600 29.24400
C  10.51400 49.74700 27.79500
C  10.64600 51.97500 29.18900
C  9.06500 48.73100 30.83200
C  9.88900 49.01700 32.03200
H  9.38500 48.43500 33.34400
N  11.27200 49.05700 24.86000
C  12.13100 49.46800 25.83100
C  13.39700 49.52300 25.26200
C  13.30800 49.18000 23.84800
C  11.90800 48.91700 23.64800
C  14.54800 49.88300 26.18500
C  14.36600 49.04800 22.69700
O  14.01900 48.92900 21.49500
C  15.80500 49.07600 23.08900
N  8.83900 48.24600 23.20700
C  9.79200 48.29100 22.30500
C  9.30000 47.86400 20.90100
C  7.76200 47.45500 21.13900
C  7.63800 47.78200 22.63800
C  9.51300 48.87100 19.77400
C  7.38800 46.01300 20.67500
C  7.78600 44.77800 21.51000
N  7.18000 48.38100 25.56300
C  6.15200 48.13800 24.61900
C  4.83500 48.12200 25.28900
C  5.14900 48.37100 26.67400
C  6.60000 48.57200 26.77500
C  3.52100 47.77200 24.59400
C  4.63200 48.51400 28.03100
O  3.48700 48.39000 28.44800
C  5.80100 48.72700 28.96300
C  5.76700 47.57900 29.90300
O  6.37600 46.55200 29.83200
O  4.76700 47.80700 30.81900
C  4.42700 46.86800 31.82300
H  12.46900 50.27800 27.79000
H  11.66000 48.29900 21.51800
H  5.54900 47.68400 22.59900
H  8.38800 50.63500 30.12300
H  11.17600 49.97600 29.84500
H  11.07200 52.15000 28.20000
H  11.48600 52.15400 29.86100
H  9.72100 52.53100 29.33800
H  9.42400 47.84200 30.31400
H  8.02700 48.46300 31.03100
H  10.22800 50.04000 32.19500
H  10.85100 48.51300 31.94200
H  14.57700 50.95700 26.36900
H  15.54700 49.58300 25.86600
H  14.51600 49.33800 27.12800
H  16.36900 49.10500 22.15700
H  16.08600 48.26600 23.76200
H  15.94900 49.99500 23.65700
H  9.87000 46.96600 20.66200
H  7.10100 48.13600 20.60200
H  9.68900 49.89100 20.11400
H  8.58500 48.98900 19.21400
H  10.26600 48.48400 19.08800
H  7.76700 45.90300 19.65900
H  6.30000 45.96800 20.63100
H  6.99000 44.29500 22.07600
H  8.50100 45.04700 22.28700
H  8.27500 44.00500 20.91600
H  3.44800 46.69300 24.45700
H  3.61100 48.19100 23.59100
H  2.61900 48.19000 25.03800
H  5.70600 49.66900 29.50300
H  3.50400 47.29200 32.22000
H  5.23900 46.81000 32.54900
H  4.02200 45.95800 31.38200

