158

Mg 8.08800 3.36700 27.51200
C  8.99100 1.58500 30.36000
C  6.19900 5.43900 29.47200
C  7.10500 5.02400 24.67600
C  9.72500 1.10300 25.53700
N  7.51100 3.45100 29.73100
C  8.17400 2.72300 30.68600
C  7.84000 3.31800 32.09800
C  7.06400 4.57200 31.72400
C  6.90300 4.48400 30.21700
C  5.66600 4.73800 32.49400
C  9.11100 3.60900 32.99600
C  8.93200 4.71600 34.15100
H  9.55600 4.52200 35.49600
N  6.83300 4.99900 27.18300
C  6.07500 5.61300 28.09600
C  5.15600 6.52600 27.45700
C  5.54000 6.55100 26.04300
C  6.53100 5.54300 25.91300
C  4.00500 7.34900 28.13300
C  4.97900 7.48500 24.99700
O  5.56400 7.51700 23.92100
C  3.83900 8.42400 25.21000
N  8.47000 3.15200 25.30600
C  7.93900 3.93800 24.39000
C  8.12600 3.36100 22.95000
C  9.18300 2.23500 23.26800
C  9.09200 2.10800 24.80900
C  6.75200 2.88700 22.28200
C  10.59300 2.47100 22.68100
C  11.22600 1.15200 22.20400
N  9.21900 1.75600 27.86600
C  9.89200 0.95700 26.93200
C  10.63500 -0.12700 27.68100
C  10.42700 0.20300 29.00900
C  9.35400 1.22500 29.03500
C  11.65500 -1.09300 27.15200
C  10.89100 -0.09100 30.41900
O  11.67500 -0.90800 30.93300
C  9.92500 0.72700 31.29800
C  9.24300 -0.28600 32.21400
O  8.24800 -0.92600 31.87900
O  9.82100 -0.30100 33.40400
C  9.32800 -1.46100 34.26800
H  5.80000 6.26600 30.06300
H  6.80000 5.59000 23.79400
H  10.24700 0.36800 24.92200
H  7.26100 2.49800 32.52100
H  7.69900 5.43900 31.90500
H  5.61500 5.69800 33.00900
H  5.38900 4.00300 33.25000
H  4.90800 4.62400 31.72000
H  9.96200 3.80200 32.34300
H  9.40200 2.68900 33.50300
H  7.86600 4.68500 34.37700
H  9.18800 5.67500 33.70200
H  4.27200 8.40500 28.09000
H  3.96400 7.16400 29.20600
H  3.05400 7.03300 27.70600
H  3.70900 9.00300 24.29600
H  3.96700 9.12600 26.03400
H  2.92700 7.82600 25.20800
H  8.54300 4.05800 22.22400
H  8.77000 1.27900 22.94800
H  5.93500 3.49900 22.66500
H  6.57500 1.82200 22.42800
H  6.91300 3.17500 21.24300
H  11.25400 2.84700 23.46200
H  10.61300 3.26500 21.93400
H  10.62000 0.32100 22.56500
H  12.23100 0.95400 22.57500
H  11.27900 0.90200 21.14400
H  12.14200 -1.73600 27.88600
H  12.35500 -0.53400 26.53100
H  11.15100 -1.83700 26.53500
H  10.64200 1.26400 31.91800
H  10.12500 -1.54800 35.00600
H  9.30300 -2.37000 33.66700
H  8.37400 -1.28700 34.76600
Mg 7.15700 53.00800 41.40000
C  6.62600 49.67100 40.53500
C  10.32900 52.66200 40.24700
C  7.33300 56.30800 41.57300
C  3.92300 53.18100 42.75100
N  8.23700 51.40800 40.43300
C  7.89100 50.10500 40.20100
C  9.02900 49.24100 39.52400
C  10.27500 50.12200 39.92700
C  9.58200 51.52400 40.31900
C  11.05700 49.48300 41.11100
C  8.90400 49.01000 37.97600
C  8.63700 50.24200 37.09500
H  7.26300 50.17600 36.31100
N  8.56300 54.37300 40.86200
C  9.83700 54.01400 40.36700
C  10.59500 55.24400 40.24300
C  9.78900 56.27400 40.59100
C  8.52300 55.71200 41.06800
C  11.95800 55.28700 39.63400
C  10.22000 57.73300 40.70900
O  11.35600 58.02100 40.31700
C  9.31300 58.88900 41.26700
N  5.77900 54.51700 42.04700
C  6.17300 55.82200 42.02100
C  5.03300 56.77200 42.48100
C  4.12100 55.67500 43.16000
C  4.63300 54.36900 42.66300
C  5.38700 57.93600 43.46000
C  2.60900 55.95200 43.05000
C  1.85800 55.85100 41.75200
N  5.60500 51.69100 41.74400
C  4.34800 51.86900 42.33700
C  3.66600 50.61500 42.41600
C  4.53400 49.74000 41.67400
C  5.67400 50.41400 41.29400
C  2.32900 50.31100 42.96100
C  4.59500 48.37400 41.10600
O  3.73900 47.50800 41.17100
C  5.96900 48.28900 40.39300
C  5.75300 47.78700 39.00900
O  5.04600 48.34900 38.15800
O  6.43000 46.52900 38.89100
C  5.76300 45.78200 37.85800
H  11.38700 52.52500 40.01600
H  7.41500 57.39300 41.66800
H  2.98900 53.20700 43.31600
H  8.91600 48.26800 40.00300
H  10.81400 50.36300 39.01100
H  10.60800 48.54300 41.43200
H  11.03300 50.21500 41.91900
H  12.13700 49.36500 41.01200
H  8.08100 48.30000 37.89300
H  9.86900 48.66700 37.60400
H  9.42700 50.31000 36.34600
H  8.53500 51.17700 37.64600
H  12.09100 56.10200 38.92200
H  12.20600 54.48300 38.94100
H  12.75800 55.27200 40.37400
H  8.95100 58.63500 42.26300
H  8.51100 58.98100 40.53500
H  9.95200 59.77200 41.25700
H  4.48600 57.16600 41.62500
H  4.43400 55.56600 44.19900
H  6.45300 57.91300 43.68400
H  4.85300 57.89200 44.40900
H  5.04700 58.82000 42.92100
H  2.38200 56.90600 43.52500
H  2.15600 55.20300 43.69900
H  2.50000 55.68000 40.88800
H  1.41300 56.79100 41.42500
H  1.15000 55.03800 41.91100
H  1.94600 51.17000 43.51100
H  2.22900 49.46600 43.64300
H  1.81400 50.10500 42.02200
H  6.66400 47.60900 40.88600
H  6.22400 44.79600 37.91000
H  6.10800 46.24100 36.93100
H  4.69500 45.58500 37.94700

