158

Mg 45.36300 5.48300 48.32300
C  43.44300 8.14500 47.45000
C  42.92700 3.30000 47.21400
C  47.60700 2.83400 48.43400
C  48.08400 7.58900 48.73700
N  43.56700 5.72700 47.27900
C  42.86800 6.90600 47.12800
C  41.59900 6.70200 46.41100
C  41.28900 5.19900 46.69000
C  42.67500 4.68400 47.11700
C  40.16100 4.91500 47.67500
C  41.60700 7.09200 44.86800
C  40.50100 7.94600 44.30800
H  39.90700 7.54700 43.00100
N  45.26100 3.35200 48.03200
C  44.09800 2.66300 47.64600
C  44.34600 1.22900 47.67200
C  45.67200 1.08500 48.15400
C  46.26300 2.48000 48.23400
C  43.33200 0.23800 47.48500
C  46.34000 -0.30600 48.50800
O  45.67200 -1.33000 48.44700
C  47.66700 -0.54200 49.01500
N  47.57100 5.27700 48.51700
C  48.20000 4.11900 48.57800
C  49.70900 4.20700 48.85000
C  49.86100 5.79200 48.91200
C  48.38000 6.29100 48.70900
C  50.18700 3.60400 50.22800
C  50.82900 6.37400 47.88400
C  51.58400 7.59500 48.48900
N  45.77200 7.52900 48.28600
C  46.89400 8.20400 48.40000
C  46.63500 9.61800 48.12900
C  45.25200 9.66400 47.84500
C  44.77300 8.32900 47.96200
C  47.62400 10.75100 48.06700
C  44.14100 10.49200 47.48800
O  44.02200 11.65900 47.36000
C  42.92600 9.50200 47.28700
C  41.73100 9.82400 48.13800
O  41.63400 9.41400 49.32100
O  40.85900 10.55700 47.44400
C  39.69000 11.00800 48.11700
H  42.21300 2.56600 46.83600
H  48.41600 2.10600 48.51400
H  48.80200 8.35800 49.03100
H  40.82200 7.26700 46.92600
H  41.03000 4.62800 45.79800
H  39.76700 5.80800 48.15900
H  40.56100 4.36000 48.52300
H  39.38100 4.33300 47.18400
H  41.65600 6.20900 44.23100
H  42.56700 7.60300 44.79900
H  40.82300 8.98600 44.26200
H  39.65800 7.91800 44.99800
H  43.48400 -0.40900 46.62100
H  42.34500 0.55800 47.15100
H  43.18400 -0.37100 48.37700
H  48.01200 -1.55000 49.24800
H  47.66800 -0.00000 49.96100
H  48.37000 -0.14200 48.28500
H  50.29300 3.75700 48.04800
H  50.02200 6.07100 49.95400
H  50.93700 4.26700 50.65700
H  50.51000 2.58200 50.03000
H  49.32700 3.43800 50.87700
H  50.26000 6.86000 47.09100
H  51.58300 5.65300 47.56700
H  52.29900 7.97000 47.75700
H  52.07700 7.10900 49.33100
H  50.83600 8.35000 48.73200
H  48.58200 10.39900 47.68500
H  47.68500 11.03500 49.11800
H  47.18500 11.50700 47.41500
H  42.65300 9.58400 46.23500
H  39.53700 12.03700 47.79300
H  39.77800 10.97300 49.20300
H  38.85400 10.35600 47.86500
Mg 36.06600 48.27400 25.52300
C  36.46700 46.39100 28.47500
C  35.14700 51.02000 27.43300
C  35.04600 49.72700 22.72900
C  37.04900 45.46500 23.77400
N  35.63900 48.62800 27.71700
C  35.94700 47.67900 28.72500
C  35.75300 48.33000 30.07800
C  35.06600 49.70900 29.70300
C  35.32600 49.82500 28.22400
C  33.52300 49.76500 30.05300
C  36.98500 48.53100 30.87500
C  37.01600 48.35300 32.40900
H  35.70200 48.48400 33.24700
N  35.16900 50.16100 25.09900
C  34.97300 51.20500 25.99000
C  34.48900 52.37300 25.29400
C  34.21700 51.98300 23.92700
C  34.84100 50.60600 23.84900
C  34.25100 53.69000 25.98600
C  33.49500 52.75800 22.82600
O  33.48100 52.29100 21.69600
C  32.89600 54.13000 23.10100
N  36.05300 47.70400 23.57300
C  35.57900 48.45300 22.54400
C  35.78200 47.82200 21.13800
C  36.69200 46.57100 21.57300
C  36.56100 46.52000 23.09000
C  34.55000 47.40900 20.47700
C  38.13400 46.55700 21.04000
C  39.30300 47.10200 21.84100
N  36.67500 46.35400 25.95500
C  37.09300 45.32700 25.16000
C  37.62200 44.26200 25.91700
C  37.28400 44.59300 27.22700
C  36.77100 45.87800 27.23900
C  38.22500 42.93600 25.35800
C  37.36800 44.11200 28.63100
O  37.81300 43.08700 29.11000
C  36.83200 45.33300 29.49200
C  35.74100 44.94100 30.35100
O  34.60800 44.97500 30.02500
O  36.16900 44.71600 31.61900
C  35.09100 44.49600 32.64200
H  35.02100 51.83800 28.14600
H  34.68000 50.26900 21.85500
H  37.39300 44.65700 23.12500
H  35.00000 47.70900 30.56400
H  35.59200 50.49500 30.24500
H  33.29100 50.66300 30.62400
H  33.21200 49.01500 30.78100
H  32.82300 49.69500 29.22000
H  37.35400 49.52100 30.60500
H  37.69500 47.86500 30.38400
H  37.71100 49.17600 32.57900
H  37.46300 47.37400 32.57900
H  34.72200 54.51200 25.44700
H  34.75300 53.72000 26.95300
H  33.18600 53.80400 26.18300
H  32.24800 53.90000 23.94700
H  32.24200 54.45300 22.29200
H  33.71300 54.82500 23.29400
H  36.36300 48.51700 20.53100
H  36.19100 45.65100 21.27400
H  33.72100 47.60100 21.15800
H  34.52700 46.38600 20.10100
H  34.43600 48.12300 19.66200
H  38.08600 47.05900 20.07400
H  38.31100 45.52400 20.74200
H  39.72400 48.02300 21.43800
H  40.06400 46.32100 21.83500
H  39.03700 47.27200 22.88400
H  38.43600 43.00700 24.29100
H  37.62100 42.05000 25.55100
H  39.13600 42.67300 25.89500
H  37.69800 45.45400 30.14200
H  35.47100 44.61700 33.65600
H  34.78400 43.46800 32.45100
H  34.27900 45.21300 32.52800

