158

Mg 40.51100 9.08700 29.27000
C  42.61400 10.51000 31.81800
C  38.69000 7.58300 31.57100
C  39.13600 7.33300 26.72400
C  43.08200 10.11300 26.96300
N  40.77400 8.95400 31.37000
C  41.52200 9.78300 32.23800
C  41.14000 9.45000 33.73700
C  39.86800 8.54300 33.58700
C  39.74500 8.35900 32.04500
C  39.85300 7.14400 34.32300
C  40.84300 10.70500 34.64100
C  40.10000 10.50400 35.98400
H  40.87300 10.86800 37.28500
N  38.95300 7.81400 29.18200
C  38.34000 7.28200 30.25600
C  37.16600 6.50600 29.80200
C  37.35100 6.40700 28.36400
C  38.56400 7.19400 28.02600
C  36.35900 5.74800 30.82400
C  36.60900 5.65100 27.36300
O  36.84400 5.58900 26.14900
C  35.34500 4.86900 27.70000
N  41.01000 8.78500 27.18600
C  40.21700 8.13600 26.35600
C  40.61600 8.22700 24.86900
C  41.99700 8.94600 24.97400
C  42.01300 9.34300 26.46000
C  40.72200 6.84300 24.10100
C  42.21900 10.14300 24.00800
C  41.38600 11.44100 24.23800
N  42.39800 10.22400 29.30500
C  43.31100 10.52100 28.30100
C  44.48800 11.20600 28.86000
C  44.22600 11.28700 30.23200
C  42.95000 10.64100 30.48200
C  45.66300 11.63500 28.06500
C  44.72100 11.79200 31.47900
O  45.76800 12.38600 31.72800
C  43.67900 11.24800 32.53100
C  44.36900 10.48300 33.55000
O  44.99700 9.48300 33.47500
O  44.32000 11.15800 34.73800
C  44.75800 10.48700 36.02200
H  38.09300 7.12000 32.36000
H  38.72700 6.81600 25.85300
H  43.80600 10.36700 26.18600
H  42.03000 8.90800 34.05800
H  39.01000 9.16900 33.83200
H  40.64500 7.01500 35.06100
H  39.79100 6.28100 33.65900
H  38.81300 7.13900 34.64700
H  40.48000 11.57400 34.09200
H  41.69700 11.26100 35.02700
H  39.77400 9.46600 36.04200
H  39.17100 11.04600 35.80700
H  36.75000 5.81900 31.83900
H  36.29700 4.68000 30.61300
H  35.29000 5.96000 30.84400
H  34.58100 5.45100 28.21500
H  35.68400 4.06200 28.35000
H  34.86400 4.55900 26.77200
H  39.86500 8.81700 24.34300
H  42.75300 8.16200 24.91800
H  40.05600 6.80400 23.23800
H  40.56000 6.02500 24.80300
H  41.71000 6.64800 23.68500
H  41.91000 9.75500 23.03700
H  43.26600 10.44700 23.99100
H  41.95000 12.16700 24.82500
H  40.44600 11.31600 24.77500
H  41.11700 11.92500 23.29900
H  45.75100 11.07800 27.13300
H  46.47100 11.43300 28.76900
H  45.66400 12.68700 27.77900
H  43.21200 12.09500 33.03300
H  44.95800 9.43900 35.80100
H  44.04900 10.66200 36.83100
H  45.72200 10.92000 36.28800
Mg -1.79100 35.16200 26.71900
C  -3.46500 33.22700 29.18400
C  -0.59000 37.15600 29.24300
C  -0.85400 37.43900 24.41500
C  -3.59900 33.42400 24.37600
N  -2.13600 35.25800 28.93400
C  -2.79600 34.31500 29.75000
C  -2.52400 34.60500 31.22800
C  -1.81900 35.95500 31.21100
C  -1.40500 36.06600 29.75100
C  -2.73200 37.15400 31.52200
C  -1.48100 33.48000 31.75100
C  -1.84600 32.95400 33.13400
H  -0.86300 32.96100 34.33200
N  -0.74300 36.88400 26.81300
C  -0.23900 37.49600 27.93400
C  0.67900 38.57200 27.55000
C  0.59600 38.73000 26.15600
C  -0.37800 37.64500 25.72000
C  1.35500 39.40900 28.56800
C  1.30100 39.68200 25.18500
O  1.13300 39.72700 24.04600
C  2.32200 40.58300 25.68500
N  -2.24000 35.48300 24.69600
C  -1.76900 36.52500 23.94700
C  -2.35100 36.50500 22.53600
C  -2.89200 35.00100 22.41300
C  -2.96700 34.58300 23.92700
C  -3.35900 37.67200 22.30700
C  -1.96700 34.03400 21.69100
C  -2.64800 32.78100 21.05600
N  -3.12800 33.58300 26.74700
C  -3.73400 32.93000 25.71900
C  -4.38500 31.72000 26.15500
C  -4.36700 31.76800 27.51800
C  -3.60900 32.95600 27.85800
C  -5.16100 30.80800 25.25900
C  -4.86300 31.16500 28.77600
O  -5.55900 30.18500 29.01500
C  -4.11600 32.03300 29.93200
C  -5.11700 32.41100 30.90900
O  -6.25900 32.82400 30.60900
O  -4.67700 32.01000 32.17000
C  -5.67100 32.23100 33.26300
H  -0.14200 37.80800 29.99500
H  -0.54100 38.18400 23.68100
H  -4.07500 32.85400 23.57500
H  -3.51800 34.57400 31.67500
H  -0.97100 35.80600 31.87900
H  -3.61900 36.86800 32.08800
H  -2.97900 37.60800 30.56300
H  -2.23800 37.87500 32.17300
H  -0.46600 33.87700 31.72000
H  -1.46400 32.70000 30.99000
H  -2.20100 31.93700 32.96800
H  -2.71300 33.54400 33.43000
H  1.19700 40.47800 28.42500
H  2.42900 39.22800 28.51700
H  1.09300 39.28500 29.61900
H  2.99200 40.96600 24.91500
H  3.00900 39.98900 26.28800
H  2.03500 41.54000 26.12200
H  -1.55100 36.68600 21.81800
H  -3.85500 35.10000 21.91200
H  -3.71700 37.42100 21.30900
H  -2.83900 38.63000 22.30100
H  -4.22100 37.71600 22.97300
H  -1.26200 33.54100 22.35900
H  -1.35400 34.59400 20.98400
H  -3.71400 32.72000 21.27600
H  -2.25000 31.92000 21.59300
H  -2.54200 32.58400 19.98900
H  -5.95400 31.26600 24.66900
H  -5.69800 30.08400 25.87200
H  -4.56600 30.23100 24.55200
H  -3.39200 31.39700 30.43900
H  -6.40300 33.00000 33.01300
H  -5.11800 32.67200 34.09300
H  -6.06900 31.28200 33.62100

