158

Mg 44.52900 4.70400 48.36600
C  42.22500 7.17200 47.60300
C  42.07400 2.23000 47.87600
C  46.92500 2.40800 48.58300
C  46.90700 7.33400 48.34100
N  42.42700 4.71500 47.76500
C  41.62000 5.86400 47.69700
C  40.11000 5.59900 47.57200
C  40.13200 3.99200 47.66000
C  41.64500 3.56600 47.83700
C  39.30200 3.36000 48.85300
C  39.24700 6.10400 46.40200
C  39.90400 6.33300 44.95700
H  39.20700 7.11100 43.83900
N  44.52500 2.58800 48.19400
C  43.45700 1.79800 47.97700
C  43.83500 0.38100 47.79800
C  45.32700 0.43000 47.93500
C  45.65100 1.87100 48.20800
C  42.92700 -0.78200 47.52200
C  46.32800 -0.77300 47.79300
O  45.88300 -1.90100 47.62900
C  47.76500 -0.54900 47.80200
N  46.58500 4.90100 48.39900
C  47.33200 3.81200 48.68000
C  48.73900 4.15100 49.05900
C  48.75000 5.67800 49.11200
C  47.38000 6.04100 48.55300
C  49.37600 3.39100 50.30700
C  49.97900 6.39600 48.62500
C  50.58000 7.47100 49.58900
N  44.59600 6.82200 48.04200
C  45.60400 7.73800 48.10600
C  45.11200 9.06600 47.86100
C  43.72400 8.89900 47.72000
C  43.50300 7.50400 47.76900
C  45.86400 10.26800 47.97800
C  42.54600 9.62300 47.53600
O  42.36800 10.80500 47.35900
C  41.47100 8.50700 47.44800
C  40.47500 8.70700 48.50100
O  40.61700 8.17200 49.58700
O  39.49600 9.52700 48.10700
C  38.34900 9.18100 48.91400
H  41.28800 1.49300 47.69900
H  47.75500 1.72500 48.77200
H  47.69900 8.07900 48.44400
H  39.73300 5.92900 48.54000
H  39.64200 3.49100 46.82500
H  40.08600 3.17200 49.58700
H  38.89800 2.36100 48.68400
H  38.56600 3.97200 49.37300
H  38.57200 6.82500 46.86300
H  38.55200 5.27200 46.28700
H  40.13800 5.37700 44.49000
H  40.89900 6.76500 45.06600
H  43.24800 -1.48400 46.75200
H  41.88200 -0.56600 47.29800
H  42.73000 -1.28300 48.47000
H  48.19900 0.18700 47.12600
H  48.14000 -1.50600 47.43800
H  47.98200 -0.59600 48.87000
H  49.41800 3.87100 48.25300
H  48.68600 5.85600 50.18500
H  48.64100 2.89400 50.94100
H  49.95500 4.11400 50.88200
H  50.18100 2.69300 50.07900
H  49.80500 6.91100 47.68000
H  50.81300 5.71000 48.47800
H  50.71100 8.39400 49.02500
H  51.56100 7.18200 49.96900
H  49.84800 7.69700 50.36400
H  46.58000 10.14500 48.79100
H  45.26200 11.16700 48.10900
H  46.46900 10.33000 47.07400
H  40.98900 8.70800 46.49100
H  38.26200 8.10300 48.77900
H  37.48100 9.73300 48.55300
H  38.56600 9.39800 49.96000
Mg 34.91400 2.95600 29.50700
C  33.02800 4.23900 32.18300
C  37.52500 2.59200 31.55400
C  36.79900 2.14900 26.75600
C  32.12700 3.60600 27.42800
N  35.32400 3.51200 31.60000
C  34.40600 3.94300 32.50000
C  34.99700 3.95600 33.90700
C  36.50900 3.75000 33.64100
C  36.51400 3.28900 32.16500
C  37.37000 4.96600 34.02000
C  34.34600 2.92100 34.82400
C  34.11000 3.28100 36.34300
H  34.69500 4.62700 36.98400
N  36.86300 2.37100 29.21800
C  37.70500 2.16800 30.25800
C  38.79000 1.34900 29.72100
C  38.58800 1.15200 28.31300
C  37.36800 1.94100 28.04600
C  39.89700 0.73700 30.67700
C  39.39000 0.42200 27.30000
O  38.99800 0.32100 26.19500
C  40.58900 -0.27500 27.58700
N  34.56700 2.89400 27.45900
C  35.46100 2.57100 26.50700
C  34.89900 2.83200 25.11000
C  33.44100 3.01000 25.33200
C  33.36200 3.12500 26.86800
C  35.70200 3.98600 24.30700
C  32.54200 1.88600 24.74400
C  32.53000 0.56100 25.56700
N  32.90900 3.65700 29.69700
C  31.92500 3.85700 28.81500
C  30.68600 4.28500 29.54300
C  31.13300 4.46200 30.87100
C  32.42900 4.05200 30.86500
C  29.29600 4.51400 28.93300
C  30.72500 4.84400 32.22300
O  29.59500 5.01400 32.66700
C  31.93700 4.70600 33.12800
C  32.20500 6.00800 33.82200
O  33.05100 6.81600 33.36100
O  31.39500 6.22700 34.92800
C  31.47300 7.62800 35.46000
H  38.43800 2.47100 32.14100
H  37.35100 1.84700 25.86300
H  31.32400 3.92500 26.76000
H  34.86300 4.99800 34.20000
H  36.92300 2.90600 34.19300
H  37.72000 5.44900 33.10800
H  38.22100 4.70700 34.65000
H  36.66500 5.69600 34.41800
H  34.96000 2.02300 34.89400
H  33.43900 2.50500 34.38500
H  34.54300 2.47100 36.92900
H  33.03400 3.24000 36.51700
H  39.78500 -0.34600 30.71800
H  39.89600 1.19100 31.66800
H  40.82000 0.98100 30.15100
H  41.12500 -0.32900 26.64000
H  40.36200 -1.27900 27.94600
H  41.11800 0.36700 28.29200
H  35.08600 1.92100 24.54200
H  33.09700 3.96900 24.94500
H  36.65700 4.23500 24.76900
H  35.16600 4.93000 24.20800
H  35.81500 3.53700 23.32000
H  32.80300 1.84300 23.68600
H  31.51400 2.24600 24.72100
H  33.36200 0.58300 26.27000
H  32.65900 -0.23900 24.83800
H  31.55400 0.54400 26.05300
H  28.56000 4.60600 29.73100
H  29.21600 3.54900 28.43300
H  29.34600 5.23900 28.12100
H  31.77400 4.02600 33.96400
H  32.37000 7.75600 36.06700
H  30.58400 7.90500 36.02500
H  31.45600 8.30800 34.60800

