158

Mg -2.00600 16.59400 26.16500
C  -2.29400 14.28100 28.75000
C  -2.41600 19.14200 28.49300
C  -1.97200 18.84600 23.61500
C  -1.83100 14.05000 23.82100
N  -2.34300 16.66400 28.37100
C  -2.39300 15.59400 29.28700
C  -2.70100 15.99900 30.72500
C  -2.92700 17.58800 30.48400
C  -2.62500 17.81900 29.02900
C  -4.30000 18.26000 31.02800
C  -1.55600 15.57500 31.73800
C  -0.98300 16.62300 32.71700
H  -0.43800 16.05500 34.05700
N  -2.17500 18.66000 26.10000
C  -2.30400 19.54600 27.12400
C  -2.49500 20.88200 26.62200
C  -2.21700 20.87600 25.25100
C  -2.07300 19.40200 24.93200
C  -2.99000 21.97800 27.45400
C  -2.11200 22.04800 24.33900
O  -2.00200 21.99600 23.13000
C  -2.04500 23.47700 25.06000
N  -2.03400 16.51600 23.97300
C  -1.87900 17.55700 23.18900
C  -1.83600 17.20800 21.78100
C  -1.57800 15.59600 21.90600
C  -1.82100 15.38100 23.31900
C  -3.12300 17.60000 21.00400
C  -0.21500 14.98300 21.39800
C  -0.23200 14.77000 19.85000
N  -2.05600 14.59500 26.19900
C  -1.91900 13.69300 25.12900
C  -2.11600 12.32000 25.67000
C  -2.23800 12.56800 27.10200
C  -2.20800 13.91600 27.32600
C  -2.24300 11.06200 24.95700
C  -2.42000 11.91400 28.39800
O  -2.31300 10.68500 28.72500
C  -2.48900 13.00300 29.45900
C  -1.59800 12.72500 30.54200
O  -0.36000 12.62000 30.42300
O  -2.34000 12.55500 31.70500
C  -1.47000 12.14200 32.77900
H  -2.47600 19.90300 29.27400
H  -1.92800 19.57700 22.80500
H  -1.83400 13.22000 23.11100
H  -3.65500 15.52600 30.95400
H  -2.01500 18.06500 30.84200
H  -3.94400 18.91300 31.82600
H  -4.97800 17.54100 31.48700
H  -4.98100 18.69100 30.29400
H  -0.67800 15.17000 31.23500
H  -1.90100 14.89800 32.51900
H  -1.69700 17.39700 32.99600
H  -0.15100 17.11500 32.21300
H  -2.19700 22.70600 27.62800
H  -3.35100 21.63400 28.42400
H  -3.86500 22.51300 27.08700
H  -3.04700 23.67900 25.43600
H  -1.85100 24.18900 24.25800
H  -1.29700 23.52900 25.85100
H  -0.98400 17.60200 21.22800
H  -2.46900 15.22000 21.40100
H  -2.75100 18.43100 20.40500
H  -3.94800 17.97500 21.61000
H  -3.60200 16.79100 20.45300
H  -0.01500 14.15600 22.08000
H  0.48500 15.81100 21.50900
H  0.41800 15.46600 19.32000
H  -1.20000 14.78700 19.34900
H  0.18600 13.76600 19.76900
H  -1.36500 11.00400 24.31400
H  -3.13800 11.04100 24.33500
H  -2.22200 10.24100 25.67300
H  -3.43500 13.00900 30.00000
H  -0.60400 12.80000 32.85200
H  -1.25400 11.07600 32.71300
H  -2.04400 12.42500 33.66200
Mg 17.51900 -1.77000 27.22900
C  16.55200 0.15800 29.98200
C  19.32500 -3.68200 29.35500
C  18.85800 -3.18800 24.63700
C  15.53100 0.27500 25.21200
N  17.93900 -1.68800 29.42200
C  17.41500 -0.87200 30.39200
C  17.95700 -1.27300 31.78100
C  18.96500 -2.33600 31.46800
C  18.71300 -2.61400 30.00600
C  20.38500 -2.05100 31.94700
C  16.87700 -1.80900 32.74800
C  16.86900 -1.32700 34.18800
H  18.04000 -0.56900 34.72400
N  18.81300 -3.37300 27.02700
C  19.37800 -4.09900 28.05900
C  20.14400 -5.28300 27.50400
C  19.88900 -5.15800 26.09300
C  19.16300 -3.86500 25.84500
C  20.90800 -6.32900 28.29500
C  20.19300 -6.11100 24.98500
O  19.94500 -5.89200 23.80100
C  20.58500 -7.60500 25.35400
N  17.47200 -1.22300 25.29700
C  18.11700 -2.01200 24.38300
C  17.93700 -1.47100 22.94900
C  16.90700 -0.38500 23.05900
C  16.52700 -0.43800 24.58900
C  19.24400 -0.94200 22.30000
C  15.65900 -0.67700 22.10500
C  15.02200 0.58000 21.50700
N  16.30000 -0.02200 27.45800
C  15.53700 0.64800 26.55000
C  14.86000 1.77300 27.13200
C  15.15600 1.56700 28.56500
C  16.07500 0.48800 28.66800
C  14.05900 2.80600 26.49800
C  14.89500 2.02700 29.93800
O  14.26300 2.98400 30.32800
C  15.89600 1.11700 30.88200
C  16.79800 2.11100 31.51400
O  17.79700 2.55600 30.97500
O  16.50600 2.33100 32.81800
C  17.25000 3.40000 33.45800
H  20.01800 -4.20400 30.01900
H  19.15100 -3.51000 23.63600
H  14.92000 0.87700 24.53500
H  18.45600 -0.36200 32.10800
H  18.69500 -3.21200 32.05800
H  20.51600 -1.02900 32.30100
H  21.06200 -2.05200 31.09200
H  20.74200 -2.80700 32.64600
H  16.71500 -2.88600 32.72600
H  15.96100 -1.32700 32.40700
H  16.60800 -2.25200 34.70300
H  15.94600 -0.76700 34.33400
H  21.15500 -5.90700 29.26900
H  21.80600 -6.79900 27.89300
H  20.14000 -7.07700 28.48800
H  19.80300 -8.12900 25.90500
H  21.56100 -7.60100 25.84000
H  20.81000 -8.03100 24.37600
H  17.50000 -2.31800 22.42000
H  17.37200 0.59400 22.93800
H  19.02500 -0.07800 21.67200
H  19.76600 -1.69000 21.70400
H  19.84500 -0.64500 23.16000
H  14.95500 -1.30700 22.64800
H  15.99000 -1.18000 21.19700
H  15.37000 1.55800 21.84000
H  13.93800 0.48000 21.56900
H  15.30700 0.62500 20.45600
H  14.49000 3.80500 26.56300
H  13.25600 2.91200 27.22700
H  13.65800 2.45900 25.54500
H  15.37300 0.66600 31.72500
H  18.23700 3.52300 33.01100
H  17.52800 3.09600 34.46700
H  16.65800 4.30100 33.62000

