158

Mg -2.63300 17.24500 27.10100
C  -3.14100 15.04100 29.76000
C  -3.06300 19.84700 29.18500
C  -2.53800 19.20200 24.37100
C  -2.79600 14.36600 24.94500
N  -3.25300 17.40400 29.27600
C  -3.28900 16.41000 30.15100
C  -3.38100 16.93400 31.62600
C  -3.52300 18.46700 31.35300
C  -3.30400 18.65700 29.84100
C  -4.76500 19.22700 31.79400
C  -2.22900 16.63400 32.61000
C  -2.66600 16.13800 33.98200
H  -1.74300 16.16000 35.25600
N  -2.61000 19.24500 26.83900
C  -2.86700 20.11400 27.84100
C  -2.59900 21.41300 27.22800
C  -2.46100 21.32600 25.85300
C  -2.51400 19.89300 25.60300
C  -2.79300 22.68400 27.95200
C  -2.24300 22.33700 24.69400
O  -2.20700 22.01500 23.47500
C  -2.09900 23.81400 25.02400
N  -2.91300 16.83600 24.94300
C  -2.70300 17.85500 24.05400
C  -2.60900 17.34500 22.58000
C  -2.56400 15.74800 22.77300
C  -2.79300 15.62000 24.31400
C  -3.65700 17.86800 21.54100
C  -1.42100 14.99700 22.18800
C  -0.08600 15.31000 22.86100
N  -2.98400 15.15800 27.23400
C  -2.92500 14.11500 26.32500
C  -2.95900 12.84700 26.92300
C  -3.03300 13.18100 28.26700
C  -3.07200 14.53800 28.41100
C  -2.92200 11.59000 26.27400
C  -3.22500 12.59300 29.50400
O  -3.34700 11.45100 29.89200
C  -3.18400 13.80700 30.55900
C  -1.89400 13.57600 31.29900
O  -0.74200 13.64000 30.85800
O  -2.14800 13.22600 32.63300
C  -0.93600 12.92400 33.42400
H  -3.11100 20.71800 29.84100
H  -2.35200 19.66300 23.39900
H  -2.81500 13.53700 24.23500
H  -4.31000 16.48000 31.97100
H  -2.66300 18.96800 31.79800
H  -5.45100 19.44100 30.97500
H  -4.45100 20.14900 32.28200
H  -5.37900 18.58200 32.42400
H  -1.48500 17.43100 32.63200
H  -1.74300 15.82800 32.06100
H  -3.10500 15.14300 33.89900
H  -3.43100 16.77100 34.43000
H  -3.24400 23.52700 27.42800
H  -1.81300 22.89400 28.37900
H  -3.34400 22.46800 28.86700
H  -1.58300 24.34500 24.22300
H  -1.54200 23.91100 25.95600
H  -3.09800 24.17900 25.26000
H  -1.60000 17.59900 22.25700
H  -3.47600 15.34400 22.33200
H  -4.10000 18.78100 21.93800
H  -4.53300 17.22100 21.50700
H  -3.24600 18.02600 20.54400
H  -1.29800 15.30300 21.14900
H  -1.58500 13.92000 22.24000
H  -0.14400 15.67100 23.88700
H  0.56800 16.01400 22.34600
H  0.53700 14.41800 22.79700
H  -2.45900 11.50100 25.29100
H  -3.98600 11.45400 26.08100
H  -2.57400 10.82400 26.96600
H  -4.01900 13.79200 31.25900
H  -0.81900 11.85800 33.23400
H  -1.09900 13.02000 34.49700
H  0.00800 13.40100 33.16100
Mg -0.41800 7.56600 26.16200
C  0.48900 9.53500 28.87900
C  -0.22000 4.78300 28.17900
C  -0.66000 5.56300 23.39500
C  0.07000 10.34100 24.07200
N  0.04400 7.24200 28.31700
C  0.30500 8.20500 29.18900
C  0.35400 7.60700 30.68000
C  0.35000 6.00800 30.39400
C  -0.04300 6.00200 28.83300
C  1.73100 5.34100 30.65400
C  -0.89200 8.19900 31.41400
C  -1.04200 7.80300 32.87300
H  0.25800 7.62700 33.79100
N  -0.40500 5.40900 25.84000
C  -0.27800 4.50400 26.80900
C  -0.38300 3.17600 26.26900
C  -0.57700 3.32800 24.81800
C  -0.61400 4.81800 24.61600
C  -0.29300 1.88400 27.12300
C  -0.78200 2.17900 23.74200
O  -1.03800 2.42800 22.55600
C  -0.74500 0.77900 24.19500
N  -0.43900 7.85400 24.10600
C  -0.60200 6.90600 23.14800
C  -0.60100 7.45800 21.73500
C  -0.74400 9.05300 21.99800
C  -0.32600 9.14700 23.49400
C  0.77300 7.09400 20.97000
C  -2.15800 9.56100 21.64300
C  -2.33800 10.30600 20.38000
N  -0.00100 9.54300 26.39000
C  0.22000 10.57500 25.46800
C  0.70700 11.78100 26.18900
C  0.68400 11.32400 27.48600
C  0.42700 9.96500 27.59700
C  0.94300 13.13500 25.58400
C  0.96600 11.87100 28.82900
O  1.38800 12.99600 29.11600
C  0.69400 10.74100 29.80400
C  1.96700 10.57700 30.61400
O  2.90700 9.86100 30.31500
O  1.88700 11.35200 31.75200
C  3.18500 11.51700 32.42200
H  -0.15100 3.94800 28.88000
H  -0.72500 4.83500 22.58300
H  0.30000 11.23200 23.48400
H  1.25700 7.85900 31.23600
H  -0.40400 5.52600 31.01600
H  2.56300 6.03700 30.55100
H  2.02000 4.62300 29.88600
H  1.75900 4.93600 31.66500
H  -1.78800 7.80300 30.93600
H  -0.98200 9.27800 31.28700
H  -1.71800 6.94800 32.84900
H  -1.63300 8.50700 33.45900
H  0.63900 1.38600 26.85600
H  -1.10400 1.18300 26.92800
H  -0.41000 2.11700 28.18200
H  -0.69500 0.08800 23.35300
H  -1.69300 0.65000 24.71700
H  0.17100 0.63800 24.76900
H  -1.53500 7.19700 21.23900
H  0.12600 9.30600 21.39200
H  1.61100 7.06100 21.66600
H  1.02900 7.90300 20.28400
H  0.45300 6.12600 20.58400
H  -2.28400 10.27400 22.45800
H  -2.91400 8.78800 21.78400
H  -1.41000 10.31000 19.80700
H  -2.57100 11.35000 20.59000
H  -3.08400 9.81700 19.75400
H  1.84300 13.44500 26.11600
H  0.10800 13.75400 25.91100
H  1.10200 13.11000 24.50600
H  -0.14700 11.05600 30.42200
H  4.03000 11.68300 31.75500
H  3.38600 10.60300 32.98100
H  3.20700 12.36200 33.11000

