158

Mg 25.48400 1.65300 29.87000
C  27.62600 1.52500 32.76900
C  22.91400 2.08700 31.95500
C  23.51900 1.61800 27.27100
C  28.23700 0.62500 27.98200
N  25.46700 1.64300 32.21400
C  26.36700 1.83100 33.16900
C  25.79600 2.21600 34.50500
C  24.24700 2.31600 34.23100
C  24.19300 1.95300 32.71100
C  23.41300 1.30600 35.16200
C  26.47700 3.54900 35.04700
C  27.30400 3.41600 36.34100
H  27.09900 4.42000 37.49100
N  23.50800 1.79900 29.66200
C  22.60600 1.97800 30.65900
C  21.26200 2.10800 30.08900
C  21.44000 2.00200 28.66500
C  22.83500 1.82900 28.46200
C  20.05300 2.36500 30.90700
C  20.34600 2.06500 27.56600
O  20.61700 2.02000 26.37000
C  18.84900 2.08800 27.84400
N  25.79900 1.20300 27.93600
C  24.88900 1.36600 27.00300
C  25.48800 1.36600 25.62700
C  26.96900 0.98000 25.79600
C  27.02400 0.96500 27.35600
C  24.74800 0.42000 24.54500
C  28.03600 1.82700 25.17000
C  28.14700 3.34100 25.51000
N  27.49800 1.19400 30.22200
C  28.52000 0.76600 29.38000
C  29.76000 0.56300 30.14200
C  29.44100 0.82500 31.45400
C  28.12900 1.29100 31.44700
C  31.00300 0.08700 29.54300
C  29.92000 0.89600 32.79400
O  31.05500 0.64400 33.18700
C  28.81200 1.40200 33.70000
C  28.67900 0.47400 34.78400
O  28.20400 -0.69100 34.76400
O  29.22000 1.08200 35.86200
C  29.37000 0.24500 37.00200
H  22.13100 2.42100 32.63800
H  22.82400 1.69600 26.43200
H  29.04900 0.16100 27.41900
H  26.08400 1.30700 35.03400
H  23.94400 3.32700 34.50100
H  22.76000 0.72700 34.51100
H  22.75100 1.92000 35.77400
H  23.99400 0.66100 35.82100
H  25.65000 4.22600 35.26600
H  27.09400 3.99700 34.26700
H  28.36700 3.44900 36.10100
H  26.98200 2.42700 36.66900
H  19.15400 1.87600 30.53300
H  19.93000 3.42800 30.70000
H  20.22300 2.20100 31.97100
H  18.72200 3.00200 28.42400
H  18.63600 1.29100 28.55600
H  18.25900 1.99000 26.93300
H  25.35500 2.38900 25.27500
H  27.12200 -0.03800 25.43900
H  23.83200 -0.05100 24.90100
H  25.28600 -0.46200 24.19500
H  24.58200 1.01200 23.64500
H  27.80300 1.89900 24.10800
H  28.99900 1.31900 25.21100
H  29.03000 3.31100 26.14800
H  27.19100 3.67400 25.91400
H  28.32800 3.90300 24.59300
H  31.09900 0.36600 28.49300
H  31.18200 -0.97800 29.69100
H  31.79500 0.57100 30.11300
H  29.07800 2.40100 34.04500
H  29.59600 -0.80600 36.82400
H  28.37600 0.29900 37.44700
H  30.13000 0.68600 37.64800
Mg 35.18000 2.95600 30.80200
C  32.85300 4.24100 33.30400
C  37.65000 3.36200 33.38000
C  37.52600 2.15200 28.46400
C  32.75100 3.08300 28.51900
N  35.28400 3.76700 33.07400
C  34.14600 3.97300 33.88100
C  34.54500 4.09700 35.38800
C  36.11500 4.12300 35.33800
C  36.38500 3.71700 33.87700
C  36.83100 5.47300 35.82200
C  33.87600 2.93300 36.22900
C  32.99700 3.38600 37.43200
H  33.36100 4.74300 38.05700
N  37.31900 2.76700 30.89700
C  38.08300 2.97400 31.99900
C  39.43200 2.55500 31.67800
C  39.49600 2.23700 30.27400
C  38.08400 2.36200 29.76100
C  40.53400 2.54300 32.71400
C  40.65200 1.69800 29.37400
O  40.63300 1.64700 28.13200
C  41.87700 1.20100 30.06200
N  35.18100 2.79900 28.77700
C  36.23700 2.41500 27.97300
C  35.77000 2.20600 26.52200
C  34.30800 2.57600 26.52300
C  34.01500 2.70100 28.09300
C  36.59400 2.96100 25.40700
C  33.52500 1.41800 25.76300
C  32.18500 1.88000 25.06400
N  33.11300 3.52600 30.87000
C  32.33700 3.59400 29.78600
C  31.03900 4.02000 30.24000
C  31.20000 4.27200 31.63400
C  32.56800 4.03000 31.93200
C  29.74500 4.20600 29.49100
C  30.52500 4.74200 32.78900
O  29.36600 5.07700 32.96100
C  31.56100 4.62700 33.94700
C  31.57500 5.92300 34.79200
O  32.24900 6.94200 34.54500
O  30.63000 5.83700 35.78800
C  30.39100 7.08700 36.60100
H  38.36500 3.20200 34.18900
H  38.21600 1.88400 27.66200
H  32.16100 3.32200 27.63200
H  34.18400 5.08200 35.68400
H  36.54900 3.45200 36.07900
H  37.20300 5.42400 36.84500
H  36.07700 6.25900 35.87100
H  37.52700 5.79000 35.04600
H  34.70700 2.31300 36.56500
H  33.36500 2.22000 35.58200
H  33.28100 2.67100 38.20400
H  31.93500 3.36500 37.18400
H  40.91600 1.52700 32.81300
H  40.17100 2.94200 33.66100
H  41.35700 3.19800 32.43000
H  42.67000 0.96300 29.35300
H  41.50100 0.39800 30.69500
H  42.36800 1.87500 30.76400
H  35.93900 1.14700 26.32600
H  34.19300 3.58300 26.12200
H  36.39100 4.02300 25.27100
H  36.49200 2.45500 24.44600
H  37.65500 2.84100 25.62600
H  33.36400 0.64500 26.51400
H  34.19000 1.13600 24.94700
H  32.14600 1.52400 24.03500
H  31.96400 2.94400 24.97200
H  31.47400 1.36400 25.70900
H  29.97400 3.88700 28.47400
H  29.54700 5.27800 29.50900
H  28.98100 3.64900 30.03200
H  31.39300 3.80400 34.64200
H  31.14500 7.30900 37.35700
H  29.41200 6.95700 37.06200
H  30.17000 7.96300 35.99100

