158

Mg 49.22200 36.53000 27.34500
C  47.17900 34.79300 29.74800
C  48.99100 39.31400 29.29500
C  50.76900 38.12100 24.91600
C  48.61500 33.76500 25.26900
N  48.18100 36.97800 29.29500
C  47.55000 36.09700 30.11700
C  47.16500 36.81300 31.43200
C  47.60700 38.29100 31.18300
C  48.32200 38.19600 29.83500
C  46.57500 39.45500 31.30100
C  47.81500 36.23100 32.80400
C  46.73900 36.04000 33.99200
H  46.50200 37.18600 35.02600
N  49.86000 38.48700 27.15100
C  49.78100 39.46000 28.09900
C  50.53700 40.63600 27.62400
C  51.12500 40.29700 26.29000
C  50.62100 38.94500 26.06900
C  50.71100 41.84300 28.59500
C  51.97100 41.16300 25.41400
O  52.32600 40.76300 24.29700
C  52.35100 42.59800 25.82900
N  49.48300 36.09600 25.43200
C  50.24800 36.86900 24.68600
C  50.56100 36.22400 23.28500
C  50.19900 34.69800 23.59000
C  49.33300 34.82300 24.81600
C  49.60600 36.86800 22.27000
C  51.40600 33.66700 23.67000
C  51.23200 32.31300 22.94100
N  48.16800 34.59200 27.46200
C  47.93700 33.63900 26.48700
C  46.98800 32.59500 27.00800
C  46.80400 32.98000 28.34100
C  47.46800 34.17800 28.52800
C  46.51200 31.39800 26.27800
C  46.09700 32.59600 29.60500
O  45.39100 31.62200 29.93300
C  46.44600 33.70900 30.58400
C  47.03700 33.01200 31.82000
O  48.16300 32.85000 32.17300
O  45.95000 32.61100 32.59600
C  46.30100 31.80000 33.74200
H  48.92700 40.12800 30.02000
H  51.20200 38.67400 24.08000
H  48.42000 32.97800 24.53800
H  46.08200 36.73100 31.51900
H  48.35800 38.60100 31.90900
H  46.57200 40.01700 30.36700
H  46.76200 40.19000 32.08300
H  45.65400 38.93000 31.55700
H  48.53100 36.99200 33.11500
H  48.35700 35.28900 32.72400
H  46.93900 35.08000 34.46900
H  45.72800 35.95300 33.59300
H  50.75700 41.44600 29.61000
H  49.91900 42.57200 28.43000
H  51.61900 42.44600 28.58200
H  52.98000 42.46600 26.70900
H  51.52800 43.25900 26.10000
H  52.90700 43.16700 25.08500
H  51.56700 36.42600 22.91600
H  49.48100 34.38900 22.83000
H  49.23600 37.75000 22.79300
H  48.86100 36.18300 21.86500
H  50.17700 37.30200 21.44900
H  51.57600 33.50500 24.73400
H  52.26300 34.27600 23.37800
H  51.42000 31.49300 23.63300
H  51.95900 32.37400 22.13200
H  50.24100 32.26900 22.48900
H  45.48700 31.60600 25.97200
H  46.60700 30.52200 26.92000
H  47.10600 31.21800 25.38100
H  45.46700 34.17500 30.69900
H  46.50700 30.77500 33.43500
H  45.43500 31.78400 34.40300
H  47.21200 32.10600 34.25600
Mg 36.74900 49.32400 24.93100
C  36.62500 47.29800 27.75600
C  34.94700 51.68600 26.68000
C  36.19100 50.87900 22.01300
C  38.03600 46.49500 23.12400
N  35.79800 49.39300 26.88700
C  36.13400 48.61000 27.98700
C  35.65600 49.15300 29.38200
C  34.88500 50.40500 28.86600
C  35.19100 50.50400 27.36900
C  33.43700 50.52100 29.29700
C  36.81100 49.33300 30.40400
C  36.39100 48.88500 31.86000
H  34.88700 48.85900 32.24500
N  35.88900 51.20000 24.45600
C  35.16300 52.00000 25.27700
C  34.80300 53.14200 24.52800
C  35.21000 52.94000 23.10500
C  35.84800 51.66800 23.19000
C  34.04100 54.22400 25.12500
C  35.13800 53.85100 21.93800
O  35.40600 53.53500 20.78900
C  34.61600 55.27700 22.04600
N  37.13900 48.85100 22.94300
C  36.70900 49.64100 21.89300
C  37.18900 49.02500 20.52800
C  38.08200 47.80300 20.99500
C  37.73300 47.65600 22.44000
C  35.97800 48.53100 19.65800
C  39.56700 47.88200 20.68500
C  40.34600 48.99400 21.38400
N  37.32100 47.33100 25.34500
C  37.83400 46.30800 24.53000
C  38.00500 45.07700 25.32400
C  37.55400 45.46100 26.61500
C  37.14200 46.81100 26.56700
C  38.36200 43.74000 24.77500
C  37.26300 44.96600 27.90500
O  37.33200 43.83300 28.35600
C  36.68200 46.17900 28.76900
C  35.34600 45.75300 29.19700
O  34.43600 45.62500 28.46500
O  35.33100 45.38400 30.50500
C  34.26400 44.45500 30.93100
H  34.34900 52.37200 27.28400
H  35.96700 51.32600 21.04200
H  38.44700 45.60500 22.64200
H  34.91600 48.42900 29.72500
H  35.40400 51.21200 29.38300
H  32.84100 50.97300 28.50400
H  33.42500 51.17700 30.16800
H  32.93600 49.64800 29.71600
H  37.09200 50.38600 30.42100
H  37.66100 48.75400 30.04200
H  36.90600 49.51400 32.58700
H  36.78900 47.88600 32.03500
H  33.86400 54.24800 26.20000
H  33.10800 54.31500 24.56800
H  34.65400 55.11500 24.98300
H  34.60100 55.86900 21.13000
H  35.33900 55.87800 22.59700
H  33.60700 55.39500 22.43900
H  37.77800 49.77900 20.00800
H  37.73000 46.90500 20.48700
H  36.06200 47.53400 19.22500
H  35.93600 49.28000 18.86700
H  35.12900 48.58900 20.33900
H  39.71900 47.97200 19.60900
H  40.00500 46.96000 21.06600
H  40.00800 49.17000 22.40500
H  40.06700 49.89900 20.84500
H  41.42600 48.86600 21.30700
H  37.91900 43.68200 23.78100
H  37.81800 42.93800 25.27300
H  39.43000 43.53100 24.70100
H  37.39200 46.41600 29.56200
H  33.52000 45.08800 31.41500
H  34.55300 43.92100 31.83500
H  33.90800 43.73500 30.19400

