158

Mg 35.59200 2.57300 30.07400
C  33.14900 3.63200 32.32800
C  37.86400 2.49800 32.70300
C  37.98800 2.11200 27.94000
C  33.40400 3.47800 27.46800
N  35.47200 3.07900 32.27900
C  34.39300 3.47700 32.95200
C  34.65200 3.59200 34.52800
C  36.27300 3.40000 34.64200
C  36.59700 2.89600 33.12600
C  37.22700 4.61400 34.89700
C  33.85000 2.61500 35.34900
C  33.53700 2.88400 36.88700
H  34.36600 4.01600 37.57100
N  37.61500 2.28400 30.35500
C  38.33900 2.21000 31.47000
C  39.71700 1.90200 31.21800
C  39.75400 1.73200 29.77600
C  38.41500 2.03900 29.31900
C  40.76500 1.59400 32.26000
C  40.93500 1.23300 28.92600
O  40.86500 1.09000 27.70600
C  42.31400 0.88900 29.55400
N  35.67900 2.83600 27.94800
C  36.79300 2.45300 27.28800
C  36.59400 2.52900 25.78900
C  35.09600 2.96500 25.60300
C  34.65600 3.05300 27.06700
C  37.66600 3.37600 24.99200
C  34.27100 1.95600 24.73800
C  33.62200 0.73700 25.39200
N  33.62100 3.23400 29.92300
C  32.83300 3.51500 28.77700
C  31.46700 3.76400 29.24200
C  31.50700 3.85500 30.62400
C  32.85800 3.53100 30.98600
C  30.37700 3.95500 28.31300
C  30.74700 4.21000 31.80900
O  29.56100 4.43100 31.95300
C  31.76500 4.02400 32.96600
C  31.78100 5.34600 33.64800
O  32.52300 6.25800 33.31900
O  30.77100 5.40100 34.57400
C  30.78800 6.62400 35.41600
H  38.55800 2.67500 33.52800
H  38.73300 1.82700 27.19300
H  32.60800 3.64600 26.73900
H  34.47600 4.64300 34.75600
H  36.47300 2.59400 35.34800
H  36.60900 5.49700 35.05600
H  37.84400 4.82000 34.02200
H  37.90100 4.36200 35.71600
H  34.29300 1.62700 35.47700
H  32.89200 2.43700 34.86000
H  33.61400 1.96800 37.47300
H  32.51900 3.26500 36.96000
H  41.80500 1.69400 31.95000
H  40.69200 0.61400 32.73200
H  40.69400 2.38200 33.01000
H  42.79100 0.37200 28.72100
H  42.21500 0.18200 30.37800
H  42.90000 1.79900 29.67900
H  36.78500 1.52500 25.40800
H  35.09500 4.02600 25.35300
H  38.35500 3.84800 25.69200
H  37.09300 4.11400 24.43000
H  38.24000 2.77300 24.28900
H  34.99500 1.60900 24.00100
H  33.62800 2.59000 24.12700
H  34.00700 0.71500 26.41200
H  34.00900 -0.13900 24.87200
H  32.53300 0.73300 25.35800
H  29.42400 4.16400 28.79800
H  30.28300 3.10200 27.64200
H  30.44000 4.87400 27.73100
H  31.29400 3.29900 33.63100
H  30.48500 7.51300 34.86300
H  31.71800 6.82300 35.94900
H  29.97100 6.52400 36.13000
Mg -2.85000 34.77100 27.25400
C  -4.72000 33.08700 29.43600
C  -1.67300 36.82100 29.66100
C  -1.23100 36.62200 24.84300
C  -4.42700 32.97200 24.66800
N  -3.31700 34.99000 29.31600
C  -3.88100 34.05900 30.11600
C  -3.69500 34.36100 31.58800
C  -3.00400 35.77500 31.58700
C  -2.67400 35.97400 30.07300
C  -3.95700 36.95000 32.24300
C  -2.96000 33.23300 32.39800
C  -3.54600 32.72000 33.70600
H  -3.67400 33.73900 34.85700
N  -1.50200 36.41400 27.29400
C  -1.20800 37.12900 28.38500
C  -0.20400 38.10900 27.99300
C  0.02900 37.97500 26.59800
C  -0.96900 37.00700 26.16700
C  0.42600 38.96000 28.97900
C  0.92400 38.77800 25.67200
O  0.92600 38.54900 24.44800
C  1.86500 39.86500 26.23900
N  -3.04000 34.93700 25.02400
C  -2.12800 35.66200 24.32400
C  -1.92000 35.24000 22.87000
C  -2.97800 34.10000 22.72000
C  -3.50400 33.95300 24.20900
C  -1.97800 36.46900 21.79700
C  -2.45800 32.71300 22.25200
C  -3.17100 32.09600 21.00700
N  -4.37000 33.38900 27.02900
C  -4.80700 32.68800 25.95600
C  -5.69000 31.56700 26.36500
C  -5.64700 31.67700 27.73200
C  -4.89600 32.79300 28.05600
C  -6.38400 30.58700 25.57500
C  -6.07700 31.07800 28.91500
O  -6.70500 30.03600 29.07000
C  -5.56000 31.96800 30.08800
C  -6.75200 32.59400 30.74300
O  -7.40800 33.56100 30.33200
O  -6.96300 32.02700 31.95700
C  -7.97300 32.67600 32.86900
H  -1.27400 37.47300 30.44100
H  -0.67500 37.12700 24.05000
H  -4.81000 32.15900 24.04700
H  -4.65200 34.37900 32.11100
H  -2.11500 35.68100 32.21000
H  -3.74000 37.93200 31.82100
H  -3.66900 36.93000 33.29400
H  -5.03800 36.85700 32.14000
H  -1.99000 33.64100 32.67900
H  -2.72400 32.39200 31.74600
H  -2.97000 31.82100 33.92100
H  -4.56600 32.37100 33.54200
H  1.47700 38.83100 28.72000
H  0.27200 38.59800 29.99500
H  0.05000 39.98300 28.97800
H  1.32500 40.57500 26.86600
H  2.50900 40.19900 25.42500
H  2.62400 39.41400 26.87700
H  -0.93000 34.78300 22.88600
H  -3.79400 34.40500 22.06400
H  -2.68700 36.19000 21.01700
H  -0.97900 36.54800 21.36700
H  -2.38700 37.32300 22.33700
H  -2.65000 32.02200 23.07300
H  -1.38200 32.67700 22.08300
H  -2.35100 32.00100 20.29500
H  -3.94300 32.67200 20.49700
H  -3.48400 31.05200 21.01800
H  -6.24600 30.83300 24.52200
H  -7.38400 30.54900 26.00700
H  -5.85500 29.63800 25.48000
H  -4.97500 31.40100 30.81100
H  -8.50100 31.93800 33.47300
H  -8.73800 33.32000 32.43500
H  -7.53200 33.29900 33.64700

