158

Mg -2.20300 16.96300 27.12200
C  -2.67500 14.64400 29.74000
C  -2.62400 19.43700 29.28600
C  -1.81800 19.04800 24.50900
C  -2.16400 14.27300 24.82100
N  -2.77000 17.03400 29.34900
C  -2.75300 16.00400 30.26000
C  -2.83900 16.50600 31.78500
C  -2.74300 18.08700 31.49300
C  -2.69900 18.21900 29.93400
C  -3.85700 19.02500 32.18200
C  -1.84000 15.85800 32.66700
C  -1.49100 16.71600 33.90600
H  -1.21200 16.00400 35.25100
N  -2.27700 18.90100 26.96500
C  -2.45100 19.81200 27.93800
C  -2.30300 21.15700 27.43200
C  -2.10800 21.03400 26.03500
C  -2.07500 19.57500 25.80500
C  -2.41400 22.44800 28.35600
C  -1.95200 22.14200 24.99200
O  -2.10100 21.96000 23.77900
C  -1.66100 23.58400 25.35600
N  -2.20200 16.73300 24.93600
C  -1.88300 17.71100 24.09300
C  -1.90300 17.31100 22.60600
C  -2.10200 15.84100 22.78800
C  -2.15200 15.58100 24.30300
C  -3.02200 17.98000 21.77300
C  -1.04400 15.00300 21.96400
C  0.23200 14.46300 22.62400
N  -2.38000 14.93900 27.19200
C  -2.34600 14.01900 26.14300
C  -2.47700 12.76900 26.70400
C  -2.64100 12.94300 28.04000
C  -2.55000 14.27600 28.36800
C  -2.61000 11.48900 25.87200
C  -2.86300 12.31300 29.31200
O  -3.08600 11.15100 29.48200
C  -2.91800 13.34700 30.48600
C  -1.73800 13.07900 31.39600
O  -0.49900 13.11900 31.26200
O  -2.19800 12.75500 32.63800
C  -1.25300 12.43500 33.76900
H  -2.59900 20.24000 30.02600
H  -1.64000 19.82600 23.76400
H  -2.24400 13.50300 24.05100
H  -3.86900 16.23100 32.00900
H  -1.80100 18.47100 31.88600
H  -3.37700 19.89300 32.63300
H  -4.34700 18.50700 33.00700
H  -4.61000 19.23800 31.42300
H  -0.91700 15.58300 32.15500
H  -2.42700 15.04400 33.09300
H  -2.37400 17.33500 34.06500
H  -0.60100 17.31700 33.72100
H  -1.45900 22.97100 28.38900
H  -2.53700 22.19000 29.40800
H  -3.17300 23.15900 28.02700
H  -0.69500 23.41200 25.83000
H  -2.44600 24.00800 25.98300
H  -1.33400 24.25400 24.56100
H  -0.92400 17.52800 22.17800
H  -3.08900 15.48300 22.49800
H  -3.92100 17.38000 21.91200
H  -2.80100 18.04600 20.70700
H  -3.34600 18.96800 22.09900
H  -0.68900 15.64800 21.15900
H  -1.63700 14.17300 21.58000
H  0.32500 14.94700 23.59700
H  1.08700 14.81600 22.04800
H  0.20900 13.37500 22.55700
H  -3.55000 11.52600 25.32100
H  -2.65300 10.75400 26.67500
H  -1.79300 11.47200 25.15000
H  -3.89200 13.23300 30.96200
H  -1.62800 12.98500 34.63300
H  -0.23200 12.81100 33.69900
H  -1.20100 11.36400 33.96300
Mg 49.91200 46.56900 43.59400
C  46.76300 46.90900 42.05900
C  50.26500 43.45600 41.92700
C  53.33300 46.80500 43.93500
C  49.58700 49.91000 44.51500
N  48.64200 45.38200 42.16500
C  47.38500 45.70300 41.71100
C  46.76900 44.53600 40.85400
C  47.97000 43.49500 40.92100
C  49.04000 44.15000 41.76900
C  47.68900 42.00800 41.45600
C  46.30100 44.94200 39.41500
C  44.87400 44.58600 39.07200
H  44.71900 43.38800 38.11300
N  51.53800 45.28600 43.07700
C  51.50500 44.05700 42.44900
C  52.75000 43.39100 42.44500
C  53.68600 44.34300 42.89200
C  52.87700 45.56600 43.37800
C  53.07900 42.08500 41.72400
C  55.14100 44.16400 42.92300
O  55.74000 43.11500 42.63100
C  56.10700 45.28200 43.34300
N  51.23700 48.00400 44.22600
C  52.58300 47.93600 44.26900
C  53.24800 49.21900 44.85300
C  51.99100 50.09200 45.12600
C  50.86800 49.26500 44.59100
C  54.11900 48.89600 46.11600
C  52.11500 51.50500 44.47300
C  51.72500 52.73600 45.38800
N  48.30900 48.05800 43.61600
C  48.37900 49.41200 43.99800
C  47.13500 50.06300 43.73200
C  46.48600 49.12400 42.88800
C  47.27800 47.98000 42.85600
C  46.62300 51.35800 44.12500
C  45.26200 48.94300 42.07400
O  44.29600 49.66700 41.80400
C  45.36000 47.38800 41.66600
C  44.25100 46.61800 42.31500
O  44.36500 45.85800 43.25300
O  43.08000 46.84400 41.62800
C  41.93600 46.09600 42.14600
H  50.28800 42.46900 41.46200
H  54.35700 47.16600 44.05600
H  49.46800 50.89600 44.97000
H  45.93100 44.17800 41.45100
H  48.51500 43.44200 39.97800
H  46.62900 41.79700 41.59800
H  48.02800 41.89900 42.48600
H  48.27100 41.35500 40.80600
H  46.99300 44.55700 38.66600
H  46.44100 46.01600 39.29600
H  44.25000 45.36600 38.63700
H  44.33500 44.44000 40.00800
H  53.62300 42.46600 40.85900
H  52.18900 41.61400 41.30700
H  53.81900 41.41600 42.16200
H  57.09400 44.98500 42.99000
H  56.00700 45.32600 44.42800
H  55.97800 46.21100 42.78800
H  53.94900 49.63900 44.13100
H  51.74600 50.23000 46.17900
H  55.16900 48.93200 45.82400
H  53.93700 47.88200 46.47000
H  53.92500 49.48700 47.01100
H  51.52200 51.50900 43.55900
H  53.14100 51.68400 44.15200
H  51.33800 53.52600 44.74500
H  52.72200 53.02400 45.72100
H  51.07200 52.42200 46.20300
H  46.28000 52.04300 43.35100
H  47.39400 51.90100 44.67200
H  45.65700 51.15600 44.58700
H  45.13600 47.41500 40.60000
H  41.17300 46.01800 41.37200
H  41.54500 46.63100 43.01200
H  42.15800 45.07000 42.44000

