158

Mg 47.67800 35.28000 27.32000
C  46.04300 33.40700 29.71000
C  47.48500 37.98200 29.47100
C  48.97700 36.94100 24.92600
C  47.21600 32.53400 25.00700
N  46.91900 35.56700 29.35100
C  46.50200 34.58100 30.21700
C  46.58000 35.09000 31.63300
C  46.50200 36.64200 31.37800
C  46.97300 36.74700 30.00400
C  45.15200 37.30600 31.67900
C  47.87800 34.60100 32.37100
C  48.36000 35.43400 33.54700
H  47.27800 36.03700 34.49800
N  48.21500 37.23400 27.24900
C  48.05200 38.22500 28.20200
C  48.58600 39.46000 27.65800
C  49.09700 39.19800 26.39200
C  48.79800 37.74500 26.11000
C  48.52000 40.67600 28.55600
C  49.94600 40.07000 25.47700
O  50.42800 39.64000 24.42400
C  50.30900 41.48100 25.86600
N  47.81400 34.87200 25.09100
C  48.63200 35.70500 24.45400
C  48.87900 35.25700 22.96400
C  48.38800 33.76800 23.06200
C  47.78600 33.69100 24.48800
C  48.18000 36.11600 21.87800
C  49.47500 32.66900 22.90800
C  49.64100 32.08700 21.45000
N  46.73400 33.36000 27.26500
C  46.62500 32.38100 26.27800
C  45.90900 31.23400 26.97500
C  45.59200 31.62800 28.25400
C  46.06900 32.98200 28.36800
C  45.64700 29.98000 26.27400
C  45.01100 31.12600 29.51000
O  44.55300 30.05300 29.79700
C  45.14600 32.33200 30.43300
C  45.65800 31.75900 31.61800
O  46.69900 31.23000 31.78400
O  44.78500 32.15200 32.62200
C  45.13800 31.69700 34.04100
H  47.33000 38.82200 30.15100
H  49.45100 37.45800 24.08900
H  47.18500 31.73100 24.26700
H  45.76400 34.67400 32.22300
H  47.17200 37.17200 32.05500
H  45.37000 38.05000 32.44500
H  44.42600 36.56500 32.01300
H  44.71700 37.64200 30.73800
H  48.63900 34.58800 31.59100
H  47.77100 33.57500 32.72200
H  49.12300 36.18600 33.34300
H  48.91000 34.71800 34.15800
H  49.09400 40.60400 29.47900
H  47.53500 41.03700 28.85000
H  48.85600 41.55900 28.01200
H  50.71600 41.45700 26.87700
H  49.31500 41.92800 25.84800
H  50.94500 41.96500 25.12500
H  49.95000 35.31100 22.76900
H  47.54400 33.49900 22.42700
H  47.62600 36.90700 22.38500
H  47.58500 35.61000 21.11800
H  48.99800 36.61500 21.35600
H  49.21500 31.78100 23.48500
H  50.47600 33.01600 23.16300
H  50.62600 32.27700 21.02400
H  48.84600 32.50800 20.83400
H  49.32500 31.04600 21.51200
H  46.39800 29.30100 26.67900
H  45.73200 30.09500 25.19300
H  44.68100 29.52200 26.48500
H  44.13700 32.65200 30.69400
H  45.88000 32.38300 34.44800
H  45.59400 30.70800 34.00100
H  44.25000 31.72600 34.67300
Mg -1.48400 34.83100 26.83300
C  -3.25500 33.15200 29.42000
C  -0.51900 37.08000 29.22100
C  0.59100 36.03700 24.58200
C  -3.34300 33.03400 24.50700
N  -1.98900 35.13300 29.08200
C  -2.56400 34.26800 29.93700
C  -2.57500 34.81700 31.42200
C  -1.83800 36.20500 31.20100
C  -1.47400 36.17500 29.74800
C  -2.56800 37.52200 31.64700
C  -1.94100 33.87200 32.42200
C  -1.60500 34.45300 33.78000
H  -2.24900 33.72600 34.84900
N  -0.21500 36.41400 26.85500
C  0.05200 37.25000 27.92500
C  0.94300 38.26600 27.47900
C  1.41800 37.95800 26.16100
C  0.62100 36.74400 25.85100
C  1.24700 39.45200 28.35100
C  2.45500 38.59700 25.22900
O  2.84100 38.10500 24.17800
C  3.04200 39.94800 25.64200
N  -1.49800 34.69300 24.71300
C  -0.34000 35.10600 24.06600
C  -0.41800 34.54300 22.62000
C  -1.76500 33.73500 22.53800
C  -2.25800 33.81000 24.02700
C  -0.15400 35.58900 21.49100
C  -1.54500 32.27700 22.24200
C  -0.50600 31.43200 23.04800
N  -3.00600 33.39200 26.89800
C  -3.66300 32.77400 25.85700
C  -4.57300 31.77300 26.38100
C  -4.43900 31.86000 27.73700
C  -3.51000 32.92100 28.05500
C  -5.54700 31.04900 25.64400
C  -4.95200 31.32700 29.00900
O  -5.77900 30.40900 29.17800
C  -4.26300 32.25300 30.16400
C  -5.39500 32.93600 30.83300
O  -5.90500 33.94400 30.39300
O  -5.66900 32.35800 32.10600
C  -6.57300 33.19500 32.90500
H  -0.21400 37.77900 30.00400
H  1.29700 36.37500 23.82000
H  -3.97200 32.40300 23.87600
H  -3.64300 34.95200 31.59300
H  -0.89200 36.23500 31.74100
H  -1.88800 38.30900 31.97500
H  -3.18200 37.30300 32.52000
H  -3.20600 37.86200 30.83100
H  -0.98400 33.67900 31.93800
H  -2.58900 32.99900 32.50300
H  -1.78800 35.52800 33.78900
H  -0.55300 34.30500 34.02500
H  0.95500 39.37600 29.39800
H  0.78600 40.29700 27.83800
H  2.31900 39.64800 28.37400
H  2.32100 40.69600 25.97000
H  3.52500 40.30300 24.73200
H  3.72700 39.94000 26.49000
H  0.39000 33.81700 22.52500
H  -2.49100 34.10400 21.81500
H  -0.02600 36.62400 21.80600
H  -0.94500 35.50200 20.74500
H  0.76400 35.39400 20.93700
H  -1.15800 32.25300 21.22300
H  -2.52100 31.79700 22.17000
H  -0.10700 32.02300 23.87300
H  0.39300 31.06400 22.55500
H  -1.03700 30.58000 23.47100
H  -6.48700 31.59600 25.57800
H  -5.85500 30.16000 26.19400
H  -5.18600 30.82400 24.64000
H  -3.79900 31.57700 30.88100
H  -7.33700 33.64600 32.27100
H  -5.90500 33.96700 33.28600
H  -7.02000 32.66900 33.74900

