158

Mg 2.35900 -2.08600 44.84700
C  5.68100 -1.33300 44.06200
C  1.59000 0.69600 42.57000
C  -0.81600 -3.00100 44.72200
C  3.38700 -5.12800 46.17200
N  3.58700 -0.52500 43.36100
C  4.88300 -0.48600 43.28300
C  5.33500 0.64700 42.34100
C  4.00900 1.36600 41.90300
C  2.96300 0.48400 42.67900
C  3.89500 2.87000 42.30300
C  6.36700 0.07600 41.24800
C  7.66000 0.86400 41.05000
H  8.03600 1.23700 39.68000
N  0.65100 -1.19200 44.00000
C  0.55000 -0.05600 43.14800
C  -0.77500 0.20100 42.90800
C  -1.57300 -0.81300 43.48200
C  -0.61700 -1.75300 44.09700
C  -1.21000 1.42300 42.21900
C  -3.12600 -0.93600 43.49500
O  -3.88600 -0.14900 42.89700
C  -3.78600 -2.01200 44.19100
N  1.38400 -3.80800 45.42000
C  0.04100 -3.91800 45.40400
C  -0.39800 -5.35500 45.96900
C  0.97300 -5.93600 46.31000
C  2.01200 -4.93400 45.95700
C  -1.30300 -5.19400 47.21700
C  1.19700 -7.42800 45.83900
C  1.57000 -8.53500 46.84900
N  4.13500 -3.00500 45.18500
C  4.45300 -4.25200 45.91900
C  5.86900 -4.27500 46.15300
C  6.36500 -3.15500 45.48600
C  5.32200 -2.44000 44.90800
C  6.68500 -5.30500 46.94000
C  7.58600 -2.46400 45.25500
O  8.69900 -2.75900 45.58100
C  7.20600 -1.16500 44.33000
C  7.62200 0.00200 44.97300
O  7.45100 0.27100 46.14600
O  8.08600 0.86400 43.99500
C  8.15700 2.34100 44.35400
H  1.39600 1.53200 41.89400
H  -1.79300 -3.48100 44.64000
H  3.69200 -6.08600 46.59800
H  5.77800 1.31500 43.08000
H  3.88300 1.37700 40.82100
H  3.37500 3.42100 41.52000
H  4.92900 3.21500 42.30700
H  3.43400 2.91600 43.28900
H  5.80200 0.03600 40.31700
H  6.60200 -0.95700 41.50400
H  8.38200 0.10800 41.36000
H  7.72500 1.74200 41.69300
H  -0.57300 1.65600 41.36600
H  -1.36800 2.24000 42.92200
H  -2.17500 1.09600 41.83300
H  -3.71700 -2.91000 43.57600
H  -4.82000 -1.67100 44.22600
H  -3.40100 -2.08400 45.20800
H  -0.88500 -5.83400 45.12000
H  1.01600 -5.90800 47.39900
H  -1.26800 -4.18500 47.62600
H  -1.07200 -5.89100 48.02200
H  -2.30100 -5.32700 46.80100
H  1.90300 -7.33200 45.01400
H  0.25200 -7.73300 45.39000
H  0.82000 -9.32600 46.86000
H  1.82800 -8.03300 47.78200
H  2.51200 -8.97500 46.52200
H  7.44700 -4.80400 47.53700
H  7.15900 -6.00800 46.25400
H  6.00200 -5.81300 47.62000
H  7.71900 -1.31600 43.38000
H  7.19100 2.81500 44.17800
H  8.84000 2.81800 43.65100
H  8.62600 2.60200 45.30300
Mg 9.71000 47.97200 25.46200
C  7.58200 48.10000 28.09700
C  12.32100 49.09700 27.46400
C  11.66900 47.73500 22.89600
C  6.88300 47.78500 23.31500
N  9.90600 48.44800 27.54500
C  8.93400 48.40600 28.46500
C  9.54200 48.61000 29.88900
C  10.78900 49.39600 29.51600
C  11.07000 48.90300 28.08700
C  10.68900 50.90000 29.74300
C  9.54800 47.28400 30.72600
C  10.68300 47.08600 31.61000
H  10.41000 46.10600 32.88100
N  11.70300 48.41200 25.21100
C  12.64300 48.78600 26.15000
C  13.93600 48.82700 25.55100
C  13.78200 48.26900 24.24800
C  12.36100 48.14100 24.03100
C  15.15300 49.32900 26.26900
C  14.83700 47.91700 23.23100
O  14.61600 47.29500 22.20800
C  16.26600 48.03700 23.58700
N  9.28400 48.06900 23.31600
C  10.34100 47.75500 22.54500
C  9.89700 47.61600 21.07300
C  8.37700 47.28300 21.31100
C  8.14900 47.76300 22.69300
C  10.25800 48.91500 20.21400
C  7.85200 45.79600 21.11600
C  8.09400 44.74800 22.19900
N  7.63600 47.87200 25.63100
C  6.61500 47.76400 24.69100
C  5.30800 47.65800 25.35300
C  5.66600 47.71300 26.71100
C  7.06200 47.96800 26.80100
C  3.96700 47.39900 24.80900
C  5.18700 47.54800 28.06200
O  4.08500 47.28500 28.53100
C  6.40800 47.88000 28.96600
C  6.56400 46.73000 29.92400
O  6.87500 45.63200 29.62500
O  5.92500 47.09600 31.04400
C  5.34300 46.07700 31.90400
H  13.12200 49.48100 28.10000
H  12.24800 47.51900 21.99600
H  6.04600 47.66100 22.62400
H  8.93500 49.35800 30.39900
H  11.69500 49.14900 30.07000
H  11.27700 51.45200 29.01000
H  11.09200 51.11900 30.73200
H  9.68100 51.25100 29.52300
H  9.49900 46.42000 30.06200
H  8.69400 47.32900 31.40100
H  11.13700 48.05200 31.83100
H  11.53000 46.69800 31.04300
H  16.03300 48.69300 26.17100
H  14.94700 49.62100 27.29800
H  15.55100 50.23000 25.80300
H  16.90100 47.82300 22.72700
H  16.56100 47.35500 24.38400
H  16.43000 49.07600 23.87200
H  10.44800 46.76600 20.67200
H  7.73000 47.88900 20.67800
H  10.46200 49.72900 20.91000
H  9.45600 49.20900 19.53700
H  11.16000 48.71900 19.63300
H  8.34500 45.48200 20.19600
H  6.79400 45.83600 20.85800
H  9.12800 45.00500 22.43000
H  8.02500 43.78400 21.69600
H  7.42700 44.90100 23.04700
H  3.68900 48.05400 23.98300
H  3.24900 47.57800 25.60900
H  3.88900 46.38600 24.41300
H  6.11200 48.72700 29.58500
H  4.44100 46.55300 32.28900
H  6.05600 45.89700 32.71000
H  5.12200 45.04800 31.62000

