158

Mg 7.89200 3.22100 27.83200
C  9.73400 1.76000 30.54400
C  6.01500 4.64600 30.18000
C  6.22900 4.37900 25.33500
C  9.51000 0.97100 25.71200
N  7.87500 3.20000 30.11700
C  8.86000 2.71600 30.93600
C  8.64700 3.09500 32.44100
C  7.25600 3.87900 32.25900
C  6.98000 3.92200 30.74500
C  6.08600 3.12900 32.98900
C  9.79700 3.95100 33.09300
C  9.47200 4.79400 34.33800
H  10.43900 4.58300 35.47400
N  6.27100 4.30200 27.79100
C  5.62200 4.83100 28.86700
C  4.61300 5.68600 28.35300
C  4.75600 5.74700 26.92800
C  5.82100 4.79200 26.60100
C  3.48600 6.32200 29.27000
C  3.98400 6.56100 25.90300
O  3.97200 6.36500 24.67000
C  3.07200 7.64200 26.33700
N  7.64900 2.50000 25.76800
C  7.00800 3.30200 24.94200
C  7.19300 2.88300 23.48200
C  8.32500 1.80500 23.60000
C  8.48900 1.68200 25.13700
C  5.91700 2.44800 22.70800
C  9.69000 2.26400 23.06800
C  10.39600 1.09900 22.41300
N  9.37900 1.70700 27.99900
C  9.98100 0.97800 27.01500
C  10.97700 0.12300 27.65900
C  10.93900 0.43700 28.99700
C  9.97300 1.44700 29.15400
C  11.75800 -0.92100 26.90200
C  11.64800 0.17500 30.22200
O  12.66700 -0.41700 30.41200
C  10.91700 1.05700 31.31700
C  10.44000 0.17800 32.38900
O  9.64200 -0.70200 32.32000
O  11.13100 0.48300 33.59600
C  10.80400 -0.30600 34.77500
H  5.49100 5.28600 30.89400
H  5.68200 4.88700 24.53800
H  10.03700 0.44300 24.91400
H  8.57900 2.10500 32.89100
H  7.29900 4.90700 32.62000
H  6.59400 2.42600 33.64900
H  5.49300 2.58500 32.25300
H  5.51000 3.82900 33.59400
H  10.11900 4.62300 32.29700
H  10.60400 3.26000 33.33700
H  8.50100 4.46700 34.71100
H  9.27500 5.80900 33.99300
H  3.62900 5.93700 30.28000
H  2.49000 6.07900 28.89900
H  3.64100 7.39600 29.17000
H  2.91600 8.31800 25.49600
H  3.54600 8.25000 27.10700
H  2.13200 7.24200 26.71800
H  7.60100 3.80500 23.06600
H  7.99200 0.87000 23.15100
H  4.98000 2.49200 23.26400
H  5.85100 1.38900 22.46100
H  5.87800 2.89700 21.71500
H  10.24600 2.67100 23.91400
H  9.50300 3.09700 22.39100
H  10.69900 1.47000 21.43400
H  9.75000 0.23300 22.27000
H  11.25800 0.80800 23.01300
H  12.62500 -1.20300 27.49800
H  12.23300 -0.48400 26.02400
H  11.12800 -1.79800 26.75200
H  11.59700 1.82600 31.68300
H  10.39200 0.39300 35.50200
H  11.70500 -0.70100 35.24600
H  10.10900 -1.12000 34.57200
Mg 43.18200 41.97600 26.07700
C  42.32800 44.32900 28.42300
C  44.62700 40.01700 28.64600
C  44.29700 39.75800 23.77800
C  42.41100 44.20400 23.51400
N  43.43800 42.23900 28.30900
C  42.92000 43.20000 29.08300
C  43.20000 42.98100 30.61500
C  44.15600 41.71600 30.57300
C  44.05700 41.27900 29.09000
C  45.60600 42.10700 30.90900
C  41.96800 42.73100 31.54700
C  41.83700 43.57900 32.82100
H  40.75300 43.29800 33.86400
N  44.04600 40.11000 26.22700
C  44.57200 39.46900 27.37300
C  45.17900 38.21900 26.94800
C  45.00600 38.07500 25.52600
C  44.42200 39.35700 25.09900
C  45.72500 37.23400 27.97900
C  45.35700 36.90800 24.63800
O  44.97300 36.89100 23.46800
C  46.06000 35.72300 25.18800
N  43.35900 42.00000 23.92200
C  43.83300 40.96100 23.20700
C  43.67400 41.19800 21.69400
C  42.77900 42.55300 21.59000
C  42.93800 42.97500 23.08100
C  45.01200 41.30900 20.86700
C  41.17400 42.48500 21.20700
C  40.29300 41.55300 21.99500
N  42.66400 43.89200 25.93900
C  42.39100 44.69900 24.82900
C  41.85000 45.94700 25.30800
C  41.79500 45.82700 26.68600
C  42.32000 44.54500 27.04100
C  41.28800 47.06700 24.43700
C  41.40900 46.48600 27.88100
O  41.00900 47.64800 28.01700
C  41.81700 45.59300 29.06200
C  42.81300 46.42000 29.84800
O  44.03400 46.45200 29.63900
O  42.24500 47.05000 30.87000
C  43.07300 47.74500 31.90200
H  45.21300 39.61500 29.47500
H  44.61300 39.07900 22.98300
H  42.19600 44.94100 22.73700
H  43.81900 43.82200 30.92700
H  43.86100 40.90300 31.23700
H  45.54200 42.43300 31.94700
H  46.02600 42.86000 30.24100
H  46.20000 41.19500 30.84500
H  41.89300 41.67800 31.81900
H  41.24700 43.04000 30.79100
H  41.71400 44.62200 32.53000
H  42.79900 43.56900 33.33200
H  45.44000 37.52000 28.99200
H  46.78900 36.99800 27.97400
H  45.11600 36.33200 27.92400
H  46.49900 35.20200 24.33600
H  45.30400 35.10100 25.66700
H  46.80800 35.92000 25.95600
H  43.14000 40.34900 21.26700
H  43.28100 43.24000 20.91000
H  45.81900 40.94300 21.50100
H  45.20700 42.33800 20.56600
H  45.07800 40.75100 19.93300
H  41.10800 42.10100 20.18900
H  40.70900 43.46500 21.10000
H  39.52900 42.18000 22.45400
H  40.85900 41.00600 22.74900
H  39.77200 40.88300 21.31100
H  40.20900 47.10000 24.58900
H  41.48200 46.96500 23.36900
H  41.79000 47.97600 24.76800
H  40.95800 45.40100 29.70400
H  43.59400 47.09400 32.60500
H  42.36100 48.32000 32.49300
H  43.89000 48.35400 31.51500

