158

Mg 53.25700 23.51700 43.55400
C  50.64200 25.56600 42.94400
C  51.53000 20.95300 42.19400
C  56.15100 21.75900 43.50600
C  55.12000 26.33500 44.36500
N  51.34700 23.40100 42.39100
C  50.36900 24.34700 42.48900
C  49.13100 23.85500 41.68600
C  49.32200 22.24100 41.74600
C  50.85400 22.18300 42.07100
C  48.39600 21.40900 42.69500
C  48.93300 24.47800 40.21200
C  50.17300 24.70000 39.39900
H  50.12500 25.38600 37.97200
N  53.80300 21.53900 43.10900
C  52.87100 20.61800 42.64800
C  53.44800 19.36500 42.80500
C  54.80700 19.47700 43.30700
C  55.04100 20.92500 43.31400
C  52.73200 18.11700 42.33500
C  55.72500 18.39800 43.65600
O  55.25600 17.24000 43.52700
C  57.15100 18.69000 44.23500
N  55.35300 24.05200 43.57100
C  56.36600 23.13300 43.67700
C  57.70100 23.77600 44.09700
C  57.41800 25.28700 44.04400
C  55.85000 25.22500 43.93400
C  58.14400 23.31400 45.53200
C  57.98600 26.09400 42.88100
C  59.13000 27.19300 43.20100
N  52.93100 25.55400 43.82300
C  53.72400 26.56600 44.27800
C  52.91800 27.74800 44.50700
C  51.65200 27.37200 44.07000
C  51.74900 26.06000 43.57700
C  53.36800 29.02100 45.21500
C  50.28300 27.81300 43.84900
O  49.71600 28.86600 44.08800
C  49.58400 26.67200 43.16200
C  49.22000 27.38300 41.94100
O  50.02500 27.83500 41.12500
O  47.90700 27.59200 41.96400
C  47.26700 28.37900 40.89900
H  50.86000 20.14600 41.89100
H  57.08600 21.19900 43.56900
H  55.77400 27.17800 44.60000
H  48.30400 24.21300 42.29900
H  49.17300 21.81200 40.75500
H  48.00000 22.04300 43.48800
H  48.88300 20.68300 43.34600
H  47.56200 21.00700 42.12100
H  48.25500 25.32400 40.10300
H  48.48200 23.68900 39.61000
H  50.75400 23.79000 39.25000
H  50.84900 25.32200 39.98600
H  52.83100 18.13100 41.24900
H  51.71200 18.22200 42.70300
H  53.21300 17.18900 42.64600
H  57.50800 17.76700 44.69200
H  57.06500 19.43500 45.02600
H  57.76200 19.10600 43.43500
H  58.52100 23.43200 43.46600
H  57.79400 25.67800 44.98900
H  59.11600 22.84200 45.38800
H  57.53100 22.63600 46.12500
H  58.29900 24.10200 46.26900
H  57.23500 26.51600 42.21300
H  58.69300 25.47600 42.32700
H  58.86900 27.82500 44.05000
H  59.12000 27.73400 42.25500
H  60.04600 26.64800 43.43200
H  53.44800 29.82300 44.48200
H  54.28500 28.85500 45.78100
H  52.57100 29.31000 45.89900
H  48.74700 26.31300 43.76200
H  46.18100 28.34700 40.99200
H  47.50100 28.02700 39.89400
H  47.55600 29.42200 41.03000
Mg 16.17300 52.37500 27.13000
C  18.15700 50.99700 29.73100
C  13.77500 53.09800 29.44700
C  14.53000 53.58100 24.73600
C  18.56400 51.03000 24.80100
N  15.96400 51.95900 29.31900
C  16.93400 51.53000 30.20800
C  16.38600 51.33000 31.60700
C  14.97500 52.00900 31.49100
C  14.83600 52.34400 29.98800
C  13.73800 51.17000 31.98300
C  17.34100 51.81900 32.75400
C  17.16400 53.13500 33.61200
H  16.29700 53.04500 34.90100
N  14.33400 53.32400 27.15100
C  13.44800 53.57900 28.19300
C  12.31600 54.25800 27.69000
C  12.57700 54.52200 26.27700
C  13.85000 53.84800 25.98500
C  11.18500 54.57000 28.61000
C  11.80900 55.36800 25.29000
O  12.24900 55.68900 24.17500
C  10.38400 55.66200 25.53400
N  16.49600 52.26900 24.98800
C  15.66000 52.99600 24.18800
C  16.03500 52.92000 22.64800
C  17.47900 52.39000 22.82100
C  17.49600 51.77500 24.20800
C  15.03100 51.97000 21.87800
C  18.68200 53.32500 22.54500
C  19.91200 52.70000 21.79800
N  17.98200 51.02500 27.19500
C  18.87100 50.61200 26.16100
C  20.02400 49.92700 26.70200
C  19.76900 50.03400 28.07500
C  18.52300 50.75500 28.34600
C  21.24500 49.41800 26.04400
C  20.30800 49.67300 29.36000
O  21.26100 48.98600 29.62800
C  19.33600 50.31000 30.43600
C  18.82600 49.18000 31.33500
O  18.10100 48.25000 30.99600
O  19.42500 49.25500 32.58100
C  18.91500 48.34100 33.62400
H  13.02700 53.38700 30.18800
H  13.78700 53.89400 23.99900
H  19.30000 50.88100 24.00800
H  16.31400 50.25900 31.79500
H  14.90800 52.94200 32.05100
H  12.78200 51.68800 31.90200
H  13.97300 50.74700 32.96000
H  13.67200 50.31200 31.31400
H  18.27800 52.02800 32.23800
H  17.49000 51.00800 33.46700
H  16.80200 53.91700 32.94500
H  18.15200 53.45400 33.94600
H  10.54000 55.36200 28.22900
H  11.65700 54.88800 29.53900
H  10.60000 53.66600 28.77700
H  9.82900 54.78000 25.85400
H  10.01200 55.93500 24.54700
H  10.22800 56.44100 26.28100
H  16.00800 53.93800 22.25900
H  17.62200 51.52900 22.16800
H  14.40100 51.41400 22.57300
H  15.54100 51.33400 21.15500
H  14.43300 52.68700 21.31500
H  19.10300 53.64200 23.49900
H  18.40300 54.23100 22.00500
H  19.68000 51.72400 21.37300
H  20.79100 52.48200 22.40400
H  20.26800 53.37800 21.02300
H  21.49300 50.16300 25.28900
H  21.05200 48.49600 25.49600
H  22.00300 49.33800 26.82400
H  19.88600 50.99200 31.08400
H  18.59600 48.85000 34.53400
H  19.65900 47.59200 33.89500
H  18.07300 47.69300 33.37800

