158

Mg 25.47800 0.73400 29.92300
C  27.60400 0.66200 32.83900
C  22.88300 0.49400 32.12300
C  23.48100 0.58400 27.25700
C  28.24800 0.47000 27.95800
N  25.36700 0.65500 32.21100
C  26.28500 0.72300 33.18900
C  25.70300 0.81700 34.59700
C  24.19600 0.66500 34.29800
C  24.13100 0.61600 32.79100
C  23.60600 -0.65900 34.77800
C  26.18500 2.10200 35.32100
C  25.37800 2.41800 36.60100
H  26.09900 2.66800 37.91200
N  23.40900 0.60700 29.71700
C  22.48300 0.50500 30.75700
C  21.13500 0.38500 30.18100
C  21.34900 0.46000 28.77900
C  22.79400 0.59300 28.54100
C  19.88800 0.31500 31.02400
C  20.25300 0.52300 27.65800
O  20.53600 0.58600 26.46300
C  18.82400 0.59100 28.01400
N  25.84300 0.66300 27.87700
C  24.87400 0.75500 26.97700
C  25.36700 0.77900 25.58200
C  26.90000 0.92000 25.80100
C  27.01200 0.65700 27.30500
C  24.91400 -0.31800 24.57300
C  27.65200 2.12400 25.31000
C  28.76300 1.85900 24.31300
N  27.49300 0.55900 30.26300
C  28.47600 0.37000 29.31900
C  29.73500 0.19600 29.95400
C  29.45600 0.28900 31.33300
C  28.04400 0.58300 31.51200
C  30.99500 -0.09000 29.26600
C  30.00800 0.24700 32.71700
O  31.11600 -0.11300 33.09900
C  28.94700 0.71200 33.67600
C  29.01100 -0.09500 34.89500
O  28.53700 -1.17700 35.01700
O  29.83800 0.54500 35.78700
C  29.80900 -0.06300 37.13300
H  22.07700 0.57300 32.85600
H  22.90400 0.59200 26.33000
H  29.04200 0.55000 27.21200
H  26.11400 0.00500 35.19600
H  23.67200 1.53600 34.69100
H  24.22400 -1.10800 35.55600
H  23.36400 -1.39800 34.01500
H  22.64300 -0.49000 35.26000
H  26.06100 3.01900 34.74400
H  27.25300 1.96600 35.49100
H  24.82000 1.50200 36.79700
H  24.75200 3.29200 36.41600
H  19.35400 1.26300 30.96800
H  20.19100 0.09400 32.04800
H  19.22300 -0.47700 30.67900
H  18.14200 0.81400 27.19400
H  18.70100 1.48300 28.62800
H  18.43600 -0.29900 28.51000
H  25.02600 1.72100 25.15200
H  27.43200 0.10200 25.31500
H  24.38400 -1.03600 25.19900
H  25.74300 -0.87700 24.13900
H  24.24100 0.10300 23.82600
H  28.05300 2.79400 26.07000
H  26.95500 2.75800 24.76200
H  28.31600 1.83400 23.31900
H  29.28100 0.90300 24.39900
H  29.37100 2.75300 24.44900
H  31.61200 0.54200 29.90400
H  31.08800 0.29300 28.25000
H  31.23000 -1.14800 29.38600
H  29.10200 1.77600 33.85700
H  30.44400 -0.93100 36.95600
H  28.82200 -0.23500 37.56200
H  30.44700 0.48700 37.82500
Mg 29.91800 58.17600 41.21600
C  26.97200 56.63900 39.89700
C  31.73000 55.45600 39.80300
C  32.62500 59.91400 41.69500
C  27.94400 61.01800 42.01300
N  29.42600 56.20600 40.04000
C  28.13600 55.90300 39.63200
C  28.16700 54.55400 38.78700
C  29.62200 54.01100 39.17300
C  30.35500 55.33900 39.70400
C  29.55800 52.87200 40.26500
C  28.04500 54.85000 37.28100
C  27.35200 53.82100 36.36800
H  27.92500 53.57200 34.95300
N  31.88300 57.66200 40.98400
C  32.43500 56.56300 40.33300
C  33.89100 56.77900 40.31700
C  34.17600 58.03800 40.84300
C  32.85800 58.56300 41.23500
C  34.89100 55.66100 39.98400
C  35.61700 58.54200 41.14600
O  36.61300 57.88400 40.94700
C  35.87300 59.92700 41.75100
N  30.13400 60.23100 41.71200
C  31.41300 60.63500 41.90700
C  31.56800 62.11800 42.22800
C  30.02900 62.46300 42.32600
C  29.30400 61.14900 42.10100
C  32.45800 62.46300 43.47700
C  29.57700 63.64700 41.43400
C  29.10000 64.90300 42.22000
N  27.83400 58.73500 41.06900
C  27.25600 59.85200 41.57400
C  25.79600 59.70700 41.39300
C  25.66800 58.53700 40.63700
C  26.95400 57.91600 40.56100
C  24.76500 60.70800 41.92500
C  24.67700 57.59500 40.16000
O  23.46100 57.72600 40.20200
C  25.50000 56.37100 39.48500
C  24.95300 55.12000 40.13800
O  25.32500 54.70400 41.24900
O  24.09100 54.37700 39.33400
C  23.50600 53.21300 40.00700
H  32.34000 54.57600 39.59000
H  33.53800 60.50100 41.81800
H  27.45600 61.95900 42.27300
H  27.32000 53.92700 39.06500
H  30.15700 53.64600 38.29600
H  28.52700 52.85000 40.61500
H  30.25500 53.12900 41.06300
H  29.83600 51.88100 39.90500
H  29.07700 55.05800 36.99900
H  27.53300 55.81200 37.24900
H  26.36800 54.18000 36.06700
H  27.13500 52.89300 36.89800
H  35.75100 55.92100 39.36700
H  34.41600 54.86700 39.40700
H  35.18100 55.27200 40.95900
H  36.95300 60.05900 41.68900
H  35.45000 59.95200 42.75500
H  35.42400 60.62400 41.04300
H  32.00500 62.56700 41.33600
H  29.84500 62.54500 43.39700
H  32.57500 61.59500 44.12600
H  31.88400 63.22700 44.00300
H  33.38700 62.84200 43.05200
H  28.85300 63.27600 40.70900
H  30.31900 64.16200 40.82400
H  29.37000 65.87500 41.80600
H  29.39700 64.83200 43.26600
H  28.01100 64.86500 42.24300
H  24.74400 61.57200 41.26200
H  25.14500 61.04200 42.89100
H  23.80400 60.25800 42.17500
H  25.44500 56.31500 38.39800
H  24.26300 52.56300 40.44600
H  22.88000 52.59100 39.36700
H  22.95700 53.63600 40.84800

