158

Mg 0.75800 -1.69400 43.78100
C  4.24800 -1.51200 42.90300
C  0.32700 1.29200 42.12500
C  -2.32900 -2.34500 43.88200
C  1.58600 -4.96300 45.07600
N  2.16800 -0.22600 42.74400
C  3.46800 -0.44900 42.41100
C  3.99400 0.70700 41.46200
C  2.83600 1.75600 41.55600
C  1.72100 0.90400 42.16100
C  3.14700 3.07300 42.33600
C  4.18200 0.13200 40.01800
C  5.36300 0.73500 39.27900
H  5.24600 1.41000 37.89000
N  -0.81300 -0.71900 43.03400
C  -0.80400 0.48700 42.45000
C  -2.20000 0.94800 42.26200
C  -2.97900 -0.16000 42.60100
C  -2.02400 -1.13700 43.18200
C  -2.63400 2.33500 41.80800
C  -4.48200 -0.19200 42.48200
O  -5.14200 0.85900 42.34800
C  -5.32300 -1.46100 42.55200
N  -0.24600 -3.36300 44.56000
C  -1.60500 -3.35600 44.49100
C  -2.22200 -4.61200 45.05900
C  -0.96300 -5.47400 45.40000
C  0.20800 -4.60500 44.89600
C  -3.36200 -4.62500 46.13100
C  -0.95200 -6.91900 44.75300
C  -0.03200 -7.94400 45.38700
N  2.52200 -2.93000 44.24200
C  2.70400 -4.17700 44.78500
C  4.09800 -4.47000 44.86300
C  4.77900 -3.53800 44.11300
C  3.75100 -2.60500 43.71000
C  4.75700 -5.77200 45.36500
C  6.08900 -3.13600 43.62800
O  7.24700 -3.60600 43.57100
C  5.71300 -1.87200 42.73300
C  6.62400 -0.65400 42.94600
O  6.63800 0.13500 43.83500
O  7.55200 -0.57400 41.91200
C  8.45000 0.60800 41.98500
H  0.11800 2.25200 41.65000
H  -3.39300 -2.50400 44.07400
H  1.86000 -5.96400 45.41600
H  4.86700 1.15600 41.93500
H  2.62300 2.03800 40.52500
H  3.26300 3.86000 41.59200
H  4.08500 2.87000 42.85300
H  2.35000 3.23500 43.06200
H  3.25000 0.29800 39.47800
H  4.19000 -0.95800 40.01000
H  6.18400 0.01900 39.26700
H  5.64200 1.60100 39.88000
H  -3.68600 2.57300 41.96400
H  -2.45300 2.60100 40.76700
H  -2.05600 3.02300 42.42500
H  -6.18900 -1.28800 41.91200
H  -5.77300 -1.55100 43.54100
H  -4.77500 -2.33700 42.20300
H  -2.56500 -5.02400 44.10900
H  -0.87100 -5.69700 46.46300
H  -4.30800 -4.86000 45.64300
H  -3.43400 -3.64000 46.59300
H  -3.26400 -5.25700 47.01400
H  -0.47000 -6.85700 43.77700
H  -1.93700 -7.38300 44.71000
H  -0.62300 -8.84100 45.57500
H  0.24400 -7.65600 46.40100
H  0.88400 -8.11200 44.82100
H  4.53600 -6.48800 44.57300
H  4.28600 -6.02000 46.31700
H  5.81900 -5.78100 45.61000
H  5.72200 -2.13500 41.67500
H  8.41000 0.95800 40.95400
H  9.48200 0.31700 42.18100
H  8.18500 1.47000 42.59800
Mg -12.07200 38.89800 42.54200
C  -10.61400 35.85700 41.57800
C  -9.51500 40.49000 40.75700
C  -13.58500 41.80000 43.04700
C  -14.68200 37.09400 44.02600
N  -10.30100 38.22800 41.21300
C  -9.89900 36.92100 41.05900
C  -8.52200 36.86400 40.28200
C  -8.29400 38.42400 40.02400
C  -9.38100 39.11300 40.83300
C  -6.82400 38.84200 40.19800
C  -8.52900 36.07300 38.96500
C  -7.56500 34.82400 38.95200
H  -6.55200 34.86700 37.84300
N  -11.54600 40.90400 42.06600
C  -10.49100 41.34300 41.34900
C  -10.49600 42.77300 41.36300
C  -11.76200 43.20800 41.92200
C  -12.38400 41.95000 42.33000
C  -9.37500 43.63400 40.81100
C  -12.27400 44.63000 42.02400
O  -11.72500 45.51300 41.38100
C  -13.63500 45.08300 42.67100
N  -13.99900 39.36900 43.22200
C  -14.33900 40.70100 43.44500
C  -15.70900 40.77600 44.22400
C  -16.07000 39.27500 44.41300
C  -14.81900 38.51200 43.91900
C  -15.69900 41.61300 45.47900
C  -17.40400 38.73400 43.77000
C  -18.41800 38.03500 44.66200
N  -12.56200 36.88600 42.80900
C  -13.66300 36.29000 43.44900
C  -13.53300 34.81200 43.45600
C  -12.32700 34.67500 42.68900
C  -11.83400 35.89500 42.34000
C  -14.53600 33.77700 43.98600
C  -11.41000 33.61000 42.19000
O  -11.38100 32.41300 42.35200
C  -10.27000 34.38100 41.43800
C  -9.05500 34.01300 42.11900
O  -8.61500 34.59400 43.10000
O  -8.52900 32.95400 41.44000
C  -7.21600 32.56400 41.98300
H  -8.64500 40.99500 40.33300
H  -14.20600 42.67500 43.24800
H  -15.46300 36.49900 44.50500
H  -7.76800 36.45100 40.95200
H  -8.45500 38.77300 39.00400
H  -6.37300 39.08900 39.23700
H  -6.26800 37.95300 40.49600
H  -6.74600 39.72900 40.82700
H  -8.27400 36.70400 38.11300
H  -9.55000 35.74500 38.77300
H  -8.17700 33.95300 38.71700
H  -7.02900 34.73500 39.89700
H  -8.35700 43.36800 41.09500
H  -9.50800 44.54100 41.40100
H  -9.46100 43.87900 39.75200
H  -13.68300 44.59300 43.64400
H  -14.53000 44.71700 42.16700
H  -13.77200 46.16300 42.71400
H  -16.40800 41.16900 43.48600
H  -16.03600 39.02700 45.47400
H  -16.71000 41.99300 45.62700
H  -15.09800 42.49500 45.25900
H  -15.35600 41.10800 46.38200
H  -17.31400 37.97700 42.99000
H  -17.95800 39.58900 43.38300
H  -18.82100 37.15100 44.16900
H  -19.33300 38.60800 44.81200
H  -18.07000 37.70700 45.64100
H  -15.49100 33.76600 43.46200
H  -14.65000 33.83400 45.06900
H  -14.11100 32.80400 43.73800
H  -10.22800 33.98600 40.42300
H  -6.59500 33.39200 42.32500
H  -6.54800 32.02500 41.31100
H  -7.36300 31.88400 42.82300

