158

Mg 35.45800 2.80100 29.64500
C  33.16500 3.63600 32.10500
C  38.03700 2.92200 32.12200
C  37.97800 2.07800 27.38100
C  33.13900 3.20400 27.23700
N  35.54900 3.08500 31.87800
C  34.46200 3.40200 32.64700
C  34.85400 3.39100 34.11400
C  36.40200 3.57400 34.05800
C  36.68300 3.15400 32.61400
C  36.87300 4.91900 34.57800
C  34.27500 2.11400 34.77600
C  33.81300 2.30200 36.22100
H  34.45900 3.38900 37.08800
N  37.56500 2.37600 29.76100
C  38.38800 2.52700 30.84300
C  39.73900 2.11000 30.60100
C  39.85600 1.98800 29.17600
C  38.41500 2.17500 28.69400
C  40.80600 2.09000 31.70700
C  41.05000 1.78900 28.30300
O  40.97700 1.51100 27.13400
C  42.51300 1.86800 28.90400
N  35.56100 2.56900 27.60200
C  36.69900 2.23000 26.83700
C  36.44700 2.39700 25.36800
C  34.86500 2.56400 25.38800
C  34.43100 2.82800 26.84100
C  37.25600 3.56300 24.68700
C  34.02800 1.42100 24.75900
C  33.87400 1.43900 23.21300
N  33.49600 3.21900 29.59000
C  32.59200 3.37000 28.59400
C  31.20100 3.57300 29.06600
C  31.37900 3.71500 30.44100
C  32.76800 3.48800 30.73200
C  29.95300 3.83000 28.22500
C  30.70300 3.93600 31.76000
O  29.52600 4.05800 31.98800
C  31.84900 3.93100 32.91300
C  31.84700 5.17600 33.69400
O  32.53200 6.15500 33.49900
O  31.01400 4.93800 34.74700
C  31.08600 5.88400 35.87200
H  38.82300 3.29800 32.78100
H  38.79400 2.16100 26.66000
H  32.45000 3.32600 26.39800
H  34.36700 4.21200 34.64100
H  36.87800 2.86900 34.74000
H  37.43900 5.56400 33.90700
H  37.38100 4.80600 35.53500
H  36.00600 5.51900 34.85500
H  35.11800 1.42400 34.80600
H  33.44100 1.84000 34.13000
H  33.91000 1.33600 36.71600
H  32.74500 2.46700 36.08000
H  40.40300 1.67100 32.62900
H  41.23300 3.07800 31.87900
H  41.58100 1.36300 31.46600
H  43.27800 2.39100 28.33200
H  42.84000 0.83600 29.03200
H  42.41000 2.38100 29.86100
H  36.85100 1.46600 24.97200
H  34.70500 3.46300 24.79300
H  37.45100 4.30800 25.45800
H  36.69700 4.04600 23.88600
H  38.16500 3.05200 24.37000
H  33.03100 1.37200 25.19700
H  34.53200 0.48300 24.99200
H  34.68900 2.06700 22.85200
H  32.94700 1.82300 22.78700
H  34.08700 0.45700 22.79100
H  29.22900 3.09900 28.58600
H  30.09100 3.67300 27.15600
H  29.55300 4.83100 28.38700
H  31.73900 3.15800 33.67300
H  30.25600 5.71100 36.55700
H  31.19200 6.93600 35.60800
H  31.97200 5.55600 36.41700
Mg 40.58100 9.38800 29.20100
C  42.39400 10.73100 31.92900
C  38.42900 7.92200 31.43000
C  39.06300 8.14900 26.57800
C  43.11100 10.51900 27.08000
N  40.58100 9.23400 31.42500
C  41.25500 10.05800 32.33700
C  40.68600 9.92200 33.78200
C  39.50500 8.91200 33.60600
C  39.48100 8.59800 32.05900
C  39.72100 7.62200 34.40100
C  40.41200 11.26200 34.41500
C  39.54200 11.23200 35.68000
H  40.40500 11.31300 36.92400
N  38.93500 8.16200 29.00700
C  38.19100 7.75000 30.04100
C  37.03600 7.03600 29.53100
C  37.10800 7.19500 28.12100
C  38.34800 7.90000 27.79600
C  36.00400 6.25100 30.43000
C  36.14900 6.84000 27.08300
O  36.38100 7.10200 25.89800
C  34.86500 6.24300 27.47700
N  41.09900 9.29500 27.20500
C  40.29500 8.72100 26.26400
C  40.82100 8.86800 24.75600
C  42.04900 9.61400 25.01500
C  42.10500 9.84300 26.52700
C  41.01900 7.51300 24.01400
C  42.03100 10.99600 24.28500
C  41.00400 12.11400 24.55600
N  42.39700 10.45600 29.37400
C  43.23300 10.85300 28.44700
C  44.39300 11.55700 29.06200
C  44.05400 11.63000 30.41600
C  42.81500 10.86700 30.53800
C  45.60400 12.14000 28.41700
C  44.47700 12.08500 31.71000
O  45.44700 12.75500 32.09600
C  43.40100 11.59200 32.71300
C  44.09500 10.94100 33.84000
O  44.31300 9.75300 33.87100
O  44.20100 11.75700 34.95300
C  44.84300 11.19400 36.20600
H  37.59100 7.50400 31.99300
H  38.57800 7.77200 25.67500
H  43.79800 10.90900 26.32600
H  41.44000 9.46700 34.42300
H  38.53600 9.37100 33.80300
H  39.85700 6.74700 33.76600
H  38.82900 7.60600 35.02700
H  40.51100 7.71000 35.14800
H  40.23900 12.02700 33.65800
H  41.42200 11.63300 34.59000
H  38.95900 10.31200 35.67700
H  38.81500 12.04400 35.65800
H  34.99800 6.66400 30.34700
H  36.24900 6.05000 31.47300
H  35.85900 5.31000 29.90000
H  34.01200 6.08500 26.81700
H  34.40500 6.89900 28.21600
H  35.02500 5.30300 28.00500
H  40.02300 9.47600 24.33000
H  42.92800 9.00800 24.79600
H  41.08300 6.63100 24.65100
H  41.88500 7.44800 23.35400
H  40.10900 7.30900 23.45000
H  41.96000 10.79200 23.21700
H  43.02600 11.42700 24.40400
H  40.62900 12.33000 23.55500
H  41.38100 13.03400 25.00300
H  40.21400 11.81600 25.24500
H  45.89000 11.66800 27.47700
H  46.36600 12.29200 29.18100
H  45.38800 13.18600 28.19900
H  42.83000 12.44800 33.07200
H  45.38200 10.27400 35.98200
H  43.97200 11.08500 36.85400
H  45.59100 11.85200 36.64800

