158

Mg -1.98300 17.14900 27.32100
C  -2.58700 14.98900 29.94100
C  -2.54200 19.80600 29.37900
C  -1.98700 19.19900 24.56400
C  -1.94600 14.37300 25.07500
N  -2.53300 17.25800 29.42300
C  -2.67700 16.27800 30.32900
C  -2.99100 16.84400 31.73700
C  -3.11800 18.40200 31.41900
C  -2.69700 18.56000 29.94400
C  -4.45200 19.07600 31.79900
C  -2.11100 16.41400 32.96900
C  -2.71800 15.77900 34.27000
H  -1.90100 15.78100 35.51400
N  -2.00600 19.16900 27.00000
C  -2.23500 20.09300 27.99300
C  -2.16900 21.44800 27.45000
C  -1.89800 21.34300 26.04400
C  -1.97700 19.84700 25.81000
C  -2.36900 22.70700 28.26800
C  -1.66100 22.39800 25.02100
O  -1.55800 22.25600 23.82700
C  -1.36800 23.83200 25.57000
N  -2.17800 16.85500 25.11500
C  -2.05000 17.83100 24.20500
C  -1.73800 17.41500 22.80100
C  -1.53700 15.89100 23.01100
C  -1.97300 15.67000 24.48600
C  -2.82500 17.83200 21.73800
C  -0.05800 15.48300 22.68300
C  0.93100 15.11600 23.75100
N  -2.26900 15.16900 27.40100
C  -2.15700 14.15900 26.43900
C  -2.26900 12.87000 27.09100
C  -2.45700 13.16900 28.43700
C  -2.52400 14.60000 28.57600
C  -2.13400 11.53900 26.48200
C  -2.62100 12.51900 29.68800
O  -2.61200 11.32700 29.99300
C  -2.68000 13.66400 30.69600
C  -1.64700 13.35700 31.65900
O  -0.40600 13.53100 31.45400
O  -2.14900 12.73200 32.75100
C  -1.11900 12.16600 33.63500
H  -2.65100 20.66900 30.04000
H  -1.96600 19.89900 23.72700
H  -1.68000 13.55700 24.39900
H  -3.96500 16.38700 31.91200
H  -2.36300 18.94000 31.99200
H  -4.32500 19.79300 32.61000
H  -5.18800 18.29100 31.97100
H  -4.85300 19.55400 30.90500
H  -1.71000 17.31100 33.44100
H  -1.15800 15.98100 32.66700
H  -2.92600 14.75300 33.96800
H  -3.71000 16.17600 34.48600
H  -2.69700 22.48700 29.28400
H  -3.15500 23.22800 27.72100
H  -1.49100 23.34600 28.35600
H  -0.93400 24.43200 24.77000
H  -0.59900 23.63600 26.31700
H  -2.28000 24.27300 25.97200
H  -0.86500 17.98800 22.48700
H  -2.16000 15.26100 22.37600
H  -3.20100 16.95700 21.20900
H  -2.25900 18.46600 21.05600
H  -3.51300 18.52400 22.22600
H  0.41700 16.26000 22.08300
H  -0.18000 14.64700 21.99400
H  0.46700 14.71300 24.65100
H  1.70600 15.84700 23.98300
H  1.39600 14.27700 23.23200
H  -1.11100 11.16700 26.44400
H  -2.58500 11.53800 25.49000
H  -2.76100 10.91300 27.11600
H  -3.63300 13.47500 31.19100
H  -0.79500 12.97700 34.28800
H  -0.29000 11.76300 33.05400
H  -1.63800 11.45300 34.27500
Mg 16.01900 -2.58700 28.32900
C  14.92900 -0.31000 30.80300
C  17.96900 -4.11000 30.69400
C  17.62500 -4.34600 25.88500
C  14.69700 -0.33000 26.05200
N  16.41100 -2.24000 30.49900
C  15.79600 -1.29100 31.30900
C  16.24900 -1.41000 32.76200
C  17.29500 -2.60100 32.76400
C  17.26700 -3.02300 31.21200
C  18.69900 -2.21500 33.20300
C  15.09400 -1.64500 33.83900
C  15.13900 -0.76600 35.17500
H  16.49000 -0.05300 35.57600
N  17.44300 -4.16600 28.26700
C  18.09700 -4.68500 29.35300
C  18.95200 -5.77700 28.95000
C  18.79200 -5.85700 27.58200
C  17.92800 -4.78000 27.15200
C  19.71500 -6.68900 29.94000
C  19.35900 -6.89200 26.63100
O  19.16500 -6.88700 25.40500
C  20.37900 -7.97700 27.11500
N  16.22200 -2.36100 26.29900
C  16.80400 -3.24200 25.48100
C  16.72800 -2.76200 24.01800
C  15.76200 -1.53700 24.08900
C  15.56700 -1.33900 25.60600
C  18.03200 -2.45000 23.27700
C  14.39600 -1.86000 23.34500
C  13.80100 -0.79200 22.39800
N  14.70200 -0.91400 28.37600
C  14.35600 -0.04400 27.31200
C  13.61900 1.09300 27.80500
C  13.70900 0.94400 29.22500
C  14.47500 -0.21700 29.45700
C  13.02100 2.05700 26.96900
C  13.39600 1.65800 30.50600
O  12.71500 2.67100 30.69700
C  14.22900 0.88100 31.63300
C  15.03400 1.86700 32.30900
O  16.20000 2.13000 32.06200
O  14.29000 2.54900 33.16800
C  14.96100 3.69800 33.83800
H  18.63200 -4.56400 31.43400
H  18.00700 -4.89400 25.02100
H  14.36000 0.36100 25.27600
H  16.70400 -0.45500 33.02400
H  16.89400 -3.39600 33.39200
H  19.40400 -2.45900 32.40900
H  18.94100 -2.97100 33.95000
H  18.73900 -1.16100 33.48000
H  15.13800 -2.68100 34.17700
H  14.11500 -1.55500 33.36700
H  14.85200 -1.33400 36.06000
H  14.35500 -0.01400 35.07800
H  19.41500 -7.71500 29.72800
H  19.40500 -6.55400 30.97600
H  20.79900 -6.58200 29.93800
H  21.17900 -7.46100 27.64600
H  20.76000 -8.56500 26.28100
H  19.96100 -8.66200 27.85300
H  16.32800 -3.57000 23.40600
H  16.09100 -0.58400 23.67400
H  17.89600 -2.66400 22.21700
H  18.89400 -3.06800 23.53000
H  18.43300 -1.43700 23.33000
H  13.64100 -2.19800 24.05600
H  14.62100 -2.66400 22.64500
H  12.75200 -0.76500 22.69400
H  14.04800 -1.13500 21.39400
H  14.34400 0.15200 22.40800
H  12.23600 2.58600 27.50900
H  12.61100 1.59800 26.06900
H  13.75600 2.76300 26.58100
H  13.47400 0.58000 32.36000
H  14.96400 4.62700 33.26800
H  15.96800 3.40500 34.13600
H  14.41100 4.03600 34.71600

