158

Mg 42.09600 40.76200 25.77300
C  41.19400 43.13700 28.22400
C  43.03000 38.62200 28.21600
C  43.21400 38.75500 23.36800
C  41.29000 43.14200 23.31300
N  42.11700 40.90900 27.98800
C  41.56600 41.90700 28.83100
C  41.64300 41.50100 30.35600
C  42.41400 40.08600 30.26900
C  42.53100 39.86100 28.72600
C  43.78500 39.98000 30.97900
C  40.20900 41.47200 31.01400
C  40.16700 40.78500 32.32900
H  39.74300 41.60700 33.53100
N  42.90000 38.86300 25.80800
C  43.14500 38.12400 26.93200
C  43.67000 36.82000 26.53600
C  43.77900 36.84800 25.16700
C  43.35600 38.23500 24.71300
C  44.08600 35.72500 27.57100
C  44.19700 35.72400 24.14500
O  44.27600 35.91000 22.92400
C  44.50200 34.27400 24.60400
N  42.33900 41.03700 23.59800
C  42.69000 39.92700 22.82100
C  42.45700 40.20500 21.38700
C  41.60200 41.45300 21.46500
C  41.59300 41.87100 22.91100
C  43.74200 40.21000 20.54400
C  40.13600 41.39800 20.94600
C  39.00400 40.63000 21.70300
N  41.56800 42.75300 25.75200
C  41.28200 43.55500 24.65900
C  41.06100 44.92200 25.13000
C  40.94700 44.75200 26.52700
C  41.21100 43.37800 26.87200
C  40.66000 46.15600 24.31800
C  40.71000 45.56200 27.74600
O  40.55500 46.73500 27.93400
C  40.73800 44.48000 28.87900
C  41.71200 44.90200 29.85800
O  42.87700 45.07100 29.60100
O  41.01600 45.30500 31.02800
C  41.93800 45.81100 32.06300
H  43.24000 37.89200 29.00000
H  43.46700 38.19300 22.46700
H  40.86700 43.80700 22.55700
H  42.30200 42.27400 30.75100
H  41.78600 39.32300 30.72800
H  44.60100 39.52200 30.42000
H  43.62700 39.42300 31.90200
H  44.09500 40.94900 31.37000
H  39.49400 41.08600 30.28800
H  39.90000 42.49600 31.22600
H  41.13900 40.33000 32.52300
H  39.41600 39.99500 32.35000
H  43.49800 34.82900 27.37600
H  43.94300 36.01500 28.61200
H  45.15900 35.54900 27.49500
H  43.64000 33.93400 25.17900
H  45.35800 34.14600 25.26600
H  44.76000 33.75100 23.68400
H  41.88400 39.35200 21.02300
H  42.03500 42.23900 20.84700
H  43.81400 41.16700 20.02700
H  43.60000 39.49600 19.73200
H  44.63700 39.90300 21.08500
H  40.20900 40.97000 19.94600
H  39.82500 42.41900 20.72500
H  38.46200 39.93600 21.06000
H  38.36900 41.27900 22.30700
H  39.52400 40.02300 22.44400
H  39.65000 46.00200 23.93900
H  41.44500 46.36300 23.59000
H  40.68100 46.93700 25.07800
H  39.72500 44.36200 29.26600
H  42.42300 45.15800 32.78900
H  41.16800 46.32700 32.63600
H  42.59300 46.59800 31.69000
Mg 7.30000 53.73300 41.63100
C  6.88700 50.26400 41.36900
C  10.67600 53.28800 40.86600
C  7.42900 57.03200 41.27900
C  3.91400 53.90200 42.47500
N  8.61500 51.95700 41.02900
C  8.24600 50.61300 41.06000
C  9.38900 49.71400 40.72100
C  10.60200 50.66600 41.03000
C  9.99900 52.09000 40.99700
C  11.37800 50.40200 42.32900
C  9.48300 49.15300 39.25700
C  9.20200 50.07100 38.02100
H  8.03600 49.83100 37.06500
N  8.84400 54.99700 41.05300
C  10.11300 54.60500 40.72400
C  10.85700 55.82000 40.47000
C  9.99900 56.93400 40.44800
C  8.70000 56.37700 40.87700
C  12.30600 55.80400 40.00400
C  10.39900 58.37500 40.14300
O  11.56600 58.66400 39.98900
C  9.39000 59.51200 40.15400
N  5.91800 55.19700 41.78000
C  6.27300 56.53400 41.69500
C  5.05300 57.44300 42.18500
C  4.13400 56.39300 42.79000
C  4.66300 55.04300 42.31700
C  5.32500 58.77100 43.10500
C  2.69600 56.67900 42.54000
C  1.68800 56.34600 43.69400
N  5.74100 52.39900 42.00800
C  4.37700 52.59400 42.34400
C  3.72000 51.29900 42.57000
C  4.70900 50.33800 42.20700
C  5.88500 51.04900 41.87000
C  2.24000 51.17500 42.98700
C  4.94100 48.93100 42.26900
O  4.17100 48.03100 42.63400
C  6.37000 48.81400 41.47500
C  5.98400 48.18500 40.14300
O  5.77200 48.69700 39.02200
O  5.96500 46.86200 40.27500
C  5.58100 46.14500 39.03500
H  11.76100 53.17100 40.86600
H  7.48800 58.11800 41.17300
H  2.93700 53.81700 42.95500
H  9.32000 48.94400 41.49000
H  11.30300 50.62600 40.19600
H  11.34300 51.25000 43.01300
H  12.38600 50.01600 42.17600
H  10.88500 49.50900 42.71200
H  8.71800 48.39500 39.08900
H  10.44100 48.63900 39.16800
H  10.13000 49.97500 37.45700
H  9.25600 51.10200 38.37200
H  12.78400 54.83800 39.84100
H  12.87200 56.13000 40.87700
H  12.53100 56.49700 39.19300
H  8.70200 59.44800 39.31200
H  9.93300 60.43500 39.95000
H  8.81600 59.60900 41.07500
H  4.64700 57.88600 41.27600
H  4.24700 56.41700 43.87400
H  6.39400 58.98000 43.14800
H  4.95300 58.52900 44.10100
H  4.65100 59.57000 42.79400
H  2.40400 56.16500 41.62500
H  2.57300 57.70100 42.18200
H  1.44100 57.29900 44.16200
H  2.12200 55.76700 44.50900
H  0.86100 55.83200 43.20400
H  1.67000 51.55900 42.14100
H  2.13500 51.89000 43.80300
H  1.82600 50.22600 43.32900
H  6.89100 48.20200 42.21100
H  6.37100 45.42200 38.83200
H  5.25600 46.74200 38.18400
H  4.72100 45.50300 39.22500

