158

Mg 46.64400 16.21600 28.39700
C  44.54300 16.17800 31.27300
C  48.83500 18.21900 30.32100
C  47.99800 17.24200 25.66500
C  44.17900 14.58500 26.65300
N  46.65700 17.13600 30.55700
C  45.70300 16.89200 31.51300
C  46.21600 17.40300 32.91800
C  47.56900 18.11500 32.59700
C  47.71400 17.82700 31.05600
C  47.62700 19.66800 32.92800
C  46.48700 16.19100 33.89300
C  46.26900 16.51400 35.43600
H  46.13200 17.98200 35.91900
N  48.31500 17.46300 28.00400
C  49.02100 18.19400 28.95900
C  49.99500 18.94700 28.25100
C  49.73600 18.82100 26.83100
C  48.70100 17.80000 26.73900
C  51.08800 19.69100 29.02100
C  50.39300 19.41800 25.58800
O  50.16200 19.03800 24.42900
C  51.32000 20.57000 25.78700
N  46.16200 15.84600 26.40400
C  46.89500 16.34500 25.43500
C  46.44600 15.93500 24.05800
C  45.49300 14.72200 24.37400
C  45.29800 14.95100 25.87000
C  45.80200 17.13400 23.33800
C  45.96600 13.25400 24.01400
C  45.20900 12.58700 22.87400
N  44.80000 15.44700 28.89100
C  43.90200 14.81500 28.07900
C  42.73200 14.42100 28.75400
C  42.93700 14.92800 30.02900
C  44.26300 15.50100 30.07900
C  41.52000 13.79800 28.21300
C  42.29000 15.06500 31.33700
O  41.21500 14.73900 31.77000
C  43.39700 15.91900 32.18700
C  42.91800 17.22900 32.75200
O  42.78500 18.26600 32.16200
O  42.55900 16.95200 34.02200
C  41.91300 18.10300 34.67900
H  49.60000 18.72200 30.91600
H  48.40500 17.70800 24.76500
H  43.51900 13.89800 26.11900
H  45.52000 18.15000 33.30000
H  48.52000 17.71400 32.95000
H  48.52500 19.90200 33.49900
H  46.80400 19.95800 33.58100
H  47.59000 20.20400 31.98000
H  47.51200 15.82700 33.82400
H  45.92800 15.30000 33.60600
H  47.12900 16.08400 35.94900
H  45.41100 15.99000 35.85800
H  51.85200 19.00800 29.39300
H  50.70900 20.24100 29.88300
H  51.59600 20.39500 28.36200
H  50.97600 21.38000 26.43100
H  51.41700 20.92200 24.76000
H  52.28700 20.14900 26.06200
H  47.32400 15.62300 23.49400
H  44.54200 14.88300 23.86500
H  46.60600 17.74900 22.93200
H  45.23400 17.63100 24.12400
H  45.03400 16.83000 22.62700
H  45.87800 12.53300 24.82700
H  46.98100 13.36700 23.63500
H  44.37100 13.23900 22.62700
H  44.80000 11.59600 23.07000
H  45.91000 12.43500 22.05300
H  41.35700 13.95100 27.14600
H  40.70300 14.42300 28.57400
H  41.47700 12.71100 28.27100
H  43.79800 15.30200 32.99100
H  41.86900 17.85300 35.73900
H  40.88200 18.17700 34.33600
H  42.65900 18.88200 34.52000
Mg 16.71500 51.41900 26.23700
C  18.68500 50.50800 28.95900
C  14.02700 52.04000 28.40800
C  14.77200 52.04000 23.56300
C  19.33900 50.29400 24.09000
N  16.34900 51.22200 28.41200
C  17.36600 50.97200 29.32200
C  16.91900 51.18900 30.72600
C  15.42100 51.52200 30.59900
C  15.23500 51.61800 29.04800
C  14.50200 50.38700 31.16600
C  17.74000 52.28900 31.45800
C  18.45600 51.94100 32.75900
H  17.82300 52.63700 33.95200
N  14.70100 51.98800 26.05300
C  13.78800 52.26100 27.03700
C  12.67500 53.00300 26.43500
C  12.88100 53.05200 25.05700
C  14.18000 52.33600 24.79000
C  11.49000 53.46100 27.26500
C  12.00200 53.64900 24.02600
O  12.27300 53.55800 22.79700
C  10.74500 54.41000 24.36100
N  17.02600 51.35400 24.14300
C  16.08100 51.59800 23.25000
C  16.52900 51.57900 21.73900
C  18.01600 51.06800 21.90000
C  18.13600 50.83900 23.46200
C  15.66100 50.65300 20.82600
C  19.04600 52.01600 21.44800
C  19.80500 51.75100 20.16400
N  18.75700 50.52200 26.40000
C  19.64200 50.14500 25.47800
C  20.75400 49.50200 26.20100
C  20.44700 49.72300 27.60700
C  19.20700 50.28800 27.67900
C  21.97100 48.82600 25.62700
C  20.93000 49.50000 28.96300
O  21.98100 48.95800 29.31800
C  19.84400 50.05400 29.91400
C  19.47800 48.91400 30.78400
O  18.60500 48.10500 30.52700
O  20.20300 48.98600 31.97300
C  20.05500 48.02700 33.05700
H  13.22400 52.39000 29.06200
H  14.04300 52.19600 22.76500
H  20.16600 49.92100 23.48200
H  17.05900 50.26700 31.29200
H  15.08800 52.45600 31.05200
H  14.90600 49.40500 30.91800
H  13.45600 50.43600 30.86400
H  14.44300 50.44900 32.25200
H  17.07300 53.13100 31.64600
H  18.51200 52.65100 30.78000
H  19.51600 52.19400 32.71000
H  18.46900 50.87000 32.96100
H  10.56400 53.17700 26.76500
H  11.62700 54.53800 27.36300
H  11.35300 52.98300 28.23400
H  10.41600 54.86300 23.42500
H  10.99200 55.18400 25.08700
H  10.15300 53.61800 24.81900
H  16.47200 52.57100 21.29000
H  18.22200 50.05400 21.55900
H  15.28400 51.23500 19.98600
H  14.87200 50.19000 21.41800
H  16.34000 49.84800 20.54400
H  19.74200 52.04400 22.28600
H  18.71600 53.05400 21.45500
H  19.80800 52.69300 19.61600
H  19.33800 50.87100 19.72200
H  20.78300 51.34700 20.42700
H  22.83900 49.25600 26.12700
H  22.16700 49.00800 24.57000
H  21.89900 47.73900 25.65200
H  20.32600 50.84600 30.48800
H  19.14700 48.29300 33.59700
H  20.93700 48.13900 33.68800
H  19.88500 47.08900 32.52800

