158

Mg 35.30600 -0.24100 29.44100
C  33.29900 1.12000 32.02400
C  37.88400 -0.28500 31.70400
C  37.32700 -1.32700 27.03700
C  32.79400 0.43300 27.13100
N  35.53100 0.38800 31.59300
C  34.56900 0.87200 32.42600
C  35.09900 1.09700 33.75600
C  36.62900 1.10300 33.50000
C  36.74100 0.32600 32.17300
C  37.44200 2.41600 33.60400
C  34.56100 -0.06300 34.69500
C  34.17500 0.48100 36.09000
H  35.09200 1.60600 36.70000
N  37.30100 -0.76400 29.42100
C  38.23500 -0.74700 30.41800
C  39.48900 -1.38400 29.99200
C  39.34700 -1.69400 28.61400
C  37.92700 -1.27200 28.27300
C  40.55400 -1.55800 30.98000
C  40.30600 -2.42200 27.73100
O  40.03500 -2.74200 26.56300
C  41.70500 -2.81400 28.25500
N  35.07800 -0.39500 27.39300
C  36.07400 -0.90300 26.59600
C  35.75400 -0.74600 25.11100
C  34.20900 -0.47300 25.16900
C  34.01100 -0.07000 26.62200
C  36.46100 0.34800 24.41200
C  33.38900 -1.68700 24.68900
C  32.86300 -2.82500 25.57700
N  33.39200 0.61900 29.52400
C  32.50200 0.72800 28.49500
C  31.24200 1.13800 29.06700
C  31.53100 1.28700 30.48500
C  32.83100 0.95000 30.69300
C  29.95300 1.47500 28.28300
C  30.90200 1.79900 31.70100
O  29.75400 2.21500 31.90200
C  32.01800 1.58400 32.79600
C  32.19700 2.82500 33.58600
O  32.57400 3.89900 33.14800
O  31.62100 2.66900 34.77200
C  31.56700 3.79700 35.69600
H  38.69400 -0.12300 32.41900
H  38.05000 -1.51800 26.24100
H  31.99300 0.62200 26.41300
H  34.89000 2.08200 34.17100
H  37.05400 0.49300 34.29800
H  37.87700 2.46800 32.60600
H  38.05500 2.36200 34.50400
H  36.81600 3.30700 33.66100
H  35.37400 -0.77900 34.81200
H  33.67400 -0.47100 34.21100
H  34.09200 -0.41300 36.70700
H  33.18900 0.94500 36.11400
H  40.11400 -1.66800 31.97200
H  41.19000 -0.68000 31.08600
H  41.20700 -2.42600 30.89400
H  42.28400 -2.03400 28.75000
H  42.36800 -3.04400 27.42100
H  41.53500 -3.72800 28.82600
H  36.12300 -1.62300 24.58100
H  33.88300 0.35600 24.54000
H  35.94000 1.29100 24.24500
H  36.89200 -0.07900 23.50700
H  37.33800 0.72100 24.94200
H  34.00300 -2.21000 23.95600
H  32.58200 -1.30200 24.06600
H  31.83400 -3.02500 25.27700
H  32.97100 -2.73300 26.65800
H  33.41100 -3.76100 25.46800
H  29.72900 0.62200 27.64200
H  30.18000 2.42700 27.80300
H  29.14100 1.66500 28.98500
H  31.76300 0.72400 33.41500
H  32.48800 3.80500 36.28000
H  30.71000 3.75700 36.36800
H  31.65300 4.77300 35.21900
Mg -0.17900 43.89700 26.47900
C  2.31700 43.42700 28.84200
C  -2.33700 42.72800 28.80700
C  -2.58800 43.85500 24.08800
C  2.25500 44.20200 24.07300
N  0.02900 42.97900 28.54300
C  1.01700 43.27100 29.36600
C  0.67100 43.03800 30.84800
C  -0.70900 42.42000 30.72400
C  -1.07100 42.73100 29.25600
C  -0.80700 40.85500 31.00700
C  0.69400 44.34900 31.60000
C  1.09300 44.19200 33.13700
H  0.72200 42.91600 33.75300
N  -2.12400 43.42700 26.49800
C  -2.86100 43.07200 27.56400
C  -4.28900 42.99800 27.15400
C  -4.45200 43.24800 25.78600
C  -3.01400 43.47200 25.39700
C  -5.33200 42.83200 28.25500
C  -5.70100 43.31100 24.92600
O  -5.62800 43.45000 23.70800
C  -7.15800 43.14800 25.52800
N  -0.11700 43.73600 24.29400
C  -1.27600 44.04000 23.63100
C  -0.93000 44.58400 22.24700
C  0.61700 44.83500 22.35300
C  0.93700 44.16700 23.66100
C  -1.29500 43.80400 21.00600
C  1.18400 46.29500 22.39300
C  0.47000 47.39700 21.56100
N  1.86200 44.00200 26.41700
C  2.70100 44.12300 25.35500
C  4.09900 44.08900 25.83200
C  3.96300 43.90900 27.22800
C  2.64600 43.74300 27.49000
C  5.34400 44.17900 24.94800
C  4.64700 43.75500 28.44300
O  5.83900 43.81500 28.71500
C  3.58900 43.61100 29.56400
C  3.97000 42.36600 30.34600
O  3.81500 41.21100 29.90200
O  4.38800 42.54000 31.61500
C  4.57500 41.37900 32.49100
H  -3.05900 42.50000 29.59400
H  -3.35700 43.95600 23.31900
H  3.03000 44.32300 23.31400
H  1.46100 42.39000 31.22800
H  -1.43100 42.86300 31.41000
H  -1.66700 40.72300 31.66400
H  0.13300 40.52500 31.44900
H  -1.01300 40.29800 30.09400
H  -0.25900 44.87800 31.59800
H  1.54600 44.96200 31.30400
H  0.61100 45.03100 33.63800
H  2.17400 44.28400 33.23800
H  -6.18600 43.47500 28.04200
H  -5.02200 43.19000 29.23700
H  -5.64300 41.79100 28.34600
H  -7.50900 44.15500 25.75500
H  -7.20800 42.44700 26.36100
H  -7.73100 42.76200 24.68500
H  -1.51300 45.50200 22.17800
H  1.25600 44.34800 21.61600
H  -1.99700 43.00900 21.26000
H  -0.37900 43.45900 20.52700
H  -1.67500 44.48200 20.24200
H  2.20800 46.45200 22.05600
H  1.12000 46.64100 23.42500
H  1.24000 47.86800 20.95000
H  0.24500 48.17200 22.29300
H  -0.35000 47.07800 20.91700
H  5.79500 43.18800 24.99500
H  6.12900 44.74600 25.45000
H  5.06500 44.49700 23.94300
H  3.54500 44.44700 30.26100
H  4.17200 41.47300 33.50000
H  5.63100 41.12900 32.58500
H  4.13300 40.43300 32.17700

