158

Mg 0.81800 8.88200 26.71900
C  1.26700 10.91500 29.41600
C  0.55200 6.13500 28.98800
C  0.74700 6.75100 24.06000
C  1.09600 11.58100 24.59400
N  0.85400 8.58600 28.97800
C  1.08200 9.58900 29.84200
C  1.11400 9.08200 31.30700
C  1.13700 7.50700 31.14100
C  0.78100 7.37800 29.64200
C  2.45400 6.78000 31.43600
C  -0.01100 9.63800 32.23500
C  -0.28400 8.88500 33.61800
H  0.86800 8.42500 34.46100
N  0.61000 6.80600 26.54900
C  0.47700 5.90200 27.57500
C  0.22100 4.57800 26.98800
C  0.47100 4.61300 25.57400
C  0.57400 6.10800 25.35500
C  -0.00100 3.33500 27.82100
C  0.45900 3.45100 24.57500
O  0.54600 3.74300 23.42100
C  0.22400 1.99300 25.01300
N  0.79600 9.16300 24.63800
C  0.82300 8.14500 23.76800
C  0.92600 8.77700 22.33700
C  0.53400 10.18200 22.56400
C  0.83300 10.31200 23.98900
C  2.37300 8.56100 21.74400
C  -0.97900 10.44900 22.26700
C  -1.36800 11.35700 21.10100
N  1.23400 10.84800 26.89900
C  1.27500 11.85400 26.01300
C  1.69200 13.09600 26.67100
C  1.54400 12.76100 27.99300
C  1.34900 11.39300 28.06000
C  1.84200 14.43000 25.96300
C  1.73100 13.33000 29.30400
O  1.93700 14.46100 29.59600
C  1.45900 12.12100 30.24300
C  2.53400 11.96700 31.22400
O  3.67900 11.67500 30.94300
O  2.04500 12.25200 32.46300
C  2.93800 12.06500 33.63300
H  0.59200 5.25200 29.63000
H  0.60900 6.20500 23.12500
H  1.06300 12.41500 23.89100
H  2.10400 9.39000 31.64500
H  0.35500 7.00700 31.71100
H  3.30700 7.37400 31.76300
H  2.88100 6.53600 30.46400
H  2.27000 5.96900 32.14100
H  -0.89800 9.41900 31.64000
H  0.22000 10.66400 32.52100
H  -1.08300 8.15000 33.51500
H  -0.84500 9.67300 34.12100
H  -0.95700 2.91600 27.50500
H  -0.23900 3.57400 28.85800
H  0.85500 2.66000 27.83900
H  0.54600 1.24400 24.29000
H  -0.81300 1.88600 25.33200
H  0.93700 1.75000 25.80100
H  0.28500 8.26400 21.62000
H  1.27200 10.74900 21.99800
H  2.23500 8.06500 20.78300
H  3.00400 7.92600 22.36600
H  2.92600 9.48600 21.58100
H  -1.30200 11.09500 23.08300
H  -1.61200 9.56200 22.29100
H  -0.57900 11.46500 20.35700
H  -1.74700 12.31000 21.47200
H  -2.21000 10.81800 20.66600
H  2.40900 14.35500 25.03500
H  2.19800 15.10600 26.74000
H  0.84600 14.77400 25.68500
H  0.56000 12.36500 30.80900
H  3.57400 12.94000 33.76600
H  3.47100 11.11400 33.60800
H  2.31200 12.16100 34.52000
Mg 47.39900 25.32500 28.48200
C  48.08200 27.38800 31.22000
C  47.04400 22.75000 30.70300
C  46.99900 23.26900 25.86600
C  48.13900 27.82500 26.30700
N  47.74000 25.06600 30.73600
C  47.73200 26.12400 31.62100
C  47.43400 25.61600 33.00700
C  47.18800 24.06200 32.87000
C  47.39600 23.89100 31.37200
C  48.17500 23.23600 33.76600
C  46.25900 26.40300 33.75600
C  45.86400 26.00700 35.17200
H  45.96300 27.08300 36.24000
N  46.96400 23.34300 28.30900
C  46.87300 22.42100 29.31700
C  46.54500 21.05900 28.83900
C  46.42300 21.23200 27.37500
C  46.71800 22.69900 27.15400
C  46.51700 19.75600 29.67000
C  46.06300 20.21400 26.34000
O  46.13600 20.41900 25.15200
C  45.62500 18.84500 26.85300
N  47.58000 25.53400 26.35900
C  47.47600 24.51300 25.51900
C  47.59500 24.96300 24.05900
C  47.72500 26.52300 24.25600
C  47.80800 26.64000 25.73700
C  48.72000 24.36600 23.24800
C  46.52700 27.26900 23.59400
C  46.98100 28.59800 22.90800
N  48.10300 27.19600 28.68200
C  48.39000 28.08900 27.65200
C  48.84100 29.37000 28.30600
C  48.70200 29.12700 29.71400
C  48.24400 27.78500 29.82800
C  49.52200 30.48800 27.62300
C  48.88700 29.74500 31.04400
O  49.37000 30.79700 31.42100
C  48.25800 28.69800 32.02600
C  49.23900 28.44000 33.12600
O  50.36800 28.04700 32.92700
O  48.75000 28.81200 34.38700
C  49.55000 28.36400 35.54300
H  46.83200 21.98200 31.45000
H  46.76900 22.58100 25.05000
H  48.39100 28.58200 25.56100
H  48.31000 25.77300 33.63700
H  46.14300 23.87800 33.12300
H  47.69100 22.31900 34.10400
H  48.43400 23.69200 34.72200
H  49.07200 23.01800 33.18800
H  45.37400 26.40800 33.12000
H  46.56500 27.44900 33.74200
H  46.50300 25.16200 35.42800
H  44.88200 25.57300 34.98300
H  45.54300 19.45000 30.05100
H  47.17500 19.82200 30.53700
H  46.93300 18.96300 29.04800
H  45.08300 18.36700 26.03700
H  44.93300 18.89300 27.69400
H  46.50900 18.23200 27.03300
H  46.63200 24.61700 23.68300
H  48.63700 26.84900 23.75700
H  49.45900 25.16300 23.15800
H  48.40200 23.94400 22.29500
H  49.15800 23.57800 23.86100
H  45.80300 27.36800 24.40300
H  46.05400 26.74700 22.76200
H  48.04700 28.82400 22.90000
H  46.47300 29.48900 23.27600
H  46.75400 28.56100 21.84300
H  50.39200 30.81300 28.19400
H  48.89300 31.34100 27.87700
H  49.65900 30.20000 26.58100
H  47.38600 29.11600 32.53000
H  50.40900 29.01100 35.71800
H  49.98000 27.37400 35.38800
H  48.93700 28.37100 36.44400

