158

Mg 44.61000 2.69700 47.22800
C  42.29500 5.25500 46.82300
C  41.93800 0.51300 47.00800
C  46.81100 0.07900 47.23900
C  47.10300 4.96000 46.34400
N  42.34100 2.86000 46.85800
C  41.66800 4.02400 46.76500
C  40.25500 3.89400 46.51900
C  40.05400 2.36900 46.85700
C  41.51000 1.83700 46.93100
C  39.15500 2.05900 48.13300
C  39.85800 4.31200 45.06500
C  38.56700 5.20600 44.88000
H  37.96900 5.22200 43.49000
N  44.42600 0.58700 47.20200
C  43.22300 -0.07100 47.09300
C  43.50800 -1.52600 47.24300
C  44.90500 -1.73400 47.23100
C  45.47000 -0.37300 47.31900
C  42.42500 -2.48800 47.11100
C  45.63600 -3.02300 47.22000
O  45.06600 -4.13100 47.22800
C  47.03000 -2.97100 47.52300
N  46.55300 2.50900 46.83800
C  47.27300 1.34000 46.94500
C  48.84700 1.63200 46.88900
C  48.84200 3.10400 46.28900
C  47.39200 3.57400 46.44200
C  49.50000 1.37300 48.27000
C  49.47700 3.32200 44.93000
C  50.84300 3.97300 44.86300
N  44.79400 4.71900 46.90600
C  45.86100 5.45900 46.53800
C  45.43600 6.77000 46.40400
C  44.02500 6.82400 46.55400
C  43.71900 5.49400 46.87000
C  46.25300 7.96500 45.93900
C  42.80200 7.63300 46.52900
O  42.59500 8.81100 46.22300
C  41.64900 6.65000 46.87300
C  41.06400 6.86300 48.15100
O  41.51200 6.50100 49.20500
O  39.77600 7.25800 48.00300
C  38.99700 7.55700 49.22200
H  41.05500 -0.12800 46.99500
H  47.66800 -0.59100 47.33700
H  47.85400 5.69900 46.05700
H  39.76800 4.53100 47.25600
H  39.52000 1.90400 46.02800
H  38.57400 2.89400 48.52500
H  39.82400 1.79200 48.95100
H  38.60700 1.15000 47.88700
H  39.79200 3.39500 44.47900
H  40.66300 4.91800 44.65000
H  38.74700 6.20800 45.27100
H  37.83700 4.87500 45.61900
H  41.86000 -2.41700 46.18100
H  41.71000 -2.20800 47.88500
H  42.80200 -3.50700 47.19200
H  47.27400 -2.34900 48.38400
H  47.46300 -2.56200 46.61000
H  47.32400 -3.99800 47.73600
H  49.27000 0.79800 46.33000
H  49.28700 3.81200 46.98800
H  50.14900 0.50100 48.35000
H  48.69100 1.20900 48.98200
H  50.07800 2.24700 48.56900
H  48.79100 3.83900 44.26000
H  49.52200 2.32100 44.49900
H  51.68500 3.44600 44.41300
H  51.11700 4.18300 45.89700
H  50.92300 4.94400 44.37500
H  45.70400 8.89300 46.09900
H  46.50600 7.81800 44.88800
H  47.19400 7.98800 46.48900
H  40.94100 6.74100 46.04900
H  39.21100 8.59600 49.47300
H  39.28200 6.88300 50.03000
H  37.92900 7.48000 49.02200
Mg 0.17700 43.47400 25.51700
C  2.37400 43.05500 28.22600
C  -2.51400 42.91100 27.70300
C  -2.01600 43.36100 22.98800
C  2.81900 43.92900 23.40300
N  0.03500 43.09300 27.64400
C  0.98500 43.10000 28.56900
C  0.43700 42.97700 30.00700
C  -0.99500 42.54900 29.76700
C  -1.19100 42.94000 28.30900
C  -1.31800 41.02800 30.01300
C  0.44600 44.29500 30.87500
C  -0.14100 44.22800 32.32000
H  -0.14500 42.74900 32.93300
N  -1.98300 43.07800 25.35700
C  -2.88400 42.87600 26.37900
C  -4.25500 42.78600 25.86300
C  -4.12900 42.87000 24.44600
C  -2.69300 43.09600 24.18400
C  -5.43200 42.47900 26.72100
C  -5.22100 42.75600 23.43800
O  -5.00400 43.00600 22.26600
C  -6.63500 42.41600 23.86000
N  0.37500 43.54500 23.50300
C  -0.70000 43.52200 22.66400
C  -0.12500 43.55600 21.26400
C  1.31300 43.97500 21.38200
C  1.53800 43.73500 22.83900
C  -0.36400 42.12100 20.64800
C  1.63100 45.42000 20.93900
C  1.01800 46.58800 21.71700
N  2.21300 43.44800 25.72900
C  3.20400 43.70200 24.78200
C  4.55700 43.46200 25.40300
C  4.21800 43.29400 26.76300
C  2.79300 43.36100 26.90200
C  5.89900 43.31400 24.79200
C  4.76400 42.99300 28.02800
O  5.94100 42.71300 28.37700
C  3.66100 43.04300 29.05200
C  3.65600 41.86900 29.89300
O  3.59600 40.71200 29.51900
O  3.93300 42.34500 31.15700
C  4.23700 41.27400 32.09900
H  -3.26700 42.74900 28.47700
H  -2.61800 43.23400 22.08600
H  3.64900 44.13200 22.72300
H  0.97000 42.20200 30.55800
H  -1.71600 43.20300 30.25800
H  -1.53600 40.50500 29.08200
H  -2.14700 40.89700 30.70800
H  -0.38300 40.59700 30.37200
H  -0.03100 45.10700 30.32600
H  1.44400 44.72300 30.96200
H  -1.09800 44.74400 32.39700
H  0.42500 44.85500 33.00900
H  -5.92400 43.35000 27.15400
H  -4.97200 41.90700 27.52600
H  -6.03600 41.67100 26.30700
H  -7.04400 43.01900 24.67100
H  -6.60600 41.38200 24.20500
H  -7.30000 42.52200 23.00300
H  -0.73500 44.27100 20.71300
H  1.99800 43.28000 20.89700
H  0.57500 41.57200 20.57700
H  -0.82000 42.24100 19.66500
H  -0.97800 41.59100 21.37600
H  1.27500 45.39700 19.90900
H  2.71400 45.53300 20.98800
H  1.83200 47.30900 21.78300
H  0.50900 46.39700 22.66200
H  0.35300 47.12800 21.04400
H  5.80800 42.81100 23.82900
H  6.56600 42.81800 25.49700
H  6.28200 44.31800 24.61000
H  3.70100 44.00300 29.56600
H  4.64200 41.73000 33.00200
H  4.94600 40.61200 31.60300
H  3.31000 40.74200 32.31500

