158

Mg 53.04800 23.98600 44.42600
C  50.59100 26.36300 43.91300
C  50.96000 21.56700 43.18400
C  55.67600 21.92900 44.00400
C  55.25900 26.58000 45.30800
N  51.06000 23.99300 43.64900
C  50.17800 25.06500 43.58700
C  48.92800 24.61700 42.70600
C  48.88300 23.15400 43.23800
C  50.38900 22.82600 43.31400
C  48.07100 22.90400 44.50100
C  48.94600 24.67500 41.12000
C  50.31400 25.04400 40.49500
H  50.29500 25.73200 39.08300
N  53.24900 21.87200 43.87700
C  52.25700 21.12800 43.29700
C  52.71100 19.83900 43.05900
C  54.13700 19.82800 43.36900
C  54.41200 21.24100 43.74500
C  51.84600 18.67900 42.46300
C  55.06100 18.64100 43.05500
O  54.64700 17.60700 42.50200
C  56.52500 18.76200 43.35600
N  55.11100 24.24100 44.58800
C  55.96500 23.25700 44.34800
C  57.44200 23.59800 44.83200
C  57.33400 25.12500 44.83400
C  55.87300 25.32600 44.98600
C  57.73400 23.00100 46.23600
C  58.00500 25.89300 43.59900
C  58.99200 26.96400 43.98800
N  52.96600 26.01400 44.66200
C  53.89900 26.89800 45.15800
C  53.23700 28.22000 45.17200
C  51.94900 28.12800 44.67200
C  51.84700 26.70100 44.39900
C  53.78800 29.53500 45.57800
C  50.66100 28.78400 44.36200
O  50.34000 29.95800 44.44600
C  49.80000 27.61000 43.82600
C  49.59300 28.02400 42.37000
O  50.53800 28.29600 41.63300
O  48.28800 28.22800 42.10900
C  47.90900 28.85700 40.82500
H  50.29800 20.74700 42.89700
H  56.62100 21.38200 44.00600
H  55.78300 27.42300 45.76200
H  48.05200 25.20500 42.98000
H  48.43000 22.55300 42.44900
H  47.26900 22.17700 44.36900
H  47.74800 23.89400 44.82400
H  48.81800 22.53200 45.20200
H  48.14400 25.30000 40.72700
H  48.71800 23.68200 40.73300
H  50.96900 24.17300 40.45900
H  50.64800 25.82800 41.17400
H  50.78300 18.91700 42.42900
H  52.01800 17.71800 42.94800
H  52.12800 18.69300 41.41000
H  57.08500 17.90400 42.98300
H  56.60700 18.93900 44.42800
H  56.89000 19.61700 42.78600
H  58.23700 23.26300 44.16500
H  57.83600 25.48000 45.73300
H  58.06100 21.96300 46.18700
H  56.82800 23.18100 46.81500
H  58.52000 23.61900 46.67100
H  57.15600 26.33700 43.08000
H  58.57400 25.20600 42.97400
H  59.02100 27.02000 45.07600
H  58.72500 27.92600 43.55200
H  59.98200 26.66200 43.64400
H  53.32500 29.95200 46.47200
H  53.69200 30.27100 44.78000
H  54.81300 29.40300 45.92400
H  48.83300 27.68800 44.32200
H  48.39300 29.83200 40.77200
H  46.83700 29.02900 40.72900
H  48.14600 28.26900 39.93800
Mg -12.01000 38.44500 41.94800
C  -10.09900 35.57600 40.91700
C  -9.60600 40.48700 40.46600
C  -13.98100 41.07800 42.47400
C  -14.46500 36.15800 43.06400
N  -10.07900 38.01600 40.78500
C  -9.45400 36.84700 40.52300
C  -8.10500 37.01600 39.69200
C  -7.91800 38.55500 39.88500
C  -9.32000 39.09100 40.37500
C  -6.75300 38.89400 40.86000
C  -8.37400 36.51300 38.24500
C  -7.31500 35.61000 37.65200
H  -6.35300 36.31000 36.72100
N  -11.89300 40.53500 41.51900
C  -10.77800 41.18300 40.93800
C  -11.02400 42.56600 40.95900
C  -12.32600 42.81600 41.46100
C  -12.82500 41.47100 41.89200
C  -10.04400 43.47000 40.25100
C  -12.89400 44.13600 41.55200
O  -12.38800 45.16300 41.20200
C  -14.34900 44.31100 42.15600
N  -13.92000 38.58200 42.55700
C  -14.54000 39.82500 42.78600
C  -15.96100 39.69600 43.25900
C  -16.18300 38.09300 43.11200
C  -14.75700 37.57700 42.97000
C  -16.19400 40.12400 44.78700
C  -16.98800 37.80400 41.82000
C  -18.39800 37.43800 41.97800
N  -12.27600 36.19500 42.09500
C  -13.26000 35.46100 42.67000
C  -12.92100 34.05700 42.65700
C  -11.63700 34.02000 41.97200
C  -11.40100 35.38700 41.61600
C  -13.66100 32.89000 43.22500
C  -10.58600 33.17000 41.47100
O  -10.35300 31.96400 41.42900
C  -9.56700 34.18100 40.85200
C  -8.28900 33.90500 41.55200
O  -7.82100 34.51600 42.48600
O  -7.55900 33.24600 40.65300
C  -6.07400 33.20200 40.96200
H  -8.83900 40.96800 39.85600
H  -14.54900 41.92000 42.87600
H  -15.29900 35.52100 43.36700
H  -7.34500 36.41300 40.18700
H  -7.60000 39.04600 38.96600
H  -7.03400 39.72800 41.50300
H  -5.87800 39.26900 40.33000
H  -6.47000 38.06000 41.50200
H  -8.41800 37.40400 37.61900
H  -9.33800 36.01400 38.34300
H  -8.00100 34.89200 37.20200
H  -6.66500 35.06200 38.33500
H  -9.30800 43.84400 40.96200
H  -10.63300 44.33500 39.94600
H  -9.52600 43.03100 39.39800
H  -15.03700 43.60600 41.68800
H  -14.56700 45.36200 41.96700
H  -14.17000 44.07600 43.20500
H  -16.68000 40.28300 42.68800
H  -16.64500 37.62400 43.98100
H  -16.67600 41.09700 44.69200
H  -15.23700 40.28400 45.28300
H  -16.84100 39.41400 45.30300
H  -16.46800 37.08700 41.18500
H  -16.91500 38.76200 41.30600
H  -18.64100 36.68900 41.22400
H  -19.10000 38.26400 41.86800
H  -18.61600 36.89100 42.89600
H  -14.13900 32.41300 42.36900
H  -14.33300 33.27500 43.99200
H  -12.98100 32.15900 43.66200
H  -9.59700 33.78200 39.83800
H  -5.77400 34.05700 41.56900
H  -5.54700 33.07200 40.01700
H  -5.75000 32.29800 41.47700

