158

Mg 1.31300 7.10200 26.01300
C  1.57300 9.27900 28.71700
C  1.95800 4.43300 28.23500
C  0.91400 4.98500 23.47100
C  1.15100 9.85000 23.86000
N  1.38100 6.92000 28.25800
C  1.43200 7.96800 29.13200
C  1.38600 7.56500 30.63000
C  1.81500 5.97300 30.37000
C  1.72300 5.69900 28.82600
C  3.12800 5.59200 30.97500
C  -0.01700 7.84900 31.26800
C  -0.09000 7.78400 32.79500
H  1.17800 7.47200 33.58600
N  1.53700 4.97800 25.85300
C  1.67200 4.07500 26.90000
C  1.43200 2.70400 26.35900
C  1.26500 2.80900 24.93700
C  1.26600 4.31800 24.65000
C  1.28800 1.45300 27.31300
C  1.03200 1.73800 23.92300
O  0.62800 2.02800 22.78500
C  1.19500 0.35400 24.27100
N  0.92200 7.39300 24.03700
C  0.82600 6.37500 23.17500
C  0.52200 6.88000 21.65200
C  0.54200 8.38700 21.87400
C  0.84600 8.56900 23.33200
C  1.49600 6.49900 20.44900
C  -0.65900 9.14600 21.29500
C  -0.40600 10.08300 20.13900
N  1.40200 9.08700 26.15700
C  1.28300 10.12300 25.21700
C  1.61300 11.41400 25.83400
C  1.70900 11.09700 27.20800
C  1.56200 9.73300 27.33700
C  1.73700 12.74000 25.21700
C  1.82100 11.71200 28.47300
O  1.84700 12.89400 28.80900
C  1.79600 10.57800 29.48900
C  3.15200 10.59300 30.11500
O  4.17900 10.04800 29.76400
O  3.04700 11.20300 31.34200
C  4.14800 10.94600 32.30400
H  2.41900 3.64700 28.83700
H  0.72400 4.40100 22.56900
H  1.22300 10.72900 23.21600
H  2.15100 8.13700 31.15700
H  0.99400 5.37900 30.77000
H  2.96200 4.77700 31.67900
H  3.50800 6.50700 31.42800
H  3.75400 5.23400 30.15800
H  -0.71800 7.20100 30.74200
H  -0.32100 8.85800 30.98600
H  -0.81600 7.00100 33.01300
H  -0.44600 8.73100 33.20000
H  1.18200 1.54600 28.39400
H  1.99900 0.64300 27.15000
H  0.41000 0.94200 26.91800
H  0.31900 0.05100 24.84300
H  1.99300 0.32800 25.01400
H  1.36800 -0.27000 23.39400
H  -0.45500 6.48200 21.37700
H  1.43700 8.72100 21.35000
H  2.47700 6.13500 20.75200
H  1.57300 7.26000 19.67200
H  1.12400 5.55700 20.04600
H  -1.05800 9.82100 22.05300
H  -1.51700 8.49300 21.13200
H  -0.84200 9.72100 19.20800
H  0.65400 10.28100 19.97900
H  -0.88200 11.02800 20.40100
H  0.91900 12.75700 24.49700
H  2.71900 12.79600 24.74900
H  1.52600 13.51800 25.95000
H  1.00600 10.71800 30.22700
H  5.12100 10.87400 31.81900
H  3.83900 9.99700 32.74300
H  4.23500 11.83000 32.93600
Mg 47.44000 34.81900 27.89600
C  45.37700 33.06800 30.22900
C  47.84300 37.33100 30.33200
C  48.30700 37.03400 25.61700
C  46.35500 32.56400 25.51700
N  46.75100 35.05600 30.02400
C  45.91400 34.23100 30.79500
C  46.08300 34.58000 32.31400
C  46.58300 36.07600 32.18200
C  47.06700 36.18800 30.72500
C  45.46600 37.02400 32.49900
C  47.20900 33.76800 32.96600
C  47.06800 33.56000 34.48300
H  46.26300 34.55800 35.31900
N  48.29600 36.74000 27.99600
C  48.46000 37.58700 29.12400
C  49.13500 38.79100 28.77900
C  49.25300 38.70700 27.34100
C  48.55200 37.45300 26.91000
C  49.45000 39.85900 29.83000
C  49.66100 39.75600 26.30600
O  49.68000 39.59900 25.10100
C  50.24100 41.03900 26.94700
N  47.24800 34.82600 25.80500
C  47.72800 35.83900 25.03900
C  47.40300 35.68700 23.52400
C  46.92300 34.15900 23.53800
C  46.86900 33.78600 25.04300
C  46.32200 36.70000 23.09700
C  47.83300 33.20500 22.75800
C  47.13500 32.36900 21.70800
N  46.32100 33.10900 27.82600
C  46.01900 32.21100 26.78200
C  45.19700 31.10900 27.21000
C  44.94900 31.41500 28.60800
C  45.61500 32.60600 28.90100
C  44.79300 29.78400 26.56600
C  44.30200 30.88900 29.82700
O  43.70900 29.88000 30.09200
C  44.30100 32.18800 30.81900
C  44.48600 31.83800 32.26000
O  45.44300 31.27000 32.68100
O  43.36600 32.22600 32.93600
C  43.33000 32.00700 34.39900
H  48.01100 38.00300 31.17600
H  48.37400 37.75500 24.79900
H  45.98100 31.96900 24.68200
H  45.14500 34.54400 32.86700
H  47.36800 36.22700 32.92400
H  45.82200 37.57700 33.36800
H  44.49200 36.58400 32.71300
H  45.25600 37.81500 31.77900
H  48.21700 34.17600 32.88400
H  47.27600 32.83400 32.40800
H  48.06000 33.56000 34.93400
H  46.57200 32.60000 34.62600
H  50.53100 39.98000 29.89800
H  49.09000 39.59900 30.82500
H  49.03700 40.80300 29.47600
H  49.34700 41.52100 27.34300
H  50.52300 41.53300 26.01800
H  51.03000 40.86300 27.67900
H  48.31300 35.81000 22.93600
H  45.93200 34.04400 23.10000
H  45.76200 36.29400 22.25500
H  46.77400 37.67100 22.89400
H  45.56600 36.91100 23.85400
H  48.37800 32.56900 23.45700
H  48.58900 33.78400 22.22800
H  46.04900 32.40600 21.62500
H  47.20900 31.35200 22.09100
H  47.72200 32.36600 20.79000
H  43.90000 29.90200 25.95300
H  44.73300 29.02800 27.35000
H  45.60500 29.49000 25.90000
H  43.26700 32.53200 30.77900
H  43.29000 32.97800 34.89300
H  44.16500 31.39600 34.74100
H  42.36700 31.54400 34.61600

