158

Mg 9.57800 3.47300 28.06600
C  11.12500 1.98200 30.94200
C  7.99800 5.59400 30.07100
C  7.86500 4.43500 25.29500
C  11.01100 0.82000 26.29800
N  9.62800 3.77800 30.22400
C  10.34500 3.07800 31.16700
C  10.05300 3.68000 32.55300
C  8.79200 4.58100 32.35400
C  8.83600 4.78500 30.80000
C  7.43500 3.99400 32.80800
C  11.27000 4.55600 33.14000
C  11.72900 4.17200 34.54900
H  10.80500 3.65600 35.57300
N  8.21600 4.83600 27.66200
C  7.75900 5.68600 28.67400
C  6.95200 6.70800 28.06200
C  6.89800 6.44600 26.64600
C  7.73200 5.16900 26.47200
C  6.31100 7.83200 28.90000
C  6.20300 7.22200 25.49100
O  6.09400 6.80400 24.35000
C  5.61300 8.56200 25.76700
N  9.45600 2.70400 26.09200
C  8.65200 3.31800 25.13400
C  8.66400 2.51000 23.85500
C  9.62100 1.29800 24.18100
C  10.00700 1.57800 25.63700
C  7.31100 2.14600 23.22800
C  10.79600 1.30000 23.18200
C  10.56400 1.01500 21.65000
N  10.85100 1.81800 28.50300
C  11.38500 0.87600 27.63300
C  12.28400 -0.02700 28.33100
C  12.19400 0.37300 29.68400
C  11.30000 1.48900 29.70600
C  13.01100 -1.09800 27.80000
C  12.70200 0.08600 31.02400
O  13.53600 -0.77100 31.37400
C  11.98300 1.19600 31.97300
C  11.22200 0.45200 32.99100
O  10.07200 0.01900 32.85000
O  12.01100 0.18300 34.06400
C  11.33000 -0.43700 35.19900
H  7.40800 6.19100 30.76900
H  7.25600 4.73300 24.44000
H  11.45600 -0.04900 25.80900
H  9.81400 2.81100 33.16600
H  8.73600 5.60900 32.71100
H  6.83300 3.81600 31.91700
H  6.94000 4.76200 33.40200
H  7.55700 3.05200 33.34300
H  11.04000 5.62100 33.09800
H  12.04700 4.17200 32.48000
H  12.16300 5.03700 35.05100
H  12.41900 3.33100 34.47900
H  7.07800 8.60400 28.96700
H  6.05400 7.41800 29.87500
H  5.37800 8.28200 28.56000
H  6.32400 9.25700 26.21400
H  4.73700 8.40300 26.39500
H  5.36800 8.90500 24.76100
H  9.21900 3.13300 23.15400
H  9.11500 0.33800 24.07400
H  7.02900 2.99000 22.59800
H  6.62700 2.06100 24.07200
H  7.46100 1.23200 22.65400
H  11.51300 0.53200 23.47200
H  11.24900 2.28500 23.29600
H  10.93400 0.03500 21.34900
H  11.03400 1.82700 21.09500
H  9.51100 1.20500 21.44200
H  13.87600 -1.25300 28.44500
H  13.33500 -1.09000 26.75900
H  12.42800 -2.01300 27.70200
H  12.73900 1.68400 32.58800
H  11.92700 -0.12600 36.05600
H  11.41500 -1.50600 35.00500
H  10.27400 -0.17300 35.26300
Mg 40.45700 40.66500 27.14600
C  39.80200 43.03300 29.59300
C  41.79300 38.65600 29.54900
C  41.52400 38.68800 24.63700
C  39.82400 43.18700 24.69800
N  40.79800 40.84900 29.35300
C  40.36300 41.87700 30.10100
C  40.63900 41.64100 31.62500
C  41.20300 40.13700 31.61200
C  41.36700 39.85500 30.08700
C  42.47300 40.06900 32.45000
C  39.40000 41.64100 32.49700
C  39.28800 42.71000 33.61700
H  38.41300 42.37900 34.82600
N  41.44300 38.85500 27.09800
C  41.94600 38.17600 28.13400
C  42.47200 36.88500 27.74400
C  42.45000 36.91300 26.30900
C  41.79200 38.20900 25.91200
C  43.14800 36.01400 28.73800
C  42.94400 35.80900 25.31700
O  42.81900 35.84000 24.10400
C  43.37700 34.48900 25.87800
N  40.74700 41.01200 24.97700
C  40.91500 39.82400 24.23200
C  40.46200 40.10200 22.79000
C  39.79200 41.51300 22.82300
C  40.13800 41.98100 24.25200
C  41.67800 40.14800 21.82000
C  38.26700 41.66000 22.44300
C  37.26000 40.83500 23.22100
N  39.77200 42.62200 27.09200
C  39.68100 43.59100 26.04100
C  39.26900 44.84500 26.52000
C  39.25700 44.65200 27.90400
C  39.62100 43.31100 28.22500
C  38.82400 45.99600 25.68000
C  38.86700 45.32000 29.12600
O  38.30200 46.39300 29.36400
C  39.27800 44.25300 30.30000
C  40.30200 44.99200 31.14200
O  41.50000 45.04500 30.88500
O  39.69800 45.53400 32.20500
C  40.61000 46.50300 32.97000
H  42.06200 37.88900 30.27800
H  41.78100 37.96700 23.85900
H  39.46500 43.78000 23.85500
H  41.34000 42.36600 32.03900
H  40.54200 39.35200 31.97800
H  42.35600 39.03500 32.77700
H  42.50900 40.82300 33.23600
H  43.33300 40.20900 31.79600
H  39.25800 40.70500 33.03700
H  38.49700 41.86300 31.92700
H  38.68300 43.43800 33.07600
H  40.29300 43.03900 33.88000
H  42.72400 35.01100 28.68100
H  43.18400 36.28700 29.79300
H  44.17300 35.77000 28.45900
H  44.11800 34.56100 26.67400
H  43.75100 33.86900 25.06300
H  42.50400 33.90900 26.17900
H  39.76500 39.27200 22.67600
H  40.33500 42.22100 22.19700
H  41.75300 39.26500 21.18500
H  42.54100 40.09700 22.48400
H  41.90500 41.06700 21.28100
H  38.20000 41.35000 21.40000
H  38.02000 42.72100 22.46800
H  37.71400 40.21300 23.99300
H  36.73500 40.13300 22.57300
H  36.51100 41.47700 23.68400
H  38.31400 45.69300 24.76500
H  39.68300 46.62400 25.44300
H  38.18600 46.60100 26.32300
H  38.33300 43.96300 30.75900
H  40.19700 46.82600 33.92500
H  40.68500 47.30600 32.23600
H  41.55700 46.04700 33.25900

