158

Mg 23.82200 -5.61900 44.96100
C  26.11900 -3.26200 43.28400
C  21.44700 -4.78400 42.55400
C  21.96600 -8.15200 45.96600
C  26.60700 -6.81200 46.67200
N  23.79700 -4.13900 43.13600
C  24.82700 -3.18800 42.76100
C  24.29400 -2.26800 41.66300
C  22.73500 -2.64400 41.67900
C  22.64400 -4.01800 42.36700
C  21.88900 -1.52300 42.27400
C  25.05200 -2.42200 40.34400
C  25.72500 -1.15600 39.76400
H  25.33000 -0.77400 38.35700
N  21.96800 -6.28400 44.47600
C  21.13800 -5.73500 43.51900
C  19.83500 -6.33300 43.64400
C  19.90400 -7.29900 44.68600
C  21.30800 -7.29200 45.07800
C  18.67100 -5.79600 42.83200
C  18.72600 -8.06100 45.24100
O  17.70700 -7.90100 44.60300
C  18.73900 -9.00300 46.36300
N  24.24300 -7.14700 46.27600
C  23.21700 -8.09700 46.49400
C  23.87100 -9.27200 47.25800
C  25.19200 -8.64100 47.82700
C  25.39900 -7.51700 46.84000
C  22.94900 -9.88000 48.34300
C  26.33100 -9.69000 47.82500
C  26.89900 -9.86100 49.26800
N  25.86200 -5.08900 45.10600
C  26.90100 -5.67700 45.85000
C  28.11800 -5.01000 45.62800
C  27.83100 -4.00100 44.65200
C  26.49400 -4.18700 44.24500
C  29.38300 -5.30700 46.38900
C  28.46200 -2.92500 43.98200
O  29.56600 -2.37300 44.06000
C  27.33600 -2.35600 43.08100
C  27.07800 -0.97000 43.50400
O  26.65700 -0.65500 44.57700
O  27.22900 -0.07500 42.42100
C  26.84200 1.27800 42.78100
H  20.62100 -4.47500 41.91000
H  21.35100 -9.03500 46.15300
H  27.51900 -7.11600 47.18900
H  24.50700 -1.26800 42.04000
H  22.27700 -2.92200 40.73000
H  22.32200 -0.52900 42.16600
H  21.62300 -1.69000 43.31800
H  20.99000 -1.61100 41.66500
H  24.35300 -2.71200 39.56000
H  25.71900 -3.28400 40.33300
H  26.80800 -1.15500 39.88500
H  25.38600 -0.24700 40.26100
H  18.99800 -5.85100 41.79400
H  18.39600 -4.75400 42.99400
H  17.75500 -6.38600 42.84400
H  19.28600 -8.53300 47.18000
H  19.22700 -9.93700 46.08300
H  17.71700 -9.18300 46.69600
H  24.09300 -10.10800 46.59500
H  24.94700 -8.10000 48.74200
H  22.88100 -10.84900 47.84800
H  21.93500 -9.49000 48.43800
H  23.47800 -9.94100 49.29400
H  27.26500 -9.56300 47.27800
H  25.89500 -10.64900 47.54400
H  27.98700 -9.83500 49.32000
H  26.56900 -10.83900 49.61900
H  26.41300 -9.08000 49.85300
H  29.98600 -5.98900 45.79000
H  29.07300 -5.76800 47.32700
H  29.96100 -4.39500 46.53600
H  27.77100 -2.29200 42.08400
H  25.80800 1.24500 43.12500
H  26.92300 1.90500 41.89300
H  27.40400 1.75400 43.58400
Mg 16.38200 -0.71200 27.84300
C  15.59000 1.36400 30.52400
C  18.27300 -2.61100 30.00400
C  17.73700 -2.37300 25.10300
C  14.84800 1.52400 25.75500
N  16.92200 -0.57100 29.96600
C  16.41700 0.35000 30.87400
C  16.80000 -0.13400 32.29700
C  17.98200 -1.07600 32.03300
C  17.71100 -1.52800 30.56500
C  19.43300 -0.72200 32.33100
C  15.56000 -0.70200 33.08400
C  15.30600 0.09500 34.45100
H  16.53700 0.46600 35.34700
N  17.71500 -2.33600 27.65400
C  18.33900 -3.03100 28.66200
C  19.05400 -4.18300 28.13100
C  18.97600 -4.14000 26.69000
C  18.13100 -2.94700 26.43500
C  19.64000 -5.27300 29.01800
C  19.56700 -5.03200 25.61200
O  19.47300 -4.79400 24.40700
C  20.54100 -6.26700 25.91200
N  16.39300 -0.43600 25.71000
C  17.01200 -1.24400 24.77400
C  16.82500 -0.65900 23.39800
C  15.81300 0.43900 23.59600
C  15.64900 0.50700 25.04500
C  18.16500 -0.19200 22.71600
C  14.50700 0.27600 22.79300
C  13.28400 -0.22100 23.49300
N  15.32600 0.99300 28.05100
C  14.72100 1.79700 27.12300
C  14.04500 2.96100 27.76500
C  14.38300 2.76900 29.11600
C  15.17100 1.60000 29.23300
C  13.33500 4.08400 26.98400
C  14.16600 3.41700 30.44800
O  13.46800 4.36800 30.76400
C  14.97100 2.46300 31.44300
C  15.99000 3.29500 32.21700
O  17.09600 3.61200 31.86200
O  15.44200 3.69400 33.37600
C  16.21900 4.66200 34.21800
H  18.67500 -3.31200 30.73900
H  18.02500 -2.90400 24.19400
H  14.41300 2.21000 25.02500
H  17.25700 0.71600 32.80300
H  17.84000 -2.00300 32.59000
H  20.04700 -0.87300 31.44300
H  19.74400 -1.32900 33.18100
H  19.58700 0.31200 32.64000
H  15.72700 -1.73500 33.38800
H  14.66100 -0.57500 32.48000
H  14.59200 -0.44700 35.07000
H  14.92100 1.09000 34.22800
H  19.98800 -6.14200 28.45900
H  18.87400 -5.49900 29.75900
H  20.56700 -4.93300 29.47900
H  20.03900 -7.13900 26.33000
H  21.23000 -5.70000 26.53900
H  20.99800 -6.57900 24.97300
H  16.46800 -1.31000 22.60000
H  16.23200 1.40800 23.32400
H  19.06500 -0.70200 23.05900
H  18.37500 0.85700 22.92900
H  18.13300 -0.26400 21.62900
H  14.66100 -0.38500 21.94000
H  14.21600 1.24700 22.39200
H  12.75200 0.64100 23.89500
H  13.59500 -0.86300 24.31800
H  12.69300 -0.86000 22.83700
H  13.23600 4.94000 27.65100
H  12.38400 3.58800 26.79200
H  13.85300 4.34900 26.06200
H  14.22700 2.02300 32.10700
H  15.97600 4.40800 35.25000
H  16.01300 5.69100 33.92300
H  17.30900 4.65800 34.23300

