158

Mg 49.04800 46.48900 42.43100
C  45.83000 47.03900 41.21900
C  49.22300 43.59600 40.51900
C  52.43600 46.18200 43.15400
C  49.14400 49.71300 43.57000
N  47.63900 45.44800 41.05000
C  46.37000 45.85800 40.66900
C  45.81000 45.09600 39.53100
C  46.86300 43.84700 39.50000
C  48.05100 44.33200 40.37100
C  46.22000 42.47300 39.88000
C  45.77900 45.91400 38.17100
C  44.45100 45.70500 37.27100
H  44.71300 44.70700 36.18100
N  50.59700 44.94800 42.06500
C  50.44300 43.85700 41.26400
C  51.62000 43.04500 41.36300
C  52.59000 43.75300 42.14800
C  51.91600 45.07300 42.47100
C  51.71900 41.63900 40.72900
C  54.00200 43.22600 42.64600
O  54.42900 42.16400 42.27100
C  54.86600 43.98600 43.68300
N  50.58200 47.81700 43.21800
C  51.87000 47.42900 43.50600
C  52.66100 48.62100 44.04600
C  51.58800 49.80800 44.07900
C  50.35600 49.06000 43.57400
C  53.40400 48.52700 45.32500
C  51.98700 51.10000 43.20100
C  52.36200 52.37400 43.93700
N  47.66500 48.03700 42.62000
C  47.88300 49.32400 43.03900
C  46.67000 50.08000 43.01000
C  45.79500 49.23300 42.23600
C  46.47700 48.04000 42.07200
C  46.42000 51.42900 43.54100
C  44.54000 49.14100 41.61000
O  43.60400 49.88100 41.70500
C  44.53200 47.75000 40.81000
C  43.28600 47.00700 41.04900
O  42.35100 46.98000 40.28500
O  43.19000 46.43900 42.23000
C  41.93100 45.73000 42.54800
H  49.30200 42.67000 39.94600
H  53.51000 46.17800 43.35200
H  49.21700 50.74200 43.92800
H  44.79200 44.77700 39.75500
H  47.27500 43.63800 38.51200
H  45.14400 42.46100 39.70400
H  46.32100 42.28000 40.94800
H  46.67200 41.58800 39.43200
H  46.69200 45.64900 37.63800
H  45.99300 46.95400 38.41700
H  44.10800 46.63800 36.82400
H  43.67900 45.24800 37.88900
H  51.07400 40.91100 41.22100
H  52.73400 41.26000 40.60300
H  51.34500 41.61700 39.70500
H  55.47600 43.24800 44.20300
H  54.16600 44.29600 44.45900
H  55.48400 44.76900 43.24200
H  53.41200 48.70400 43.26000
H  51.20900 49.98000 45.08700
H  54.10600 47.69400 45.28900
H  52.66500 48.38800 46.11500
H  53.91600 49.46600 45.53100
H  51.17500 51.35900 42.52200
H  52.82900 50.92600 42.53200
H  52.88000 53.07700 43.28600
H  52.98200 52.27400 44.82800
H  51.41600 52.89900 44.07300
H  46.77800 52.16200 42.81700
H  46.97300 51.57000 44.46900
H  45.35200 51.47100 43.75200
H  44.53500 47.90200 39.73100
H  41.15300 46.49100 42.60800
H  41.84300 45.28000 43.53700
H  41.76000 44.96600 41.79000
Mg 26.93300 51.20700 25.87000
C  25.02300 52.34500 28.55600
C  29.34700 50.30900 28.12100
C  28.73700 50.18800 23.29500
C  24.75800 52.83100 23.74800
N  27.15100 51.33200 28.10700
C  26.20300 51.76600 28.91800
C  26.60300 51.50800 30.41800
C  28.04200 50.92700 30.27500
C  28.22300 50.87500 28.77300
C  29.22200 51.75800 31.01000
C  25.57100 50.57700 31.16500
C  24.91800 51.25800 32.42200
H  24.93700 50.56800 33.83200
N  28.72200 50.25200 25.73700
C  29.62900 50.12900 26.74500
C  30.81400 49.45700 26.21500
C  30.60300 49.23000 24.85100
C  29.32300 49.81300 24.56800
C  31.97000 49.03800 27.18000
C  31.48500 48.60700 23.82300
O  31.13900 48.39000 22.61900
C  32.86300 48.26500 24.12000
N  26.88300 51.59000 23.84200
C  27.64800 50.93600 22.97000
C  27.29600 51.23800 21.49000
C  25.92900 52.00300 21.69100
C  25.87700 52.17100 23.19000
C  28.38500 52.03600 20.75000
C  24.63600 51.26500 21.16900
C  24.10100 51.89000 19.90700
N  25.24100 52.39800 26.06700
C  24.44000 52.97800 25.10000
C  23.31900 53.68700 25.70300
C  23.44100 53.41600 27.11700
C  24.62600 52.67000 27.23100
C  22.22300 54.43000 24.99300
C  22.89600 53.63000 28.44300
O  21.93600 54.22600 28.84700
C  23.97300 52.98100 29.40500
C  24.46700 53.95700 30.34400
O  25.33600 54.75700 30.13000
O  23.71500 53.96600 31.50400
C  23.96400 54.76600 32.69300
H  29.99000 49.93700 28.92200
H  29.35700 49.86700 22.45500
H  23.96400 53.17500 23.08200
H  26.62300 52.49200 30.88700
H  27.99400 49.88900 30.60400
H  29.93800 52.28700 30.38100
H  29.64500 50.93000 31.57900
H  28.80500 52.52500 31.66200
H  26.09000 49.72900 31.61100
H  24.81400 50.17700 30.49100
H  23.85800 51.26900 32.16700
H  25.22100 52.29600 32.55300
H  32.92500 49.44500 26.84600
H  32.19500 47.97300 27.12400
H  31.90300 49.34600 28.22300
H  33.23000 49.23600 24.45300
H  33.43300 47.87200 23.27800
H  33.09600 47.56800 24.92500
H  27.07500 50.33700 20.91800
H  25.94800 52.98500 21.21900
H  28.87000 51.36000 20.04600
H  29.01600 52.52500 21.49200
H  27.92800 52.84000 20.17300
H  23.88700 51.30300 21.96100
H  24.94000 50.23400 20.98400
H  23.02600 51.97600 20.06200
H  24.16500 51.23900 19.03500
H  24.56500 52.82800 19.60100
H  22.31300 54.43500 23.90600
H  22.39000 55.46300 25.29900
H  21.23600 54.08600 25.30300
H  23.58500 52.08200 29.88300
H  24.27500 55.76200 32.37800
H  24.73400 54.38200 33.36300
H  23.02400 54.73400 33.24400

