158

Mg 41.05600 8.54400 28.92800
C  42.64300 10.01600 31.75500
C  38.79700 7.15600 31.03800
C  39.55500 7.09900 26.29500
C  43.59300 9.55800 26.89400
N  40.76800 8.63300 31.17500
C  41.47200 9.37800 32.10300
C  40.86400 9.19700 33.46200
C  39.62500 8.23500 33.23600
C  39.75400 7.97000 31.71500
C  39.42800 6.86400 34.06800
C  40.48300 10.61400 34.11300
C  39.69600 10.46700 35.40800
H  40.30800 11.35000 36.56300
N  39.31000 7.37400 28.72400
C  38.52400 6.94100 29.66200
C  37.38300 6.21300 29.13300
C  37.55400 6.16300 27.73400
C  38.82600 6.95200 27.48100
C  36.27000 5.87700 30.10500
C  36.60300 5.55200 26.75800
O  36.71000 5.83100 25.56600
C  35.43700 4.65200 27.15900
N  41.44700 8.44200 26.88200
C  40.73700 7.68900 26.03700
C  41.26500 7.70100 24.57800
C  42.53000 8.56100 24.74900
C  42.56700 8.84200 26.25400
C  41.60900 6.30900 23.97600
C  42.76100 9.71600 23.79100
C  42.27100 11.12300 24.26700
N  42.78000 9.52600 29.24000
C  43.73300 9.86500 28.27800
C  44.76400 10.59600 29.06300
C  44.37100 10.77700 30.38400
C  43.14500 10.01900 30.46100
C  46.00100 11.15600 28.53300
C  44.77600 11.29000 31.67800
O  45.71500 11.96200 32.04400
C  43.60100 10.79900 32.59800
C  44.13800 9.86400 33.65500
O  44.49200 8.77800 33.47400
O  44.31000 10.59800 34.83400
C  44.91500 9.78800 35.91900
H  38.03000 6.83000 31.74300
H  39.17700 6.59800 25.40100
H  44.40200 9.94700 26.27300
H  41.67500 8.68500 33.98100
H  38.72500 8.85000 33.21500
H  38.46900 6.96100 34.57600
H  40.25000 6.78300 34.77900
H  39.20600 6.00600 33.43300
H  39.82200 11.22100 33.49400
H  41.34500 11.21000 34.41200
H  39.59600 9.42300 35.70500
H  38.67400 10.83200 35.31100
H  35.45100 6.47800 29.71000
H  36.33500 6.21500 31.13900
H  35.98000 4.82700 30.15500
H  34.73800 5.30800 27.67800
H  35.66300 3.80100 27.80200
H  34.95500 4.23100 26.27700
H  40.60100 8.17000 23.85100
H  43.38200 7.88100 24.72700
H  41.49700 5.43700 24.62100
H  42.65300 6.31500 23.66300
H  40.94900 5.99400 23.16800
H  42.59400 9.41500 22.75700
H  43.85000 9.74200 23.73600
H  41.37700 10.98000 24.87400
H  42.03100 11.68200 23.36200
H  43.16800 11.45500 24.78900
H  46.31400 12.12500 28.92400
H  45.66300 11.46600 27.54400
H  46.84500 10.46800 28.56300
H  43.07500 11.57500 33.15400
H  44.14900 9.38100 36.57800
H  45.55500 10.44300 36.50900
H  45.53300 8.98400 35.51900
Mg 47.07100 44.47500 43.52000
C  43.52000 44.13800 43.14400
C  47.19500 41.06900 42.58900
C  50.41400 44.76700 43.25200
C  46.70100 47.92100 43.58600
N  45.53200 42.84600 42.92000
C  44.22000 42.95200 42.88200
C  43.60800 41.60300 42.68200
C  44.72600 40.54000 42.77800
C  45.92500 41.54900 42.75700
C  44.68200 39.44400 43.88400
C  42.61400 41.34500 41.45500
C  42.86600 42.14800 40.15700
H  42.89700 41.44700 38.85100
N  48.66400 43.14400 43.00200
C  48.43300 41.84700 42.54900
C  49.73700 41.25500 42.27600
C  50.71000 42.25200 42.52600
C  49.97000 43.45000 42.96400
C  49.89600 39.75800 42.01300
C  52.16500 42.04000 42.49700
O  52.62200 41.04900 41.92500
C  53.15600 43.05300 43.05500
N  48.44900 46.12800 43.58800
C  49.76000 46.02200 43.51000
C  50.46300 47.34600 43.45600
C  49.26700 48.30200 43.15400
C  48.06200 47.41900 43.44800
C  51.18000 47.62900 44.74000
C  49.26600 48.97600 41.78600
C  49.66700 50.45000 41.77600
N  45.49300 45.83200 43.47900
C  45.44300 47.19100 43.61800
C  44.07300 47.59900 43.94600
C  43.31700 46.43800 43.70100
C  44.16600 45.36000 43.44800
C  43.64300 49.09600 44.25300
C  41.98600 45.93100 43.65100
O  40.94100 46.52000 43.78500
C  42.01300 44.43300 43.26700
C  41.35300 43.58900 44.22600
O  40.71300 42.63200 43.95600
O  41.43100 44.00900 45.49500
C  41.16000 42.99600 46.47100
H  47.12500 40.01400 42.31500
H  51.49800 44.89300 43.21600
H  46.77600 49.00900 43.64300
H  43.06400 41.56400 43.62600
H  44.76500 40.04200 41.80800
H  43.66400 39.40700 44.27300
H  45.33400 39.60100 44.74300
H  44.91000 38.60500 43.22600
H  41.59100 41.47900 41.80700
H  42.74200 40.26700 41.36000
H  43.76800 42.75900 40.16400
H  42.09700 42.91900 40.10900
H  50.00600 39.52800 40.95300
H  49.11400 39.17300 42.49800
H  50.81700 39.48900 42.53000
H  53.33000 43.87000 42.35400
H  54.09000 42.52400 43.24200
H  52.78200 43.38700 44.02300
H  51.16800 47.31600 42.62600
H  49.33500 49.15000 43.83500
H  51.44200 46.73500 45.30500
H  50.72100 48.37100 45.39400
H  52.17500 48.02900 44.55000
H  48.28900 48.88700 41.31000
H  49.91000 48.42400 41.10100
H  50.11400 50.75800 42.72200
H  48.75900 51.04500 41.67000
H  50.35900 50.70200 40.97300
H  43.29100 49.59300 43.34900
H  44.42400 49.73300 44.66800
H  42.78100 49.01900 44.91500
H  41.56300 44.36600 42.27600
H  41.41300 41.97700 46.17900
H  40.08300 42.98800 46.63400
H  41.66700 43.24900 47.40200

