158

Mg 24.83200 -5.20200 45.28900
C  26.22000 -2.22600 44.02800
C  21.93700 -4.35500 43.74100
C  23.86500 -8.37100 45.78500
C  28.07700 -6.02100 46.48700
N  24.18700 -3.51900 43.93300
C  24.89600 -2.38500 43.57600
C  24.10300 -1.47900 42.62600
C  22.61800 -1.98400 43.01600
C  22.89900 -3.40000 43.53400
C  21.86900 -1.12600 44.07100
C  24.59100 -1.67400 41.11600
C  25.06800 -0.39800 40.43600
H  26.15100 -0.51200 39.43500
N  23.12900 -6.17100 44.99600
C  22.03700 -5.61700 44.40000
C  20.97400 -6.61600 44.46200
C  21.44800 -7.76200 45.18100
C  22.85400 -7.50200 45.35800
C  19.51800 -6.46300 43.86800
C  20.58800 -8.99100 45.50500
O  19.35800 -9.07100 45.35500
C  21.24000 -10.24500 46.09200
N  25.79900 -6.96300 46.10000
C  25.16600 -8.15300 46.22000
C  26.13400 -9.21100 46.88700
C  27.35000 -8.32300 47.38300
C  27.08800 -7.02600 46.60400
C  25.58600 -10.15300 47.98900
C  28.76200 -8.94900 47.05300
C  29.65400 -9.12000 48.25900
N  26.84500 -4.35900 45.29900
C  27.99700 -4.73000 45.90500
C  29.01500 -3.65600 45.73700
C  28.30600 -2.69600 45.01100
C  27.03800 -3.15500 44.73200
C  30.42200 -3.54000 46.31500
C  28.54700 -1.40900 44.42000
O  29.53200 -0.70900 44.42400
C  27.17100 -1.08900 43.71600
C  26.68600 0.21900 44.26700
O  26.34500 0.52200 45.41100
O  26.67200 1.17900 43.25200
C  26.34700 2.57600 43.60800
H  20.95600 -4.02400 43.39300
H  23.56800 -9.41900 45.86700
H  28.95400 -6.44800 46.97900
H  24.33400 -0.49000 43.02100
H  22.06800 -2.17100 42.09300
H  22.12000 -0.07500 43.92400
H  22.06900 -1.47900 45.08200
H  20.79800 -1.30500 43.97700
H  23.64300 -1.95000 40.65400
H  25.36900 -2.43700 41.08100
H  25.45300 0.16500 41.28600
H  24.29300 0.08600 39.84200
H  18.82000 -6.27400 44.68300
H  19.06400 -7.39100 43.51800
H  19.42800 -5.65500 43.14200
H  20.51900 -11.06100 46.12900
H  21.65200 -9.96900 47.06300
H  21.98400 -10.61200 45.38500
H  26.59300 -9.86900 46.14900
H  27.15500 -8.07300 48.42600
H  25.72100 -11.19100 47.68500
H  24.52300 -9.92000 48.04900
H  25.99100 -10.08700 48.99900
H  29.32100 -8.32700 46.35300
H  28.71700 -9.97200 46.68100
H  29.83900 -10.19400 48.29600
H  29.04500 -8.82300 49.11200
H  30.56400 -8.55500 48.05500
H  30.76700 -4.52600 46.62700
H  30.27100 -3.06200 47.28300
H  31.16600 -3.03900 45.69500
H  27.24700 -1.18000 42.63200
H  27.25400 2.84800 44.14800
H  25.50500 2.73000 44.28400
H  26.18100 3.08100 42.65700
Mg 25.45100 1.82600 29.44500
C  27.56500 1.90200 32.29400
C  22.74800 1.79400 31.66700
C  23.52500 1.86000 26.86300
C  28.23500 1.06800 27.50700
N  25.19800 1.94200 31.70600
C  26.19500 2.11900 32.65700
C  25.58600 2.49000 34.03100
C  24.03800 2.28700 33.80400
C  23.97900 2.01200 32.27500
C  23.36400 1.08700 34.61600
C  26.06000 3.79900 34.66300
C  26.48500 3.66500 36.20800
H  25.74000 4.61600 37.21700
N  23.41500 1.84800 29.28500
C  22.46800 1.79800 30.27000
C  21.13400 1.72200 29.69100
C  21.33900 1.79700 28.28100
C  22.79200 1.84100 28.08800
C  19.86900 1.60800 30.41300
C  20.27400 1.81900 27.19000
O  20.59700 1.86700 26.02900
C  18.77300 1.85600 27.50900
N  25.84600 1.42100 27.47600
C  24.82500 1.53800 26.53500
C  25.44800 1.59200 25.12600
C  26.98800 1.33400 25.31800
C  27.03300 1.29700 26.84300
C  24.70200 0.54400 24.16400
C  27.80800 2.53300 24.72000
C  29.18700 2.20600 24.21200
N  27.43700 1.50200 29.79200
C  28.48900 1.17900 28.90200
C  29.70000 1.12300 29.57600
C  29.39700 1.39900 30.88500
C  28.02400 1.57800 31.01000
C  31.07800 0.64500 29.04400
C  30.02000 1.54600 32.18300
O  31.19600 1.47500 32.51800
C  28.89700 2.01200 33.17300
C  28.88000 1.09900 34.34700
O  28.18300 0.15100 34.57400
O  29.69600 1.75500 35.23100
C  29.93000 1.16200 36.60500
H  21.94000 1.96400 32.38200
H  22.81300 2.07800 26.06500
H  29.16000 0.85500 26.96700
H  26.00000 1.73900 34.70400
H  23.57200 3.22700 34.09600
H  22.39300 0.84500 34.18400
H  23.25300 1.51000 35.61500
H  24.00300 0.20500 34.57300
H  25.18300 4.44400 34.71000
H  26.87700 4.19500 34.06100
H  27.56300 3.77200 36.09200
H  26.23700 2.65500 36.53700
H  19.06000 2.27800 30.12200
H  20.10500 1.93200 31.42600
H  19.55100 0.57400 30.27600
H  18.28200 1.67600 26.55300
H  18.49900 2.83400 27.90700
H  18.63600 0.98500 28.14900
H  25.40100 2.61600 24.75600
H  27.34500 0.37000 24.95400
H  23.95200 0.99100 23.51200
H  24.16200 -0.19800 24.75300
H  25.49700 0.11000 23.55700
H  27.80000 3.20500 25.57800
H  27.34600 3.01400 23.85800
H  29.81900 3.00900 24.59200
H  29.20600 2.10800 23.12700
H  29.61900 1.25400 24.52300
H  30.99900 -0.14600 28.29900
H  31.59500 0.17300 29.87900
H  31.64500 1.49400 28.66000
H  29.05900 3.03800 33.50300
H  29.01000 1.00600 37.16700
H  30.67200 1.76000 37.13400
H  30.30200 0.13800 36.59800

