158

Mg -10.40400 39.57500 39.70800
C  -9.82500 36.20000 39.05500
C  -6.99900 40.21000 38.82100
C  -11.15900 42.70500 39.12700
C  -13.76600 38.75200 40.36100
N  -8.69700 38.34600 38.72600
C  -8.71900 36.94400 38.66300
C  -7.33100 36.45700 38.24700
C  -6.45600 37.70600 38.59600
C  -7.41700 38.84300 38.67400
C  -5.76300 37.56600 39.95900
C  -7.29300 35.99300 36.76500
C  -7.70100 36.97300 35.59800
H  -8.91000 36.69400 34.83300
N  -9.30800 41.24800 39.17000
C  -7.91800 41.32900 38.87800
C  -7.54000 42.68600 38.65700
C  -8.68300 43.44100 38.78000
C  -9.78300 42.45900 39.04100
C  -6.22900 43.13100 38.28700
C  -8.67400 44.94900 38.60900
O  -7.71800 45.60200 38.14400
C  -9.76300 45.70800 39.07200
N  -12.22700 40.59700 39.72000
C  -12.26300 41.91700 39.50300
C  -13.71200 42.34800 39.50300
C  -14.47300 41.10700 40.01300
C  -13.45700 40.05500 40.07000
C  -14.05500 43.65400 40.26700
C  -15.69500 40.77800 39.08200
C  -16.98700 41.47200 39.47500
N  -11.59400 37.83800 39.76800
C  -12.94500 37.64600 40.08600
C  -13.19900 36.22300 40.09000
C  -11.97400 35.61200 39.72300
C  -11.07500 36.66700 39.58000
C  -14.57800 35.54500 40.40900
C  -11.38800 34.36400 39.44300
O  -11.87100 33.24600 39.35500
C  -9.97400 34.71800 38.94000
C  -8.97900 33.94200 39.78800
O  -8.95600 33.93900 40.99800
O  -8.12500 33.27500 38.97700
C  -7.21000 32.32000 39.73200
H  -5.93800 40.43000 38.68400
H  -11.54600 43.70100 38.90000
H  -14.79900 38.48900 40.59900
H  -7.01700 35.62700 38.88000
H  -5.70800 38.03400 37.87500
H  -6.06400 36.66000 40.48500
H  -5.96900 38.45000 40.56200
H  -4.70100 37.52300 39.71700
H  -7.95300 35.12600 36.73800
H  -6.23300 35.77300 36.63600
H  -6.85200 37.15800 34.94000
H  -7.88200 37.95100 36.04400
H  -6.01100 44.09800 38.74100
H  -6.12200 43.17700 37.20300
H  -5.44700 42.44200 38.60500
H  -10.21000 45.18500 39.91800
H  -10.51800 45.86800 38.30200
H  -9.40200 46.65100 39.48100
H  -14.01600 42.57200 38.48100
H  -14.85200 41.34200 41.00700
H  -13.10100 44.10400 40.54000
H  -14.63900 43.39800 41.15200
H  -14.62900 44.24900 39.55600
H  -15.88800 39.71400 38.94100
H  -15.37600 41.08700 38.08700
H  -17.54500 40.72200 40.03500
H  -17.62000 41.77700 38.64100
H  -16.85700 42.40400 40.02600
H  -15.10200 36.19900 41.10500
H  -14.49700 34.58500 40.92000
H  -15.16400 35.41900 39.49800
H  -9.92400 34.40200 37.89900
H  -7.48500 31.31100 39.42500
H  -7.18100 32.40500 40.81800
H  -6.15000 32.45300 39.51600
Mg -3.13500 35.31600 27.27100
C  -4.95700 33.50800 29.69700
C  -2.16400 37.38900 29.84400
C  -1.56300 37.07300 24.98300
C  -4.24400 33.11400 24.88400
N  -3.46100 35.40800 29.51000
C  -4.20900 34.53100 30.24500
C  -3.93600 34.72200 31.73700
C  -3.22700 36.12100 31.72600
C  -2.99700 36.38300 30.27100
C  -4.18400 37.21300 32.24800
C  -3.27100 33.54400 32.53600
C  -4.17600 32.98600 33.67800
H  -3.83100 33.58700 35.07000
N  -2.05700 36.98700 27.39700
C  -1.65400 37.63000 28.54500
C  -0.58700 38.60600 28.15400
C  -0.44300 38.52400 26.77200
C  -1.34600 37.45700 26.34300
C  0.06300 39.47600 29.16200
C  0.44200 39.35000 25.81700
O  0.55300 39.12500 24.63100
C  1.14800 40.55200 26.25800
N  -3.11500 35.19800 25.17400
C  -2.31800 36.04200 24.46100
C  -2.31000 35.62100 22.97400
C  -2.96200 34.25900 22.97600
C  -3.44400 34.15500 24.43200
C  -3.06200 36.70000 22.08500
C  -2.16600 33.02100 22.44900
C  -2.94000 31.87300 21.96000
N  -4.41300 33.66900 27.27000
C  -4.76300 32.85000 26.19500
C  -5.73000 31.91700 26.57800
C  -5.82800 32.11300 28.02000
C  -4.99400 33.20300 28.33000
C  -6.44000 30.85500 25.74500
C  -6.48500 31.61100 29.17000
O  -7.20500 30.64100 29.26200
C  -5.90900 32.47200 30.35400
C  -7.00700 33.08400 31.09700
O  -7.50300 34.15900 30.80600
O  -7.54400 32.10700 31.95000
C  -8.72200 32.58400 32.69100
H  -1.80900 38.11500 30.57900
H  -1.01500 37.42000 24.10400
H  -4.50700 32.31900 24.18200
H  -4.89700 34.95600 32.19600
H  -2.25700 36.07800 32.22100
H  -5.13400 37.13700 31.71800
H  -3.81100 38.19200 31.94600
H  -4.30700 37.18400 33.33100
H  -2.41000 33.95100 33.06500
H  -2.90000 32.74700 31.89200
H  -4.21200 31.89800 33.74300
H  -5.24700 33.04900 33.48700
H  1.14400 39.59600 29.22700
H  -0.31000 39.49400 30.18600
H  -0.39800 40.38100 28.76600
H  0.49300 41.27000 26.75100
H  1.69700 40.93500 25.39700
H  1.88900 40.34400 27.02900
H  -1.30000 35.46600 22.59400
H  -3.84100 34.39900 22.34600
H  -2.93200 37.67800 22.54700
H  -4.12300 36.55600 21.87600
H  -2.58500 36.63700 21.10700
H  -1.66800 32.73300 23.37500
H  -1.35000 33.36900 21.81500
H  -2.82700 30.96900 22.55900
H  -2.62400 31.55600 20.96600
H  -3.99500 32.13800 22.02700
H  -6.69400 29.94700 26.29100
H  -5.73300 30.70800 24.92800
H  -7.32900 31.25800 25.25900
H  -5.45000 31.78300 31.06300
H  -9.28000 31.70100 33.00300
H  -9.43200 33.17600 32.11500
H  -8.47100 33.20100 33.55400

