158

Mg 50.15400 45.32100 40.57000
C  46.74200 45.34400 39.43200
C  50.34500 42.08800 40.07200
C  53.38600 45.58000 41.24700
C  49.82300 48.95800 40.51600
N  48.67500 43.94800 39.77300
C  47.33500 44.09800 39.45900
C  46.81200 42.74300 38.99800
C  47.80800 41.70200 39.69800
C  49.03200 42.61100 39.82600
C  47.35700 41.17700 41.08600
C  46.75500 42.68200 37.43300
C  45.40600 42.29100 36.80700
H  45.09800 42.86000 35.42000
N  51.63600 43.97800 40.79500
C  51.48800 42.66200 40.62800
C  52.76100 41.94900 40.82600
C  53.63400 42.91800 41.37400
C  52.94000 44.27100 41.17200
C  52.99100 40.45700 40.65000
C  55.01100 42.67000 41.96700
O  55.52200 41.56300 41.99400
C  55.76900 43.86800 42.67600
N  51.39000 47.00300 40.90400
C  52.75100 46.83400 41.26100
C  53.37800 48.31100 41.45400
C  52.27100 49.31400 41.03700
C  51.09300 48.39400 40.72900
C  53.96900 48.46700 42.86200
C  52.56400 50.23300 39.80200
C  52.47800 51.75200 40.11500
N  48.61900 46.88500 40.20500
C  48.65700 48.28800 40.19300
C  47.33100 48.77900 39.74400
C  46.45700 47.72500 39.62900
C  47.37300 46.56100 39.79900
C  46.98000 50.18400 39.74000
C  45.08500 47.23600 39.43900
O  44.01900 47.83900 39.47200
C  45.24600 45.65400 39.33800
C  44.45500 44.99900 40.40300
O  44.84900 44.68200 41.54600
O  43.12600 45.05400 40.01600
C  42.14700 44.95400 41.11700
H  50.44000 41.01200 39.91100
H  54.46100 45.70300 41.39100
H  49.72400 50.03900 40.40400
H  45.84200 42.47100 39.41300
H  48.05700 40.86300 39.04900
H  46.26800 41.20400 41.12800
H  47.77300 41.79000 41.88500
H  47.67100 40.13500 41.14700
H  47.49700 42.07500 36.91500
H  46.95300 43.71000 37.13100
H  44.61100 42.41100 37.54300
H  45.50900 41.21600 36.66000
H  53.96400 40.04500 40.91400
H  52.72400 40.18300 39.62900
H  52.30800 39.93600 41.32100
H  55.14000 44.38300 43.40200
H  56.11700 44.48900 41.85000
H  56.65400 43.43400 43.14000
H  54.21400 48.42100 40.76300
H  52.02000 49.93100 41.90000
H  54.08300 47.48200 43.31400
H  53.30200 49.08300 43.46600
H  54.88600 49.04500 42.75000
H  51.90700 49.95800 38.97600
H  53.61700 50.06700 39.57300
H  52.03900 52.19200 39.22000
H  53.46700 52.10100 40.41000
H  51.84200 52.09500 40.93200
H  46.94100 50.58400 40.75300
H  46.02500 50.30600 39.22700
H  47.72700 50.69100 39.13000
H  44.82800 45.37800 38.37000
H  41.10600 45.06500 40.81200
H  42.37400 45.74500 41.83100
H  42.23700 43.99900 41.63400
Mg -5.89900 25.17400 26.38400
C  -4.61100 26.64500 29.38700
C  -7.66500 23.08200 28.55800
C  -6.60700 23.49400 23.65400
C  -3.93400 27.42300 24.55800
N  -6.14000 24.96200 28.75800
C  -5.53200 25.69500 29.71400
C  -6.02500 25.28200 31.12000
C  -6.70200 23.94300 30.77100
C  -6.97800 24.00400 29.31600
C  -5.85900 22.65000 31.14300
C  -6.88900 26.40200 31.68600
C  -7.27700 26.51300 33.17600
H  -6.81000 25.52700 34.26400
N  -7.16200 23.62100 26.08700
C  -7.78900 22.86400 27.06100
C  -8.73200 21.95000 26.33200
C  -8.34700 21.96000 25.02900
C  -7.31600 23.04900 24.87400
C  -9.78200 21.00200 27.06200
C  -8.86200 21.12500 23.89900
O  -8.45500 21.33400 22.78900
C  -9.94000 20.07500 24.03700
N  -5.20100 25.30400 24.45600
C  -5.67800 24.47100 23.45900
C  -5.05000 24.89300 22.08700
C  -4.50300 26.26200 22.37600
C  -4.51300 26.32900 23.92400
C  -4.27700 23.72000 21.39300
C  -5.46100 27.37800 21.76200
C  -5.21100 27.81800 20.27600
N  -4.50300 26.75700 26.86400
C  -3.79100 27.56100 25.98200
C  -2.89000 28.45300 26.72700
C  -3.20400 28.17800 28.08200
C  -4.17100 27.11300 28.09300
C  -1.82500 29.44300 26.15500
C  -2.81700 28.48100 29.46800
O  -1.91300 29.20300 29.93800
C  -3.82400 27.64100 30.37500
C  -3.00900 26.97400 31.39900
O  -2.16400 26.09100 31.26700
O  -3.42400 27.42100 32.62100
C  -2.96700 26.78800 33.78700
H  -8.19000 22.28700 29.09200
H  -6.73000 22.84900 22.78200
H  -3.38700 28.19600 24.01500
H  -5.13400 25.14300 31.73200
H  -7.64400 23.82700 31.30600
H  -5.65000 22.13800 30.20400
H  -6.48300 22.13700 31.87500
H  -4.91800 22.87400 31.64400
H  -7.76200 26.33800 31.03700
H  -6.38100 27.34700 31.49200
H  -8.36100 26.45100 33.27000
H  -6.97000 27.51900 33.46200
H  -10.80100 21.29600 26.81000
H  -9.74500 21.08900 28.14800
H  -9.69800 19.94300 26.81900
H  -9.47300 19.37000 24.72500
H  -10.13700 19.52400 23.11800
H  -10.81500 20.59300 24.43100
H  -5.91400 24.99200 21.43000
H  -3.49700 26.36600 21.97000
H  -3.21300 23.95700 21.40300
H  -4.68800 23.45300 20.42000
H  -4.37800 22.85000 22.04100
H  -5.41000 28.31700 22.31300
H  -6.50000 27.05800 21.84900
H  -4.67400 27.01400 19.77200
H  -4.49700 28.63200 20.39500
H  -6.10400 28.03400 19.68900
H  -1.43600 28.86200 25.31900
H  -1.01800 29.63000 26.86400
H  -2.25000 30.39600 25.83900
H  -4.43700 28.40400 30.85400
H  -1.90400 27.02700 33.79300
H  -3.08400 25.70800 33.69500
H  -3.38300 27.18000 34.71500

