158

Mg 0.90900 8.27100 27.13800
C  1.65200 10.10400 30.19600
C  0.57900 5.58700 29.05500
C  0.55700 6.63200 24.29700
C  1.91700 11.12700 25.34100
N  1.41700 7.82100 29.38600
C  1.56000 8.72400 30.40900
C  1.26600 8.06700 31.76400
C  1.11000 6.56200 31.35400
C  0.96300 6.62700 29.84000
C  2.26600 5.70800 31.87100
C  -0.11700 8.56700 32.45100
C  -0.44100 8.27800 33.96000
H  0.50900 7.39800 34.77600
N  0.58300 6.36200 26.78500
C  0.40800 5.40500 27.64700
C  0.13300 4.17900 26.96600
C  0.12200 4.46400 25.58200
C  0.45300 5.93000 25.51000
C  -0.06100 2.88600 27.64800
C  -0.22400 3.53100 24.42400
O  -0.21400 3.83900 23.22100
C  -0.71600 2.18700 24.80200
N  1.27400 8.73700 25.06800
C  1.00700 7.91600 24.09000
C  1.48000 8.49500 22.79300
C  1.63000 9.98600 23.15200
C  1.57000 9.97600 24.62000
C  2.76600 7.83600 22.14300
C  0.68900 10.93500 22.31200
C  -0.80200 11.20100 22.61400
N  1.61200 10.22400 27.54900
C  1.96400 11.32700 26.75300
C  2.22600 12.50100 27.56300
C  2.13800 12.04200 28.86800
C  1.76000 10.66500 28.83200
C  2.43800 13.89400 27.03000
C  2.28100 12.44700 30.22100
O  2.72700 13.49300 30.63000
C  1.85100 11.26700 31.06700
C  2.83400 11.19500 32.24300
O  3.92100 10.68900 32.17200
O  2.26600 11.73300 33.36300
C  3.00400 11.55400 34.64800
H  0.29800 4.69200 29.61500
H  0.54600 6.00700 23.40100
H  2.22200 11.89400 24.62600
H  2.06800 8.33500 32.45200
H  0.18900 6.22500 31.83100
H  1.80100 4.98200 32.53800
H  2.99600 6.29800 32.42400
H  2.77000 5.21900 31.03700
H  -0.87700 8.01400 31.89900
H  -0.18800 9.63100 32.22300
H  -1.42200 7.80900 33.87700
H  -0.55900 9.20900 34.51600
H  -1.09000 2.54600 27.53500
H  -0.05900 2.91200 28.73800
H  0.64500 2.15400 27.25500
H  0.18100 1.62100 25.05600
H  -1.31300 1.68000 24.04300
H  -1.44900 2.06300 25.59900
H  0.68300 8.27900 22.08100
H  2.64100 10.33100 22.93600
H  3.58700 8.53300 22.31300
H  2.67300 7.73200 21.06200
H  3.03400 6.89200 22.61800
H  0.76500 10.52800 21.30400
H  1.22800 11.88200 22.29000
H  -1.39200 11.16600 21.69800
H  -0.84800 12.22000 22.99700
H  -1.30600 10.49000 23.26800
H  3.49600 14.15500 26.99100
H  1.87500 14.59300 27.64700
H  2.03500 14.03900 26.02800
H  0.90000 11.62100 31.46400
H  2.22900 11.31800 35.37800
H  3.46200 12.42900 35.10800
H  3.72300 10.73800 34.57300
Mg 0.84600 42.87400 25.12400
C  2.10400 43.09800 28.45000
C  -2.03100 41.69700 26.54600
C  -0.05400 42.14700 22.02200
C  4.09900 43.73800 23.92900
N  0.17100 42.44000 27.24300
C  0.81000 42.73400 28.45100
C  -0.08300 42.59400 29.69300
C  -1.29900 41.91100 29.02500
C  -1.08800 42.05000 27.50000
C  -1.48300 40.44000 29.43300
C  -0.37100 43.93600 30.42400
C  -1.56100 44.05400 31.45500
H  -2.18600 42.67400 31.80200
N  -0.97200 42.16100 24.33200
C  -2.03000 41.66600 25.06100
C  -2.91900 40.94700 24.13000
C  -2.44500 41.20600 22.79900
C  -1.12100 41.90900 23.00700
C  -4.21800 40.27200 24.53600
C  -3.03900 40.99100 21.45900
O  -2.49800 41.33100 20.43100
C  -4.36200 40.32200 21.34300
N  1.93500 42.82700 23.23900
C  1.28900 42.55200 22.14700
C  2.17700 42.53400 20.95300
C  3.34800 43.48200 21.47700
C  3.17500 43.27900 22.99400
C  2.57200 41.04600 20.51900
C  3.28800 44.89700 20.94500
C  3.03500 46.13600 21.85700
N  2.71300 43.31400 25.92500
C  3.86700 43.78800 25.30700
C  4.84700 44.08100 26.36600
C  4.23100 43.76000 27.53300
C  2.92000 43.31800 27.27800
C  6.21200 44.66900 26.14400
C  4.48000 43.72200 28.94100
O  5.47600 43.96600 29.59800
C  3.08300 43.38300 29.63600
C  3.25500 42.15200 30.42400
O  3.88000 41.14600 30.03900
O  2.60900 42.27800 31.65400
C  2.23700 41.00100 32.44900
H  -2.90000 41.30400 27.07700
H  -0.40500 41.80500 21.04600
H  5.00900 44.04400 23.40900
H  0.34400 41.80000 30.30700
H  -2.23500 42.40200 29.29000
H  -1.03900 39.89800 28.59800
H  -2.54700 40.22800 29.53400
H  -1.00900 40.16100 30.37400
H  -0.46600 44.76600 29.72400
H  0.55800 44.20200 30.92800
H  -2.41400 44.58600 31.03400
H  -1.31500 44.58400 32.37600
H  -4.83300 41.07500 24.12800
H  -4.31700 40.24400 25.62100
H  -4.43200 39.30600 24.07800
H  -5.15500 41.03500 21.56800
H  -4.42600 39.40100 21.92300
H  -4.43900 39.99200 20.30600
H  1.52200 42.82000 20.13000
H  4.33800 43.13500 21.18100
H  2.07100 40.37700 21.21900
H  3.61500 40.81100 20.73600
H  2.30800 40.86300 19.47800
H  2.49000 44.97700 20.20700
H  4.25500 45.06600 20.47200
H  2.43000 46.74700 21.18800
H  3.98800 46.64500 21.99900
H  2.65500 45.89500 22.85000
H  6.91500 43.91200 26.48900
H  6.30000 45.58300 26.73100
H  6.40000 44.82200 25.08100
H  2.82400 44.29200 30.17800
H  1.19000 41.11700 32.73000
H  2.91500 40.85300 33.29000
H  2.30600 40.11400 31.81800

