158

Mg 53.87300 24.24000 45.05500
C  51.28600 26.34900 43.89900
C  51.89500 21.44200 43.92000
C  56.57600 22.39100 45.21000
C  55.75100 27.13600 45.91000
N  51.81900 23.92500 44.09100
C  50.97500 24.92200 43.72500
C  49.76400 24.40700 43.08800
C  49.69900 22.96300 43.71500
C  51.22300 22.70200 43.87000
C  48.83200 22.76500 45.00500
C  49.89600 24.41600 41.57000
C  48.53400 24.60100 40.92300
H  48.25600 23.94700 39.59900
N  54.12000 22.08200 44.79700
C  53.24800 21.21000 44.26200
C  53.93400 19.91400 44.30800
C  55.24200 20.15800 44.88700
C  55.37500 21.60500 44.94700
C  53.31300 18.55700 43.82700
C  56.29500 19.12900 45.18400
O  55.97700 17.94800 45.13400
C  57.76500 19.30800 45.57900
N  55.93200 24.71400 45.17500
C  56.83600 23.77900 45.29200
C  58.26200 24.31200 45.54400
C  57.97300 25.68900 46.13400
C  56.44900 25.89500 45.78500
C  59.24700 23.32200 46.27900
C  58.99700 26.86700 45.71400
C  60.22400 27.00400 46.64000
N  53.60000 26.36500 44.96900
C  54.44100 27.37500 45.45500
C  53.70000 28.68100 45.32300
C  52.45100 28.37800 44.70300
C  52.48000 26.92200 44.53900
C  54.23900 30.06800 45.78400
C  51.11800 28.77700 44.25400
O  50.66800 29.88400 44.24200
C  50.36300 27.52700 43.58200
C  50.23700 27.73000 42.08700
O  51.18400 27.80400 41.27800
O  48.86300 27.80800 41.73900
C  48.49100 28.21700 40.37800
H  51.26400 20.65200 43.50900
H  57.49900 21.83200 45.37400
H  56.22400 28.06000 46.25000
H  48.88700 24.92000 43.48300
H  49.28300 22.27500 42.97900
H  48.45200 21.74900 44.89600
H  47.99500 23.46300 45.01600
H  49.33900 22.78400 45.97000
H  50.34100 23.48000 41.23300
H  50.55700 25.21600 41.23500
H  48.42300 25.65500 40.66400
H  47.69300 24.39100 41.58300
H  53.94300 17.99000 43.14100
H  52.33700 18.82300 43.42100
H  53.14200 17.85500 44.64300
H  58.29400 18.35400 45.57600
H  57.92000 19.84100 46.51700
H  58.25500 19.93900 44.83800
H  58.67300 24.53800 44.56000
H  58.02700 25.60500 47.21900
H  59.82100 23.86800 47.02900
H  59.97300 22.96900 45.54600
H  58.74100 22.54400 46.85000
H  58.42000 27.76100 45.95200
H  59.22400 26.91500 44.64900
H  60.32600 28.04400 46.94700
H  60.96000 26.74200 45.87900
H  60.27500 26.26700 47.44200
H  55.32300 30.01000 45.69200
H  54.05600 30.27100 46.84000
H  53.84100 30.85400 45.14300
H  49.40100 27.41800 44.08300
H  49.35100 28.35200 39.72200
H  47.95000 29.16300 40.38700
H  47.95000 27.44400 39.83100
Mg 48.73800 35.68000 27.30500
C  46.57200 34.24500 29.77500
C  48.90000 38.53300 29.31800
C  50.27400 37.15700 24.91800
C  47.93300 32.97000 25.23400
N  47.94400 36.19000 29.36800
C  47.11100 35.48300 30.18900
C  46.99100 36.31300 31.53000
C  47.53400 37.71900 31.24200
C  48.19300 37.47900 29.90700
C  46.51000 38.82500 31.21100
C  47.54800 35.54500 32.73600
C  46.59700 35.44100 33.90900
H  46.64000 36.61600 34.92900
N  49.60700 37.55600 27.16400
C  49.52800 38.60800 28.07300
C  50.17900 39.72100 27.53600
C  50.61600 39.34600 26.19100
C  50.15900 37.91600 26.02900
C  50.47100 40.99700 28.32800
C  51.33300 40.12400 25.10500
O  51.74200 39.69500 24.02600
C  51.61000 41.53100 25.30400
N  49.09500 35.11100 25.35100
C  49.86300 35.88600 24.56300
C  50.05500 35.23800 23.12500
C  49.53300 33.75700 23.43700
C  48.83000 33.90100 24.79200
C  49.21400 35.98500 22.10500
C  50.75000 32.75600 23.40300
C  51.27000 32.63000 21.98800
N  47.56700 33.97300 27.41000
C  47.29500 32.96100 26.45600
C  46.28200 32.05000 26.91600
C  45.94900 32.52700 28.21700
C  46.77600 33.66500 28.44800
C  45.77900 30.86300 26.14300
C  45.13200 32.29000 29.37200
O  44.30500 31.46100 29.67400
C  45.53100 33.34500 30.44300
C  46.09000 32.60100 31.51600
O  47.17400 32.08000 31.58400
O  45.18600 32.55400 32.50500
C  45.53900 32.01700 33.84300
H  48.95400 39.42700 29.94200
H  50.80800 37.60400 24.07700
H  47.70600 32.12800 24.57700
H  45.90600 36.29800 31.62500
H  48.32100 38.00600 31.93900
H  46.57000 39.40600 30.29100
H  46.88700 39.51700 31.96400
H  45.49700 38.55900 31.51100
H  48.37500 36.16600 33.07900
H  47.89200 34.55200 32.44800
H  46.80600 34.57600 34.53900
H  45.55900 35.34400 33.59300
H  50.22200 40.86100 29.38000
H  50.01400 41.85300 27.83300
H  51.53200 41.17200 28.14900
H  52.04900 42.03100 24.44000
H  52.37800 41.69700 26.05800
H  50.77500 42.18500 25.55600
H  51.08800 35.21800 22.77900
H  48.82700 33.36100 22.70700
H  49.62700 36.10600 21.10400
H  49.10700 36.96600 22.56800
H  48.28700 35.42100 21.99700
H  50.40600 31.77900 23.74300
H  51.58000 33.02200 24.05700
H  50.70400 33.16100 21.22200
H  51.15700 31.60800 21.62700
H  52.30900 32.95800 21.95100
H  44.82300 30.41400 26.41100
H  46.46600 30.01700 26.15700
H  45.68600 31.09400 25.08100
H  44.56900 33.78400 30.70800
H  45.72100 32.73000 34.64700
H  46.41000 31.36400 33.78200
H  44.62800 31.52700 34.18800

