158

Mg -0.06900 43.36600 26.94300
C  2.03100 43.50400 29.78400
C  -2.73500 43.07600 29.06300
C  -1.91800 42.37700 24.33100
C  2.75800 43.58000 24.94100
N  -0.27400 43.41700 29.18000
C  0.72100 43.49400 30.15800
C  0.09200 43.47800 31.52900
C  -1.45600 43.25300 31.28200
C  -1.53000 43.30000 29.78300
C  -1.96900 42.01100 31.89800
C  0.39300 44.89000 32.20700
C  0.66200 44.92800 33.71100
H  0.08400 43.73200 34.46000
N  -2.08700 42.93900 26.67300
C  -3.01100 42.89700 27.72200
C  -4.28600 42.50600 27.18200
C  -4.05000 42.33900 25.75900
C  -2.63100 42.51300 25.51800
C  -5.49400 42.32900 28.06800
C  -5.05100 41.91900 24.62000
O  -4.82200 41.73100 23.41700
C  -6.47700 41.88500 25.06000
N  0.37900 43.08700 24.96600
C  -0.53600 42.62700 24.08600
C  0.06000 42.34500 22.67100
C  1.45500 43.18900 22.82600
C  1.54900 43.25400 24.34100
C  0.10900 40.76200 22.54700
C  1.46800 44.53200 22.05300
C  2.38400 44.63500 20.83000
N  1.96500 43.50400 27.24500
C  2.98500 43.65700 26.34600
C  4.24400 43.80000 27.01000
C  3.89400 43.79400 28.36100
C  2.49900 43.58000 28.48100
C  5.57800 44.02200 26.18800
C  4.37000 43.97200 29.66000
O  5.55200 44.15600 29.99400
C  3.23200 43.72400 30.64900
C  3.42700 42.50300 31.44800
O  2.95000 41.40400 31.23400
O  4.28200 42.77900 32.47800
C  4.62800 41.85500 33.53500
H  -3.52000 42.94500 29.81100
H  -2.56600 42.03000 23.52300
H  3.64700 43.62800 24.31000
H  0.48500 42.65700 32.12900
H  -2.07900 44.06200 31.66300
H  -2.79600 41.68500 31.26600
H  -2.43100 42.28100 32.84800
H  -1.26200 41.19800 32.06100
H  -0.47900 45.53100 32.08200
H  1.20600 45.38800 31.67900
H  0.27900 45.87600 34.09100
H  1.74700 44.90500 33.81600
H  -5.91200 43.33000 28.16900
H  -5.29300 41.90300 29.05100
H  -6.23700 41.72300 27.54800
H  -6.72600 41.00900 25.66000
H  -6.98100 41.87600 24.09300
H  -6.88100 42.74300 25.59700
H  -0.56200 42.70700 21.85200
H  2.26700 42.62000 22.37400
H  -0.80100 40.50400 22.00600
H  0.08300 40.39900 23.57500
H  1.02800 40.52800 22.01100
H  1.68800 45.38800 22.69100
H  0.45400 44.70100 21.69000
H  2.90800 45.59000 20.85400
H  1.73600 44.69000 19.95500
H  3.08800 43.81200 20.95000
H  5.50400 44.85800 25.49300
H  5.69200 43.10100 25.61700
H  6.46600 44.23100 26.78500
H  3.16200 44.59500 31.30200
H  5.20100 41.04800 33.07600
H  3.73300 41.56700 34.08600
H  5.29600 42.40200 34.19900
Mg -10.91000 18.18300 40.91000
C  -7.37200 17.45800 40.82200
C  -10.07500 21.47600 40.29100
C  -14.02200 18.74400 40.27500
C  -11.49300 14.67400 40.63800
N  -8.94500 19.31800 40.40500
C  -7.61100 18.79700 40.52500
C  -6.53100 19.94100 40.22400
C  -7.44100 21.22100 40.54400
C  -8.91900 20.66700 40.43400
C  -6.97500 21.88700 41.89000
C  -6.19400 19.86900 38.65900
C  -4.79900 19.32500 38.20200
H  -4.77600 18.06500 37.20100
N  -11.97900 19.88500 40.42800
C  -11.45900 21.11200 40.17900
C  -12.49400 22.03000 39.90900
C  -13.67300 21.28600 39.81100
C  -13.28300 19.91800 40.11700
C  -12.26900 23.54000 39.80000
C  -15.06000 21.87100 39.47800
O  -15.26300 23.10600 39.38000
C  -16.25800 21.01300 39.17800
N  -12.47500 16.90700 40.26300
C  -13.72300 17.40400 40.36900
C  -14.74900 16.30900 40.37500
C  -14.00700 14.94800 40.17500
C  -12.56700 15.50300 40.36800
C  -15.63100 16.22400 41.60400
C  -14.29400 14.04100 38.91700
C  -13.34500 14.12200 37.67600
N  -9.77500 16.44100 40.92700
C  -10.15000 15.11000 40.78200
C  -9.00700 14.21500 41.00800
C  -7.90100 15.06500 40.98100
C  -8.42200 16.43900 40.95500
C  -8.89200 12.73800 41.01400
C  -6.49900 15.14900 40.92300
O  -5.64600 14.29400 40.84700
C  -6.08900 16.68600 40.95100
C  -5.28600 16.94300 42.25600
O  -4.08500 17.29500 42.23400
O  -5.98000 16.56800 43.37000
C  -5.11000 16.64000 44.59100
H  -9.76300 22.50500 40.10100
H  -15.09200 18.87600 40.10200
H  -11.82000 13.63200 40.64800
H  -5.67800 19.90200 40.90100
H  -7.36500 22.00000 39.78500
H  -7.81500 21.85600 42.58400
H  -6.66400 22.91200 41.69000
H  -6.04800 21.45000 42.26200
H  -6.20900 20.84800 38.18000
H  -6.89400 19.25700 38.09100
H  -4.30500 19.06300 39.13700
H  -4.15000 20.12300 37.84100
H  -12.02000 23.79000 40.83100
H  -13.22900 24.02500 39.62300
H  -11.52100 23.83200 39.06200
H  -15.98200 20.23000 38.47200
H  -17.15800 21.58100 38.94200
H  -16.58500 20.47600 40.06900
H  -15.45700 16.58800 39.59400
H  -14.19700 14.25900 40.99900
H  -15.19100 16.90800 42.33000
H  -15.77900 15.20700 41.96600
H  -16.63500 16.59500 41.39500
H  -15.34100 14.26200 38.70900
H  -14.40900 12.99800 39.21400
H  -13.74700 14.65900 36.81600
H  -13.22800 13.09400 37.33300
H  -12.36500 14.50000 37.96700
H  -8.37400 12.48200 40.09000
H  -9.84500 12.21000 40.99500
H  -8.32200 12.39100 41.87600
H  -5.34500 17.01600 40.22600
H  -5.31900 15.68200 45.06800
H  -5.57000 17.44100 45.17000
H  -4.07400 16.94100 44.43900

