158

Mg -1.30600 33.88900 25.99000
C  -3.18700 32.15900 28.61300
C  0.01400 35.99500 28.24900
C  -0.08600 35.48300 23.50600
C  -3.12600 31.86600 23.74300
N  -1.69800 34.06500 28.10200
C  -2.40600 33.27100 29.00700
C  -2.06800 33.71300 30.43600
C  -1.16900 35.01000 30.24000
C  -0.86800 34.99700 28.79700
C  -1.92900 36.30700 30.79700
C  -1.36700 32.54100 31.26300
C  -2.01400 32.29800 32.70700
H  -1.10900 32.25300 33.99800
N  -0.16600 35.54300 25.83500
C  0.29300 36.33400 26.85100
C  1.21800 37.28300 26.39400
C  1.21300 37.12500 25.02100
C  0.29400 36.07000 24.72600
C  2.07400 38.16300 27.32000
C  2.14100 37.89200 24.03200
O  2.11900 37.76600 22.78400
C  3.13000 38.88900 24.51400
N  -1.81300 33.91800 23.80600
C  -1.00800 34.57100 22.99900
C  -1.05600 34.08300 21.57400
C  -1.67100 32.67700 21.73600
C  -2.27400 32.79500 23.17000
C  -1.66100 34.87000 20.48000
C  -0.60500 31.52100 21.62500
C  -1.15800 30.35000 20.80100
N  -2.82300 32.32900 26.09500
C  -3.47100 31.62300 25.07600
C  -4.42100 30.67000 25.60600
C  -4.21100 30.79500 26.99700
C  -3.35800 31.85100 27.23100
C  -5.32300 29.76400 24.84300
C  -4.67000 30.25300 28.25600
O  -5.39300 29.28300 28.44400
C  -4.03600 31.13500 29.32200
C  -5.20600 31.73800 30.02400
O  -5.74600 32.78100 29.75200
O  -5.38700 31.08200 31.21200
C  -6.20300 31.80600 32.19300
H  0.54600 36.59700 28.98900
H  0.28900 36.04800 22.65000
H  -3.68700 31.23100 23.05400
H  -3.07100 33.75600 30.86000
H  -0.25700 34.91300 30.83000
H  -1.40700 36.84400 31.58900
H  -2.87000 35.87300 31.13500
H  -2.14700 36.93900 29.93700
H  -0.35000 32.78700 31.56700
H  -1.45900 31.70300 30.57200
H  -2.64900 31.41300 32.76000
H  -2.74600 33.10200 32.78400
H  1.86300 38.09100 28.38700
H  2.04300 39.22200 27.06800
H  3.12200 37.90000 27.17800
H  2.57200 39.63600 25.07800
H  3.80200 39.38300 23.81100
H  3.84400 38.47100 25.22400
H  0.00900 34.04800 21.34500
H  -2.49900 32.43800 21.06900
H  -2.63100 34.52400 20.12300
H  -0.96000 34.97000 19.65100
H  -1.83900 35.83000 20.96400
H  -0.31500 31.17000 22.61500
H  0.26400 32.00800 21.18100
H  -0.47700 30.36200 19.95000
H  -2.13900 30.39200 20.32700
H  -1.12700 29.36500 21.26800
H  -6.20600 29.51200 25.43100
H  -4.78200 28.89000 24.48000
H  -5.62400 30.40000 24.01000
H  -3.52400 30.49300 30.03800
H  -5.55500 32.41000 32.83000
H  -6.75100 31.15600 32.87500
H  -6.78800 32.58200 31.70000
Mg -5.41700 24.57900 25.75400
C  -3.68900 26.20200 28.39200
C  -7.12100 22.70800 28.01200
C  -6.67600 22.98000 23.04600
C  -3.34500 26.41700 23.49700
N  -5.43900 24.44000 27.89000
C  -4.74200 25.34600 28.78300
C  -5.27700 25.18000 30.17800
C  -6.02900 23.76200 30.13400
C  -6.25100 23.62200 28.59400
C  -5.18200 22.55400 30.76200
C  -6.08400 26.44200 30.66500
C  -6.02300 26.82800 32.18400
H  -5.22000 25.84000 33.06100
N  -6.73600 23.04300 25.53900
C  -7.41600 22.42600 26.58100
C  -8.37100 21.51800 25.96900
C  -8.35700 21.66700 24.53200
C  -7.26700 22.64900 24.31000
C  -9.29300 20.86800 26.87900
C  -9.12000 20.80300 23.42200
O  -9.04700 21.04300 22.23400
C  -9.94500 19.75600 23.84500
N  -4.88100 24.51000 23.58000
C  -5.61800 23.81500 22.69400
C  -5.23500 24.09100 21.25300
C  -4.19300 25.29800 21.37900
C  -4.07100 25.40000 22.92500
C  -4.68300 22.74000 20.64700
C  -4.67000 26.58000 20.53300
C  -3.76600 27.27900 19.44800
N  -3.93100 26.03400 25.85400
C  -3.20400 26.72600 24.86400
C  -2.31100 27.67700 25.45500
C  -2.46100 27.49600 26.85100
C  -3.39700 26.44700 27.03800
C  -1.32000 28.67200 24.82800
C  -1.92700 27.91500 28.14500
O  -1.08300 28.78300 28.42400
C  -2.75900 27.03900 29.21700
C  -1.89400 26.27900 30.04200
O  -1.26700 25.28100 29.75500
O  -1.67500 26.89100 31.25900
C  -0.65500 26.34500 32.24600
H  -7.53200 22.06700 28.79400
H  -7.18400 22.47600 22.22100
H  -2.79000 26.94900 22.72200
H  -4.45800 24.96100 30.86300
H  -7.01600 23.73300 30.59500
H  -4.75700 21.87900 30.02000
H  -5.75500 21.83100 31.34300
H  -4.42900 22.91300 31.46400
H  -7.12700 26.36700 30.35700
H  -5.76000 27.33200 30.12600
H  -7.00800 26.99800 32.61900
H  -5.38400 27.70800 32.26100
H  -9.05400 19.80900 26.78600
H  -10.28300 21.00700 26.44400
H  -9.27300 21.10900 27.94200
H  -10.35700 19.04200 23.13200
H  -10.84100 20.12900 24.34300
H  -9.36300 19.30400 24.64800
H  -6.11700 24.45900 20.73000
H  -3.21100 25.06500 20.96800
H  -3.59400 22.75500 20.69200
H  -4.91200 22.73100 19.58100
H  -5.09600 21.93700 21.25700
H  -4.75400 27.43100 21.21000
H  -5.62300 26.37700 20.04500
H  -3.43700 28.23400 19.85800
H  -4.33900 27.40900 18.53000
H  -2.90200 26.63900 19.27300
H  -1.75400 29.27400 24.03000
H  -0.40100 28.26300 24.40900
H  -0.96600 29.36600 25.59000
H  -3.27800 27.72300 29.88900
H  -0.99000 25.43200 32.73800
H  -0.60900 27.13500 32.99500
H  0.26300 26.05300 31.73500

