158

Mg 26.02900 0.89100 28.80800
C  27.77100 0.85600 31.85400
C  23.03900 1.11300 30.68000
C  24.32200 0.80900 25.90100
C  28.96300 0.00100 27.19900
N  25.50400 1.15600 31.03900
C  26.38700 1.09500 32.06400
C  25.61000 1.19000 33.40900
C  24.09000 1.26600 33.02900
C  24.21500 1.27700 31.48600
C  23.27600 0.02400 33.61000
C  26.06200 2.55000 34.25100
C  26.86500 2.25700 35.55800
H  26.72900 3.21300 36.73400
N  24.02200 0.99000 28.33800
C  22.96900 1.08000 29.25300
C  21.75300 0.98000 28.54100
C  22.05000 0.94800 27.18800
C  23.51600 0.89700 27.07300
C  20.40900 1.00300 29.25400
C  21.01300 0.72900 26.06100
O  21.36900 0.67900 24.92000
C  19.54300 0.61600 26.28900
N  26.61700 0.50700 26.84900
C  25.73200 0.74000 25.82000
C  26.51800 0.77500 24.50100
C  28.01600 0.69800 24.96800
C  27.85500 0.35900 26.43200
C  26.11200 -0.42700 23.62600
C  28.75300 2.06300 24.68800
C  30.21400 1.86200 24.33600
N  28.00800 0.46000 29.33700
C  29.03700 -0.00700 28.60900
C  30.20100 -0.20400 29.45100
C  29.73500 0.02400 30.73000
C  28.36800 0.50900 30.60300
C  31.58900 -0.72100 28.94700
C  30.14700 0.17200 32.11100
O  31.23600 -0.08800 32.57600
C  28.93300 0.63400 32.90000
C  28.58300 -0.22900 34.06900
O  27.84100 -1.20000 34.06300
O  29.34400 0.07900 35.15900
C  29.11800 -0.83200 36.29900
H  22.12800 1.08700 31.28200
H  23.77800 0.91100 24.96000
H  29.90000 -0.25500 26.70100
H  25.78300 0.29000 33.99900
H  23.74900 2.23300 33.39900
H  23.83200 -0.59900 34.31100
H  22.90700 -0.65300 32.83900
H  22.43300 0.41600 34.17800
H  25.26400 3.26000 34.46700
H  26.66300 2.96100 33.43900
H  27.93600 2.38100 35.39900
H  26.69300 1.23800 35.90300
H  19.84200 1.84600 28.85800
H  20.36700 1.12600 30.33600
H  19.86700 0.07600 29.06600
H  19.26200 -0.28300 26.83800
H  19.11100 0.33300 25.32900
H  19.19400 1.61800 26.53900
H  26.34600 1.73300 24.01200
H  28.56000 -0.11900 24.49400
H  25.56900 -0.01500 22.77500
H  25.57000 -1.25600 24.08000
H  26.99200 -0.96000 23.26700
H  28.64400 2.75100 25.52600
H  28.35400 2.56700 23.80700
H  30.83300 2.29900 25.12000
H  30.42100 2.28800 23.35400
H  30.42100 0.80100 24.19600
H  32.16900 0.12600 28.58300
H  31.42600 -1.36300 28.08100
H  32.06800 -1.29000 29.74400
H  29.34900 1.56700 33.28000
H  28.22100 -0.67000 36.89700
H  29.87800 -0.68900 37.06700
H  29.19400 -1.87700 35.99800
Mg 53.77700 23.94500 45.45000
C  51.22200 26.08400 44.28700
C  52.45500 21.39800 43.90400
C  56.59200 22.20000 45.88400
C  55.41900 26.96400 46.59600
N  52.19300 23.81300 44.07500
C  51.22900 24.76400 43.74900
C  50.11500 24.17000 42.85900
C  50.46400 22.65300 43.02100
C  51.83800 22.60800 43.69700
C  49.27300 21.75700 43.58100
C  50.30700 24.68700 41.37700
C  49.00400 25.02700 40.67000
H  49.05200 25.69800 39.33700
N  54.45400 21.99600 45.03200
C  53.71200 21.04800 44.44300
C  54.42800 19.71600 44.27800
C  55.59400 19.96500 45.05800
C  55.59000 21.42800 45.36200
C  53.89200 18.52200 43.60000
C  56.57300 18.90500 45.50700
O  56.42300 17.80500 45.05500
C  57.66900 19.21100 46.47700
N  55.71000 24.56000 46.12200
C  56.63400 23.58000 46.16800
C  57.83500 24.12300 46.89600
C  57.70400 25.74700 46.82100
C  56.20200 25.77400 46.50500
C  58.04500 23.55700 48.34300
C  58.68700 26.45700 45.79100
C  59.34700 27.75300 46.31400
N  53.35100 26.10900 45.51900
C  54.13200 27.12000 46.13200
C  53.24800 28.32300 46.29400
C  52.06800 27.99100 45.60700
C  52.23500 26.62700 45.10000
C  53.56400 29.51700 47.12500
C  50.74500 28.36100 45.17200
O  50.03300 29.31400 45.39300
C  50.10600 27.09000 44.36300
C  49.52500 27.70300 43.13300
O  50.22300 28.04700 42.20900
O  48.14600 27.78400 43.07100
C  47.49000 28.26200 41.88000
H  51.89600 20.59600 43.41800
H  57.51800 21.65400 46.07300
H  55.85100 27.85700 47.05200
H  49.07200 24.31100 43.14400
H  50.54800 22.15700 42.05400
H  49.36000 21.41000 44.61100
H  49.09500 20.91400 42.91300
H  48.37200 22.37100 43.59600
H  50.77400 23.92900 40.74800
H  50.98000 25.54200 41.31000
H  48.39900 25.68400 41.29600
H  48.50200 24.07400 40.50400
H  53.04400 18.84700 42.99700
H  53.64900 17.76200 44.34200
H  54.71400 18.14900 42.98900
H  57.20100 19.72800 47.31500
H  58.36100 19.90900 46.00600
H  58.20600 18.34600 46.86700
H  58.71900 23.85900 46.31600
H  57.67100 26.19700 47.81300
H  57.88800 24.28700 49.13700
H  59.07800 23.22200 48.44300
H  57.46300 22.66500 48.57200
H  58.22700 26.71800 44.83800
H  59.54600 25.82000 45.57600
H  59.00600 28.38000 45.48900
H  60.43400 27.83500 46.30800
H  58.92800 28.09000 47.26200
H  54.22000 29.34400 47.97800
H  52.65000 29.89500 47.58400
H  53.98500 30.30700 46.50300
H  49.39200 26.64500 45.05500
H  46.96900 29.17400 42.16900
H  46.72700 27.53300 41.60500
H  48.08000 28.48700 40.99200

