158

Mg 1.42100 -1.87000 44.36100
C  4.54000 -0.80600 43.60500
C  0.13700 0.72600 42.34900
C  -1.73900 -3.33000 44.42600
C  2.77000 -4.77900 45.82300
N  2.33100 -0.21900 43.15500
C  3.59400 0.03400 42.99800
C  3.82900 1.25400 42.11500
C  2.39800 1.88000 42.02000
C  1.52900 0.72000 42.47900
C  2.13300 3.26800 42.65200
C  4.50700 0.95000 40.71900
C  5.72200 1.77500 40.38300
H  5.91000 2.27000 38.89800
N  -0.53800 -1.23900 43.65100
C  -0.82400 -0.14800 42.89500
C  -2.25700 -0.05400 42.72600
C  -2.83200 -1.15300 43.49600
C  -1.71900 -2.00300 43.91600
C  -2.86800 1.11700 41.83600
C  -4.34600 -1.40100 43.59700
O  -5.14100 -0.61800 43.10000
C  -4.90700 -2.57600 44.27100
N  0.61400 -3.82400 45.13300
C  -0.68500 -4.16100 44.97300
C  -0.93400 -5.61300 45.52200
C  0.52600 -6.10300 45.79800
C  1.35600 -4.88300 45.57100
C  -1.92400 -5.77800 46.67000
C  0.96300 -7.34000 44.93800
C  1.19800 -8.64400 45.64400
N  3.26800 -2.56600 44.91300
C  3.66000 -3.72100 45.56000
C  5.09300 -3.77400 45.58800
C  5.54700 -2.67100 44.83200
C  4.34400 -1.95900 44.43300
C  5.99800 -4.91500 46.01700
C  6.63300 -1.97500 44.20500
O  7.84200 -2.11700 44.18100
C  6.01300 -0.64700 43.56400
C  6.55100 0.57800 44.25400
O  6.29500 1.00300 45.37100
O  7.42100 1.15900 43.42200
C  8.12500 2.33600 43.92700
H  -0.01900 1.67300 41.82900
H  -2.69300 -3.86200 44.42300
H  3.25300 -5.68400 46.19600
H  4.53700 1.82900 42.71200
H  2.18900 2.02000 40.95900
H  3.00800 3.69000 43.14700
H  1.27900 3.23200 43.32800
H  1.92200 3.93800 41.81900
H  3.89600 1.16500 39.84200
H  4.71700 -0.11700 40.64300
H  6.58100 1.12300 40.54300
H  5.72100 2.65300 41.02900
H  -3.35200 0.78000 40.91900
H  -2.12600 1.80900 41.43600
H  -3.66300 1.68600 42.31500
H  -4.98600 -3.43200 43.60000
H  -5.83300 -2.24200 44.73900
H  -4.34400 -2.85700 45.16100
H  -1.34900 -6.13000 44.65700
H  0.52800 -6.48800 46.81800
H  -2.48700 -4.85200 46.78000
H  -1.34700 -5.83100 47.59400
H  -2.60300 -6.62700 46.58500
H  1.92700 -7.12700 44.47700
H  0.22000 -7.51000 44.16000
H  2.25400 -8.91300 45.68100
H  0.76000 -9.33400 44.92200
H  0.68500 -8.66400 46.60500
H  6.26400 -5.41800 45.08700
H  5.34300 -5.60900 46.54500
H  6.89000 -4.49800 46.48400
H  6.41800 -0.65500 42.55200
H  7.42700 3.16700 44.03200
H  8.83200 2.72600 43.19500
H  8.62700 2.18000 44.88200
Mg 26.83700 49.23300 26.60400
C  24.83100 50.57500 29.22300
C  29.17800 48.38300 28.97000
C  28.81700 48.49800 24.00900
C  24.46800 50.33000 24.36400
N  26.91100 49.47100 28.89900
C  25.93900 49.95500 29.72100
C  26.26000 49.57500 31.19800
C  27.67500 48.94600 31.05800
C  27.94000 48.85900 29.54200
C  28.90200 49.65900 31.76500
C  25.22000 48.59800 31.77000
C  24.70400 48.78800 33.17200
H  25.47400 49.64200 34.12800
N  28.75400 48.63000 26.54000
C  29.55600 48.25600 27.59600
C  30.83400 47.75100 27.13400
C  30.73200 47.81500 25.72700
C  29.39500 48.35400 25.37600
C  31.97900 47.19400 28.01200
C  31.74200 47.51900 24.71300
O  31.67000 47.74400 23.52500
C  33.04300 46.84200 25.09700
N  26.60200 49.33600 24.47900
C  27.53600 48.87400 23.62800
C  27.02400 48.91800 22.20200
C  25.47900 49.28800 22.42600
C  25.50600 49.67300 23.84000
C  27.74000 49.97200 21.31000
C  24.44500 48.25500 22.04600
C  23.16900 48.80800 21.41200
N  25.13600 50.45700 26.70800
C  24.30800 50.82600 25.67900
C  23.19000 51.56800 26.18800
C  23.34600 51.48800 27.61600
C  24.55700 50.85400 27.85000
C  21.95000 52.15000 25.38200
C  22.75600 51.87900 28.88700
O  21.66500 52.38200 29.21400
C  23.73500 51.23100 29.98500
C  24.22600 52.25100 30.95800
O  25.04800 53.09300 30.78400
O  23.38500 52.28700 32.05200
C  23.66800 53.26400 33.11200
H  29.88200 47.97500 29.69900
H  29.40900 47.99800 23.24000
H  23.55600 50.44000 23.77300
H  26.25600 50.48500 31.79800
H  27.52000 47.96600 31.51000
H  29.29800 49.12300 32.62800
H  28.53900 50.60800 32.15900
H  29.65000 49.92800 31.01900
H  25.40700 47.53500 31.61900
H  24.34300 48.72600 31.13600
H  24.30700 47.84900 33.55800
H  23.78600 49.37500 33.15500
H  32.26000 46.22900 27.59200
H  31.60600 47.11300 29.03400
H  32.81400 47.88600 27.90400
H  33.56200 47.57800 25.71100
H  33.64400 46.72800 24.19500
H  32.81400 45.85900 25.50800
H  27.19200 47.92900 21.77600
H  25.24100 50.22000 21.91300
H  27.06700 50.76500 20.98500
H  28.20300 49.41900 20.49300
H  28.55800 50.45300 21.84600
H  24.26400 47.62800 22.91900
H  24.97100 47.59500 21.35500
H  22.28500 48.76500 22.04800
H  22.94500 48.20500 20.53200
H  23.30300 49.84600 21.10600
H  22.27800 52.64400 24.46700
H  21.35100 52.79100 26.02900
H  21.24400 51.41400 24.99800
H  23.20600 50.59800 30.69800
H  22.65100 53.54500 33.38800
H  24.28300 54.10300 32.78500
H  24.09100 52.78800 33.99700

