158

Mg -1.60500 17.78300 27.48400
C  -1.84900 15.75400 30.33000
C  -1.93600 20.53800 29.64900
C  -1.95100 19.79200 24.81100
C  -1.71700 14.89100 25.50200
N  -1.78000 18.14100 29.79800
C  -1.80400 17.09000 30.67100
C  -1.93000 17.70700 32.07900
C  -1.95100 19.26000 31.85000
C  -1.77000 19.33900 30.32600
C  -3.19700 19.89600 32.51500
C  -0.85400 17.21100 33.12300
C  -0.17600 18.20500 34.07800
H  0.05700 17.66900 35.53600
N  -1.86800 19.87100 27.24800
C  -1.97200 20.82700 28.24900
C  -1.98000 22.12700 27.59300
C  -2.18100 21.93800 26.14900
C  -1.99400 20.45500 26.05800
C  -2.02200 23.45300 28.34800
C  -2.41500 22.93500 24.99000
O  -2.51000 22.58000 23.78500
C  -2.35100 24.46400 25.33200
N  -1.69600 17.40100 25.44400
C  -1.89500 18.36500 24.57400
C  -1.77600 17.76600 23.13800
C  -1.61100 16.23600 23.34700
C  -1.75100 16.14800 24.91500
C  -2.89400 18.21100 22.11400
C  -0.39500 15.55200 22.58700
C  0.99700 16.23100 22.84600
N  -1.84200 15.76800 27.83800
C  -1.84600 14.68200 26.94000
C  -2.00400 13.43700 27.61200
C  -2.01300 13.78900 28.96100
C  -1.83200 15.22000 29.02200
C  -2.04900 12.05600 27.02000
C  -2.26500 13.35700 30.39300
O  -2.44100 12.26600 30.84900
C  -1.91900 14.55500 31.26700
C  -0.61300 14.20100 31.95200
O  0.42000 13.87000 31.42900
O  -0.84100 14.02700 33.31200
C  0.27900 13.45700 34.13600
H  -1.95300 21.39900 30.32000
H  -2.07100 20.31100 23.85700
H  -1.65000 14.08200 24.77200
H  -2.83400 17.26500 32.49800
H  -1.07500 19.75100 32.27300
H  -3.73600 20.36700 31.69300
H  -2.78200 20.55300 33.27900
H  -3.77700 19.12400 33.02300
H  -0.03200 16.69100 32.63100
H  -1.22300 16.44300 33.80300
H  -0.71200 19.15300 34.13400
H  0.84800 18.28900 33.71400
H  -1.61400 23.28300 29.34400
H  -3.03800 23.84000 28.42900
H  -1.39800 24.18000 27.82800
H  -2.57000 25.06400 24.44800
H  -1.34400 24.68300 25.68800
H  -3.08600 24.86400 26.03000
H  -0.84100 18.21800 22.80800
H  -2.54900 15.86200 22.93800
H  -2.38800 18.68800 21.27400
H  -3.67000 18.82200 22.57400
H  -3.49800 17.43300 21.64600
H  -0.63500 15.77400 21.54700
H  -0.47500 14.46900 22.68500
H  0.89000 17.21600 23.30000
H  1.63700 16.21700 21.96300
H  1.50400 15.60900 23.58400
H  -1.16400 12.07200 26.38400
H  -2.98000 11.95100 26.46200
H  -1.77000 11.30500 27.75800
H  -2.60200 14.69900 32.10400
H  1.26400 13.69900 33.73700
H  0.05400 12.39000 34.15600
H  0.23700 13.81200 35.16600
Mg 40.43600 8.87600 28.90200
C  42.33100 10.01700 31.70100
C  38.62600 7.12100 31.22600
C  38.91700 7.44200 26.43400
C  42.97800 9.97100 26.81900
N  40.51500 8.58500 31.17100
C  41.29700 9.23600 32.13000
C  40.90100 8.93000 33.56800
C  39.85100 7.75300 33.31000
C  39.68400 7.77800 31.82800
C  40.36600 6.39500 33.82600
C  40.29900 10.14000 34.22600
C  39.58600 9.90600 35.55600
H  39.97900 10.70700 36.71300
N  38.84200 7.55900 28.77900
C  38.22600 6.95700 29.85900
C  37.07500 6.22400 29.38700
C  37.08100 6.44000 27.92400
C  38.28700 7.21400 27.68300
C  36.05800 5.49400 30.21200
C  36.07000 6.02600 26.91300
O  36.08700 6.44800 25.76500
C  35.05100 5.07000 27.34000
N  40.90500 8.65200 26.92700
C  40.16200 8.00500 26.11200
C  40.62300 8.11300 24.59600
C  41.82500 9.01700 24.69800
C  41.92600 9.25600 26.24400
C  40.87600 6.68400 23.93900
C  41.70100 10.38600 23.88100
C  41.03600 11.70300 24.54000
N  42.26100 9.77100 29.13800
C  43.15100 10.16300 28.19000
C  44.27400 10.87900 28.82700
C  43.95600 10.92900 30.20900
C  42.81100 10.13700 30.35800
C  45.43000 11.56000 28.17300
C  44.30600 11.42800 31.54800
O  45.28400 12.05400 31.85700
C  43.29000 10.81400 32.58300
C  44.01400 10.09900 33.53000
O  44.66100 9.08000 33.31600
O  43.92500 10.70400 34.74700
C  44.34600 9.88900 35.89000
H  38.05700 6.56800 31.97500
H  38.44600 6.94600 25.58300
H  43.71600 10.41900 26.15100
H  41.74200 8.63000 34.19300
H  38.92200 7.89700 33.86200
H  40.80100 5.73400 33.07600
H  39.59500 5.88000 34.39900
H  41.13800 6.51800 34.58500
H  39.65700 10.68100 33.53100
H  41.13700 10.81600 34.39400
H  39.71600 8.85800 35.82900
H  38.53300 10.14200 35.40400
H  35.04900 5.75600 29.89300
H  36.10300 5.87000 31.23500
H  36.20100 4.41400 30.18500
H  34.31500 5.42700 28.06000
H  35.52800 4.19600 27.78400
H  34.67900 4.74200 26.36900
H  39.84500 8.54900 23.96900
H  42.76600 8.63500 24.30300
H  40.89900 5.85200 24.64300
H  41.75300 6.78500 23.30100
H  40.02200 6.46600 23.29700
H  41.18000 10.12100 22.96200
H  42.71900 10.65800 23.60100
H  40.52400 11.47400 25.47400
H  40.29000 12.05200 23.82600
H  41.73700 12.53800 24.58000
H  46.33600 11.06600 28.52500
H  45.53400 12.63100 28.35000
H  45.31900 11.46600 27.09300
H  42.61100 11.55700 33.00200
H  43.57500 9.73300 36.64400
H  45.12500 10.48600 36.36400
H  44.82700 8.92600 35.72100

