158

Mg 35.65600 2.18900 30.10400
C  32.95000 3.09600 32.24000
C  37.81800 2.59200 32.84700
C  38.15500 1.73400 28.01200
C  33.31800 2.22500 27.54400
N  35.42100 2.91100 32.34900
C  34.18500 2.95000 32.97800
C  34.44300 3.08200 34.51800
C  36.01400 3.42100 34.59700
C  36.46400 2.94600 33.22600
C  36.39100 4.90100 34.85000
C  34.07200 1.88600 35.32400
C  33.46700 2.09200 36.68600
H  34.17500 3.06400 37.62900
N  37.65300 1.99800 30.45500
C  38.38500 2.10800 31.58700
C  39.80200 1.86300 31.34600
C  39.93900 1.49900 29.94100
C  38.55900 1.74000 29.42900
C  40.85700 1.87400 32.46400
C  41.11700 1.07200 29.06800
O  41.13300 0.95200 27.88000
C  42.42400 0.76600 29.74300
N  35.68000 1.94200 28.06100
C  36.89900 1.80700 27.43500
C  36.71000 1.52200 25.93600
C  35.10900 1.26700 25.86400
C  34.61100 1.81900 27.22900
C  37.07600 2.75700 25.04200
C  34.63000 -0.19100 25.69500
C  33.60300 -0.39800 24.59500
N  33.62300 2.87000 29.82200
C  32.76300 2.77200 28.71000
C  31.31700 3.04400 29.07700
C  31.43500 3.27200 30.46300
C  32.81300 3.04900 30.82300
C  30.12600 3.01200 28.14800
C  30.62300 3.61600 31.64800
O  29.48700 3.83400 31.79900
C  31.57300 3.49200 32.85100
C  31.49200 4.78700 33.50700
O  31.93400 5.81900 33.07900
O  31.09500 4.56700 34.79200
C  31.35200 5.67700 35.69300
H  38.42300 2.70700 33.74900
H  38.95300 1.45900 27.32000
H  32.61100 1.97700 26.74900
H  33.83500 3.82900 35.02900
H  36.32100 2.84800 35.47200
H  35.47100 5.31500 35.26300
H  36.62800 5.52400 33.98700
H  37.10600 5.01300 35.66500
H  34.87100 1.14400 35.34700
H  33.34500 1.36100 34.70500
H  33.47300 1.12800 37.19300
H  32.48500 2.48300 36.41800
H  41.58100 1.06300 32.38900
H  40.41200 1.72900 33.44800
H  41.35300 2.84500 32.47000
H  42.24700 -0.18400 30.24800
H  42.60200 1.69000 30.29400
H  43.14200 0.73000 28.92400
H  37.15600 0.58000 25.61900
H  34.55300 1.92400 25.19500
H  37.20700 3.68000 25.60600
H  36.25100 2.91200 24.34700
H  38.02100 2.66300 24.50700
H  34.30600 -0.69000 26.60800
H  35.51400 -0.70700 25.32000
H  33.24400 0.52400 24.13900
H  32.64100 -0.79100 24.92100
H  33.98500 -1.04200 23.80200
H  29.41600 2.26800 28.51200
H  30.38800 2.63000 27.16200
H  29.78300 4.04500 28.10100
H  31.19800 2.73200 33.53600
H  32.22200 6.27700 35.42700
H  31.52900 5.30100 36.70000
H  30.47700 6.32300 35.61700
Mg 6.93500 53.76700 40.07400
C  6.39800 50.31400 40.21000
C  10.10100 53.14700 39.30900
C  7.24200 57.08500 39.37600
C  3.45600 54.10700 40.52000
N  8.01800 51.93300 39.56100
C  7.68100 50.61600 39.74900
C  8.77700 49.65500 39.36000
C  9.98400 50.58900 39.49400
C  9.35900 52.01000 39.38000
C  10.74200 50.47000 40.84000
C  8.65100 48.94100 37.98000
C  7.89700 49.57700 36.81400
H  8.72400 50.10900 35.60800
N  8.55300 54.94100 39.41900
C  9.79100 54.54200 39.15000
C  10.58400 55.67100 38.79500
C  9.76500 56.84400 38.81000
C  8.47600 56.33200 39.19600
C  12.08000 55.63400 38.42500
C  10.18500 58.22700 38.47700
O  11.37900 58.47500 38.31500
C  9.19700 59.36200 38.26200
N  5.53400 55.35100 40.05100
C  5.88700 56.64700 39.72800
C  4.67700 57.59900 39.66000
C  3.54700 56.67100 40.20100
C  4.22000 55.25800 40.27900
C  4.90300 58.91200 40.55000
C  2.19600 56.75600 39.42400
C  1.07600 57.42900 40.25400
N  5.16400 52.57200 40.49000
C  3.85100 52.80700 40.72300
C  3.16200 51.65600 41.14600
C  4.11900 50.57200 40.96400
C  5.33600 51.24300 40.52400
C  1.74400 51.61600 41.67400
C  4.36000 49.15200 41.07900
O  3.63600 48.26400 41.45800
C  5.79300 48.97400 40.61700
C  5.73000 47.99600 39.51900
O  5.49300 48.26200 38.34900
O  5.99800 46.77000 39.97100
C  5.77300 45.69400 38.97700
H  11.18100 53.00600 39.24100
H  7.26200 58.15400 39.15100
H  2.38400 54.25800 40.66500
H  8.81200 48.79700 40.03100
H  10.71500 50.39600 38.70800
H  10.17600 49.80900 41.49700
H  10.95600 51.43000 41.31000
H  11.70700 49.99300 40.66300
H  8.11100 48.03700 38.26200
H  9.64600 48.67900 37.62000
H  7.40100 50.44800 37.24300
H  7.11800 48.93800 36.39800
H  12.68100 56.17400 39.15600
H  12.21900 55.91500 37.38100
H  12.35100 54.59100 38.58900
H  8.84700 59.73700 39.22400
H  8.36100 59.17100 37.58900
H  9.89300 60.02500 37.74900
H  4.45800 57.72100 38.59900
H  3.30200 56.92800 41.23200
H  4.07000 58.98600 41.24900
H  4.85600 59.72600 39.82700
H  5.89300 58.99200 41.00000
H  1.83100 55.78100 39.10400
H  2.26500 57.36700 38.52400
H  1.39500 57.80500 41.22600
H  0.28400 56.69400 40.40300
H  0.74900 58.32400 39.72500
H  1.11100 50.85600 41.21500
H  1.23700 52.58000 41.62900
H  1.78800 51.18800 42.67600
H  6.38900 48.43200 41.35300
H  4.69600 45.57300 38.86700
H  6.20900 44.73700 39.26600
H  6.12500 45.73000 37.94600

