158

Mg 29.10200 58.37000 41.70600
C  26.21100 56.85000 40.52500
C  31.00300 55.92400 39.98500
C  31.78200 60.36200 41.82300
C  27.09800 61.07100 42.76300
N  28.62400 56.74200 40.07100
C  27.36300 56.19900 40.01300
C  27.34200 54.94600 39.19500
C  28.87800 54.50900 39.24100
C  29.59900 55.79900 39.77000
C  29.21600 53.21300 40.13700
C  26.66600 55.21800 37.75400
C  26.06800 54.05700 37.13700
H  26.60500 53.76400 35.72000
N  31.13700 58.12700 41.18100
C  31.72600 57.03700 40.48100
C  33.15300 57.29600 40.39000
C  33.42500 58.57400 40.93600
C  32.09000 59.05300 41.42900
C  34.07200 56.38900 39.66000
C  34.85200 59.26600 40.92400
O  35.77500 58.62800 40.42000
C  35.15900 60.50100 41.76400
N  29.32700 60.43000 42.12600
C  30.57900 60.94600 42.21600
C  30.58100 62.56100 42.56700
C  29.07200 62.72600 43.08400
C  28.42300 61.36300 42.68500
C  31.60200 63.02200 43.67500
C  28.34100 63.90500 42.43900
C  27.75100 65.04300 43.30600
N  27.08200 58.74100 41.92000
C  26.43600 59.84700 42.39100
C  25.02600 59.57700 42.45300
C  24.91200 58.38300 41.64600
C  26.21500 57.96500 41.32600
C  23.95900 60.50800 42.95200
C  23.95200 57.50800 41.00600
O  22.77000 57.42900 41.15100
C  24.75000 56.37400 40.25200
C  24.55300 54.95400 40.82700
O  24.66200 54.66400 41.99900
O  24.13200 54.08300 39.80100
C  23.73600 52.76500 40.19600
H  31.53000 55.10300 39.49600
H  32.55200 61.12000 41.66600
H  26.51800 61.92400 43.12000
H  26.89400 54.10800 39.73000
H  29.20300 54.31600 38.21800
H  29.65600 52.49600 39.44400
H  28.33800 52.79800 40.63100
H  29.96300 53.53300 40.86400
H  27.50600 55.54800 37.14300
H  26.02700 56.07100 37.98400
H  24.99800 54.25700 37.09500
H  26.28800 53.16600 37.72500
H  33.60300 55.42900 39.44500
H  34.92200 56.13300 40.29300
H  34.37800 56.81900 38.70600
H  34.62000 61.39400 41.44600
H  36.23600 60.66600 41.71900
H  34.91600 60.25600 42.79800
H  30.70200 63.02600 41.58900
H  28.95600 62.73400 44.16800
H  32.36800 63.65500 43.22800
H  32.08100 62.14600 44.11400
H  31.02600 63.57600 44.41700
H  27.57000 63.56900 41.74600
H  28.92000 64.44500 41.69000
H  26.66500 65.11700 43.36900
H  28.07200 65.96200 42.81500
H  28.11700 64.98900 44.33200
H  23.07500 59.90100 43.14900
H  23.49000 61.12600 42.18700
H  24.26100 61.15900 43.77200
H  24.32100 56.40300 39.25000
H  23.95500 52.21700 39.27900
H  22.65500 52.67800 40.30400
H  24.24700 52.46200 41.10900
Mg 34.81300 49.43200 25.14500
C  35.01600 47.65700 28.22400
C  33.32400 52.02800 26.83800
C  34.65200 50.90000 22.18900
C  35.90600 46.46600 23.43400
N  34.14900 49.79800 27.34500
C  34.46100 48.93800 28.38200
C  33.98800 49.65100 29.69500
C  33.38500 51.08500 29.24000
C  33.61700 50.95700 27.73100
C  31.94200 51.39000 29.69300
C  35.01900 49.70600 30.89700
C  34.55900 49.07300 32.17800
H  33.11300 48.96700 32.58500
N  34.17200 51.35300 24.58700
C  33.58900 52.24400 25.43200
C  33.45200 53.46600 24.68200
C  33.72500 53.14400 23.33500
C  34.19500 51.72200 23.26900
C  32.90900 54.73200 25.36600
C  33.46900 53.99900 22.13100
O  33.64100 53.56300 20.96800
C  32.94500 55.37500 22.31400
N  35.18300 48.68800 23.08400
C  35.11600 49.51200 22.09700
C  35.57200 48.95700 20.64400
C  35.95000 47.52900 21.06600
C  35.68700 47.53300 22.55200
C  34.36900 49.06600 19.63700
C  37.40800 47.05400 20.73300
C  38.54700 47.67100 21.57900
N  35.21400 47.49800 25.67400
C  35.61800 46.42200 24.84900
C  35.92400 45.27900 25.72000
C  35.71000 45.72300 27.04700
C  35.31700 47.10200 26.97200
C  36.42700 43.88500 25.23900
C  35.78900 45.30100 28.34400
O  36.05400 44.22400 28.83800
C  35.40700 46.52600 29.22100
C  34.34200 46.13400 30.11500
O  33.13700 46.19100 29.84500
O  34.87800 45.46700 31.22300
C  33.86400 44.85200 32.11500
H  32.63300 52.79500 27.19500
H  34.43900 51.33900 21.21200
H  36.24500 45.54000 22.96500
H  33.26200 48.90600 30.01800
H  33.96500 51.87500 29.71500
H  31.90300 52.32700 30.25000
H  31.43700 50.62000 30.27600
H  31.39300 51.49300 28.75700
H  35.30500 50.73900 31.09600
H  35.87800 49.12400 30.56300
H  34.83800 49.76200 32.97600
H  35.03100 48.09400 32.25300
H  32.96100 54.66600 26.45300
H  31.87600 54.89800 25.06300
H  33.55400 55.53200 25.00400
H  33.66100 55.90400 22.94300
H  31.99400 55.37100 22.84800
H  32.75700 55.84600 21.35000
H  36.44300 49.49500 20.26900
H  35.19100 46.83200 20.71000
H  33.44700 48.97400 20.21100
H  34.41800 48.21400 18.95800
H  34.29100 49.96700 19.02800
H  37.57700 47.10800 19.65800
H  37.43700 45.97400 20.87400
H  38.40300 48.69400 21.92500
H  39.48100 47.54600 21.03000
H  38.64300 47.01100 22.44100
H  37.30600 43.53600 25.78100
H  36.62200 43.84300 24.16800
H  35.74400 43.11800 25.60500
H  36.33300 46.69700 29.76900
H  33.38300 44.00700 31.62300
H  33.04700 45.51600 32.39500
H  34.36200 44.67800 33.06900

