158

Mg 54.29800 24.84900 45.38100
C  51.56200 26.94200 44.36000
C  52.70200 22.24300 43.63500
C  57.05600 23.20200 45.65400
C  55.79100 27.84700 46.75300
N  52.39700 24.76200 43.92200
C  51.39100 25.69600 43.80400
C  50.31000 25.09700 42.83000
C  50.52600 23.55000 43.00600
C  51.99700 23.45300 43.57400
C  49.48000 22.89600 43.95800
C  50.13100 25.58600 41.32600
C  51.44800 26.09700 40.65500
H  52.24700 25.09100 39.74700
N  54.80000 22.90400 44.78900
C  54.01900 22.02300 44.14200
C  54.88700 20.72800 43.89900
C  56.15300 21.03700 44.47500
C  56.02600 22.42500 45.03000
C  54.39800 19.51800 43.20400
C  57.32000 19.95000 44.37600
O  57.22100 18.98700 43.57900
C  58.63600 20.12200 45.09800
N  56.14400 25.49700 45.94000
C  57.12200 24.54500 46.04000
C  58.32000 25.12400 46.91400
C  58.03800 26.59800 47.03900
C  56.55000 26.66800 46.60800
C  58.48600 24.44400 48.29300
C  58.86400 27.58400 46.12500
C  58.26400 28.10600 44.75600
N  53.76500 26.89800 45.69700
C  54.40300 27.98800 46.30200
C  53.53700 29.16200 46.31600
C  52.46600 28.79700 45.51800
C  52.61700 27.42900 45.15800
C  53.73900 30.44600 46.99900
C  51.26600 29.30400 44.96100
O  50.80200 30.40100 44.99400
C  50.68000 28.14400 44.08700
C  50.65800 28.57700 42.65900
O  51.65100 28.93000 42.06800
O  49.40400 28.72400 42.16700
C  49.25900 29.19300 40.74500
H  52.28000 21.35200 43.16600
H  57.97600 22.69100 45.94900
H  56.22800 28.74200 47.20000
H  49.33700 25.33600 43.26100
H  50.65200 22.99300 42.07800
H  48.74800 23.52500 44.46500
H  50.00900 22.30100 44.70100
H  49.03100 22.07400 43.40000
H  49.27300 26.24500 41.19200
H  49.78700 24.67700 40.83300
H  52.23300 26.24300 41.39800
H  51.38500 27.11200 40.26400
H  55.00800 19.45400 42.30300
H  53.35200 19.52900 42.89800
H  54.45200 18.57100 43.74200
H  59.28500 19.31000 44.76900
H  58.52700 20.12300 46.18200
H  59.03200 21.08100 44.76500
H  59.25600 24.94500 46.38600
H  58.13600 26.90500 48.08000
H  59.56200 24.26900 48.26100
H  58.09900 23.42700 48.35000
H  58.16000 25.05600 49.13400
H  59.83100 27.12200 45.92800
H  59.07100 28.44600 46.76000
H  57.60800 27.38300 44.27100
H  59.13200 28.29800 44.12500
H  57.78600 29.05800 44.98900
H  53.57200 31.25900 46.29300
H  54.65800 30.69500 47.52900
H  52.92800 30.53100 47.72200
H  49.66000 27.93900 44.41000
H  50.08700 29.87000 40.53600
H  48.30200 29.71500 40.74800
H  49.06900 28.35100 40.07900
Mg -12.01700 15.89600 41.52800
C  -9.25700 13.84500 41.11000
C  -10.23900 18.46100 40.16900
C  -15.00300 17.62800 41.21900
C  -13.84200 13.18600 42.86000
N  -9.99200 16.09900 40.77400
C  -8.97400 15.21200 40.82600
C  -7.67600 15.85400 40.32700
C  -7.98800 17.38600 40.28600
C  -9.50600 17.35300 40.45000
C  -7.36800 18.18500 41.41200
C  -7.14600 15.18800 39.02200
C  -5.60100 14.93500 38.95800
H  -4.92700 15.71000 37.80200
N  -12.57400 17.77300 40.82100
C  -11.63800 18.66600 40.26700
C  -12.37900 19.68500 39.64300
C  -13.81000 19.56600 39.92400
C  -13.88000 18.28100 40.74400
C  -11.76300 20.83300 38.92200
C  -14.89400 20.51100 39.50700
O  -14.64700 21.42500 38.75000
C  -16.27200 20.34500 40.05100
N  -14.13700 15.48300 41.99400
C  -15.18800 16.35400 41.78200
C  -16.49200 15.81900 42.23900
C  -16.06600 14.41600 42.80100
C  -14.55000 14.32900 42.56600
C  -17.21900 16.72700 43.18800
C  -17.00900 13.23200 42.20700
C  -17.89600 12.42400 43.23700
N  -11.71700 13.86200 41.89500
C  -12.50800 12.88200 42.42500
C  -11.69100 11.67400 42.52400
C  -10.42100 11.96500 42.04900
C  -10.51000 13.30100 41.65300
C  -12.12000 10.41700 43.23700
C  -9.03300 11.54400 41.82400
O  -8.46400 10.50500 42.04800
C  -8.30400 12.72000 41.23100
C  -7.13300 13.13200 42.17600
O  -7.32400 13.62800 43.23100
O  -5.86800 12.73200 41.61300
C  -4.79300 13.34300 42.38800
H  -9.57200 19.32100 40.07900
H  -15.94400 18.16000 41.06800
H  -14.45100 12.36400 43.24300
H  -6.98100 15.71400 41.15500
H  -7.52100 17.75200 39.37200
H  -8.12000 18.44100 42.15800
H  -7.04000 19.14000 41.00200
H  -6.45700 17.74900 41.82300
H  -7.39200 15.97700 38.31100
H  -7.80600 14.35200 38.78800
H  -5.38900 13.87200 38.85000
H  -5.15300 15.21000 39.91300
H  -12.03700 20.97000 37.87600
H  -10.67600 20.88300 38.98600
H  -12.07000 21.78400 39.35800
H  -16.85400 21.11600 39.54700
H  -16.18800 20.33200 41.13800
H  -16.72700 19.39100 39.78500
H  -17.09800 15.71500 41.33900
H  -16.07900 14.27400 43.88100
H  -18.20000 16.88900 42.74000
H  -16.64200 17.64300 43.31300
H  -17.26500 16.19600 44.13900
H  -16.44800 12.46900 41.66800
H  -17.65400 13.58100 41.40100
H  -17.96500 13.03400 44.13700
H  -17.69600 11.37300 43.44300
H  -18.90400 12.28000 42.84700
H  -12.78800 9.87900 42.56500
H  -12.79200 10.82500 43.99200
H  -11.33100 9.73100 43.54400
H  -7.75000 12.59500 40.30100
H  -4.76400 12.84600 43.35800
H  -4.81500 14.43200 42.44000
H  -3.93900 13.13100 41.74400

