158

Mg 6.60700 56.88700 41.39300
C  4.93700 53.70100 41.74200
C  9.23500 55.25600 40.20400
C  8.07300 59.92900 40.79000
C  3.56600 58.45200 42.36000
N  6.91500 54.70100 40.86800
C  6.17700 53.62300 41.09800
C  6.86800 52.38300 40.80500
C  8.29500 52.85300 40.47700
C  8.16300 54.35000 40.48600
C  9.45500 52.32100 41.28800
C  6.29500 51.60200 39.60200
C  6.90100 50.22500 39.30200
H  6.11400 49.38900 38.26100
N  8.44800 57.48200 40.46700
C  9.36900 56.59000 40.02500
C  10.49000 57.33800 39.47400
C  10.15500 58.76400 39.57100
C  8.83900 58.77700 40.33600
C  11.66100 56.72500 38.75300
C  10.90900 59.94100 39.08000
O  12.01700 59.76900 38.61800
C  10.46500 61.41500 39.13400
N  5.97300 58.85800 41.53600
C  6.74400 59.96900 41.26600
C  6.12700 61.22400 41.82400
C  4.65500 60.82600 42.18900
C  4.69300 59.25700 42.07500
C  6.88600 61.93600 42.95500
C  3.50000 61.40400 41.29400
C  2.45200 62.28600 42.04400
N  4.62700 56.23300 41.89900
C  3.50800 57.03500 42.27800
C  2.49100 56.12800 42.70900
C  3.02900 54.83900 42.59500
C  4.35800 54.98000 42.04100
C  1.19300 56.41800 43.23400
C  2.73400 53.48700 42.94600
O  1.81900 52.94400 43.49700
C  4.04300 52.64800 42.51800
C  3.51900 51.53400 41.75800
O  2.79600 51.63300 40.79500
O  3.78500 50.35900 42.40100
C  3.63700 49.10200 41.58900
H  10.24200 54.84600 40.10600
H  8.42800 60.95700 40.69200
H  2.72000 59.06700 42.67300
H  6.88500 51.80400 41.72800
H  8.44500 52.56400 39.43700
H  9.86400 53.13400 41.88700
H  10.23400 52.06300 40.57000
H  9.16300 51.55900 42.01000
H  6.36500 52.12600 38.64900
H  5.23700 51.50000 39.84500
H  6.86000 49.73300 40.27400
H  7.96000 50.30900 39.06200
H  11.68100 56.87400 37.67300
H  11.65400 55.64200 38.87600
H  12.64100 57.01200 39.13300
H  10.33900 61.74700 40.16400
H  9.52800 61.56900 38.59800
H  11.27400 61.93800 38.62500
H  6.00300 61.95200 41.02200
H  4.35700 61.01800 43.21900
H  6.30000 62.08900 43.86100
H  7.00800 62.95800 42.59700
H  7.88000 61.49100 42.99900
H  2.83500 60.62800 40.91400
H  3.83600 61.93300 40.40200
H  2.55200 63.26200 41.57000
H  2.69000 62.38100 43.10300
H  1.44800 61.87100 41.94800
H  1.20100 56.18000 44.29700
H  0.53800 55.65900 42.80400
H  0.81700 57.42700 43.06800
H  4.56700 52.27100 43.39600
H  4.64900 48.69700 41.56900
H  3.29200 49.05600 40.55700
H  3.07900 48.37200 42.17600
Mg -1.47300 34.44600 26.71300
C  -2.83300 32.82400 29.49500
C  0.12900 36.61900 28.71500
C  -0.71900 36.26100 23.94000
C  -3.41200 32.34000 24.70500
N  -1.59100 34.82100 28.88700
C  -1.99400 33.89600 29.82300
C  -1.56500 34.31900 31.24200
C  -0.63600 35.50700 30.97200
C  -0.65400 35.67300 29.43400
C  -1.05800 36.76000 31.75000
C  -0.78400 33.25600 32.05800
C  -1.40700 32.95100 33.39400
H  -0.40900 32.98400 34.57200
N  -0.36600 36.18900 26.34900
C  0.24100 36.92300 27.31900
C  1.02900 37.91400 26.69800
C  0.70700 37.93900 25.27400
C  -0.10200 36.73800 25.12200
C  1.79300 38.90500 27.50100
C  1.24000 38.78100 24.17800
O  0.92100 38.60400 23.00200
C  2.34000 39.79600 24.49700
N  -2.15900 34.43300 24.63200
C  -1.67100 35.31800 23.71300
C  -2.05600 34.87300 22.29000
C  -2.37800 33.38400 22.50100
C  -2.73500 33.36500 24.03900
C  -3.16200 35.71000 21.54300
C  -1.32600 32.34000 22.23300
C  0.15400 32.67000 22.51100
N  -2.85800 32.86700 26.92100
C  -3.58400 32.13400 26.07000
C  -4.41000 31.15900 26.72600
C  -4.13900 31.35200 28.12000
C  -3.19300 32.39200 28.17800
C  -5.37500 30.12800 26.17400
C  -4.39200 30.90100 29.44200
O  -5.13900 29.99600 29.86800
C  -3.62000 31.88000 30.39700
C  -4.62800 32.54800 31.20400
O  -5.23400 33.59500 30.94700
O  -4.76100 31.76600 32.37700
C  -5.71300 32.34800 33.33600
H  0.64200 37.30400 29.39300
H  -0.55500 36.80200 23.00500
H  -3.99100 31.70200 24.03200
H  -2.49600 34.50100 31.78000
H  0.39900 35.31500 31.25800
H  -0.19200 37.23800 32.20800
H  -1.78200 36.56500 32.54100
H  -1.58200 37.50200 31.14700
H  0.25900 33.53800 32.20900
H  -0.76600 32.39300 31.39300
H  -1.83000 31.94600 33.38200
H  -2.33200 33.47400 33.63800
H  1.19100 39.05800 28.39700
H  1.80600 39.89000 27.03300
H  2.82000 38.55500 27.60300
H  2.84800 39.92600 23.54100
H  3.04900 39.48400 25.26400
H  1.92500 40.74300 24.84200
H  -1.12100 34.89400 21.73000
H  -3.12300 33.12700 21.74700
H  -3.54700 36.41600 22.27800
H  -4.06300 35.23300 21.15700
H  -2.80400 36.35800 20.74300
H  -1.58000 32.18400 21.18400
H  -1.48800 31.45400 22.84600
H  0.44000 33.62400 22.95200
H  0.76600 32.56300 21.61600
H  0.47300 31.98200 23.29400
H  -5.33900 29.75900 25.14900
H  -6.41800 30.43100 26.26300
H  -5.33500 29.28300 26.86200
H  -3.01800 31.20800 31.00800
H  -5.78400 31.66000 34.17800
H  -6.64700 32.57600 32.82400
H  -5.14700 33.22900 33.63900

