158

Mg 47.87200 24.84700 29.60700
C  49.05700 27.13000 31.89000
C  46.56800 22.99600 32.02200
C  47.08300 22.39200 27.25500
C  49.57700 26.62600 27.06600
N  47.92200 25.05400 31.76600
C  48.36600 26.08200 32.48700
C  47.94500 26.00000 34.02400
C  47.46600 24.42800 34.00900
C  47.28100 24.11200 32.51200
C  48.47500 23.49800 34.73600
C  46.79000 26.91200 34.48500
C  47.02900 27.97600 35.56400
H  45.94800 28.04200 36.69600
N  46.91000 22.96400 29.66900
C  46.43000 22.35700 30.79200
C  45.79400 21.16500 30.54200
C  45.97400 20.94300 29.15800
C  46.72100 22.13600 28.59500
C  45.09300 20.24600 31.58400
C  45.61500 19.78500 28.29900
O  45.77900 19.80500 27.06400
C  44.77000 18.70900 28.81200
N  48.34400 24.53600 27.46100
C  47.89300 23.41800 26.77100
C  48.47200 23.51000 25.27000
C  49.04300 24.95600 25.20700
C  49.01600 25.40400 26.72700
C  49.36300 22.37700 24.61600
C  48.27000 25.88700 24.21900
C  48.72000 26.06100 22.71200
N  48.96000 26.56700 29.42100
C  49.56100 27.18600 28.35500
C  50.09700 28.37600 28.74700
C  49.95600 28.44200 30.08800
C  49.25200 27.27600 30.45500
C  50.70100 29.46700 27.99000
C  50.14900 29.22800 31.30000
O  50.59600 30.34600 31.53300
C  49.63500 28.42000 32.53800
C  50.79000 28.08200 33.42000
O  51.53600 27.17700 33.25200
O  50.86700 29.01400 34.49300
C  51.85800 28.84900 35.59600
H  46.10400 22.55500 32.90700
H  46.91200 21.66800 26.45500
H  50.01800 27.18600 26.23900
H  48.83000 26.19200 34.63000
H  46.48600 24.27300 34.46100
H  48.30700 22.42900 34.60100
H  48.36800 23.78900 35.78100
H  49.46200 23.71800 34.32900
H  46.10300 26.14500 34.84200
H  46.26500 27.36500 33.64400
H  47.04100 28.91700 35.01400
H  48.07000 27.92400 35.88300
H  45.72900 19.37300 31.72400
H  44.12800 19.83800 31.28200
H  44.96500 20.63300 32.59500
H  44.60300 17.88900 28.11300
H  43.89500 19.24500 29.17800
H  45.26500 18.32000 29.70200
H  47.58600 23.49700 24.63500
H  50.07500 24.79900 24.89300
H  50.30600 22.74800 24.21300
H  48.76000 22.02800 23.77700
H  49.48200 21.55500 25.32200
H  48.28300 26.90900 24.59600
H  47.21400 25.61600 24.19800
H  49.59100 25.44000 22.50200
H  49.05200 27.08700 22.54900
H  47.93500 25.80300 22.00200
H  51.08300 29.05800 27.05400
H  51.47700 29.93100 28.59800
H  49.89200 30.12800 27.67700
H  48.88900 28.95300 33.12700
H  51.60200 29.62800 36.31400
H  52.88700 29.03500 35.28900
H  51.83800 27.88500 36.10400
Mg 44.03500 42.81700 26.20600
C  42.63800 44.84100 28.66100
C  45.42100 40.82200 28.53000
C  45.71800 41.19400 23.80000
C  43.50600 45.51200 23.88300
N  44.09500 42.91000 28.31700
C  43.37300 43.74500 29.15900
C  43.53500 43.48100 30.65100
C  44.67100 42.39100 30.59300
C  44.87100 42.06700 29.05800
C  46.00600 42.77100 31.26500
C  42.22600 43.19000 31.50000
C  42.16400 42.44600 32.81200
H  41.44500 43.04000 34.01600
N  45.16200 41.08900 26.17300
C  45.59000 40.35700 27.25800
C  46.33100 39.23700 26.79900
C  46.47400 39.37200 25.36600
C  45.76700 40.64800 25.05300
C  46.76100 38.19100 27.78500
C  47.17300 38.45300 24.45200
O  47.24700 38.66300 23.22300
C  47.95900 37.29400 24.98800
N  44.33300 43.24200 24.11000
C  45.09100 42.39600 23.37800
C  45.15000 42.87000 21.88700
C  44.45100 44.21100 21.97000
C  44.09200 44.39100 23.39200
C  46.53800 42.86100 21.23500
C  43.15600 44.27900 21.02700
C  41.82300 43.74700 21.42200
N  43.24100 44.76200 26.20300
C  43.08800 45.71400 25.19900
C  42.24300 46.74000 25.74200
C  41.97400 46.42300 27.06300
C  42.64100 45.21500 27.32200
C  41.64200 47.95600 25.06800
C  41.36900 46.87000 28.25700
O  40.67300 47.86800 28.44700
C  41.81600 45.83000 29.34400
C  42.60700 46.59700 30.31600
O  43.61300 47.29500 30.15600
O  41.81700 46.72800 31.51900
C  42.56100 47.54100 32.60000
H  45.77400 40.07900 29.24900
H  46.19300 40.54400 23.06200
H  43.32400 46.34200 23.19800
H  44.08800 44.37700 30.93200
H  44.21100 41.47000 30.95200
H  45.91300 43.61700 31.94600
H  46.78800 42.97300 30.53200
H  46.34700 41.94800 31.89300
H  41.70300 42.65300 30.70900
H  41.64300 44.10000 31.63700
H  43.15000 42.08800 33.10700
H  41.69600 41.49700 32.55000
H  47.06600 37.23500 27.36000
H  45.96100 37.93300 28.48000
H  47.59500 38.63200 28.33200
H  48.69600 37.78700 25.62200
H  48.52600 37.06000 24.08800
H  47.31500 36.49400 25.35600
H  44.51000 42.25900 21.25000
H  45.17200 44.99800 21.74800
H  46.54300 41.94400 20.64700
H  47.41000 42.60900 21.84000
H  46.71800 43.68100 20.54000
H  43.40400 43.92200 20.02800
H  42.95600 45.34100 20.88400
H  41.90000 43.14200 22.32500
H  41.45100 43.06200 20.66000
H  41.06700 44.53300 21.44700
H  41.43300 47.78800 24.01100
H  42.47900 48.65500 25.08500
H  40.69700 48.19200 25.55800
H  40.93500 45.35500 29.77600
H  42.53500 46.88000 33.46600
H  42.04600 48.47900 32.80500
H  43.62200 47.75300 32.46800

