158

Mg 25.53100 -8.06700 47.36700
C  27.49400 -5.42600 46.58300
C  23.29700 -7.15100 44.85800
C  23.65700 -10.72700 48.13200
C  28.23200 -9.53100 49.35200
N  25.47300 -6.58800 45.84900
C  26.48800 -5.65300 45.66400
C  26.01300 -4.59400 44.52400
C  24.64400 -5.15400 44.08800
C  24.42900 -6.38100 44.97300
C  23.39400 -4.15300 44.21700
C  27.09100 -4.59400 43.51000
C  27.49000 -3.11000 43.07400
H  27.17500 -2.69000 41.63300
N  23.70500 -8.85800 46.59700
C  22.93600 -8.30100 45.57500
C  21.78500 -9.13700 45.42100
C  21.87500 -10.24000 46.35500
C  23.09100 -9.94500 47.14200
C  20.73100 -8.92900 44.37200
C  20.83600 -11.40800 46.43100
O  19.78500 -11.40300 45.78300
C  21.12500 -12.61300 47.18400
N  25.90800 -9.93100 48.54900
C  24.90700 -10.78500 48.79900
C  25.29900 -11.88700 49.78300
C  26.88700 -11.69300 49.83200
C  27.05400 -10.34700 49.22100
C  24.52800 -11.69400 51.15000
C  27.65500 -12.70700 49.03500
C  29.16600 -12.85700 49.42400
N  27.42700 -7.62100 47.90800
C  28.39000 -8.26400 48.65400
C  29.60300 -7.42600 48.70400
C  29.25300 -6.19500 48.03700
C  27.94900 -6.41300 47.48800
C  30.95700 -7.73200 49.32400
C  29.67300 -4.84100 47.66100
O  30.71500 -4.24100 47.84900
C  28.50800 -4.28000 46.74300
C  27.76600 -3.24500 47.47900
O  27.00300 -3.45600 48.45600
O  27.98800 -2.02000 46.85900
C  27.18500 -0.89600 47.42100
H  22.63300 -6.78900 44.07000
H  23.06400 -11.51900 48.59400
H  29.02300 -9.96800 49.96500
H  25.81400 -3.64200 45.01500
H  24.65000 -5.58300 43.08600
H  23.77800 -3.14000 44.09800
H  23.08400 -4.09500 45.26100
H  22.62200 -4.31600 43.46500
H  26.86300 -5.08200 42.56200
H  27.96400 -5.11400 43.90300
H  28.56300 -2.98100 43.21600
H  26.98400 -2.37800 43.70300
H  21.09000 -9.34100 43.42900
H  20.60600 -7.87400 44.13100
H  19.76300 -9.38900 44.57100
H  20.97400 -12.40300 48.24300
H  22.19500 -12.79800 47.08600
H  20.50500 -13.43300 46.82400
H  24.96900 -12.82100 49.32800
H  27.11200 -11.84800 50.88700
H  23.86800 -12.53900 51.34400
H  23.89600 -10.80700 51.10800
H  25.23200 -11.48900 51.95600
H  27.37100 -12.59600 47.98800
H  27.22100 -13.62300 49.43500
H  29.68900 -12.28700 48.65700
H  29.61300 -13.85000 49.36400
H  29.59000 -12.44200 50.33900
H  30.77400 -8.54800 50.02400
H  31.39600 -6.84800 49.78500
H  31.68000 -8.08000 48.58600
H  29.00700 -3.88500 45.85800
H  27.26000 0.07900 46.94000
H  27.35400 -0.79100 48.49300
H  26.14300 -1.20200 47.51600
Mg 15.69000 51.04700 25.51000
C  17.72500 50.48800 28.30500
C  13.13100 51.86000 27.58800
C  13.78800 51.43200 22.78400
C  18.44700 50.27700 23.44100
N  15.52900 51.37000 27.71800
C  16.45100 50.94700 28.64500
C  16.01200 51.15100 30.09000
C  14.45000 51.30800 29.82400
C  14.35300 51.69200 28.29500
C  13.53400 50.07300 30.29800
C  16.68800 52.41700 30.72500
C  16.79400 52.53100 32.18800
H  15.84800 51.72600 33.08800
N  13.71200 51.53400 25.18300
C  12.75900 51.76900 26.16700
C  11.46900 52.00900 25.52800
C  11.65800 51.97900 24.14300
C  13.13500 51.55900 23.97400
C  10.20000 52.34400 26.28500
C  10.74200 52.15300 22.97300
O  11.06600 52.03800 21.80600
C  9.29400 52.45200 23.31000
N  16.08300 50.94700 23.42100
C  15.13100 51.15600 22.49600
C  15.72500 51.15900 21.01800
C  17.27500 51.03200 21.31900
C  17.30300 50.69500 22.83300
C  15.14000 50.02600 20.13300
C  18.18000 52.21400 20.92200
C  18.86200 52.21500 19.56300
N  17.70300 50.30200 25.74400
C  18.69900 50.09300 24.82600
C  19.85100 49.66700 25.57100
C  19.56600 49.89400 26.94000
C  18.20200 50.28600 26.99200
C  21.12900 49.36600 24.84800
C  20.13900 49.85400 28.29100
O  21.20000 49.49100 28.66100
C  18.97000 50.32400 29.14100
C  18.76300 49.44100 30.33000
O  17.99300 48.54900 30.27900
O  19.51400 49.82900 31.38100
C  19.37300 49.05000 32.59900
H  12.29900 52.05800 28.26600
H  13.22200 51.46400 21.85000
H  19.25600 50.17200 22.71400
H  16.17300 50.30600 30.76000
H  14.05300 52.16000 30.37600
H  12.80000 50.36000 31.05000
H  14.21100 49.31200 30.68600
H  12.89200 49.64400 29.52900
H  16.10100 53.30000 30.47300
H  17.69300 52.61800 30.35500
H  16.60500 53.55100 32.52400
H  17.82600 52.34300 32.48500
H  9.30100 51.73300 26.21100
H  9.89900 53.35200 25.99800
H  10.31800 52.32800 27.36800
H  9.12900 53.35900 23.89200
H  8.86300 51.54800 23.74000
H  8.87000 52.51100 22.30700
H  15.56500 52.11500 20.51900
H  17.68400 50.14500 20.83600
H  14.68400 49.22100 20.70800
H  15.90300 49.57500 19.49900
H  14.36900 50.50900 19.53200
H  18.98000 52.23500 21.66200
H  17.80300 53.21300 21.14000
H  19.71000 51.53600 19.65200
H  19.23900 53.20700 19.31800
H  18.22500 51.82200 18.77100
H  21.55800 50.21200 24.30900
H  21.05700 48.44600 24.26900
H  21.82500 49.13800 25.65500
H  19.38400 51.22800 29.58800
H  19.99100 49.58200 33.32300
H  19.67000 48.00400 32.66500
H  18.34600 49.09100 32.96100

