158

Mg 17.25100 -1.87000 28.15400
C  15.79100 0.08000 30.93700
C  19.03800 -3.58900 30.36800
C  18.78900 -3.27400 25.56000
C  15.41700 0.29700 25.95200
N  17.34300 -1.70200 30.43100
C  16.70800 -0.93500 31.39600
C  17.09100 -1.37500 32.80700
C  18.12100 -2.58300 32.52900
C  18.17000 -2.66200 31.01700
C  19.55900 -2.43500 33.10000
C  15.88100 -1.89200 33.67500
C  16.15900 -2.17800 35.10100
H  17.46000 -1.73600 35.76200
N  18.60800 -3.29100 27.98400
C  19.27200 -3.88500 29.01300
C  20.11300 -4.94200 28.50900
C  19.97600 -4.93000 27.08600
C  19.12400 -3.81100 26.84300
C  20.90400 -5.85100 29.33300
C  20.67800 -5.66500 26.03400
O  20.40600 -5.56900 24.83500
C  21.91000 -6.57300 26.38900
N  16.92600 -1.62500 25.99400
C  17.82600 -2.28800 25.14900
C  17.65900 -1.70400 23.65500
C  16.45500 -0.78000 23.82400
C  16.19000 -0.66300 25.31600
C  19.05500 -1.08000 23.04900
C  15.17200 -1.19100 23.14700
C  15.29400 -1.15000 21.60500
N  15.84000 -0.25500 28.33400
C  15.23100 0.52300 27.33800
C  14.50000 1.55300 27.98400
C  14.61100 1.38400 29.33400
C  15.55500 0.37800 29.54100
C  13.60300 2.59400 27.31100
C  14.08100 1.91200 30.59900
O  13.22200 2.74600 30.79800
C  14.96900 1.19600 31.67000
C  15.85100 2.18200 32.24900
O  16.84800 2.69500 31.74700
O  15.50900 2.14500 33.55600
C  16.38500 2.82700 34.48200
H  19.65400 -4.14300 31.07900
H  19.33400 -3.64500 24.69000
H  15.13800 1.22200 25.44400
H  17.56200 -0.54100 33.32700
H  17.68700 -3.43200 33.05600
H  19.69000 -1.60700 33.79600
H  20.23300 -2.25800 32.26200
H  19.86500 -3.37500 33.55900
H  15.34500 -2.68600 33.15400
H  15.06200 -1.17200 33.68100
H  15.92800 -3.22800 35.28400
H  15.39500 -1.58400 35.60400
H  20.72200 -5.58600 30.37400
H  21.94300 -5.60400 29.11200
H  20.60600 -6.82200 28.93900
H  22.45500 -6.28500 27.28700
H  22.60400 -6.47300 25.55500
H  21.53700 -7.59200 26.50100
H  17.40300 -2.54600 23.01200
H  16.58400 0.28500 23.63100
H  19.82800 -1.25200 23.79700
H  18.87800 -0.02200 22.85700
H  19.37800 -1.61700 22.15700
H  14.42000 -0.47900 23.48700
H  15.02300 -2.20800 23.51000
H  14.30000 -0.98300 21.18900
H  15.72400 -2.05800 21.18300
H  15.89500 -0.29400 21.29600
H  13.53100 3.46100 27.96900
H  12.58000 2.22100 27.26700
H  14.08700 2.93200 26.39400
H  14.35000 0.68800 32.40900
H  16.09900 3.86100 34.67500
H  17.36800 3.06900 34.07900
H  16.48600 2.25500 35.40400
Mg -10.92100 16.19100 42.80600
C  -7.37600 16.88900 42.50100
C  -11.24800 19.60100 42.53800
C  -14.01800 15.60600 42.49900
C  -10.11200 12.78700 42.78100
N  -9.40400 18.01300 42.46300
C  -8.10300 18.03500 42.37900
C  -7.49400 19.42100 42.25100
C  -8.74900 20.22200 42.37300
C  -9.84800 19.22600 42.53500
C  -8.92000 21.30100 43.53300
C  -6.73300 19.50900 40.85600
C  -5.19100 19.93200 40.84800
H  -4.32500 19.08800 39.94200
N  -12.53200 17.40100 42.51600
C  -12.40500 18.78300 42.47600
C  -13.74300 19.26500 42.25100
C  -14.69900 18.27900 42.13100
C  -13.80300 17.03000 42.41400
C  -14.04400 20.76300 41.94700
C  -16.12400 18.35800 41.94500
O  -16.73500 19.40100 41.77200
C  -16.95000 17.09000 42.00300
N  -11.85800 14.47800 42.46200
C  -13.23100 14.49500 42.52800
C  -13.81800 13.09100 42.90700
C  -12.62600 12.21300 42.56400
C  -11.43600 13.19700 42.60300
C  -14.46800 12.73800 44.26900
C  -12.76300 11.30600 41.27200
C  -12.84200 9.75900 41.48000
N  -9.09200 14.94100 42.74300
C  -8.91800 13.57000 42.89700
C  -7.55200 13.24100 43.17400
C  -6.87400 14.55100 42.94000
C  -7.88500 15.53900 42.73300
C  -6.89500 11.90100 43.36400
C  -5.59600 15.19300 42.99000
O  -4.49000 14.72700 43.10900
C  -5.83400 16.74300 42.78400
C  -5.50900 17.26500 44.11600
O  -5.70000 16.78100 45.21200
O  -4.65200 18.36500 43.97400
C  -4.18400 19.18100 45.14200
H  -11.33600 20.68900 42.50000
H  -15.06700 15.33300 42.36600
H  -9.96700 11.71300 42.91300
H  -6.84500 19.63300 43.10100
H  -9.03500 20.67500 41.42400
H  -9.56100 20.97800 44.35300
H  -9.27300 22.25200 43.13500
H  -7.90500 21.43700 43.90600
H  -7.28900 20.19700 40.22000
H  -6.95100 18.54800 40.38900
H  -4.79000 19.80500 41.85400
H  -5.14200 20.98900 40.58500
H  -14.75700 21.08500 42.70600
H  -14.38900 20.99500 40.93900
H  -13.22200 21.47000 42.06000
H  -17.95000 17.30200 41.62400
H  -17.03800 16.79300 43.04800
H  -16.39600 16.42900 41.33600
H  -14.62600 12.90700 42.19900
H  -12.29400 11.60500 43.40600
H  -15.54900 12.65700 44.15200
H  -14.49000 13.63300 44.89000
H  -14.03600 11.88800 44.79900
H  -11.95900 11.45500 40.55200
H  -13.66000 11.52900 40.69300
H  -13.68600 9.34500 40.92900
H  -12.84400 9.49000 42.53600
H  -12.01100 9.22100 41.02400
H  -5.96400 11.85200 42.80000
H  -7.44400 11.02200 43.02500
H  -6.85300 11.76400 44.44500
H  -5.19800 17.12300 41.98400
H  -3.42300 18.70600 45.75900
H  -5.00200 19.48300 45.79600
H  -3.84900 20.09800 44.65600

