158

Mg 46.77100 5.29900 47.94700
C  44.76600 8.16600 47.43500
C  44.11500 3.36400 46.92500
C  48.89600 2.77600 47.55300
C  49.43300 7.58500 48.36900
N  44.70400 5.75100 47.37600
C  44.08600 6.99100 47.32900
C  42.61700 6.76800 46.94100
C  42.43400 5.22900 46.83700
C  43.79300 4.73900 47.12200
C  41.27200 4.63600 47.67600
C  42.00400 7.51300 45.69200
C  40.45300 7.69100 45.71800
H  39.61000 7.42500 44.44600
N  46.53000 3.34800 47.45500
C  45.36900 2.73100 47.08300
C  45.64800 1.37800 46.67700
C  47.01600 1.13200 46.91400
C  47.54500 2.47100 47.37300
C  44.53800 0.43100 46.11000
C  47.71700 -0.22000 46.79500
O  47.07300 -1.19000 46.43700
C  49.16600 -0.42500 47.09200
N  48.87100 5.29100 47.86700
C  49.47900 4.09100 47.79000
C  50.92500 4.13400 48.16100
C  51.09200 5.61700 48.53900
C  49.74400 6.25500 48.18300
C  51.42900 3.08600 49.25500
C  52.35700 6.28600 47.87600
C  53.14100 7.28300 48.77300
N  47.10500 7.46700 48.04700
C  48.19500 8.18500 48.16700
C  47.93100 9.59000 48.30500
C  46.57200 9.68000 47.89200
C  46.15100 8.32500 47.78100
C  48.87900 10.67200 48.70600
C  45.45900 10.58800 47.66000
O  45.35600 11.80700 47.56500
C  44.27000 9.62300 47.19400
C  43.08900 9.97800 47.96100
O  42.79700 9.54000 49.05800
O  42.28800 10.74100 47.10500
C  41.01600 11.15400 47.62800
H  43.25300 2.77300 46.61100
H  49.61800 1.96000 47.47500
H  50.29600 8.22300 48.57000
H  42.05100 7.15500 47.78900
H  42.28300 4.94400 45.79600
H  40.56100 3.99800 47.15200
H  40.67500 5.44800 48.09100
H  41.64300 4.01800 48.49300
H  42.27900 6.93200 44.81100
H  42.40100 8.50600 45.48100
H  40.15700 8.70400 45.99000
H  40.03400 7.09800 46.53200
H  44.85400 0.22300 45.08800
H  43.50400 0.77000 46.05900
H  44.52600 -0.58400 46.50600
H  49.41900 -1.48200 47.01000
H  49.38700 -0.09800 48.10700
H  49.77100 0.21200 46.44700
H  51.46700 3.95000 47.23300
H  51.12500 5.80100 49.61300
H  50.69800 2.28300 49.35100
H  51.51300 3.66400 50.17500
H  52.34900 2.65000 48.86500
H  51.92800 6.78200 47.00500
H  53.14300 5.68000 47.42500
H  54.16500 6.90800 48.77400
H  52.77800 7.41000 49.79200
H  53.19700 8.23400 48.24200
H  49.75400 10.38500 49.29000
H  48.27300 11.33500 49.32400
H  49.24800 11.27300 47.87500
H  44.13500 9.87100 46.14200
H  40.45000 11.70100 46.87500
H  41.22000 11.82200 48.46500
H  40.54400 10.27500 48.06700
Mg 49.58500 47.68900 42.79900
C  46.33300 48.34200 41.40100
C  49.60000 44.77300 40.84500
C  52.82000 47.32600 43.52300
C  49.70900 51.06700 43.74900
N  48.15300 46.76300 41.25200
C  46.82800 47.12900 40.93700
C  46.17400 46.11000 39.95800
C  47.21500 44.95400 39.88700
C  48.41400 45.49900 40.71500
C  46.73100 43.50300 40.29600
C  45.64100 46.74500 38.59800
C  44.11000 46.48700 38.32000
H  43.50900 45.95500 37.02000
N  51.07000 46.28600 42.22300
C  50.88200 45.12000 41.50600
C  52.11600 44.41300 41.47500
C  53.04100 45.08100 42.32000
C  52.30800 46.26800 42.73500
C  52.32300 43.12600 40.72700
C  54.43300 44.62600 42.71800
O  54.92500 43.56800 42.21600
C  55.52700 45.35100 43.60800
N  51.08500 49.08600 43.50700
C  52.29800 48.55900 43.92000
C  52.99800 49.54100 44.85900
C  52.15300 50.88300 44.80700
C  50.91600 50.41200 43.94300
C  53.35800 49.05100 46.28800
C  52.88600 52.08100 44.03700
C  52.50500 53.53800 44.45500
N  48.25100 49.34700 42.73700
C  48.51700 50.63700 43.10800
C  47.33000 51.43500 42.84200
C  46.37500 50.54700 42.17600
C  47.02700 49.31500 42.13800
C  47.14000 52.88200 43.06200
C  45.04300 50.40600 41.57400
O  44.08700 51.18400 41.54600
C  44.93400 48.89400 41.29100
C  43.99000 48.18500 42.26600
O  44.17500 48.09600 43.46600
O  42.87900 47.82700 41.59100
C  41.93500 46.87500 42.09600
H  49.53800 43.78800 40.37700
H  53.80600 47.22600 43.98200
H  49.70400 52.05200 44.22100
H  45.29500 45.82500 40.53500
H  47.59300 44.96100 38.86500
H  45.65100 43.64900 40.25700
H  47.21900 43.25600 41.23800
H  47.12300 42.81800 39.54400
H  46.07900 46.22500 37.74600
H  45.85600 47.81400 38.57700
H  43.82500 47.53700 38.25500
H  43.64600 46.10800 39.23100
H  52.88200 43.42000 39.83900
H  51.36600 42.69800 40.43000
H  52.99800 42.43600 41.23300
H  55.60000 46.39500 43.30300
H  56.49700 44.89200 43.42000
H  55.34100 45.17000 44.66700
H  54.01100 49.62100 44.46300
H  51.79200 51.25900 45.76500
H  54.23700 49.57300 46.66600
H  53.49500 47.97100 46.22500
H  52.57600 49.22100 47.02700
H  52.60500 52.04900 42.98400
H  53.97000 51.96300 44.01000
H  51.96800 54.13100 43.71600
H  53.31800 54.10200 44.91400
H  51.84400 53.43400 45.31600
H  48.07600 53.38100 42.81300
H  46.84700 52.98200 44.10700
H  46.35300 53.37400 42.49100
H  44.61300 48.71000 40.26500
H  42.02400 46.53600 43.12800
H  41.74100 46.09900 41.35600
H  41.12700 47.60300 42.17000

