158

Mg 6.52500 54.38300 40.59100
C  6.19300 50.90300 40.56300
C  9.94500 53.87400 39.99300
C  6.80900 57.52900 40.01400
C  3.10300 54.62200 41.11000
N  7.87400 52.60600 40.21500
C  7.52100 51.26000 40.21000
C  8.75800 50.37700 40.05100
C  9.94500 51.34700 40.38000
C  9.23400 52.71100 40.18500
C  10.74600 51.01700 41.68600
C  8.92000 49.81200 38.57100
C  9.07000 50.75500 37.34500
H  7.81500 51.10000 36.58500
N  8.05300 55.52400 39.95000
C  9.41900 55.16300 39.82000
C  10.19500 56.29000 39.61100
C  9.31900 57.41400 39.63900
C  7.95800 56.88000 39.79100
C  11.71600 56.29300 39.34600
C  9.81900 58.87500 39.45000
O  11.02000 59.05200 39.29900
C  8.90300 60.17300 39.51500
N  5.06700 55.81700 40.34800
C  5.49800 57.10100 40.30200
C  4.32700 58.09400 40.48600
C  3.14200 57.16900 40.81900
C  3.81200 55.80700 40.77600
C  4.71700 59.26700 41.50600
C  1.87100 57.33000 39.94700
C  0.70000 58.03800 40.69100
N  4.94800 53.12300 40.77900
C  3.61400 53.35000 41.08400
C  2.93100 52.14900 41.37400
C  3.98400 51.10200 41.15700
C  5.14800 51.79200 40.82100
C  1.43800 51.97900 41.75000
C  4.21900 49.73900 41.09500
O  3.48200 48.81600 41.26800
C  5.64500 49.45000 40.72300
C  5.64400 48.69400 39.43200
O  5.21300 49.07600 38.38200
O  6.32400 47.53700 39.65300
C  6.14600 46.60000 38.61600
H  11.03500 53.91900 39.95200
H  6.90400 58.61100 40.13300
H  2.07100 54.87500 41.36400
H  8.73400 49.55800 40.76900
H  10.68200 51.25800 39.58200
H  10.70800 51.86300 42.37200
H  11.73000 50.58600 41.49500
H  10.22900 50.21900 42.21800
H  7.97000 49.31900 38.36700
H  9.71000 49.06100 38.56200
H  9.80700 50.32900 36.66400
H  9.48800 51.70400 37.68100
H  11.95400 57.00800 38.55800
H  11.98000 55.31300 38.94800
H  12.22100 56.35600 40.31000
H  8.12200 60.06800 38.76200
H  9.59700 61.01100 39.44600
H  8.51800 60.20300 40.53400
H  4.26100 58.60100 39.52300
H  2.91700 57.38400 41.86400
H  5.65800 58.86800 41.88500
H  3.97400 59.35700 42.29800
H  4.87000 60.26100 41.08500
H  1.59600 56.42000 39.41300
H  2.11500 57.82900 39.00900
H  0.70100 59.11600 40.52600
H  0.72900 57.79500 41.75300
H  -0.29500 57.64500 40.48200
H  1.28900 50.97300 42.14200
H  0.76900 52.07900 40.89600
H  1.10300 52.66200 42.53000
H  6.11900 48.82900 41.48300
H  5.07700 46.39100 38.56000
H  6.80200 45.79100 38.93600
H  6.41700 47.00200 37.64000
Mg 8.60600 47.52400 27.76900
C  6.85400 47.21000 30.98800
C  11.45200 47.84300 29.49000
C  9.93400 48.45500 24.89700
C  5.36700 47.95000 26.29500
N  9.05600 47.64600 29.98500
C  8.27700 47.36100 31.16000
C  9.06000 47.55800 32.46400
C  10.46700 48.04900 31.88400
C  10.32100 47.79800 30.36500
C  10.85200 49.49100 32.42000
C  9.13700 46.39500 33.52500
C  9.09100 46.82200 35.02900
H  9.66300 45.89600 36.06700
N  10.48900 47.78800 27.14200
C  11.54700 47.82000 28.04700
C  12.76500 47.99200 27.29300
C  12.37900 48.19200 25.89200
C  10.86000 48.13600 25.87600
C  14.17300 48.18200 27.97600
C  13.29800 48.47100 24.69800
O  12.89500 49.07400 23.68200
C  14.75900 48.21800 24.85500
N  7.76800 48.28300 25.85900
C  8.57300 48.44500 24.83000
C  7.81400 48.58800 23.48000
C  6.32800 48.51000 23.97500
C  6.42900 48.15900 25.44300
C  8.09900 49.89600 22.69400
C  5.44200 47.47900 23.17100
C  5.47100 47.65900 21.69600
N  6.52700 47.50500 28.44400
C  5.32600 47.73200 27.71200
C  4.12600 47.44900 28.51900
C  4.68000 47.27300 29.79400
C  6.14300 47.36300 29.73700
C  2.70500 47.40100 27.99400
C  4.38000 47.05700 31.19600
O  3.32100 46.81700 31.77500
C  5.73500 47.09500 32.04200
C  5.84800 45.88800 32.85900
O  5.75900 44.78400 32.34500
O  5.90500 46.16500 34.21600
C  5.85800 44.99100 35.06400
H  12.39000 47.93800 30.04200
H  10.42500 48.77200 23.97500
H  4.38800 47.93600 25.81100
H  8.75800 48.39700 33.09200
H  11.25700 47.33300 32.11300
H  11.66200 49.20600 33.09100
H  10.13200 50.12200 32.94200
H  11.22300 50.17900 31.66000
H  10.00300 45.75300 33.36700
H  8.42500 45.59400 33.32700
H  8.01300 46.74300 35.17000
H  9.45100 47.84300 35.16200
H  14.84600 47.32500 27.96300
H  14.13400 48.51100 29.01500
H  14.49200 49.08100 27.44900
H  15.34500 49.03300 25.28100
H  15.12800 48.01300 23.85000
H  15.04100 47.34100 25.43700
H  8.12300 47.80500 22.78700
H  5.82900 49.47100 23.84700
H  8.90300 49.71800 21.97900
H  8.40500 50.76600 23.27500
H  7.27000 50.16700 22.04000
H  4.37300 47.53600 23.37700
H  5.84700 46.48600 23.36800
H  6.15200 46.96800 21.20000
H  5.68500 48.69100 21.41800
H  4.45400 47.39900 21.40000
H  2.59400 48.36200 27.49300
H  2.11400 47.31500 28.90600
H  2.42900 46.57400 27.34100
H  5.74200 47.95600 32.71200
H  6.92000 44.74400 35.06800
H  5.35600 44.08700 34.71800
H  5.48200 45.22900 36.05900

