158

Mg 7.54300 54.49800 41.36200
C  6.92700 51.10500 40.43800
C  10.78800 54.19200 40.35000
C  7.74700 57.83800 41.54300
C  4.00900 54.69700 41.98300
N  8.60500 52.87800 40.31400
C  8.21400 51.60700 40.10700
C  9.30400 50.89400 39.28000
C  10.63800 51.61300 39.68200
C  10.01200 52.98300 40.22800
C  11.50400 50.93300 40.74300
C  9.00500 51.06300 37.74500
C  9.29900 49.78600 36.86800
H  8.77400 49.76400 35.43200
N  9.12200 55.83200 41.18100
C  10.38700 55.53000 40.72100
C  11.16600 56.71300 40.76400
C  10.36000 57.78200 41.18600
C  9.00500 57.20300 41.38300
C  12.66100 56.67400 40.35300
C  10.79200 59.13000 41.41300
O  11.99200 59.36200 41.29400
C  10.00400 60.26900 41.94400
N  6.03200 56.00100 41.71700
C  6.45700 57.33100 41.68400
C  5.18500 58.21400 41.77300
C  4.00600 57.21900 41.85700
C  4.68700 55.95000 41.83500
C  5.28000 59.41700 42.79500
C  2.99500 57.29800 40.66400
C  1.48600 57.35400 40.97900
N  5.81200 53.15200 41.46000
C  4.53600 53.39900 41.74100
C  3.84300 52.18400 41.71200
C  4.72300 51.23800 41.31500
C  5.93900 51.90900 40.98900
C  2.48000 51.98000 42.29800
C  4.96200 49.82400 41.02900
O  4.28100 48.80200 41.18100
C  6.35800 49.72100 40.28600
C  6.24800 49.32800 38.92300
O  5.68200 49.98600 38.07300
O  6.72200 48.02700 38.81100
C  6.41300 47.46600 37.45300
H  11.86200 54.19600 40.15500
H  7.81800 58.92700 41.58700
H  2.93400 54.60400 42.15100
H  9.16600 49.89200 39.68700
H  11.26000 51.77600 38.80100
H  11.71500 51.63000 41.55300
H  12.41300 50.46200 40.36800
H  10.81800 50.20700 41.17900
H  9.52300 51.92900 37.33300
H  7.94700 51.22500 37.53600
H  8.88100 48.94400 37.42000
H  10.37800 49.64300 36.81200
H  12.99800 57.61400 39.91600
H  12.94100 55.88400 39.65500
H  13.22300 56.44800 41.25900
H  9.61600 59.96200 42.91600
H  9.14000 60.59700 41.36700
H  10.60500 61.16200 42.11800
H  5.03000 58.74400 40.83300
H  3.46100 57.26500 42.79900
H  4.96900 60.29100 42.22400
H  6.27900 59.40600 43.23200
H  4.48300 59.38800 43.53800
H  3.18600 56.37200 40.12200
H  3.26700 58.09100 39.96800
H  1.06900 56.40500 40.64300
H  0.90800 58.09000 40.42000
H  1.34200 57.61200 42.02800
H  2.27600 50.91100 42.34600
H  1.77000 52.49100 41.64600
H  2.32000 52.48700 43.25000
H  6.95200 48.95600 40.78500
H  6.26900 46.44200 37.79800
H  7.25600 47.60200 36.77500
H  5.50600 47.83600 36.97500
Mg -12.01700 15.89600 41.52800
C  -9.25700 13.84500 41.11000
C  -10.23900 18.46100 40.16900
C  -15.00300 17.62800 41.21900
C  -13.84200 13.18600 42.86000
N  -9.99200 16.09900 40.77400
C  -8.97400 15.21200 40.82600
C  -7.67600 15.85400 40.32700
C  -7.98800 17.38600 40.28600
C  -9.50600 17.35300 40.45000
C  -7.36800 18.18500 41.41200
C  -7.14600 15.18800 39.02200
C  -5.60100 14.93500 38.95800
H  -4.92700 15.71000 37.80200
N  -12.57400 17.77300 40.82100
C  -11.63800 18.66600 40.26700
C  -12.37900 19.68500 39.64300
C  -13.81000 19.56600 39.92400
C  -13.88000 18.28100 40.74400
C  -11.76300 20.83300 38.92200
C  -14.89400 20.51100 39.50700
O  -14.64700 21.42500 38.75000
C  -16.27200 20.34500 40.05100
N  -14.13700 15.48300 41.99400
C  -15.18800 16.35400 41.78200
C  -16.49200 15.81900 42.23900
C  -16.06600 14.41600 42.80100
C  -14.55000 14.32900 42.56600
C  -17.21900 16.72700 43.18800
C  -17.00900 13.23200 42.20700
C  -17.89600 12.42400 43.23700
N  -11.71700 13.86200 41.89500
C  -12.50800 12.88200 42.42500
C  -11.69100 11.67400 42.52400
C  -10.42100 11.96500 42.04900
C  -10.51000 13.30100 41.65300
C  -12.12000 10.41700 43.23700
C  -9.03300 11.54400 41.82400
O  -8.46400 10.50500 42.04800
C  -8.30400 12.72000 41.23100
C  -7.13300 13.13200 42.17600
O  -7.32400 13.62800 43.23100
O  -5.86800 12.73200 41.61300
C  -4.79300 13.34300 42.38800
H  -9.57200 19.32100 40.07900
H  -15.94400 18.16000 41.06800
H  -14.45100 12.36400 43.24300
H  -6.98100 15.71400 41.15500
H  -7.52100 17.75200 39.37200
H  -8.12000 18.44100 42.15800
H  -7.04000 19.14000 41.00200
H  -6.45700 17.74900 41.82300
H  -7.39200 15.97700 38.31100
H  -7.80600 14.35200 38.78800
H  -5.38900 13.87200 38.85000
H  -5.15300 15.21000 39.91300
H  -12.03700 20.97000 37.87600
H  -10.67600 20.88300 38.98600
H  -12.07000 21.78400 39.35800
H  -16.85400 21.11600 39.54700
H  -16.18800 20.33200 41.13800
H  -16.72700 19.39100 39.78500
H  -17.09800 15.71500 41.33900
H  -16.07900 14.27400 43.88100
H  -18.20000 16.88900 42.74000
H  -16.64200 17.64300 43.31300
H  -17.26500 16.19600 44.13900
H  -16.44800 12.46900 41.66800
H  -17.65400 13.58100 41.40100
H  -17.96500 13.03400 44.13700
H  -17.69600 11.37300 43.44300
H  -18.90400 12.28000 42.84700
H  -12.78800 9.87900 42.56500
H  -12.79200 10.82500 43.99200
H  -11.33100 9.73100 43.54400
H  -7.75000 12.59500 40.30100
H  -4.76400 12.84600 43.35800
H  -4.81500 14.43200 42.44000
H  -3.93900 13.13100 41.74400

