158

Mg -1.96900 18.12500 26.94100
C  -2.56700 16.11900 29.57900
C  -2.56600 20.86800 28.95200
C  -2.08000 20.02600 24.17200
C  -2.00900 15.24600 24.74000
N  -2.49700 18.39800 28.99800
C  -2.59000 17.44100 29.94700
C  -2.73100 18.02600 31.41000
C  -3.18600 19.50800 30.99300
C  -2.67600 19.59300 29.55700
C  -4.65400 19.82400 31.29000
C  -1.42500 17.94500 32.24200
C  -1.70900 17.25300 33.58200
H  -0.52900 17.05700 34.53800
N  -2.14000 20.17500 26.63500
C  -2.28400 21.17600 27.58500
C  -2.35600 22.45600 26.94800
C  -2.12900 22.19700 25.49200
C  -2.07300 20.76000 25.37100
C  -2.80700 23.67200 27.69900
C  -2.01200 23.30700 24.35500
O  -1.88200 22.98800 23.20900
C  -1.71100 24.67600 24.70700
N  -2.08700 17.66000 24.81700
C  -2.04600 18.65600 23.90000
C  -1.88800 18.18200 22.42400
C  -1.76300 16.62900 22.65600
C  -1.94400 16.50900 24.14000
C  -2.95100 18.70300 21.47100
C  -0.46300 16.10700 21.90700
C  0.88500 16.56000 22.44500
N  -2.16800 16.04300 27.10400
C  -2.10900 15.01400 26.15700
C  -2.19600 13.72600 26.88100
C  -2.40000 14.19900 28.24900
C  -2.41500 15.56400 28.31900
C  -2.31500 12.31700 26.28700
C  -2.65600 13.77000 29.55500
O  -2.74700 12.62100 29.95400
C  -2.57900 14.95100 30.51400
C  -1.26900 14.76900 31.30900
O  -0.18300 14.96900 30.85300
O  -1.54100 14.06000 32.46300
C  -0.38500 13.56800 33.26000
H  -2.78400 21.70100 29.62300
H  -1.87100 20.70900 23.34600
H  -1.89600 14.45100 24.00000
H  -3.57500 17.51100 31.86800
H  -2.63100 20.25200 31.56400
H  -5.03400 19.79900 30.26800
H  -4.83300 20.82500 31.68300
H  -5.17400 19.07300 31.88500
H  -1.20100 18.95600 32.58200
H  -0.62100 17.51700 31.64400
H  -2.20400 16.31600 33.32900
H  -2.42800 17.83400 34.16000
H  -3.62600 23.30300 28.31700
H  -3.21800 24.49800 27.11900
H  -2.09000 23.97200 28.46300
H  -1.47800 25.24600 23.80800
H  -0.93400 24.63900 25.47100
H  -2.54500 25.14800 25.22800
H  -0.94500 18.58500 22.05500
H  -2.58500 16.04200 22.24500
H  -2.47400 19.29100 20.68600
H  -3.71800 19.23800 22.03100
H  -3.32300 17.84800 20.90700
H  -0.58800 16.42500 20.87200
H  -0.56100 15.02300 21.95700
H  0.79100 17.32700 23.21300
H  1.43900 17.03700 21.63700
H  1.44800 15.71700 22.84600
H  -1.81900 11.65300 26.99500
H  -1.77900 12.14400 25.35400
H  -3.38900 12.21500 26.13200
H  -3.45200 15.05000 31.16100
H  -0.25100 14.02200 34.24200
H  0.51500 13.79400 32.68800
H  -0.62000 12.51200 33.38700
Mg 6.21900 54.03100 40.87300
C  5.24200 50.69300 40.67500
C  9.28400 53.09600 39.64900
C  6.89400 57.22900 40.16900
C  2.78400 54.82400 41.61300
N  7.15000 52.09600 40.31700
C  6.57500 50.84100 40.36000
C  7.58100 49.76000 39.92800
C  8.92900 50.55900 40.03700
C  8.46300 52.03100 39.97800
C  9.93500 50.12400 41.18400
C  7.41300 49.14400 38.48000
C  6.62300 49.91800 37.43800
H  7.39900 50.67900 36.32200
N  7.91800 55.07600 40.03300
C  9.12200 54.45100 39.68000
C  10.07800 55.42800 39.31200
C  9.39800 56.67100 39.31600
C  7.97900 56.38700 39.78900
C  11.53600 55.10200 38.97100
C  9.95600 57.96400 38.96100
O  11.10600 58.07000 38.61600
C  9.09600 59.27000 38.87800
N  4.88300 55.77000 40.69700
C  5.53300 56.99300 40.55200
C  4.47500 58.11000 40.70400
C  3.18000 57.31800 41.13800
C  3.64700 55.86800 41.17600
C  4.89200 59.08600 41.82900
C  1.84900 57.54100 40.28400
C  0.47000 57.64200 40.92600
N  4.32400 53.00200 41.12100
C  3.06000 53.49200 41.54000
C  2.20100 52.39900 41.79700
C  3.00800 51.28000 41.47900
C  4.27600 51.71000 41.05200
C  0.79200 52.40400 42.19900
C  3.06900 49.81000 41.45500
O  2.20900 48.94300 41.83500
C  4.49800 49.33600 40.94200
C  4.38700 48.48000 39.76000
O  3.79900 48.83300 38.74700
O  5.04600 47.32300 40.06300
C  5.03300 46.25800 39.02100
H  10.25600 52.64900 39.42900
H  7.06900 58.30200 40.27100
H  1.78900 55.16400 41.91100
H  7.54700 48.92500 40.62700
H  9.57500 50.46500 39.16400
H  10.79300 49.56800 40.80500
H  9.44800 49.50500 41.93700
H  10.33600 50.98200 41.72300
H  6.93700 48.16400 38.50800
H  8.32400 49.00600 37.89900
H  6.14400 50.69200 38.03800
H  5.75600 49.38000 37.05500
H  11.71000 54.02600 38.99700
H  12.24700 55.36800 39.75200
H  11.75600 55.41000 37.94900
H  8.13400 58.98100 38.45500
H  9.62300 60.03700 38.31100
H  9.08700 59.77100 39.84600
H  4.54700 58.54000 39.70500
H  2.87900 57.55400 42.15900
H  5.35500 59.94200 41.33700
H  5.63100 58.54600 42.41900
H  4.14900 59.42200 42.55200
H  1.90600 56.65600 39.65100
H  2.03600 58.43800 39.69300
H  -0.02000 58.44400 40.37400
H  0.59600 57.91900 41.97300
H  -0.05500 56.68800 40.89200
H  0.26200 52.15600 41.27900
H  0.47900 53.34200 42.65900
H  0.63100 51.60500 42.92200
H  4.98400 48.86600 41.79700
H  5.92500 45.66800 39.23000
H  5.05900 46.61900 37.99300
H  4.04700 45.79900 39.09700

