158

Mg 1.28000 -1.54000 44.39600
C  4.61200 -0.24900 44.00000
C  0.21500 1.27500 42.74300
C  -1.73600 -3.00900 43.94600
C  2.51500 -4.23900 45.90200
N  2.33700 0.15000 43.20800
C  3.68000 0.52300 43.30500
C  3.98900 1.88300 42.75700
C  2.57200 2.54000 42.83700
C  1.62100 1.27500 42.90900
C  2.38900 3.50100 44.02800
C  4.55500 1.80500 41.33100
C  6.01400 2.12900 40.90500
H  6.15800 2.99200 39.60900
N  -0.66800 -0.83400 43.59300
C  -0.85800 0.35400 42.97500
C  -2.19900 0.53600 42.58000
C  -2.77800 -0.78300 42.86600
C  -1.70000 -1.61200 43.47000
C  -2.72000 1.81200 41.91300
C  -4.19300 -1.17600 42.56500
O  -4.91700 -0.42300 41.92300
C  -4.73800 -2.43200 43.06200
N  0.57500 -3.40000 44.78300
C  -0.72100 -3.69500 44.61500
C  -1.00100 -5.00800 45.34500
C  0.30700 -5.49600 45.90500
C  1.17100 -4.30800 45.48800
C  -2.06600 -4.81000 46.40900
C  0.80700 -6.89300 45.32000
C  1.13900 -7.88900 46.43100
N  3.14200 -2.21500 44.78400
C  3.52400 -3.34200 45.45000
C  4.86100 -3.29200 45.83500
C  5.36000 -2.11800 45.27200
C  4.27300 -1.48300 44.60500
C  5.64000 -4.27600 46.70600
C  6.50600 -1.25300 45.24600
O  7.62200 -1.29000 45.76600
C  6.12800 -0.07800 44.27700
C  6.38500 1.12600 45.04900
O  5.61000 1.60200 45.90700
O  7.59000 1.64000 44.65300
C  8.09600 2.71700 45.36900
H  -0.05100 2.29200 42.44800
H  -2.59300 -3.68600 43.97600
H  2.95200 -5.05100 46.48700
H  4.61200 2.44800 43.45000
H  2.35200 3.21200 42.00800
H  3.27000 3.83000 44.57900
H  1.69000 3.03600 44.72300
H  1.95600 4.44700 43.70300
H  3.98900 2.44400 40.65300
H  4.32500 0.90000 40.76800
H  6.35900 1.12300 40.66900
H  6.54400 2.56500 41.75300
H  -2.85500 1.56100 40.86100
H  -2.11900 2.72000 41.86500
H  -3.71500 2.03000 42.30200
H  -5.78900 -2.62300 42.84300
H  -4.53900 -2.31100 44.12700
H  -4.12700 -3.16600 42.53700
H  -1.31500 -5.71900 44.58000
H  0.19400 -5.47000 46.98900
H  -1.46100 -4.39700 47.21600
H  -2.48200 -5.78600 46.66100
H  -2.90300 -4.22400 46.03100
H  1.76000 -6.65100 44.85100
H  0.16100 -7.41500 44.61400
H  2.09000 -7.57900 46.86400
H  1.11700 -8.90800 46.04400
H  0.37000 -7.98100 47.19700
H  5.97500 -5.01300 45.97600
H  4.98600 -4.80100 47.40200
H  6.44600 -3.63900 47.07100
H  6.81900 0.00500 43.43800
H  9.12900 2.91700 45.08600
H  8.10800 2.44800 46.42500
H  7.50400 3.59300 45.10400
Mg 17.07800 -0.93700 28.32100
C  16.01100 0.99700 31.07400
C  19.16000 -2.59200 30.52000
C  18.63400 -2.26700 25.65400
C  15.43200 1.38800 26.26000
N  17.61500 -0.76100 30.52800
C  16.98800 0.01500 31.47100
C  17.37400 -0.33400 32.85400
C  18.49700 -1.45200 32.65300
C  18.40000 -1.62500 31.11200
C  19.88600 -1.13300 33.19600
C  16.08600 -1.00300 33.54300
C  15.69700 -0.36800 34.89100
H  16.75000 0.45200 35.71900
N  18.42500 -2.43900 28.08200
C  19.15900 -2.99400 29.12300
C  19.84300 -4.15300 28.52400
C  19.81400 -4.03100 27.15900
C  18.95600 -2.88600 26.87700
C  20.40800 -5.25600 29.42400
C  20.49900 -4.88100 26.07400
O  20.30100 -4.57500 24.89200
C  21.39800 -6.04500 26.45100
N  17.11500 -0.44500 26.23700
C  17.83100 -1.18400 25.32800
C  17.59100 -0.67100 23.91900
C  16.50300 0.41400 24.12700
C  16.35600 0.49700 25.66400
C  18.87000 -0.30500 23.11400
C  15.20000 0.14100 23.35600
C  15.27100 0.62800 21.92300
N  15.87700 0.78700 28.55200
C  15.15100 1.56500 27.62200
C  14.26500 2.56800 28.27400
C  14.64200 2.35800 29.68600
C  15.59300 1.29300 29.78600
C  13.37700 3.53600 27.64100
C  14.34500 2.83600 30.98300
O  13.61700 3.74600 31.42200
C  15.27800 2.03100 32.03000
C  16.25000 2.98300 32.71100
O  17.36400 3.14000 32.32700
O  15.67700 3.57200 33.78600
C  16.40600 4.51800 34.55500
H  19.70100 -3.34100 31.10300
H  19.06900 -2.61900 24.71600
H  14.86200 1.94600 25.51400
H  17.72700 0.53400 33.41200
H  18.18300 -2.40300 33.08400
H  20.21000 -1.88500 33.91700
H  19.90100 -0.12100 33.59900
H  20.54500 -1.11200 32.32900
H  16.16100 -2.05400 33.82000
H  15.25600 -0.88400 32.84700
H  15.41300 -1.12600 35.62200
H  14.80800 0.22300 34.67000
H  20.71000 -6.05000 28.74200
H  19.70600 -5.60900 30.17900
H  21.34900 -4.98000 29.90100
H  20.71800 -6.78300 26.87600
H  22.22600 -5.81900 27.12200
H  21.89700 -6.41200 25.55400
H  17.05500 -1.38100 23.28900
H  16.92500 1.31800 23.68900
H  19.10800 0.74600 22.94900
H  18.83400 -0.78300 22.13600
H  19.73600 -0.73300 23.61900
H  14.40800 0.65100 23.90500
H  14.93600 -0.90700 23.21900
H  14.88700 -0.11300 21.22200
H  16.28600 0.87000 21.60900
H  14.61000 1.47500 21.73900
H  12.34200 3.26300 27.85000
H  13.49800 3.52800 26.55700
H  13.59500 4.56200 27.93700
H  14.60000 1.63400 32.78500
H  17.47200 4.29300 34.59600
H  16.00500 4.39500 35.56200
H  16.12800 5.52600 34.24900

