158

Mg 44.83900 4.30200 46.35400
C  43.06200 7.25700 46.27000
C  41.90000 2.55100 45.72600
C  46.69500 1.53000 45.76900
C  47.86600 6.15300 46.52900
N  42.78500 4.84900 45.84900
C  42.24700 6.17000 45.83600
C  40.73100 6.13500 45.74200
C  40.32300 4.61800 45.76000
C  41.71300 3.98200 45.78900
C  39.31100 4.17500 46.89800
C  40.19900 6.80300 44.39800
C  40.93400 6.60800 43.06600
H  40.08700 6.46900 41.78300
N  44.34800 2.31700 45.79000
C  43.09700 1.76700 45.71900
C  43.19100 0.36200 45.54700
C  44.55600 0.02800 45.62600
C  45.29700 1.32800 45.72200
C  41.96100 -0.53200 45.35300
C  45.12000 -1.38700 45.65200
O  44.32100 -2.29100 45.65800
C  46.52900 -1.80800 45.84500
N  46.91600 3.89300 46.00500
C  47.46600 2.66400 45.88200
C  49.00700 2.62100 46.10000
C  49.25400 4.06600 46.52800
C  47.91800 4.76800 46.25600
C  49.60900 1.59200 47.08300
C  50.49600 4.71700 45.87400
C  51.60300 4.97500 46.90700
N  45.41700 6.36800 46.62000
C  46.65500 6.94400 46.63800
C  46.42900 8.38000 46.70900
C  45.01100 8.55000 46.69500
C  44.46200 7.28100 46.51500
C  47.52600 9.35800 46.70900
C  43.99200 9.51800 46.76800
O  44.01200 10.72900 47.00500
C  42.61600 8.73600 46.49100
C  41.74000 8.91200 47.67300
O  41.65000 8.09800 48.56900
O  40.82100 9.94200 47.52600
C  39.68900 9.98600 48.45400
H  40.97300 1.98400 45.62300
H  47.38400 0.68300 45.79000
H  48.82700 6.63200 46.72900
H  40.31800 6.73900 46.55000
H  39.83600 4.42700 44.80300
H  39.54600 3.25800 47.43700
H  38.40400 3.97100 46.32900
H  39.20800 5.01800 47.58100
H  40.26700 7.87200 44.60200
H  39.13300 6.60000 44.29800
H  41.55000 5.72600 43.24400
H  41.59400 7.47300 43.00800
H  42.10800 -1.08100 44.42300
H  40.95400 -0.12200 45.26800
H  42.05000 -1.40200 46.00200
H  47.17600 -1.49100 45.02600
H  46.59100 -2.89200 45.75600
H  46.77400 -1.31600 46.78600
H  49.53100 2.53800 45.14900
H  49.26800 3.99600 47.61600
H  50.13700 0.83200 46.50700
H  48.82600 1.13900 47.69100
H  50.38200 2.01200 47.72800
H  50.34600 5.66100 45.35100
H  50.93300 4.05100 45.13000
H  52.58700 4.79000 46.47500
H  51.41900 4.47000 47.85600
H  51.50600 6.02500 47.18100
H  48.30700 9.27600 47.46600
H  47.17600 10.36400 46.94100
H  47.99800 9.38400 45.72700
H  42.02500 9.22700 45.71800
H  40.01900 10.05200 49.49000
H  39.17700 9.02400 48.42200
H  38.96700 10.75900 48.19200
Mg 9.57400 47.94800 24.15600
C  7.18500 48.72500 26.70500
C  12.02900 49.08400 26.30100
C  11.79800 47.70700 21.73500
C  6.93500 47.51500 21.92200
N  9.61700 48.71900 26.19100
C  8.55000 48.81400 27.10800
C  9.04500 49.22100 28.47800
C  10.40000 49.86700 28.08600
C  10.72100 49.21600 26.77000
C  10.49600 51.40200 28.11500
C  9.23000 48.00900 29.41600
C  8.68600 48.35800 30.79600
H  8.19400 47.20400 31.69900
N  11.74600 48.25800 24.07400
C  12.58600 48.67200 25.07500
C  13.95300 48.69100 24.63800
C  13.86500 48.31400 23.25200
C  12.40900 48.11800 22.93000
C  15.21300 48.99000 25.49600
C  14.99300 48.06700 22.22800
O  14.76600 47.79900 21.08800
C  16.37600 48.09800 22.68900
N  9.44300 47.69500 22.14900
C  10.52700 47.45100 21.35100
C  10.12800 46.94500 19.93200
C  8.54600 46.77900 20.08200
C  8.26200 47.32600 21.44100
C  10.60800 47.88400 18.72000
C  7.95000 45.38000 19.95700
C  8.78400 44.24000 20.53900
N  7.48500 48.09500 24.27100
C  6.55400 47.87700 23.26900
C  5.18300 48.16500 23.83200
C  5.37100 48.45200 25.20700
C  6.79100 48.31900 25.40800
C  3.84900 48.07800 23.11300
C  4.70600 48.65500 26.50000
O  3.56600 48.81700 26.80800
C  5.87500 48.80600 27.48900
C  5.59700 47.76000 28.48300
O  6.08000 46.63000 28.51400
O  4.69600 48.21800 29.46100
C  4.38200 47.23900 30.53300
H  12.72100 49.52300 27.02200
H  12.60400 47.51000 21.02500
H  6.20700 47.35600 21.12400
H  8.21200 49.89200 28.69100
H  11.08300 49.46500 28.83500
H  10.88700 51.70900 29.08500
H  9.46000 51.73100 28.03800
H  10.99100 51.81100 27.23300
H  10.26700 47.71200 29.57100
H  8.63300 47.14200 29.13100
H  7.85400 49.06100 30.75400
H  9.49400 48.81500 31.36700
H  14.77700 49.12100 26.48600
H  15.71000 49.91700 25.21000
H  15.85300 48.10700 25.50400
H  16.60400 47.23800 23.31900
H  16.50200 49.09800 23.10500
H  16.87400 47.87800 21.74500
H  10.57000 45.94900 19.90000
H  7.96300 47.41800 19.42100
H  10.92300 48.81800 19.18600
H  9.89800 48.32900 18.02300
H  11.52800 47.48900 18.28900
H  7.79500 45.16300 18.90100
H  6.94500 45.37100 20.37800
H  8.23700 43.72800 21.33100
H  9.69300 44.61400 21.01200
H  9.09800 43.55200 19.75500
H  3.11700 47.55000 23.72300
H  4.05400 47.35300 22.32600
H  3.52200 49.01700 22.66400
H  5.82100 49.79400 27.94600
H  4.40400 47.64900 31.54300
H  5.05500 46.38400 30.60600
H  3.40500 46.79500 30.34100

