158

Mg 16.40900 -2.44300 27.45900
C  15.41200 -0.01800 29.82800
C  18.22000 -3.99800 29.91800
C  17.99800 -4.19200 25.05300
C  14.96400 -0.36600 24.98900
N  16.82600 -1.94400 29.54000
C  16.22100 -1.03000 30.32400
C  16.63800 -1.20400 31.88300
C  17.59000 -2.42800 31.82600
C  17.53200 -2.84500 30.33300
C  19.08800 -2.12400 32.24500
C  15.31100 -1.35900 32.67800
C  15.09300 -0.50100 33.95400
H  16.37900 0.00800 34.68500
N  17.75800 -3.97300 27.47800
C  18.34200 -4.54600 28.55200
C  19.23700 -5.60900 28.14200
C  19.20300 -5.68400 26.75000
C  18.26200 -4.62500 26.36600
C  19.93300 -6.50200 29.14700
C  19.95300 -6.58200 25.74100
O  19.72600 -6.61400 24.53500
C  20.97900 -7.57900 26.20200
N  16.47600 -2.28600 25.36500
C  17.14700 -3.16100 24.64700
C  17.12900 -2.77700 23.14200
C  16.11800 -1.62600 23.05400
C  15.81600 -1.37400 24.51600
C  18.57000 -2.53600 22.62700
C  14.84000 -1.99200 22.25000
C  13.62600 -2.47600 22.97100
N  15.30000 -0.66900 27.40600
C  14.68900 -0.03700 26.36400
C  13.85900 1.05500 26.84900
C  14.09700 1.09700 28.20100
C  14.99000 0.08600 28.48000
C  12.91900 1.86300 26.01300
C  13.76300 1.81400 29.45500
O  12.91000 2.65100 29.76500
C  14.57400 1.04400 30.56800
C  15.31500 2.09200 31.37200
O  16.37500 2.62500 31.09100
O  14.61800 2.45000 32.50700
C  15.10500 3.67900 33.25800
H  18.78000 -4.47200 30.72600
H  18.30200 -4.86600 24.24900
H  14.47100 0.27200 24.25200
H  17.23100 -0.37400 32.26600
H  17.14700 -3.21500 32.43700
H  19.72300 -2.13900 31.35900
H  19.39500 -2.86500 32.98200
H  19.28000 -1.16900 32.73400
H  15.21600 -2.39000 33.01800
H  14.40100 -1.22200 32.09400
H  14.58200 -1.17800 34.63900
H  14.56400 0.41300 33.68500
H  21.00100 -6.61900 28.96100
H  19.45000 -7.45300 28.92200
H  19.88700 -6.21700 30.19800
H  21.69000 -7.81700 25.41000
H  20.45700 -8.50600 26.44200
H  21.61900 -7.17000 26.98400
H  16.68700 -3.63600 22.63800
H  16.52000 -0.73600 22.57100
H  18.73800 -2.94400 21.63000
H  19.30800 -2.81000 23.38100
H  18.58900 -1.44700 22.58200
H  15.06400 -2.83200 21.59300
H  14.49300 -1.09100 21.74500
H  13.77900 -2.92500 23.95300
H  13.18800 -3.27500 22.37300
H  12.88800 -1.67600 22.92300
H  12.11600 2.20800 26.66400
H  12.69200 1.26100 25.13300
H  13.46600 2.76900 25.75200
H  13.84200 0.62200 31.25600
H  15.63200 4.36900 32.60000
H  15.84600 3.29400 33.95900
H  14.29500 4.12000 33.84000
Mg -11.53800 16.31700 40.53100
C  -8.39300 14.95700 39.91200
C  -10.24200 19.37500 39.62600
C  -14.64100 17.55100 40.19600
C  -12.83300 13.10800 40.81900
N  -9.51100 17.05700 39.80500
C  -8.39900 16.35800 39.68200
C  -7.13300 17.21700 39.40000
C  -7.75700 18.65000 39.57000
C  -9.26900 18.36400 39.74500
C  -7.21600 19.57200 40.69500
C  -6.61400 16.86600 37.93600
C  -5.16500 17.22700 37.61000
H  -4.81000 17.70600 36.21200
N  -12.29000 18.27100 40.18300
C  -11.58300 19.37000 39.74000
C  -12.51000 20.46800 39.54400
C  -13.80800 20.01600 39.95900
C  -13.64200 18.54500 40.11600
C  -12.05300 21.87300 39.26600
C  -15.01200 20.90500 40.01900
O  -14.96200 22.12300 39.75800
C  -16.26400 20.29500 40.62900
N  -13.44300 15.43300 40.38900
C  -14.55600 16.15700 40.23700
C  -15.81900 15.24700 40.16100
C  -15.21200 13.76200 40.28500
C  -13.76400 14.10100 40.52800
C  -16.88700 15.55900 41.30800
C  -15.28900 12.87400 38.95700
C  -16.00200 11.53600 39.08400
N  -10.83700 14.39800 40.61400
C  -11.44300 13.19100 40.80000
C  -10.45800 12.15700 40.71200
C  -9.21500 12.80300 40.39100
C  -9.51300 14.16000 40.32300
C  -10.81800 10.69800 40.89200
C  -7.84700 12.57400 40.13500
O  -7.24300 11.52000 40.08700
C  -7.23100 13.93200 39.80300
C  -6.23900 14.10000 40.92800
O  -6.52700 14.52600 42.01400
O  -4.98000 13.96800 40.40200
C  -3.85600 14.51600 41.20100
H  -9.89500 20.41000 39.63000
H  -15.66300 17.89400 40.01900
H  -13.26700 12.11200 40.92400
H  -6.38400 17.03300 40.17000
H  -7.74500 19.13500 38.59400
H  -6.25300 19.16700 41.00600
H  -7.84800 19.60200 41.58300
H  -7.23400 20.57800 40.27500
H  -7.26800 17.29100 37.17500
H  -6.68100 15.77900 37.91000
H  -4.54800 16.36300 37.85400
H  -4.92600 18.07000 38.25800
H  -12.54700 22.25400 38.37200
H  -11.00000 21.89200 38.98400
H  -12.33400 22.50300 40.11100
H  -16.90600 21.15400 40.82300
H  -16.06100 19.71000 41.52600
H  -16.74400 19.63800 39.90400
H  -16.28500 15.39300 39.18700
H  -15.70200 13.19000 41.07300
H  -17.17800 14.66800 41.86500
H  -17.74600 15.85700 40.70600
H  -16.48100 16.23200 42.06400
H  -14.30100 12.78700 38.50500
H  -15.79100 13.43900 38.17000
H  -15.41600 10.72600 38.65200
H  -17.05200 11.63100 38.80600
H  -16.20800 11.20300 40.10100
H  -9.84700 10.21300 40.79700
H  -11.50500 10.35100 40.12000
H  -11.19500 10.47600 41.89100
H  -6.72600 13.83600 38.84200
H  -3.06500 14.85400 40.53100
H  -3.42300 13.78700 41.88600
H  -4.14600 15.46000 41.66300

