158

Mg 24.52000 -6.94800 47.79000
C  27.04200 -4.76500 46.81100
C  22.44000 -5.68100 45.27200
C  22.37000 -9.45300 48.26900
C  26.88600 -8.64100 49.80500
N  24.76000 -5.45400 46.15400
C  25.92400 -4.69600 45.95000
C  25.64900 -3.67600 44.84900
C  24.10400 -3.92000 44.53200
C  23.74300 -5.16800 45.30900
C  23.22700 -2.64100 44.61800
C  26.55300 -3.96900 43.59600
C  27.31000 -2.83000 43.03700
H  27.17000 -2.36600 41.52900
N  22.56000 -7.38900 47.04200
C  21.88600 -6.71300 46.06400
C  20.58100 -7.34300 45.88300
C  20.47400 -8.41500 46.80400
C  21.80000 -8.46600 47.46500
C  19.58000 -6.85800 44.88900
C  19.22600 -9.28800 47.06200
O  18.14200 -8.94600 46.50600
C  19.29400 -10.49900 47.87900
N  24.66900 -8.74200 48.92900
C  23.50800 -9.51800 49.03200
C  23.82900 -10.77500 49.90900
C  25.22900 -10.51700 50.42000
C  25.65600 -9.18800 49.68800
C  22.73900 -11.23600 50.95600
C  26.29300 -11.67600 50.32200
C  27.30400 -11.57600 51.43400
N  26.60100 -6.76300 48.27800
C  27.39400 -7.47600 49.17300
C  28.67100 -6.85000 49.35800
C  28.61700 -5.75300 48.41500
C  27.28700 -5.77900 47.80400
C  29.85200 -7.25800 50.29500
C  29.28400 -4.63300 47.84200
O  30.37800 -4.22500 48.11500
C  28.30900 -3.94100 46.79300
C  28.24800 -2.42600 47.18800
O  28.12800 -1.86400 48.31000
O  28.31400 -1.72300 46.02900
C  28.08200 -0.26400 46.19700
H  21.82600 -5.17300 44.52600
H  21.64900 -10.25800 48.42400
H  27.63100 -9.00500 50.51600
H  25.93300 -2.65800 45.11400
H  23.98100 -4.22900 43.49400
H  23.84300 -1.75200 44.75000
H  22.45700 -2.76100 45.38100
H  22.66600 -2.47700 43.69800
H  25.94100 -4.38800 42.79800
H  27.21100 -4.80600 43.83200
H  28.34100 -3.17400 43.11400
H  27.35700 -1.95700 43.68800
H  19.51200 -7.75900 44.27900
H  19.87700 -5.94800 44.36700
H  18.62300 -6.57300 45.32500
H  19.36600 -10.33600 48.95400
H  20.15700 -11.03200 47.48100
H  18.36600 -10.97700 47.56500
H  23.81600 -11.56600 49.15900
H  24.98700 -10.38800 51.47500
H  21.74000 -10.90000 50.67700
H  22.98100 -10.70100 51.87400
H  22.72900 -12.31500 51.11200
H  26.76100 -11.75500 49.34000
H  25.79800 -12.63100 50.49600
H  27.28600 -12.47000 52.05800
H  27.38400 -10.63700 51.98100
H  28.25200 -11.64100 50.90100
H  30.31500 -8.14400 49.85900
H  29.46400 -7.48200 51.28800
H  30.52700 -6.40300 50.29000
H  28.85200 -3.92500 45.84800
H  28.26500 0.18800 45.22200
H  28.65400 0.20200 46.99900
H  27.06100 -0.08800 46.53600
Mg 16.69400 51.50600 25.54200
C  18.30200 50.59700 28.42800
C  13.98000 52.46200 27.53300
C  15.03800 52.14800 22.83300
C  19.27800 50.02900 23.68500
N  16.28700 51.65100 27.74300
C  17.11100 51.20600 28.73700
C  16.58600 51.48000 30.14700
C  15.10000 51.98800 29.84000
C  15.13700 52.15700 28.27800
C  13.73600 51.24500 30.30300
C  17.51900 52.38300 31.10600
C  17.89200 51.92800 32.51300
H  16.94100 51.02500 33.35500
N  14.75300 52.15900 25.23600
C  13.83200 52.51800 26.11500
C  12.64500 53.06600 25.45000
C  12.91800 53.08100 24.06700
C  14.27200 52.39600 23.95300
C  11.51200 53.59700 26.16100
C  12.07300 53.57500 22.88400
O  12.53100 53.68700 21.73300
C  10.65400 53.84900 23.20100
N  17.03700 51.07900 23.52700
C  16.23200 51.50000 22.57200
C  16.80700 51.10800 21.15600
C  18.23000 50.77800 21.55200
C  18.17000 50.55100 23.03100
C  15.97500 49.97000 20.54100
C  19.29100 51.89200 21.17800
C  20.73200 51.43800 20.90500
N  18.49300 50.59400 25.90700
C  19.39300 49.99300 25.11400
C  20.45100 49.36200 25.87600
C  19.97700 49.52600 27.15600
C  18.85000 50.32100 27.16500
C  21.69000 48.65400 25.31100
C  20.32400 49.22700 28.52800
O  21.22300 48.62500 29.02200
C  19.19000 49.82200 29.41100
C  18.61700 48.78700 30.32500
O  17.76400 47.92200 30.07400
O  19.33200 48.92300 31.50400
C  19.28500 47.89400 32.50300
H  13.09300 52.69600 28.12500
H  14.56400 52.33300 21.86700
H  20.13300 49.61400 23.14700
H  16.44900 50.47600 30.55000
H  14.96000 52.95700 30.31900
H  13.18700 50.78600 29.48100
H  13.12000 52.03400 30.73600
H  13.89700 50.47600 31.05800
H  17.22900 53.43400 31.09900
H  18.46800 52.46100 30.57400
H  18.00200 52.82200 33.12700
H  18.90900 51.53600 32.52800
H  11.77400 54.09400 27.09500
H  10.87500 52.74300 26.39200
H  11.02200 54.33700 25.52900
H  10.54000 54.85600 23.60200
H  10.20300 52.97900 23.67800
H  10.07600 53.80200 22.27800
H  16.73600 52.04800 20.60700
H  18.53400 49.84300 21.08300
H  15.38500 49.55300 21.35700
H  16.50000 49.12700 20.09100
H  15.23900 50.42000 19.87400
H  19.23200 52.58100 22.02100
H  18.95100 52.39400 20.27300
H  21.49600 52.00500 21.43800
H  20.79100 51.70600 19.85000
H  20.85800 50.37100 21.08600
H  22.40300 49.47800 25.34500
H  21.44300 48.32100 24.30300
H  21.83400 47.76600 25.92500
H  19.72600 50.54700 30.02300
H  19.89900 47.04600 32.19600
H  18.24000 47.67000 32.71800
H  19.70500 48.25600 33.44200

