158

Mg 23.86200 -7.51100 47.17000
C  26.49600 -5.32600 46.08900
C  21.90700 -6.16400 44.85000
C  21.74300 -9.94700 47.93700
C  26.41400 -9.26800 49.08400
N  24.26700 -5.92900 45.47200
C  25.29000 -5.05700 45.41500
C  25.00600 -3.96600 44.35600
C  23.45900 -4.21100 44.10800
C  23.19900 -5.56400 44.79300
C  22.55300 -3.08000 44.59700
C  25.89500 -4.06700 43.03500
C  26.24600 -2.76200 42.44200
H  27.00800 -2.79300 41.09100
N  22.04400 -8.00400 46.46200
C  21.34400 -7.18700 45.61900
C  19.93800 -7.56600 45.74500
C  19.89500 -8.71700 46.57600
C  21.22700 -8.92900 47.07000
C  18.98500 -6.82100 44.90200
C  18.62900 -9.47800 47.01900
O  17.54000 -9.11800 46.60700
C  18.57100 -10.45100 48.06900
N  24.06700 -9.30700 48.36900
C  22.94100 -10.10700 48.50100
C  23.24500 -11.31700 49.34200
C  24.82000 -11.19500 49.58000
C  25.17600 -9.85700 48.98100
C  22.37600 -11.42000 50.67000
C  25.79500 -12.37400 49.15900
C  26.77700 -12.82000 50.28000
N  25.91900 -7.19000 47.65900
C  26.79800 -8.06900 48.36500
C  28.13800 -7.53600 48.38800
C  28.01800 -6.30200 47.53300
C  26.68600 -6.27300 47.05900
C  29.39200 -7.96300 49.13000
C  28.78600 -5.29700 46.87700
O  29.97600 -4.99000 46.87500
C  27.86000 -4.63800 45.93400
C  27.76300 -3.17500 46.11400
O  27.08100 -2.61800 46.93600
O  28.56500 -2.55900 45.14000
C  28.81400 -1.16200 45.25100
H  21.16200 -5.61100 44.27400
H  21.04900 -10.78100 48.05700
H  27.26300 -9.67300 49.63900
H  25.07300 -3.01200 44.88000
H  23.25400 -4.26300 43.03800
H  21.81000 -2.94500 43.81100
H  23.08500 -2.15000 44.79600
H  22.15500 -3.37800 45.56700
H  25.38800 -4.67900 42.28800
H  26.74800 -4.74300 43.09900
H  26.79300 -2.30700 43.26800
H  25.24700 -2.42100 42.17000
H  19.09000 -5.74700 45.05700
H  17.94500 -7.06600 45.11400
H  19.14500 -6.98500 43.83700
H  19.07100 -11.35600 47.72600
H  17.53600 -10.63900 48.35300
H  19.05700 -10.10700 48.98200
H  23.08000 -12.11400 48.61700
H  24.99900 -11.17300 50.65500
H  21.55100 -10.72600 50.82900
H  22.97500 -11.25600 51.56600
H  21.99200 -12.42300 50.85700
H  26.37300 -12.09500 48.27800
H  25.20600 -13.25600 48.90800
H  27.56000 -13.40100 49.79300
H  26.27500 -13.50400 50.96400
H  27.21600 -12.04900 50.91300
H  29.19900 -8.86800 49.70600
H  29.70100 -7.16800 49.80900
H  30.21900 -8.13400 48.44200
H  28.21800 -4.87100 44.93100
H  29.55600 -0.81400 44.53200
H  29.26200 -0.95200 46.22200
H  27.87000 -0.63200 45.12200
Mg 47.04100 44.78500 43.31700
C  43.60800 44.03700 42.98700
C  47.82200 41.51700 42.54600
C  50.32200 45.61600 43.22800
C  46.26800 48.15700 43.62700
N  45.73000 43.01900 42.49600
C  44.37500 42.85000 42.70500
C  43.87700 41.40700 42.68500
C  45.25400 40.61700 42.46600
C  46.41500 41.78000 42.53000
C  45.57100 39.58000 43.58000
C  42.92700 41.29100 41.43900
C  43.26900 41.93100 40.03100
H  43.15500 41.22200 38.70200
N  48.82900 43.73900 43.00700
C  48.91400 42.38200 42.73400
C  50.29300 41.97800 42.61400
C  51.09400 43.16500 42.78900
C  50.09900 44.25200 43.02500
C  50.82300 40.56000 42.35000
C  52.60700 43.18000 42.87100
O  53.28900 42.18900 42.73200
C  53.32800 44.44100 43.10400
N  48.15300 46.67100 43.27800
C  49.45100 46.70300 43.30100
C  49.94400 48.20000 43.46900
C  48.62900 49.05700 43.49400
C  47.58100 47.91800 43.41800
C  50.79900 48.42900 44.76300
C  48.44800 50.14800 42.39200
C  47.60800 51.28300 42.79800
N  45.33300 45.91300 43.31500
C  45.16900 47.28700 43.47400
C  43.79000 47.62900 43.52700
C  43.18900 46.34200 43.40600
C  44.12300 45.35200 43.19300
C  43.12200 48.99900 43.78800
C  41.92500 45.69400 43.37600
O  40.82800 46.12100 43.73700
C  42.19800 44.22300 43.11700
C  41.50400 43.41600 44.19500
O  40.53000 42.69200 44.07000
O  42.19200 43.51500 45.36400
C  41.89500 42.68400 46.52700
H  47.96600 40.45300 42.34800
H  51.33800 45.95300 43.44600
H  46.00600 49.19900 43.82100
H  43.38700 41.13000 43.61900
H  45.34100 40.21800 41.45500
H  46.35000 39.83200 44.29900
H  45.83200 38.62300 43.12700
H  44.75200 39.27900 44.23400
H  41.89400 41.44100 41.75300
H  42.96000 40.22400 41.21600
H  44.30600 42.25200 39.93000
H  42.66200 42.83300 39.94800
H  50.83800 40.42200 41.26900
H  49.94500 39.97900 42.63000
H  51.75500 40.13300 42.72100
H  53.02600 45.17400 42.35600
H  54.35500 44.33300 42.75500
H  53.30900 44.70500 44.16200
H  50.60400 48.44900 42.63800
H  48.59400 49.65700 44.40300
H  51.07900 49.47900 44.68200
H  51.68300 47.80100 44.65500
H  50.24200 48.17700 45.66500
H  47.96900 49.68700 41.52800
H  49.38800 50.49400 41.96200
H  48.11500 52.17900 42.44100
H  47.56000 51.51400 43.86200
H  46.61800 51.27600 42.34100
H  42.25600 48.89400 44.44100
H  42.88300 49.55100 42.87900
H  43.83100 49.60500 44.35200
H  41.78500 43.94400 42.14700
H  40.88500 42.29100 46.41100
H  42.01600 43.23000 47.46300
H  42.66900 41.91600 46.51800

