158

Mg 8.97800 4.05800 27.89300
C  10.33800 2.45200 30.85700
C  7.28500 6.22400 29.92000
C  7.44000 5.11800 25.17300
C  10.70000 1.72100 25.92600
N  8.71600 4.27100 30.18200
C  9.43200 3.59100 31.22000
C  9.14200 4.12300 32.56200
C  8.13600 5.31700 32.23300
C  8.07900 5.34900 30.65900
C  6.67300 5.21000 32.61200
C  10.44000 4.59500 33.23400
C  10.85500 3.95500 34.54200
H  11.36600 4.95400 35.60800
N  7.51000 5.40700 27.65300
C  6.92700 6.24200 28.53900
C  6.16600 7.26600 27.88200
C  6.10900 6.86400 26.49700
C  7.07500 5.71400 26.35300
C  5.47200 8.46200 28.50000
C  5.23600 7.32900 25.33400
O  5.35600 6.95100 24.18900
C  4.16700 8.29800 25.61300
N  9.12900 3.50700 25.87500
C  8.34500 4.08400 24.87300
C  8.63500 3.66600 23.42800
C  9.75000 2.61900 23.74600
C  9.90700 2.62600 25.28500
C  7.43500 3.22400 22.58800
C  11.15100 2.86100 23.10600
C  11.68900 1.79400 22.17500
N  10.27800 2.50000 28.22100
C  10.92000 1.67000 27.29600
C  11.75800 0.71300 27.98700
C  11.57600 0.99100 29.32300
C  10.65700 2.12700 29.46300
C  12.68500 -0.33200 27.34500
C  12.01400 0.65900 30.68800
O  12.84100 -0.12100 31.13200
C  11.24500 1.61500 31.68100
C  10.58900 0.85000 32.75200
O  9.52800 0.22400 32.65400
O  11.31600 0.93200 33.94600
C  10.72700 0.21000 35.02400
H  6.96000 7.02700 30.58500
H  7.05900 5.56300 24.25100
H  11.16400 1.04300 25.20700
H  8.59500 3.33500 33.08100
H  8.54900 6.31300 32.39300
H  6.10000 4.87600 31.74700
H  6.30400 6.17300 32.96500
H  6.51700 4.54800 33.46300
H  10.31300 5.65000 33.47400
H  11.28500 4.39300 32.57500
H  11.69100 3.26900 34.40600
H  10.03000 3.32300 34.87000
H  5.76800 9.43400 28.10700
H  5.63100 8.42700 29.57800
H  4.40700 8.25900 28.38100
H  3.62500 8.50900 24.69100
H  4.48600 9.22100 26.09700
H  3.41100 7.91800 26.30100
H  9.11400 4.57300 23.05900
H  9.29900 1.69000 23.39700
H  6.54800 3.17000 23.22000
H  7.59000 2.20000 22.24800
H  7.25300 3.89400 21.74700
H  11.87700 2.97900 23.91100
H  11.17500 3.83100 22.61000
H  12.04500 2.10200 21.19200
H  10.97000 0.97600 22.13200
H  12.54100 1.33500 22.67600
H  13.47900 -0.50800 28.07100
H  13.06700 0.06800 26.40600
H  12.13300 -1.26200 27.20900
H  11.93500 2.18100 32.30700
H  10.22700 -0.70300 34.70000
H  10.07400 0.77600 35.68800
H  11.53700 -0.22400 35.61100
Mg 43.24500 3.46400 46.98600
C  41.18300 6.23800 46.95800
C  40.33400 1.43200 47.26700
C  45.13800 0.73200 46.24500
C  46.03800 5.53300 46.40600
N  40.98400 3.80300 47.08100
C  40.45800 5.05900 47.09600
C  38.91700 4.98300 47.25000
C  38.70400 3.44000 47.77300
C  40.03000 2.79900 47.23600
C  38.58800 3.32100 49.29000
C  37.97900 5.24400 45.96600
C  38.61300 4.92700 44.60500
H  39.00800 5.99200 43.56300
N  42.82100 1.41700 46.75200
C  41.55100 0.73300 47.00600
C  41.72200 -0.69700 46.70300
C  43.10000 -0.88000 46.20600
C  43.75500 0.43500 46.34100
C  40.58700 -1.72300 46.82300
C  43.66100 -2.11800 45.63900
O  43.14300 -3.24700 45.69800
C  44.97900 -2.13600 44.83600
N  45.28500 3.11900 46.41600
C  45.80200 1.92600 46.27400
C  47.36500 1.92600 46.12800
C  47.74700 3.50500 46.20400
C  46.26000 4.14200 46.23700
C  48.15200 1.03700 47.15600
C  48.74200 4.06000 45.13000
C  49.99600 3.28000 44.74200
N  43.62200 5.48700 46.80400
C  44.78100 6.19000 46.46200
C  44.47800 7.58800 46.56000
C  43.11000 7.58800 46.77800
C  42.58000 6.36300 46.85700
C  45.37200 8.65000 46.41100
C  41.95600 8.51100 46.92300
O  41.96400 9.75900 46.96900
C  40.69500 7.70100 47.00300
C  39.97100 8.11200 48.21200
O  40.08400 7.64800 49.33600
O  39.16700 9.18800 47.91100
C  38.53900 9.71800 49.13200
H  39.39300 0.90000 47.41800
H  45.76100 -0.16200 46.16500
H  46.92900 6.14700 46.26100
H  38.69500 5.77900 47.96100
H  37.78600 3.01400 47.36900
H  38.61600 4.27900 49.81000
H  39.53600 2.85500 49.56000
H  37.74900 2.73400 49.66400
H  37.75000 6.31000 45.97900
H  37.03600 4.75000 46.20100
H  37.80300 4.28600 44.26000
H  39.50900 4.33400 44.78700
H  40.79500 -2.38500 47.66400
H  40.66200 -2.35500 45.93800
H  39.56900 -1.38500 47.01200
H  45.78900 -2.41300 45.51100
H  45.22500 -1.17700 44.38100
H  45.05500 -2.89200 44.05500
H  47.57800 1.61200 45.10600
H  48.07800 3.68900 47.22600
H  47.51900 0.63000 47.94400
H  49.04500 1.45700 47.61800
H  48.44200 0.08100 46.71900
H  49.12200 5.04700 45.39400
H  48.10600 4.26100 44.26700
H  50.07700 2.45600 45.45100
H  50.83200 3.96400 44.88600
H  50.19200 2.97600 43.71400
H  44.97500 9.53500 46.90700
H  45.47100 8.72500 45.32800
H  46.39400 8.44600 46.73200
H  40.16000 8.00900 46.10500
H  38.01100 10.56400 48.69300
H  39.14500 9.87800 50.02400
H  37.82200 8.91700 49.31400

