158

Mg 8.07000 2.45500 27.94900
C  9.70300 1.11400 30.83000
C  6.35500 4.70300 30.08300
C  6.56500 3.71200 25.27800
C  9.85700 0.13200 25.90000
N  8.04300 2.74700 30.29600
C  8.77900 2.08000 31.20500
C  8.59500 2.64700 32.61800
C  7.50400 3.72500 32.39600
C  7.31900 3.82600 30.83600
C  6.16200 3.73000 33.13100
C  9.92400 3.16900 33.22100
C  9.73800 3.92500 34.54000
H  10.29700 3.30900 35.82400
N  6.70300 4.01000 27.72400
C  6.20000 4.78500 28.69400
C  5.31000 5.79200 28.08600
C  5.33600 5.55500 26.67600
C  6.24400 4.40600 26.48100
C  4.59600 6.89200 28.95100
C  4.51700 6.28500 25.60000
O  4.57100 5.93400 24.43700
C  3.86900 7.57400 26.05400
N  8.04000 1.86800 25.88500
C  7.38900 2.63800 24.95300
C  7.52200 2.05200 23.53300
C  8.79300 1.09100 23.74900
C  8.90500 0.98500 25.26100
C  6.16800 1.39800 22.99500
C  10.08400 1.58700 23.07300
C  10.86500 0.60900 22.18600
N  9.23600 0.81200 28.16100
C  9.98800 -0.00600 27.26900
C  10.83700 -0.88500 27.98300
C  10.79700 -0.42700 29.31400
C  9.76900 0.57300 29.41000
C  11.80600 -1.88600 27.42800
C  11.39100 -0.70800 30.63600
O  12.16100 -1.57200 30.97200
C  10.68200 0.30000 31.64800
C  10.16100 -0.45100 32.74800
O  9.19400 -1.17200 32.73300
O  10.91000 -0.21900 33.90900
C  10.29100 -0.74900 35.10300
H  5.92300 5.46700 30.73200
H  6.01600 4.05400 24.39800
H  10.41400 -0.54400 25.24700
H  8.15500 1.93100 33.31100
H  7.89600 4.73600 32.50600
H  6.13400 2.87700 33.80900
H  5.34700 3.64700 32.41200
H  6.08300 4.62800 33.74400
H  10.33100 3.85000 32.47400
H  10.64800 2.38800 33.45600
H  8.69100 4.18200 34.70000
H  10.33000 4.82500 34.38000
H  4.85200 7.90300 28.63200
H  4.79300 6.99600 30.01800
H  3.52000 6.71800 28.96500
H  3.48700 8.05200 25.15200
H  4.70000 8.18000 26.41500
H  3.09800 7.29700 26.77300
H  7.81300 2.86700 22.87000
H  8.56400 0.07700 23.42200
H  5.41800 1.33100 23.78300
H  6.43100 0.44500 22.53600
H  5.69500 1.94600 22.18000
H  10.78300 1.97200 23.81600
H  9.77700 2.36400 22.37200
H  11.50600 1.07100 21.43600
H  10.06900 -0.01700 21.78100
H  11.51600 -0.06800 22.74000
H  12.69600 -1.47200 26.95500
H  11.20900 -2.42400 26.69100
H  12.07600 -2.50400 28.28400
H  11.38800 0.96400 32.14800
H  10.19600 -1.83300 35.15400
H  9.27900 -0.34500 35.07400
H  10.72500 -0.40400 36.04100
Mg 40.98200 9.99400 29.51600
C  42.70700 11.13300 32.45100
C  38.96100 8.09800 31.61100
C  39.43500 8.77600 26.79900
C  43.60800 11.14800 27.68800
N  40.80700 9.78500 31.84700
C  41.59600 10.36000 32.83200
C  40.99900 10.06200 34.20300
C  39.99500 8.89200 33.83800
C  39.96100 8.79400 32.31300
C  40.12200 7.59400 34.63400
C  40.45200 11.33200 34.86700
C  39.93900 11.15000 36.36100
H  40.49500 12.09200 37.45100
N  39.30600 8.75200 29.27500
C  38.65800 8.06900 30.26100
C  37.59100 7.28900 29.60800
C  37.63500 7.56100 28.19100
C  38.81300 8.36300 28.02400
C  36.75200 6.27400 30.36300
C  36.79300 7.03600 27.13200
O  36.93100 7.24400 25.95900
C  35.52800 6.28300 27.49500
N  41.38000 10.09900 27.54600
C  40.67700 9.45100 26.58900
C  41.38700 9.45200 25.18900
C  42.65800 10.28400 25.50300
C  42.57400 10.53700 27.02700
C  41.61600 8.11800 24.52000
C  42.79700 11.45500 24.55900
C  42.16900 12.81500 24.89900
N  42.79200 10.99300 29.92500
C  43.67600 11.48100 29.06000
C  44.74700 12.02900 29.77600
C  44.38400 12.00800 31.19200
C  43.18200 11.32700 31.13600
C  46.08500 12.35800 29.15100
C  44.83500 12.32800 32.52600
O  45.76300 12.95300 33.00100
C  43.69100 11.77400 33.42500
C  44.30000 10.88800 34.47200
O  44.97100 9.88600 34.17700
O  44.00400 11.31500 35.73900
C  44.76900 10.62000 36.81000
H  38.43700 7.56600 32.40800
H  39.17900 8.36100 25.82200
H  44.36000 11.57300 27.02000
H  41.91100 9.70100 34.67800
H  39.01400 9.13600 34.24400
H  40.20100 6.79300 33.89800
H  39.21200 7.53400 35.23100
H  40.96300 7.45600 35.31300
H  39.88600 11.97500 34.19400
H  41.28500 11.97500 35.15300
H  40.34900 10.16100 36.56400
H  38.85100 11.11300 36.29600
H  36.75600 5.38400 29.73300
H  35.73400 6.63500 30.51000
H  37.34900 6.14800 31.26700
H  34.78900 6.85400 28.05900
H  35.83000 5.34800 27.96700
H  34.96600 6.02300 26.59800
H  40.74500 10.03400 24.52800
H  43.53200 9.66000 25.31700
H  41.34500 7.32700 25.21900
H  42.65800 7.99300 24.22500
H  40.88800 8.07200 23.71000
H  42.51400 11.18600 23.54100
H  43.85100 11.73000 24.51700
H  41.47100 13.13800 24.12700
H  43.00500 13.51000 24.96900
H  41.64400 12.95100 25.84500
H  46.70200 12.60400 30.01500
H  46.11400 13.20500 28.46500
H  46.26600 11.44800 28.57900
H  43.30400 12.65800 33.93300
H  44.70300 11.20200 37.72900
H  45.81800 10.40700 36.60400
H  44.38900 9.60900 36.95500

