158

Mg 2.46300 -1.52500 43.85200
C  5.77700 -1.18500 42.68700
C  1.61200 1.20800 41.97000
C  -0.67600 -2.45200 44.21500
C  3.53100 -4.65400 45.25000
N  3.58500 -0.16900 42.45800
C  4.89300 -0.21500 42.12200
C  5.26600 0.94300 41.19700
C  4.06400 1.90200 41.39000
C  2.97500 0.97600 42.02400
C  4.25200 3.23000 42.22700
C  5.56300 0.52000 39.74300
C  6.61000 1.41200 39.01700
H  6.17200 2.05500 37.65800
N  0.66800 -0.66200 43.30900
C  0.56600 0.43900 42.47700
C  -0.87900 0.67200 42.28300
C  -1.58500 -0.28200 43.10800
C  -0.51000 -1.16500 43.61400
C  -1.40900 1.84300 41.44200
C  -3.05900 -0.38500 43.33600
O  -3.81000 0.38700 42.79700
C  -3.74800 -1.51000 44.13000
N  1.55600 -3.31700 44.55000
C  0.22400 -3.40100 44.62300
C  -0.18800 -4.77900 45.13500
C  1.15200 -5.42500 45.64300
C  2.18400 -4.42700 45.04100
C  -1.53600 -4.79400 45.98400
C  1.46400 -6.90500 45.22300
C  1.48100 -8.04000 46.24100
N  4.30000 -2.69600 44.05600
C  4.56600 -3.89900 44.68200
C  6.00700 -4.23700 44.65000
C  6.53300 -3.15200 43.84100
C  5.43800 -2.32800 43.49200
C  6.59000 -5.42700 45.25600
C  7.71700 -2.64400 43.21200
O  8.88700 -3.07700 43.23700
C  7.28500 -1.27100 42.57400
C  7.97400 -0.18100 43.25000
O  7.87000 0.08000 44.40300
O  8.77300 0.54000 42.41000
C  9.14500 1.83400 42.88900
H  1.26600 2.17100 41.58900
H  -1.67700 -2.86800 44.35000
H  3.82400 -5.67900 45.48800
H  6.10600 1.50800 41.60200
H  3.65200 2.29800 40.46200
H  5.24200 3.15200 42.67700
H  3.56300 3.40500 43.05300
H  4.21700 4.07800 41.54300
H  4.67600 0.56500 39.11100
H  6.08800 -0.43500 39.75800
H  7.55400 0.86800 39.05200
H  6.82000 2.28300 39.63700
H  -2.40400 2.06500 41.82800
H  -1.43600 1.52000 40.40100
H  -0.75200 2.70400 41.56200
H  -4.81600 -1.29600 44.18300
H  -3.36600 -1.59900 45.14700
H  -3.66800 -2.44400 43.57500
H  -0.37100 -5.09300 44.10700
H  1.23400 -5.32500 46.72500
H  -2.39200 -5.01800 45.34700
H  -1.64000 -3.79800 46.41400
H  -1.49100 -5.54900 46.76900
H  2.29900 -6.91300 44.52300
H  0.62200 -7.07500 44.55100
H  2.23100 -8.78200 45.96800
H  0.55100 -8.59600 46.11500
H  1.45600 -7.78900 47.30100
H  6.75800 -6.11900 44.43100
H  6.03800 -5.87300 46.08300
H  7.57400 -5.30100 45.70700
H  7.70600 -1.24300 41.56900
H  9.48600 1.75700 43.92100
H  8.27600 2.49100 42.92600
H  10.02200 2.21400 42.36400
Mg 45.99400 24.61300 28.82900
C  46.94100 27.00500 31.35200
C  45.24200 22.45600 31.53300
C  45.81300 22.12100 26.65900
C  47.55400 26.71700 26.57700
N  46.09300 24.77500 31.15200
C  46.37800 25.85200 31.91000
C  46.09600 25.64300 33.39400
C  45.66900 24.13400 33.37800
C  45.57200 23.80100 31.89100
C  46.65000 23.20900 34.15200
C  44.92800 26.59400 33.89400
C  45.25000 27.46700 35.18200
H  44.18000 27.40500 36.31600
N  45.47400 22.54300 29.04100
C  45.10500 21.90600 30.19400
C  44.83400 20.51600 29.80400
C  45.07800 20.38300 28.39200
C  45.42500 21.76700 27.92500
C  44.50600 19.48600 30.94500
C  45.06600 19.15400 27.55800
O  45.42600 19.11000 26.33300
C  44.51900 17.87200 28.28300
N  46.67400 24.37200 26.93600
C  46.35500 23.31100 26.15700
C  46.76700 23.51200 24.71500
C  47.14400 25.06200 24.62900
C  47.13000 25.44900 26.14200
C  47.85500 22.48700 24.33100
C  46.05100 25.89600 23.84500
C  44.76300 26.27600 24.62900
N  46.91300 26.57700 28.77900
C  47.51500 27.26300 27.79100
C  47.97100 28.57400 28.31000
C  47.75200 28.55200 29.71700
C  47.15100 27.25900 29.97800
C  48.53400 29.64800 27.40000
C  47.77300 29.29800 30.93400
O  47.97100 30.51900 31.07600
C  47.31400 28.32900 32.13100
C  48.47200 28.10600 33.01200
O  49.64200 27.84700 32.70800
O  48.18300 28.49600 34.32400
C  49.27500 28.50600 35.27100
H  44.95400 21.87200 32.41000
H  45.68400 21.31800 25.92900
H  47.87700 27.31900 25.72500
H  47.03600 25.82700 33.91600
H  44.71700 24.03600 33.89900
H  46.00800 22.59700 34.78600
H  47.27000 23.71300 34.89300
H  47.22100 22.56300 33.48600
H  43.99700 26.04900 34.05100
H  44.78000 27.32400 33.09800
H  45.34700 28.51200 34.88800
H  46.20100 27.23600 35.66100
H  45.02900 18.54900 30.75000
H  43.44000 19.30000 30.80900
H  44.73100 19.86500 31.94100
H  45.40400 17.37600 28.68200
H  44.07700 17.14700 27.60000
H  43.72700 18.07600 29.00300
H  45.95400 23.28700 24.02300
H  48.08900 25.30400 24.14300
H  48.28000 21.95100 25.18000
H  48.68700 22.97500 23.82200
H  47.44800 21.73700 23.65300
H  45.67600 25.29100 23.01900
H  46.44600 26.86900 23.55500
H  44.64800 25.62200 25.49300
H  43.88300 26.01200 24.04200
H  44.77400 27.33000 24.90600
H  47.76300 30.41200 27.30300
H  48.74600 29.20800 26.42600
H  49.52000 29.90600 27.78700
H  46.42500 28.67900 32.65700
H  49.87000 27.60600 35.11000
H  48.98500 28.59200 36.31800
H  49.91300 29.37900 35.13300

