158

Mg 24.60100 -8.14700 47.83800
C  27.22200 -5.95400 46.53400
C  22.74000 -6.95500 45.16200
C  22.41900 -10.49800 48.44700
C  27.02600 -9.56100 49.97500
N  24.93700 -6.48400 46.18300
C  26.07900 -5.83300 45.78700
C  25.83200 -4.86800 44.61200
C  24.35700 -5.16000 44.28700
C  23.94800 -6.24000 45.28700
C  23.35000 -3.88800 44.18700
C  26.86800 -5.16800 43.45900
C  27.70000 -3.92900 43.02400
H  27.57100 -3.58000 41.49300
N  22.84000 -8.68900 46.91300
C  22.17900 -8.01800 45.89200
C  20.85800 -8.62400 45.61300
C  20.77800 -9.73100 46.54700
C  22.02500 -9.66500 47.37300
C  19.95600 -8.15100 44.42100
C  19.52700 -10.70800 46.71400
O  18.51100 -10.63600 46.01400
C  19.50900 -11.76200 47.71500
N  24.77500 -9.84000 49.09400
C  23.59800 -10.56600 49.23500
C  23.83700 -11.65400 50.29500
C  25.31800 -11.36900 50.79400
C  25.77800 -10.22900 49.86000
C  22.71800 -11.83700 51.39700
C  26.26600 -12.58600 50.76500
C  27.12200 -12.78200 52.00700
N  26.65600 -7.78300 48.26300
C  27.45100 -8.41400 49.17100
C  28.77700 -7.78100 49.22100
C  28.69400 -6.79600 48.22300
C  27.40800 -6.81600 47.62700
C  29.95700 -8.12000 50.04700
C  29.34700 -5.69300 47.61600
O  30.43000 -5.22800 47.93400
C  28.42800 -5.10100 46.48700
C  28.11800 -3.66100 46.72600
O  27.19300 -3.22200 47.43500
O  28.87400 -2.92300 45.88600
C  28.64200 -1.46200 46.04100
H  22.14900 -6.58700 44.32000
H  21.70900 -11.29300 48.68700
H  27.69900 -9.73300 50.81700
H  25.85900 -3.92300 45.15500
H  24.30400 -5.75200 43.37300
H  23.95900 -3.01400 44.41500
H  22.65800 -3.98000 45.02400
H  22.81300 -3.80600 43.24100
H  26.35300 -5.59500 42.59900
H  27.61800 -5.84900 43.86100
H  28.72800 -4.12900 43.32600
H  27.63900 -3.02000 43.62300
H  19.96400 -8.85300 43.58700
H  20.13700 -7.15300 44.02200
H  18.89600 -8.10700 44.67200
H  20.31800 -12.40800 47.37500
H  18.51700 -12.19400 47.58900
H  19.56900 -11.46200 48.76200
H  23.74500 -12.59000 49.74300
H  25.31800 -10.94300 51.79700
H  23.04400 -12.06300 52.41200
H  22.03100 -12.64300 51.13900
H  22.17400 -10.89500 51.45600
H  26.93200 -12.58200 49.90200
H  25.67100 -13.49200 50.65600
H  26.85600 -13.74000 52.45400
H  27.06100 -12.03300 52.79600
H  28.15900 -12.81500 51.67500
H  30.26400 -7.23400 50.60100
H  30.79600 -8.43500 49.42600
H  29.79600 -8.80400 50.88100
H  29.00700 -5.19700 45.56800
H  29.23000 -0.74400 45.46900
H  28.84100 -1.21500 47.08400
H  27.61600 -1.16900 45.82000
Mg 47.09500 34.86800 28.28700
C  45.27200 32.94500 30.56300
C  47.43700 37.27800 30.73600
C  48.41300 37.05500 25.97200
C  46.20300 32.69100 25.70700
N  46.49400 34.95900 30.45100
C  45.75600 34.09100 31.17100
C  45.83300 34.60400 32.62300
C  46.02900 36.17100 32.46700
C  46.68400 36.16700 31.13600
C  44.63000 36.93600 32.46000
C  47.12400 34.02400 33.37500
C  47.01300 34.02300 34.94900
H  46.07600 35.03900 35.63400
N  47.91100 36.86100 28.32700
C  47.97400 37.68400 29.44400
C  48.76700 38.83300 29.12600
C  49.05000 38.79500 27.75100
C  48.52900 37.49400 27.26400
C  49.10600 39.89300 30.09900
C  49.70000 39.83500 26.91100
O  50.03300 39.57700 25.75600
C  50.06900 41.22200 27.35200
N  47.20700 34.86300 26.19100
C  47.76100 35.90000 25.48200
C  47.57200 35.71500 24.06200
C  47.05500 34.23500 23.90700
C  46.83500 33.87100 25.38400
C  46.60100 36.83800 23.48000
C  48.00200 33.23400 23.14600
C  49.32200 33.00300 23.80800
N  46.10100 33.11900 28.15300
C  45.83600 32.32900 27.03100
C  44.99000 31.23300 27.47800
C  44.75300 31.42600 28.86800
C  45.44300 32.63000 29.20300
C  44.31100 30.12000 26.63000
C  44.08800 30.94300 30.04000
O  43.31500 29.99000 30.26600
C  44.27100 31.96100 31.11500
C  44.37900 31.51100 32.53400
O  45.09500 30.60600 32.88900
O  43.35800 32.05100 33.27000
C  43.08200 31.63200 34.58100
H  47.55200 37.97600 31.56800
H  48.94500 37.65100 25.22700
H  45.93400 32.05400 24.86300
H  44.91900 34.26900 33.11300
H  46.77300 36.50800 33.18900
H  44.58700 37.51900 31.54100
H  44.71400 37.62600 33.30000
H  43.86500 36.16300 32.54100
H  47.98800 34.66100 33.18300
H  47.30900 33.01200 33.01500
H  48.01800 34.27400 35.28600
H  46.84700 33.02900 35.36400
H  48.36700 40.69300 30.06300
H  50.07800 40.35700 29.93500
H  49.15400 39.51600 31.12100
H  49.32200 41.60000 28.05000
H  50.18200 42.03300 26.63200
H  51.00500 41.17100 27.90700
H  48.47000 35.89600 23.47100
H  46.04600 34.18300 23.49800
H  46.24200 37.42400 24.32600
H  45.64500 36.52000 23.06500
H  47.02300 37.54300 22.76400
H  48.21700 33.62700 22.15200
H  47.45200 32.29600 23.08100
H  49.67500 33.85200 24.39400
H  50.06400 32.88700 23.01800
H  49.27200 32.14700 24.48100
H  43.38300 30.57900 26.28800
H  44.05500 29.25100 27.23600
H  44.94800 29.95500 25.76000
H  43.27100 32.39200 31.12900
H  43.63000 30.73600 34.87600
H  42.03700 31.50100 34.86300
H  43.29000 32.45000 35.27000

