158

Mg -2.00100 17.17100 25.80300
C  -2.70700 14.72500 28.49800
C  -2.28800 19.56400 28.12900
C  -1.96400 19.11100 23.29700
C  -2.66800 14.35700 23.61600
N  -2.49100 17.11600 28.10200
C  -2.51500 16.06900 28.96600
C  -2.50900 16.47000 30.39200
C  -2.68300 18.05500 30.26000
C  -2.48300 18.29700 28.74100
C  -4.10500 18.61100 30.64100
C  -1.23200 16.19100 31.31700
C  -0.91100 17.08600 32.48800
H  -0.61600 16.43400 33.82700
N  -2.03700 19.05600 25.73100
C  -2.18600 19.97600 26.72600
C  -2.30200 21.31400 26.27400
C  -2.21300 21.16500 24.85000
C  -2.05900 19.71600 24.57600
C  -2.59300 22.59600 27.18000
C  -2.23900 22.27900 23.76500
O  -2.12700 22.07400 22.55700
C  -2.30100 23.69700 24.24400
N  -2.40400 16.78900 23.73800
C  -2.09200 17.80200 22.91300
C  -2.06200 17.37300 21.38700
C  -2.48400 15.85800 21.49500
C  -2.42000 15.59700 23.03800
C  -3.04700 18.25300 20.65900
C  -1.52500 14.81000 20.67600
C  -2.17400 13.68300 19.81800
N  -2.46800 14.98100 25.97800
C  -2.70400 14.05300 24.97500
C  -2.92300 12.74000 25.52300
C  -2.90700 12.95700 26.95600
C  -2.73000 14.36700 27.11300
C  -2.96100 11.31700 24.83600
C  -2.90200 12.31500 28.19000
O  -3.06500 11.13500 28.48700
C  -3.05000 13.41300 29.26000
C  -2.08200 13.09100 30.33500
O  -0.91000 13.30100 30.21500
O  -2.69700 12.40200 31.35800
C  -1.79600 11.95400 32.37400
H  -2.10000 20.37300 28.83800
H  -1.96600 19.82000 22.46700
H  -2.76600 13.52500 22.91600
H  -3.37300 16.12400 30.95900
H  -1.94600 18.69300 30.74800
H  -4.52000 19.26700 29.87600
H  -4.10000 19.15300 31.58700
H  -4.72300 17.72000 30.74900
H  -0.31400 16.13700 30.73000
H  -1.31000 15.20300 31.77100
H  -1.83000 17.64400 32.66800
H  -0.19100 17.85800 32.21500
H  -1.98100 23.45000 26.88900
H  -2.43400 22.42000 28.24400
H  -3.63900 22.87300 27.04700
H  -2.52500 24.18100 23.29400
H  -1.35000 24.03800 24.65300
H  -3.06300 23.94100 24.98500
H  -1.02400 17.53200 21.09400
H  -3.45000 15.66500 21.02900
H  -3.99200 18.28700 21.20000
H  -3.18800 17.66400 19.75300
H  -2.64300 19.25300 20.50100
H  -0.99800 14.23600 21.43800
H  -0.86000 15.40500 20.05100
H  -2.11800 12.68600 20.25600
H  -1.85600 13.57500 18.78100
H  -3.25000 13.84800 19.85200
H  -3.12600 11.31100 23.75800
H  -3.74100 10.76500 25.36000
H  -2.00300 10.80000 24.89200
H  -4.05400 13.41700 29.68300
H  -0.87900 11.49100 32.00900
H  -2.27100 11.17400 32.96800
H  -1.42600 12.76300 33.00300
Mg 49.39500 45.03600 43.50600
C  45.96100 45.80600 42.72400
C  48.86800 41.91900 42.23300
C  52.55200 44.87100 43.17300
C  49.60900 48.58600 44.33400
N  47.58300 44.04100 42.62200
C  46.23200 44.43200 42.50600
C  45.32300 43.31900 41.87400
C  46.32700 42.09300 41.96200
C  47.72000 42.72000 42.29200
C  45.91900 41.06700 43.03700
C  44.83200 43.63700 40.43700
C  45.89600 44.25400 39.49900
H  45.43900 44.19900 38.00300
N  50.56100 43.52900 42.84300
C  50.21200 42.27700 42.41000
C  51.46600 41.49900 42.29200
C  52.55700 42.41100 42.37100
C  51.88400 43.66700 42.86100
C  51.47600 40.13500 41.83000
C  54.00700 42.14300 42.09800
O  54.41900 41.07700 41.61200
C  55.09100 43.14400 42.38400
N  50.83200 46.55300 43.66100
C  52.10800 46.15700 43.56300
C  53.08300 47.30300 43.77200
C  52.16500 48.42100 44.42800
C  50.81300 47.90400 44.05200
C  54.30600 47.04300 44.64300
C  52.53800 49.80000 43.84800
C  53.34900 50.77000 44.77300
N  48.08500 46.82700 43.72000
C  48.34100 48.14700 44.00000
C  47.19200 48.95300 43.84700
C  46.24300 48.09400 43.33800
C  46.83800 46.79700 43.28000
C  47.10400 50.39700 44.11200
C  44.89400 48.09600 42.79800
O  44.02000 48.92200 42.63200
C  44.63800 46.62900 42.42100
C  43.47100 46.13700 43.18300
O  42.41200 45.86400 42.62900
O  43.64400 45.96700 44.50900
C  42.36400 45.61200 45.27000
H  48.67400 40.85200 42.10900
H  53.63400 44.96400 43.05500
H  49.72600 49.57100 44.79000
H  44.36000 43.24000 42.37700
H  46.36600 41.62100 40.98000
H  45.11700 41.46900 43.65500
H  46.75100 40.93500 43.72900
H  45.73800 40.11100 42.54400
H  43.98200 44.29200 40.62700
H  44.38000 42.74700 39.99900
H  46.77900 43.62700 39.62500
H  45.97200 45.31300 39.74400
H  51.65600 40.07600 40.75700
H  50.49400 39.70600 42.02900
H  52.24600 39.59700 42.38300
H  54.85500 43.93000 41.66700
H  56.05800 42.74100 42.08400
H  55.07900 43.56100 43.39100
H  53.41600 47.57600 42.77100
H  52.27100 48.38000 45.51200
H  54.13800 45.99500 44.89200
H  54.30800 47.62400 45.56500
H  55.22800 47.01400 44.06200
H  51.69500 50.45600 43.63300
H  53.03800 49.67300 42.88800
H  52.83500 51.72800 44.83900
H  54.37300 51.01100 44.48500
H  53.69300 50.42500 45.74800
H  46.08000 50.76700 44.17500
H  47.46000 50.86100 43.19300
H  47.57900 50.69900 45.04500
H  44.40600 46.42500 41.37600
H  42.10200 44.62400 44.89300
H  41.60800 46.31500 44.91800
H  42.45200 45.54900 46.35400

