158

Mg -1.63400 17.24800 27.33700
C  -2.27900 14.83300 29.80600
C  -2.44300 19.71200 29.60200
C  -1.55900 19.47600 24.86800
C  -1.70900 14.65000 25.00400
N  -2.31900 17.21000 29.49000
C  -2.36500 16.15700 30.33600
C  -2.58700 16.67400 31.71400
C  -2.79300 18.20200 31.59200
C  -2.50000 18.44300 30.12100
C  -4.21700 18.77500 32.04600
C  -1.45800 16.36700 32.77900
C  -1.39100 17.15600 34.16300
H  -0.66500 16.55800 35.30700
N  -1.85500 19.39000 27.30400
C  -2.10200 20.19800 28.30100
C  -2.04700 21.55700 27.90100
C  -1.89800 21.56200 26.49800
C  -1.77200 20.11800 26.16200
C  -2.19800 22.71800 28.84100
C  -1.82600 22.68900 25.52200
O  -1.72800 22.53800 24.30900
C  -2.01700 24.07600 25.91600
N  -1.57600 17.06700 25.27100
C  -1.45600 18.13800 24.44900
C  -1.13100 17.78700 23.03000
C  -1.11400 16.20800 23.05800
C  -1.48200 15.93100 24.54100
C  -2.17700 18.34600 22.07400
C  0.18100 15.54000 22.54600
C  1.41000 15.92400 23.42600
N  -1.93200 15.19400 27.33800
C  -1.91200 14.22500 26.29900
C  -2.06700 12.93500 26.86200
C  -2.24600 13.14800 28.21800
C  -2.17700 14.54100 28.46300
C  -2.16700 11.66400 26.08700
C  -2.48500 12.44600 29.46300
O  -2.61700 11.23700 29.76800
C  -2.44200 13.53200 30.57100
C  -1.23600 13.26800 31.48900
O  -0.08200 13.53300 31.21700
O  -1.61900 12.70000 32.62800
C  -0.59400 12.52300 33.65500
H  -2.69600 20.42900 30.38600
H  -1.33200 20.08400 23.99000
H  -1.67800 13.84200 24.27100
H  -3.54400 16.39400 32.15600
H  -1.95100 18.70900 32.06300
H  -4.99300 18.08400 32.37400
H  -4.60400 19.28900 31.16600
H  -4.04700 19.48500 32.85500
H  -0.46800 16.26800 32.33400
H  -1.78000 15.40100 33.16800
H  -2.36600 17.44300 34.55600
H  -0.70500 17.96000 33.89500
H  -2.81800 23.48800 28.38200
H  -1.23300 23.13500 29.13000
H  -2.59800 22.38000 29.79700
H  -1.66000 24.26000 26.92900
H  -3.10000 24.17200 25.99200
H  -1.65700 24.82700 25.21300
H  -0.13400 18.14500 22.77600
H  -2.01100 15.82300 22.57400
H  -1.91000 19.35000 21.74600
H  -3.14300 18.42300 22.57300
H  -2.23500 17.58800 21.29300
H  0.39200 15.86300 21.52600
H  -0.00600 14.46600 22.55800
H  2.06100 16.67200 22.97300
H  1.98900 15.01800 23.60700
H  1.06100 16.34200 24.37000
H  -1.73300 10.90600 26.73800
H  -1.60800 11.70400 25.15200
H  -3.23500 11.47300 25.98000
H  -3.39500 13.65000 31.08700
H  0.12100 11.79000 33.28400
H  -0.90600 12.12900 34.62200
H  0.01700 13.42500 33.70800
Mg 26.00700 1.49700 29.78500
C  27.97400 1.08700 32.68000
C  23.27200 2.02100 31.90900
C  24.08900 1.30800 27.17900
C  28.75400 0.45100 27.84200
N  25.63900 1.48000 32.11100
C  26.69400 1.47600 33.03200
C  26.16700 1.79400 34.38500
C  24.59800 1.95800 34.25700
C  24.44600 1.84400 32.65200
C  23.81800 0.83200 34.95300
C  26.87100 3.07600 35.03700
C  27.71000 2.90700 36.30900
H  27.22500 3.85800 37.44600
N  23.93300 1.79200 29.54800
C  22.98000 1.90000 30.50600
C  21.68700 2.07400 29.83500
C  21.95100 1.97900 28.47600
C  23.37700 1.67000 28.34600
C  20.37300 2.35800 30.62600
C  20.95300 2.23500 27.34300
O  21.17900 2.36700 26.11600
C  19.51700 1.98900 27.67400
N  26.44600 1.02100 27.73300
C  25.42800 1.08800 26.85800
C  25.91500 0.75400 25.46600
C  27.43900 0.46500 25.59900
C  27.61500 0.63100 27.12900
C  25.31600 -0.48600 24.78400
C  28.32900 1.46600 24.75200
C  29.04400 0.80900 23.52300
N  28.05700 0.87300 30.14000
C  28.98900 0.46500 29.23900
C  30.24800 0.25300 29.98100
C  29.94700 0.43400 31.35000
C  28.59500 0.79900 31.34400
C  31.50000 -0.19600 29.38700
C  30.44900 0.42200 32.64700
O  31.64100 0.27900 33.01600
C  29.21700 0.85400 33.59600
C  28.85700 -0.13400 34.65300
O  28.45500 -1.25900 34.39600
O  29.22700 0.32800 35.85600
C  29.22800 -0.67900 36.96600
H  22.42000 2.26500 32.54800
H  23.49400 1.30700 26.26300
H  29.56700 -0.01500 27.28000
H  26.34500 0.88900 34.96500
H  24.28900 2.96300 34.54300
H  23.88200 -0.06500 34.33700
H  22.78500 1.17800 34.92000
H  24.16500 0.54100 35.94500
H  26.03600 3.71000 35.33600
H  27.43900 3.46800 34.19300
H  28.73700 3.19200 36.08300
H  27.61100 1.89100 36.69200
H  20.02300 3.27100 30.14500
H  20.50300 2.49400 31.70000
H  19.72700 1.48900 30.49300
H  18.98100 1.93800 26.72600
H  19.08500 2.86000 28.16600
H  19.40700 1.08800 28.27900
H  25.56700 1.55700 24.81600
H  27.62500 -0.58000 25.35100
H  26.04100 -1.13100 24.28800
H  24.67300 -0.09900 23.99300
H  24.81500 -1.09500 25.53700
H  29.09500 1.96300 25.34800
H  27.68700 2.27900 24.41500
H  28.81400 1.34800 22.60300
H  28.61000 -0.18900 23.45700
H  30.12400 0.93800 23.58300
H  31.72000 0.23400 28.40900
H  31.32600 -1.26900 29.30100
H  32.39600 -0.17900 30.00800
H  29.44000 1.82800 34.03000
H  28.28900 -0.42300 37.45800
H  30.10000 -0.51500 37.59900
H  29.23200 -1.72900 36.67300

