158

Mg 5.83200 54.51500 41.88800
C  5.31900 51.02700 41.57400
C  8.75200 54.13900 40.37500
C  5.79600 57.84300 41.49500
C  2.44500 54.60500 42.90600
N  6.82600 52.80500 40.93900
C  6.47900 51.46200 40.95400
C  7.52600 50.56800 40.17100
C  8.67900 51.59000 40.15800
C  8.07500 52.92500 40.49700
C  9.66200 51.28600 41.31800
C  7.15400 49.99600 38.71400
C  6.13400 50.68200 37.87000
H  6.68900 51.47600 36.68800
N  7.19100 55.88800 41.12000
C  8.40800 55.46600 40.65700
C  9.21000 56.69600 40.43100
C  8.31400 57.80700 40.64800
C  7.02800 57.24500 41.09600
C  10.70200 56.71100 39.99100
C  8.62300 59.25000 40.52200
O  9.79500 59.53700 40.17800
C  7.69100 60.30500 40.93000
N  4.28300 55.92700 42.05400
C  4.54700 57.29800 41.85100
C  3.35900 58.18300 42.22900
C  2.28800 57.07700 42.59200
C  3.05600 55.77100 42.46100
C  3.66800 59.13800 43.41200
C  0.98700 57.11500 41.73500
C  -0.32400 57.29100 42.56900
N  4.22200 53.08600 42.25300
C  2.99900 53.32200 42.78800
C  2.31200 52.08400 43.03300
C  3.26000 51.18600 42.61000
C  4.37400 51.85600 42.17100
C  1.00900 51.83800 43.56700
C  3.47400 49.75400 42.43700
O  2.79600 48.78000 42.74200
C  4.92500 49.61400 41.89300
C  4.80500 48.77900 40.74900
O  4.37600 49.19800 39.68000
O  5.11500 47.50700 41.08600
C  4.99700 46.55000 39.92900
H  9.76700 54.07600 39.97800
H  5.85200 58.93300 41.48900
H  1.39800 54.67000 43.21100
H  7.66000 49.67600 40.78200
H  9.13000 51.68600 39.17100
H  9.30400 50.54900 42.03700
H  9.95300 52.19100 41.85100
H  10.58900 50.87700 40.91600
H  6.79500 48.97700 38.86200
H  8.12600 49.86900 38.23900
H  5.66900 51.43000 38.51300
H  5.38100 50.01100 37.45800
H  10.83100 57.10200 38.98100
H  10.97900 55.65800 39.94100
H  11.29300 57.22900 40.74600
H  6.86900 60.18600 40.22300
H  8.18700 61.23000 40.63600
H  7.37900 60.24400 41.97200
H  3.17100 58.74700 41.31500
H  1.96300 57.08600 43.63200
H  3.07000 59.07600 44.32100
H  3.53700 60.12400 42.96600
H  4.69100 59.12500 43.78700
H  0.88800 56.25000 41.07800
H  1.13900 57.97700 41.08500
H  -0.68200 56.26800 42.68300
H  -1.03400 57.87500 41.98300
H  -0.01700 57.74800 43.50900
H  0.20200 52.38600 43.08000
H  0.95300 52.25600 44.57300
H  0.76900 50.78000 43.66500
H  5.67600 49.11500 42.50600
H  5.56500 45.63100 40.07100
H  5.35500 47.05800 39.03300
H  3.96800 46.34500 39.63400
Mg -10.63600 16.21800 40.89500
C  -7.22700 16.45100 40.58300
C  -10.82600 19.56300 40.21200
C  -13.96600 15.81300 40.59600
C  -10.31500 12.66300 41.13400
N  -9.14200 17.79900 40.40100
C  -7.79600 17.67000 40.29200
C  -7.15200 19.08700 40.01600
C  -8.30800 20.04600 40.49200
C  -9.54300 19.09100 40.35000
C  -8.17100 20.66300 41.92600
C  -6.70300 19.16200 38.53300
C  -5.24500 18.85700 38.28700
H  -4.75200 17.74800 37.26100
N  -12.16700 17.48100 40.44300
C  -12.04500 18.78200 40.19700
C  -13.33800 19.38400 40.01300
C  -14.35700 18.30100 40.02600
C  -13.48200 17.11800 40.31300
C  -13.57700 20.85800 39.66200
C  -15.93000 18.43700 39.72000
O  -16.53900 19.49500 39.74800
C  -16.79600 17.20400 39.49700
N  -11.91900 14.50900 40.69100
C  -13.26600 14.66700 40.77300
C  -13.98300 13.34900 40.97300
C  -12.83900 12.29000 40.78800
C  -11.57800 13.18500 40.92800
C  -14.87800 13.30900 42.31300
C  -12.73300 11.33400 39.57000
C  -12.31700 11.81300 38.17200
N  -9.04800 14.72400 40.93700
C  -9.05100 13.36100 41.08000
C  -7.67600 12.90500 41.25000
C  -6.90200 14.08300 41.02000
C  -7.80600 15.12600 40.81400
C  -7.24700 11.54600 41.38100
C  -5.56100 14.67300 40.99400
O  -4.46600 14.15200 41.09700
C  -5.72300 16.24000 40.60100
C  -4.91100 17.06400 41.60300
O  -3.71300 17.13100 41.55100
O  -5.60600 17.68400 42.58700
C  -4.75200 18.54800 43.46000
H  -10.84300 20.63600 40.01100
H  -15.04900 15.69300 40.67400
H  -10.17200 11.59400 41.30100
H  -6.19900 19.30100 40.50200
H  -8.44800 20.96500 39.92200
H  -8.75100 20.26500 42.75900
H  -8.52900 21.68000 41.76900
H  -7.12100 20.77300 42.19600
H  -6.92300 20.19000 38.24500
H  -7.42800 18.65400 37.89700
H  -4.74100 18.56600 39.20900
H  -4.77500 19.81300 38.06000
H  -12.81600 21.13500 38.93300
H  -13.60500 21.47100 40.56200
H  -14.55100 20.89200 39.17300
H  -16.29900 16.45800 38.87600
H  -17.68900 17.51000 38.95200
H  -17.13300 16.92300 40.49500
H  -14.69000 13.29000 40.14500
H  -12.96700 11.77400 41.74000
H  -14.43400 13.93100 43.09000
H  -14.89700 12.28600 42.69000
H  -15.89200 13.63800 42.08400
H  -13.66500 10.86500 39.25300
H  -12.09600 10.47000 39.75900
H  -11.75700 12.74600 38.23800
H  -13.23000 11.84400 37.57700
H  -11.66800 11.11600 37.64100
H  -7.36200 10.96000 40.46900
H  -7.76000 10.99400 42.16900
H  -6.18200 11.54400 41.61400
H  -5.28200 16.29200 39.60600
H  -5.28600 18.90600 44.34000
H  -4.40900 19.36500 42.82500
H  -3.87600 18.03400 43.85700

