158

Mg 6.22100 54.27900 39.38200
C  5.66900 50.74300 39.50800
C  9.28800 53.53800 38.23200
C  6.55000 57.53700 38.80200
C  2.83000 54.68500 40.09500
N  7.32100 52.26400 38.71000
C  6.91200 50.99400 38.87500
C  8.10700 50.01500 38.58300
C  9.40700 51.00200 38.57000
C  8.63100 52.35000 38.54000
C  10.36600 50.93100 39.74200
C  7.94500 49.31200 37.17500
C  7.47000 50.10100 35.96600
H  6.00400 50.21100 35.48100
N  7.71300 55.37100 38.64100
C  8.90900 54.93500 38.19100
C  9.85300 56.11600 38.06700
C  9.09600 57.25800 38.21700
C  7.69900 56.77600 38.56700
C  11.22900 55.94500 37.55500
C  9.56400 58.70000 38.16700
O  10.74500 58.83100 37.93000
C  8.70900 59.94900 38.22200
N  4.77300 55.84200 39.19200
C  5.23200 57.09300 38.99500
C  4.13800 58.13600 39.34200
C  2.94900 57.17100 39.66600
C  3.53700 55.77100 39.60600
C  4.50100 59.21400 40.47000
C  1.74500 57.36700 38.66500
C  0.82700 58.58100 39.07300
N  4.45800 53.02100 39.66700
C  3.27500 53.34000 40.15400
C  2.53000 52.13600 40.46900
C  3.46600 51.07800 40.28100
C  4.61700 51.64900 39.71600
C  1.03400 52.07800 40.88200
C  3.67000 49.62800 40.46400
O  2.96700 48.73400 40.89300
C  5.13100 49.35100 39.88900
C  4.79700 48.46400 38.68400
O  4.14000 48.81900 37.74100
O  5.41600 47.23600 38.75400
C  4.96200 46.10100 37.91900
H  10.30200 53.37100 37.86200
H  6.75600 58.60900 38.76600
H  1.83900 54.80000 40.54000
H  8.21600 49.26500 39.36600
H  10.05400 50.83800 37.70800
H  11.29700 50.73100 39.21300
H  10.11900 50.16300 40.47500
H  10.51300 51.87700 40.26500
H  7.18600 48.54900 37.34300
H  8.90200 48.80400 37.05700
H  8.09900 49.69200 35.17600
H  7.76800 51.10900 36.25600
H  11.93600 55.94700 38.38500
H  11.39700 56.72600 36.81400
H  11.35200 55.00300 37.02000
H  9.29000 60.84800 38.01200
H  8.19300 59.98000 39.18200
H  7.98100 59.70800 37.44800
H  4.01800 58.68800 38.41000
H  2.72400 57.36400 40.71500
H  5.57600 59.16500 40.64400
H  4.04300 59.01200 41.43800
H  4.39500 60.24500 40.13300
H  1.05700 56.52400 38.61100
H  2.09600 57.51200 37.64300
H  -0.02200 58.10900 39.56900
H  0.27400 59.02500 38.24600
H  1.30000 59.25200 39.79000
H  0.53500 53.04500 40.93700
H  0.88100 51.55800 41.82700
H  0.51900 51.43400 40.16900
H  5.68500 48.58100 40.42500
H  3.90100 45.92200 38.09400
H  5.53500 45.21400 38.18900
H  5.06100 46.33800 36.85900
Mg 0.44200 44.39900 24.09400
C  2.30800 44.02400 27.01100
C  -2.53200 43.97400 25.77200
C  -1.22400 43.82900 21.11700
C  3.55100 44.61400 22.40700
N  -0.01300 44.09000 26.09700
C  0.90400 43.97200 27.17400
C  0.10000 44.05900 28.53200
C  -1.34900 43.93200 28.06400
C  -1.34300 43.97900 26.55000
C  -2.03900 42.67400 28.63300
C  0.46800 45.25000 29.41100
C  0.67700 45.14600 30.94900
H  0.81700 43.75200 31.53600
N  -1.62900 44.09500 23.54000
C  -2.76300 44.01100 24.37100
C  -3.96100 44.20900 23.59000
C  -3.55000 44.10000 22.21700
C  -2.06200 43.92400 22.25000
C  -5.21300 44.57800 24.29800
C  -4.46800 44.19300 21.01700
O  -3.95900 44.11500 19.87700
C  -6.03600 44.27100 21.22000
N  1.02600 44.07800 22.16400
C  0.12800 43.89300 21.12800
C  0.89300 43.84600 19.85900
C  2.30100 44.38800 20.18900
C  2.27600 44.41700 21.70800
C  0.94200 42.32000 19.31000
C  2.73600 45.73000 19.56400
C  3.93900 45.77300 18.57200
N  2.47800 44.37900 24.50600
C  3.61800 44.41300 23.75000
C  4.79100 44.36700 24.49500
C  4.29400 44.25800 25.79800
C  2.91800 44.21600 25.75800
C  6.19000 44.40100 24.03700
C  4.75100 44.27200 27.14700
O  5.90700 44.43100 27.50800
C  3.50100 44.11600 28.07500
C  3.68700 42.89500 28.88600
O  3.07100 41.82100 28.82700
O  4.72700 43.17800 29.74600
C  5.13300 42.03200 30.58100
H  -3.46400 44.00800 26.34000
H  -1.72500 43.70500 20.15400
H  4.41100 44.83300 21.77000
H  0.37700 43.16700 29.09400
H  -1.99900 44.75600 28.35900
H  -1.56900 42.11200 29.44000
H  -2.24300 42.00700 27.79600
H  -2.98300 43.08400 28.99200
H  -0.28100 46.03700 29.32500
H  1.25100 45.80100 28.88900
H  -0.12300 45.63300 31.50700
H  1.60500 45.68000 31.15400
H  -5.88700 44.95100 23.52800
H  -5.02700 45.31000 25.08400
H  -5.61100 43.63100 24.66500
H  -6.48000 43.59700 21.95300
H  -6.39500 43.93000 20.24900
H  -6.26900 45.32700 21.36300
H  0.45500 44.62100 19.23000
H  3.03700 43.61500 19.96800
H  1.95700 41.92200 19.30200
H  0.56200 42.50400 18.30500
H  0.22600 41.67500 19.81900
H  3.01300 46.51200 20.27100
H  1.83900 46.10900 19.07400
H  4.16900 44.75300 18.26400
H  4.69700 46.42800 19.00200
H  3.60900 46.36900 17.72200
H  6.82400 44.68700 24.87700
H  6.22900 45.07300 23.18000
H  6.34800 43.38000 23.69000
H  3.53700 44.94100 28.78600
H  6.04400 42.26000 31.13300
H  5.28000 41.11900 30.00400
H  4.31700 41.82300 31.27300

