158

Mg 16.12500 -1.54200 28.04300
C  15.28400 0.69700 30.64400
C  18.29100 -3.12700 30.17400
C  17.34000 -3.46600 25.31600
C  14.65800 0.50900 25.64900
N  16.87900 -1.13800 30.14000
C  16.15800 -0.35600 31.07700
C  16.54300 -0.77300 32.48000
C  17.65600 -1.83700 32.30600
C  17.63100 -2.06400 30.81700
C  19.14000 -1.38200 32.76200
C  15.24300 -1.23300 33.26500
C  15.11500 -0.79100 34.66800
H  16.27500 -0.00400 35.29700
N  17.48300 -3.14400 27.81600
C  18.22100 -3.68200 28.84800
C  18.93200 -4.86700 28.34600
C  18.56500 -5.04900 26.99900
C  17.78700 -3.83000 26.63600
C  19.89900 -5.63400 29.18900
C  18.94500 -6.16900 26.01900
O  18.60700 -6.16800 24.84200
C  19.89700 -7.18900 26.50100
N  16.16400 -1.32400 25.76500
C  16.64100 -2.27300 24.94000
C  16.29300 -1.91000 23.42200
C  15.43100 -0.66700 23.51000
C  15.43200 -0.47900 25.06800
C  17.56200 -1.79200 22.50900
C  14.02600 -0.69100 22.83300
C  13.73000 0.41800 21.84200
N  15.04400 0.07000 28.09800
C  14.50400 0.82000 27.02400
C  13.66700 1.80600 27.53900
C  13.93600 1.81600 28.96600
C  14.83400 0.76300 29.26000
C  12.63200 2.69300 26.79600
C  13.65100 2.43500 30.23400
O  12.89800 3.37700 30.47700
C  14.47900 1.66700 31.42200
C  15.38900 2.64800 32.04400
O  16.60100 2.52300 32.17900
O  14.68500 3.62800 32.85300
C  15.53700 4.40700 33.73200
H  18.86000 -3.80200 30.81600
H  17.46800 -4.19000 24.50900
H  14.15000 1.18800 24.96100
H  16.90600 0.12400 32.98200
H  17.28100 -2.68900 32.87400
H  19.41700 -2.05000 33.57700
H  19.07100 -0.33700 33.06400
H  19.90700 -1.48000 31.99400
H  15.14100 -2.31800 33.30600
H  14.34200 -0.87700 32.76400
H  14.87600 -1.67800 35.25500
H  14.30200 -0.08500 34.83400
H  19.36900 -6.52700 29.51900
H  20.24900 -5.15500 30.10400
H  20.73300 -5.82800 28.51400
H  20.12000 -7.96300 25.76700
H  19.32900 -7.65500 27.30600
H  20.91400 -6.87800 26.73700
H  15.60600 -2.68200 23.07500
H  16.02900 0.19500 23.21400
H  17.94600 -2.80400 22.38400
H  18.29100 -1.14300 22.99600
H  17.32800 -1.52100 21.48000
H  13.27400 -0.48400 23.59500
H  13.70600 -1.61600 22.35300
H  13.03000 0.11000 21.06500
H  14.70800 0.59000 21.39400
H  13.40500 1.31700 22.36500
H  12.08400 3.31600 27.50300
H  11.99500 1.97900 26.27500
H  13.07200 3.31200 26.01300
H  13.77300 1.32100 32.17600
H  16.18700 5.00900 33.09700
H  16.13900 3.65900 34.24700
H  15.11500 5.06300 34.49300
Mg 46.75400 25.76400 27.72300
C  47.95600 27.94800 30.34600
C  45.82400 23.40500 30.12400
C  46.04700 23.71100 25.20500
C  48.41200 27.91700 25.43300
N  46.93400 25.69500 29.90200
C  47.30600 26.69700 30.80800
C  46.89100 26.35800 32.24500
C  46.31600 24.92600 32.15200
C  46.28400 24.60900 30.63900
C  46.78300 23.82300 33.09100
C  46.05700 27.45200 33.05700
C  46.75900 27.96300 34.35800
H  45.76400 28.29200 35.54400
N  45.84600 23.86300 27.65000
C  45.74500 23.01700 28.74900
C  45.46900 21.66600 28.23300
C  45.34700 21.77900 26.81000
C  45.75300 23.17300 26.48300
C  45.18000 20.52000 29.20400
C  44.93100 20.78400 25.78800
O  44.98600 20.86600 24.55200
C  44.63300 19.36100 26.24300
N  47.08900 25.79800 25.63200
C  46.54800 24.91100 24.79500
C  46.82800 25.21300 23.29700
C  47.62100 26.54700 23.31500
C  47.62700 26.83600 24.87100
C  47.75300 24.13200 22.68200
C  46.95800 27.78600 22.60800
C  47.90100 28.60900 21.65500
N  47.82000 27.57300 27.84100
C  48.40900 28.34300 26.81900
C  49.13200 29.49700 27.37700
C  48.95100 29.37200 28.72400
C  48.13200 28.25400 28.98500
C  49.97000 30.43300 26.70000
C  49.42700 29.95500 30.03800
O  50.13500 30.86400 30.39000
C  48.67500 29.09800 31.12000
C  49.76400 28.53500 31.99500
O  50.62000 27.78300 31.66000
O  49.75500 29.22700 33.22900
C  50.86900 29.10100 34.15800
H  45.47300 22.63200 30.81200
H  45.73100 23.14200 24.32900
H  48.97100 28.62600 24.81800
H  47.88500 26.16400 32.64900
H  45.27300 25.14300 32.38400
H  45.95000 23.56400 33.74400
H  47.58900 24.09700 33.77300
H  47.00500 22.88100 32.59100
H  45.14400 26.99500 33.44100
H  45.95800 28.34000 32.43300
H  47.29600 28.87000 34.07900
H  47.52800 27.25800 34.67100
H  45.57700 19.52200 29.01500
H  44.09800 20.45200 29.31700
H  45.48300 20.76200 30.22200
H  45.53300 18.90400 26.65200
H  44.35900 18.70700 25.41500
H  43.95000 19.26400 27.08700
H  45.88000 25.18600 22.76100
H  48.68200 26.50200 23.06700
H  48.56000 23.71800 23.28600
H  48.19400 24.45600 21.73900
H  47.25600 23.17400 22.53000
H  46.53600 28.43800 23.37200
H  46.13400 27.29700 22.08900
H  47.78400 28.24500 20.63400
H  48.97800 28.51700 21.80000
H  47.63200 29.66600 21.65700
H  49.66400 30.46300 25.65400
H  51.01100 30.20600 26.92800
H  49.76800 31.41700 27.12200
H  47.89800 29.74600 31.52400
H  51.03600 30.09400 34.57500
H  51.80500 28.67200 33.80200
H  50.64700 28.55900 35.07800

