158

Mg 35.96500 3.10400 30.44300
C  33.42000 4.14100 32.67300
C  38.02800 2.72800 33.32400
C  38.59200 2.42300 28.39200
C  33.94400 3.89800 27.80800
N  35.76100 3.58500 32.69600
C  34.64200 3.85100 33.31800
C  34.79000 3.66500 34.89500
C  36.35300 3.65800 35.04700
C  36.76300 3.23700 33.63900
C  37.00500 4.95200 35.48200
C  34.04100 2.33300 35.38400
C  33.15000 2.46500 36.67400
H  33.57100 3.43900 37.73900
N  38.02700 2.58300 30.74700
C  38.64000 2.48100 32.01800
C  40.00500 1.94100 31.81400
C  40.18300 1.87600 30.34900
C  38.90000 2.31400 29.74700
C  40.93500 1.56100 33.02800
C  41.38300 1.37400 29.54000
O  41.25800 1.21300 28.32700
C  42.71400 1.16600 30.23600
N  36.29900 3.39100 28.45900
C  37.45900 2.98000 27.77200
C  37.16600 2.98500 26.21500
C  35.62500 3.24700 26.14300
C  35.25200 3.55500 27.54000
C  37.97000 4.02500 25.40300
C  34.77800 2.08700 25.55200
C  34.04400 2.38000 24.24900
N  34.03100 3.92700 30.20600
C  33.32000 4.06000 29.00900
C  31.90000 4.35800 29.37800
C  31.91200 4.41800 30.81500
C  33.28100 4.15200 31.26700
C  30.66200 4.55200 28.55900
C  31.08300 4.76200 31.98500
O  29.82700 4.99300 32.11300
C  32.02500 4.51400 33.24800
C  31.95400 5.77300 33.97000
O  32.40600 6.84000 33.61000
O  31.29700 5.45200 35.15400
C  30.91800 6.58700 36.04300
H  38.71900 2.50300 34.13900
H  39.36900 2.32900 27.63100
H  33.39300 4.20500 26.91600
H  34.42200 4.58800 35.34300
H  36.64800 2.80000 35.65000
H  37.45700 4.84200 36.46800
H  36.39700 5.84700 35.34800
H  37.87100 5.09100 34.83500
H  34.78700 1.55900 35.56500
H  33.32500 2.12400 34.59000
H  33.11800 1.48300 37.14700
H  32.09200 2.54500 36.42400
H  41.05400 0.47900 32.98200
H  40.58600 1.87700 34.01100
H  41.80900 2.16700 32.78900
H  42.61600 0.42700 31.03200
H  43.08700 2.09800 30.66100
H  43.36500 0.74200 29.47200
H  37.40100 2.00200 25.80800
H  35.42700 4.18100 25.61700
H  37.34400 4.67100 24.78600
H  38.80000 3.55600 24.87400
H  38.28900 4.68200 26.21200
H  34.14600 1.78700 26.38700
H  35.38900 1.26100 25.18800
H  33.96700 3.46100 24.13100
H  33.07200 1.89000 24.30800
H  34.53500 1.90000 23.40300
H  30.87200 4.27100 27.52700
H  30.52200 5.63200 28.61500
H  29.77200 4.08100 28.97600
H  31.61400 3.67300 33.80600
H  30.73900 7.58100 35.63400
H  31.78700 6.76100 36.67700
H  30.07400 6.29800 36.67000
Mg 55.27300 23.23100 45.41700
C  53.00800 25.62500 44.53100
C  52.92500 20.88100 44.27900
C  57.68300 20.91500 45.17900
C  57.62900 25.66300 46.17700
N  53.15000 23.27500 44.70100
C  52.35100 24.38800 44.34800
C  51.04000 24.03800 43.70300
C  51.08700 22.55100 44.04000
C  52.46600 22.19100 44.32000
C  50.13300 22.00900 45.12300
C  50.92500 24.33400 42.19300
C  49.62800 24.83800 41.68900
H  48.90600 24.09700 40.52000
N  55.34300 21.14800 44.82900
C  54.27400 20.41500 44.42400
C  54.68600 19.02000 44.14500
C  56.12900 19.03900 44.34600
C  56.42100 20.37000 44.79300
C  53.72600 18.00200 43.61300
C  56.99600 17.92700 43.92400
O  56.53100 16.89800 43.49000
C  58.51700 17.90700 44.02500
N  57.40300 23.31100 45.45600
C  58.12200 22.20900 45.40600
C  59.57200 22.40000 45.88200
C  59.63600 23.92400 46.00100
C  58.11000 24.35800 45.86700
C  59.87900 21.69200 47.23800
C  60.34400 24.69300 44.78800
C  60.92100 26.08300 45.23100
N  55.34900 25.27100 45.54000
C  56.29800 26.15100 45.85500
C  55.71300 27.57500 45.86700
C  54.48100 27.30300 45.35800
C  54.31600 25.93000 45.10400
C  56.39600 28.83200 46.15000
C  53.28300 28.06400 44.89500
O  53.04600 29.22600 44.81200
C  52.39500 27.04300 44.23800
C  52.47100 27.58900 42.87900
O  53.51900 27.58400 42.23500
O  51.20300 27.96000 42.42900
C  51.23800 28.25900 41.00300
H  52.15100 20.19000 43.93900
H  58.41400 20.10300 45.17100
H  58.30300 26.45700 46.50500
H  50.25600 24.56600 44.24500
H  50.72600 21.99100 43.17800
H  49.30600 22.68100 45.35200
H  50.58400 21.91200 46.11000
H  49.78400 21.06300 44.70900
H  51.32600 23.41800 41.75800
H  51.60300 25.09700 41.81000
H  49.80000 25.87900 41.41700
H  48.87400 24.91500 42.47200
H  53.68200 18.12100 42.53100
H  52.77100 18.24500 44.07900
H  53.98700 16.99800 43.95000
H  58.97200 18.63700 43.35500
H  58.77300 16.93200 43.61100
H  58.94000 17.94500 45.02900
H  60.12600 22.01300 45.02700
H  60.06400 24.24500 46.95000
H  59.08100 20.99600 47.49600
H  60.02700 22.23000 48.17400
H  60.83600 21.17600 47.15300
H  59.55100 24.82300 44.05200
H  61.15700 24.08600 44.39000
H  61.01100 26.14900 46.31500
H  60.31500 26.86700 44.77800
H  61.97100 26.13300 44.94200
H  56.80100 29.17400 45.19700
H  57.15900 28.77300 46.92600
H  55.60500 29.49200 46.50600
H  51.40100 27.23700 44.64000
H  51.92200 29.07800 40.78100
H  50.24500 28.67600 40.83800
H  51.46700 27.28800 40.56300

