158

Mg -13.02500 16.56300 41.26700
C  -10.22700 14.45800 40.75300
C  -11.13200 19.10900 40.03400
C  -15.82200 18.21500 41.12500
C  -14.92600 13.59800 42.00500
N  -10.82000 16.74800 40.40600
C  -9.88700 15.77500 40.38400
C  -8.56900 16.27400 39.81400
C  -8.88800 17.83800 39.58600
C  -10.33900 17.93200 40.05100
C  -8.00300 18.92300 40.38200
C  -8.18600 15.52800 38.56900
C  -6.72300 15.13100 38.45900
H  -6.02900 15.59300 37.16100
N  -13.39600 18.46200 40.71300
C  -12.52900 19.41400 40.31100
C  -13.19200 20.71700 40.29000
C  -14.55800 20.43300 40.35200
C  -14.70800 18.92900 40.69700
C  -12.41600 22.01500 40.14100
C  -15.54200 21.50100 40.25900
O  -15.25200 22.69700 40.19300
C  -16.98300 21.16100 39.96500
N  -15.14000 15.93200 41.40700
C  -16.06700 16.88400 41.44600
C  -17.47000 16.25600 41.60400
C  -17.17500 14.84900 42.01200
C  -15.72300 14.80500 41.82800
C  -18.38500 16.94500 42.60900
C  -17.94300 13.72000 41.20900
C  -19.07900 13.08500 41.96800
N  -12.66000 14.53000 41.51800
C  -13.52200 13.46400 41.80400
C  -12.73700 12.22700 42.06700
C  -11.47900 12.53700 41.55600
C  -11.48400 13.93400 41.25400
C  -13.20600 10.86000 42.51300
C  -10.14000 12.03400 41.25100
O  -9.67200 10.92100 41.31100
C  -9.27300 13.31000 40.78700
C  -8.12300 13.55700 41.65100
O  -8.10400 14.26100 42.63800
O  -6.97600 12.92200 41.15300
C  -5.73100 13.09800 41.88500
H  -10.48900 19.96800 39.83200
H  -16.76800 18.74900 41.00800
H  -15.41700 12.67300 42.31600
H  -7.84800 16.24100 40.63000
H  -8.83100 18.09700 38.52900
H  -7.35500 18.45500 41.12400
H  -8.63600 19.50100 41.05600
H  -7.43600 19.52700 39.67400
H  -8.41300 16.10700 37.67400
H  -8.76800 14.63600 38.33900
H  -6.58400 14.05200 38.53400
H  -6.21000 15.52200 39.33800
H  -12.21200 22.48400 41.10300
H  -12.80500 22.70800 39.39400
H  -11.42700 21.75600 39.76500
H  -17.43400 20.80000 40.88900
H  -17.08600 20.41900 39.17300
H  -17.31300 22.13200 39.59700
H  -17.88300 16.32800 40.59800
H  -17.40200 14.77500 43.07600
H  -19.20500 17.49700 42.15100
H  -17.77400 17.67100 43.14500
H  -18.85700 16.42600 43.44400
H  -17.21200 12.92000 41.09000
H  -18.16000 14.05400 40.19400
H  -19.27700 13.66300 42.87100
H  -18.76400 12.07100 42.21500
H  -19.97200 13.07700 41.34400
H  -12.69400 10.27200 41.75100
H  -14.27400 10.64500 42.47400
H  -12.82000 10.56700 43.48900
H  -8.79400 13.12700 39.82500
H  -5.05200 12.66000 41.15300
H  -5.70600 12.39800 42.72000
H  -5.48300 14.13300 42.12000
Mg -5.76400 25.20000 26.00100
C  -4.58600 26.79000 28.91600
C  -7.50900 23.14400 28.06000
C  -6.77100 23.58900 23.30500
C  -3.34100 26.87000 24.15100
N  -5.94200 24.97100 28.22100
C  -5.48300 25.78100 29.22000
C  -5.91100 25.36700 30.60600
C  -6.56400 24.00400 30.33800
C  -6.64400 23.95300 28.74300
C  -5.81600 22.70900 30.87600
C  -6.87600 26.34100 31.27400
C  -6.89100 26.57200 32.71100
H  -6.16100 25.51400 33.63300
N  -7.06900 23.72200 25.70200
C  -7.74300 23.06000 26.65400
C  -8.83300 22.21200 26.04000
C  -8.50300 22.22600 24.67400
C  -7.39300 23.18300 24.50100
C  -9.71000 21.45700 27.00200
C  -9.05900 21.38200 23.58400
O  -8.61700 21.29600 22.43600
C  -10.31100 20.63000 23.88500
N  -5.12000 25.22300 24.05200
C  -5.66500 24.45100 23.10100
C  -4.94600 24.51700 21.76300
C  -3.94500 25.61000 22.03700
C  -4.10800 25.92200 23.53000
C  -4.14200 23.21600 21.35900
C  -4.26400 26.91600 21.14300
C  -3.51200 27.04300 19.79600
N  -4.35100 26.70400 26.40500
C  -3.46700 27.29500 25.52100
C  -2.56600 28.19900 26.30700
C  -3.00200 28.03600 27.60200
C  -4.08100 27.12800 27.63500
C  -1.51700 28.93800 25.73100
C  -2.80800 28.48900 28.95100
O  -1.99200 29.31400 29.43500
C  -3.83100 27.74200 29.83700
C  -3.16200 27.02600 30.90500
O  -2.39400 26.09300 30.70000
O  -3.24400 27.67000 32.06600
C  -2.21200 27.41300 33.16100
H  -7.99900 22.47900 28.77500
H  -7.06100 23.11100 22.36700
H  -2.48900 27.24100 23.57600
H  -5.05200 25.27400 31.27100
H  -7.55700 23.92300 30.77900
H  -5.45500 22.06400 30.07500
H  -6.47500 22.11600 31.51000
H  -4.91700 23.04000 31.39600
H  -7.84300 25.97500 30.92800
H  -6.71800 27.25500 30.70100
H  -7.91300 26.54100 33.08900
H  -6.47000 27.53700 32.99200
H  -9.44700 20.54000 27.52800
H  -10.68100 21.10500 26.65500
H  -10.16600 22.14800 27.71100
H  -10.20600 19.55800 24.05700
H  -10.82600 20.72200 22.92900
H  -10.96800 21.12100 24.60200
H  -5.70100 24.72200 21.00400
H  -2.89600 25.38300 21.84600
H  -4.71700 22.61300 20.65600
H  -4.07700 22.61000 22.26200
H  -3.12400 23.43000 21.03200
H  -4.10900 27.87600 21.63500
H  -5.33500 26.85500 20.94600
H  -2.79600 27.86400 19.84500
H  -4.17300 27.03500 18.92900
H  -2.82100 26.21300 19.65400
H  -1.91800 29.92100 25.48300
H  -1.12200 28.57200 24.78300
H  -0.70100 29.22900 26.39200
H  -4.50300 28.44700 30.32500
H  -2.36900 26.46500 33.67500
H  -2.22900 28.33000 33.75100
H  -1.18200 27.44100 32.80600

