158

Mg 40.64400 9.66500 30.05300
C  42.54600 10.85200 32.72300
C  38.39100 8.22700 32.40200
C  39.11300 8.10400 27.64300
C  43.12300 10.76700 27.86100
N  40.65100 9.41300 32.30700
C  41.42100 10.13400 33.21200
C  40.84300 10.18700 34.55600
C  39.58200 9.27000 34.48600
C  39.49500 8.96800 32.93500
C  39.49200 8.01600 35.39700
C  40.58200 11.59700 35.16000
C  41.12500 11.96200 36.52500
H  40.23100 12.31200 37.69000
N  39.04200 8.31900 30.01200
C  38.18100 7.94600 31.03600
C  37.07100 7.11300 30.48700
C  37.28600 7.08800 29.08800
C  38.50500 7.83000 28.83900
C  35.91200 6.63800 31.31900
C  36.37300 6.49600 27.93400
O  36.60100 6.55000 26.68100
C  35.08300 5.81400 28.29200
N  41.08800 9.54100 28.01100
C  40.24800 8.82100 27.23700
C  40.72800 9.02800 25.72200
C  41.84600 10.00200 25.79700
C  42.06400 10.10500 27.28600
C  41.15000 7.77400 24.84100
C  41.55400 11.39300 25.18100
C  40.69600 12.39600 25.91900
N  42.48600 10.74300 30.24700
C  43.41800 11.08800 29.25800
C  44.51500 11.80900 29.84600
C  44.16900 11.82500 31.25800
C  42.98800 11.08800 31.39800
C  45.67600 12.50800 29.22000
C  44.58500 12.30300 32.53900
O  45.53600 12.94300 32.92000
C  43.51400 11.65300 33.59200
C  44.26200 10.86600 34.65100
O  44.77200 9.70900 34.58300
O  44.27900 11.60300 35.79300
C  44.88100 10.93900 36.94700
H  37.80100 7.73000 33.17500
H  38.67900 7.60900 26.77200
H  43.83200 11.01600 27.06900
H  41.60500 9.81100 35.23900
H  38.68200 9.84100 34.71200
H  39.81900 7.14900 34.82200
H  38.52400 7.88000 35.87800
H  40.31400 8.21400 36.08500
H  39.52200 11.80200 35.31300
H  40.83200 12.32100 34.38600
H  41.71700 12.86800 36.39500
H  41.70100 11.11000 36.88800
H  36.01300 6.74400 32.39900
H  35.63600 5.58700 31.22700
H  35.05500 7.25800 31.05600
H  34.44600 5.67400 27.41900
H  34.64600 6.54800 28.96800
H  35.25600 4.88700 28.84000
H  39.89300 9.43400 25.15000
H  42.79100 9.66400 25.37300
H  40.65600 8.00800 23.89800
H  40.70900 6.88400 25.29100
H  42.23300 7.67400 24.76800
H  41.01800 11.18000 24.25600
H  42.42700 11.96100 24.85900
H  40.27500 12.02400 26.85300
H  39.85000 12.44300 25.23400
H  41.11700 13.39900 25.99300
H  46.01800 13.40500 29.73500
H  45.61300 12.82500 28.17900
H  46.53100 11.83700 29.14400
H  43.05400 12.54400 34.01800
H  44.26000 10.09100 37.23700
H  45.06200 11.62700 37.77300
H  45.87900 10.62600 36.63900
Mg 48.65000 44.55900 43.06800
C  45.28300 43.90000 43.11100
C  49.13100 41.30600 42.30800
C  51.94900 45.16600 42.57300
C  48.00200 47.94500 42.89000
N  47.31100 42.78800 42.83700
C  45.98400 42.70900 42.90000
C  45.51400 41.29100 42.70500
C  46.77000 40.39400 42.68400
C  47.81200 41.54200 42.53000
C  46.91500 39.57200 44.01900
C  44.69300 41.13800 41.41000
C  45.04100 42.03900 40.16000
H  45.88200 41.36000 39.07200
N  50.31900 43.39200 42.51700
C  50.31800 42.03700 42.28900
C  51.67400 41.54600 42.24500
C  52.54600 42.61300 42.28300
C  51.61900 43.79500 42.40100
C  51.98700 40.00000 42.18900
C  54.04500 42.62400 42.30300
O  54.68800 41.58100 42.19700
C  54.91000 43.73600 42.54500
N  49.82500 46.24700 42.71500
C  51.15200 46.28000 42.66000
C  51.72400 47.72400 42.68600
C  50.46900 48.58900 42.92500
C  49.32800 47.57900 42.82200
C  52.91500 47.86100 43.71600
C  50.28800 49.79300 41.90000
C  49.84700 51.13300 42.52200
N  47.01100 45.73200 43.00400
C  46.85500 47.09700 43.00600
C  45.52000 47.45900 43.33500
C  44.89800 46.26900 43.41300
C  45.82900 45.21400 43.15500
C  44.93100 48.82500 43.34700
C  43.53700 45.67700 43.53100
O  42.42400 46.22400 43.63200
C  43.78600 44.06900 43.40200
C  43.19500 43.31200 44.59000
O  41.97300 42.97500 44.56400
O  44.18200 42.96500 45.47400
C  43.72400 42.16300 46.57200
H  49.33300 40.25500 42.08900
H  53.00900 45.39200 42.43600
H  47.78700 49.01500 42.92300
H  44.90700 41.15500 43.59900
H  46.90200 39.65600 41.89300
H  47.83200 39.78200 44.56900
H  46.87000 38.50700 43.79300
H  46.10400 39.85200 44.69100
H  43.62400 41.17500 41.62000
H  44.78600 40.09600 41.10500
H  45.52100 42.97500 40.44500
H  44.09300 42.33200 39.70900
H  52.08000 39.56200 41.19500
H  51.22100 39.40900 42.69200
H  52.89500 39.76500 42.74400
H  54.96100 44.30400 41.61600
H  55.93600 43.43800 42.75800
H  54.53700 44.36700 43.35200
H  52.05600 48.04900 41.70000
H  50.46600 49.04400 43.91500
H  52.88000 48.84300 44.18800
H  53.85600 47.68800 43.19400
H  52.84500 47.07900 44.47300
H  49.63000 49.47200 41.09200
H  51.30900 50.05200 41.62100
H  49.13200 51.51500 41.79300
H  50.67400 51.83900 42.60500
H  49.44500 51.03000 43.53000
H  45.49100 49.32100 44.13900
H  43.89800 48.88200 43.69100
H  45.21200 49.38400 42.45400
H  43.23200 43.63500 42.56900
H  43.00400 42.72700 47.16500
H  44.65700 41.87100 47.05500
H  43.29900 41.24900 46.15700

