158

Mg 40.30600 9.27500 28.96400
C  42.04800 10.51100 31.66700
C  38.39100 7.36000 31.20300
C  38.61600 8.03400 26.39900
C  42.69600 10.68400 26.80800
N  40.41200 8.85200 31.20200
C  41.01700 9.66700 32.07500
C  40.32000 9.68700 33.47000
C  39.15000 8.59300 33.28200
C  39.31500 8.17400 31.80600
C  39.25200 7.33600 34.17500
C  39.88200 11.12600 34.01700
C  38.86100 11.23600 35.15900
H  39.36900 11.98100 36.46500
N  38.67500 7.97900 28.85200
C  38.12500 7.27100 29.86500
C  36.98100 6.45100 29.24400
C  36.99900 6.67500 27.84200
C  38.11200 7.60400 27.64800
C  36.09100 5.46000 30.16700
C  36.08900 6.05600 26.83100
O  36.24700 6.20500 25.59400
C  34.92600 5.05400 27.17800
N  40.58100 9.42200 26.89800
C  39.79100 8.75900 26.05400
C  40.28300 8.84700 24.63100
C  41.51100 9.77200 24.75100
C  41.57000 10.07600 26.25500
C  40.48600 7.46800 23.92000
C  41.64300 11.01200 23.81600
C  40.65900 12.19300 24.01400
N  42.09400 10.25000 29.14200
C  42.91500 10.81600 28.14400
C  44.00600 11.50400 28.80400
C  43.66500 11.47200 30.14500
C  42.50200 10.68200 30.32800
C  45.31400 12.06800 28.14600
C  44.03000 11.87700 31.56800
O  44.95000 12.51800 31.94400
C  42.81400 11.51000 32.48900
C  43.51900 10.95600 33.75200
O  44.01200 9.89200 34.02600
O  43.48400 11.96600 34.67700
C  43.75400 11.52800 36.00000
H  37.74800 6.98700 32.00200
H  38.12000 7.59700 25.53000
H  43.40700 11.11400 26.09900
H  41.11800 9.29600 34.10200
H  38.20600 9.13700 33.31900
H  38.26300 7.03000 34.51500
H  39.78400 7.56700 35.09800
H  39.77000 6.48200 33.73800
H  39.53900 11.78300 33.21800
H  40.85000 11.56500 34.26000
H  38.50300 10.25700 35.48000
H  38.01000 11.80300 34.78200
H  36.46800 4.43800 30.12800
H  35.08500 5.37200 29.75500
H  35.93700 5.78200 31.19700
H  35.26200 4.33100 27.92100
H  34.62400 4.52200 26.27600
H  34.15100 5.65000 27.66000
H  39.56900 9.39700 24.01800
H  42.42400 9.19000 24.62700
H  40.00400 7.63200 22.95600
H  40.02800 6.71400 24.55900
H  41.54100 7.20500 23.84500
H  41.37600 10.69700 22.80700
H  42.62900 11.46900 23.90600
H  41.09800 12.98200 24.62400
H  39.82000 11.80700 24.59300
H  40.38800 12.73400 23.10700
H  45.30500 11.95000 27.06200
H  46.24200 11.58800 28.45800
H  45.25400 13.14400 28.30600
H  42.27000 12.43500 32.68200
H  43.16900 10.64700 36.26100
H  43.68300 12.37100 36.68700
H  44.81900 11.29800 36.03800
Mg 17.21800 52.14300 26.56000
C  18.84800 50.78100 29.24800
C  14.70400 53.14600 28.67800
C  15.36800 52.94300 23.82900
C  19.50700 50.67300 24.47800
N  16.82900 51.99300 28.75500
C  17.68800 51.44700 29.63100
C  17.18500 51.64700 31.02600
C  15.72400 52.31100 30.87600
C  15.73400 52.53300 29.38400
C  14.60600 51.38200 31.44200
C  18.14400 52.56000 31.85600
C  18.07600 52.43900 33.38200
H  17.13800 51.38200 34.01300
N  15.34300 53.00200 26.32100
C  14.40300 53.23600 27.30700
C  13.35500 54.01000 26.70500
C  13.55300 53.94000 25.32100
C  14.79100 53.17900 25.09500
C  12.24800 54.77400 27.54200
C  12.63400 54.49600 24.18800
O  12.81000 54.32100 23.00200
C  11.29600 55.08200 24.65200
N  17.41700 51.90100 24.39600
C  16.61000 52.41500 23.47100
C  17.18300 52.35500 22.02800
C  18.62100 51.72700 22.36500
C  18.52300 51.41200 23.89300
C  16.41300 51.39200 21.02700
C  19.81500 52.62400 21.86900
C  20.49200 52.14700 20.55600
N  18.90300 50.98500 26.78500
C  19.75200 50.40300 25.83500
C  20.80000 49.76200 26.48100
C  20.50100 49.84900 27.81400
C  19.27100 50.55500 27.92800
C  21.99300 49.07700 25.94300
C  20.98000 49.53500 29.15400
O  21.92700 48.85600 29.54700
C  19.89000 50.08300 30.09200
C  19.41900 48.86300 30.88000
O  18.87300 47.89100 30.37100
O  19.63100 48.96200 32.25200
C  19.21900 47.83900 33.14200
H  13.88400 53.58000 29.25500
H  14.80300 53.31700 22.97300
H  20.24600 50.19000 23.83500
H  17.15000 50.69400 31.55300
H  15.70400 53.27400 31.38600
H  14.04600 51.93500 32.19600
H  14.94400 50.40500 31.78600
H  13.94800 51.24600 30.58400
H  17.91800 53.58300 31.55700
H  19.17000 52.40200 31.52200
H  17.99100 53.41300 33.86400
H  19.07900 52.06900 33.59600
H  12.17100 55.83800 27.32100
H  12.45900 54.56000 28.59000
H  11.27600 54.32500 27.33800
H  10.69500 55.27700 23.76300
H  11.54700 56.03300 25.12100
H  10.69800 54.33800 25.17800
H  17.26300 53.40900 21.76300
H  18.76700 50.73200 21.94500
H  15.37100 51.41700 21.34500
H  16.84500 50.39300 20.97100
H  16.49300 51.77800 20.01000
H  20.50700 52.91000 22.66200
H  19.41700 53.57900 21.52400
H  19.80200 51.44900 20.08000
H  21.41000 51.59500 20.75500
H  20.64000 53.02800 19.93200
H  21.80900 48.21100 25.30600
H  22.56700 48.84400 26.84000
H  22.64300 49.74000 25.37100
H  20.33700 50.71700 30.85700
H  18.21700 47.43300 33.00200
H  19.27800 48.06900 34.20600
H  19.86400 46.96800 33.02500

