158

Mg 23.86200 -7.51100 47.17000
C  26.49600 -5.32600 46.08900
C  21.90700 -6.16400 44.85000
C  21.74300 -9.94700 47.93700
C  26.41400 -9.26800 49.08400
N  24.26700 -5.92900 45.47200
C  25.29000 -5.05700 45.41500
C  25.00600 -3.96600 44.35600
C  23.45900 -4.21100 44.10800
C  23.19900 -5.56400 44.79300
C  22.55300 -3.08000 44.59700
C  25.89500 -4.06700 43.03500
C  26.24600 -2.76200 42.44200
H  27.00800 -2.79300 41.09100
N  22.04400 -8.00400 46.46200
C  21.34400 -7.18700 45.61900
C  19.93800 -7.56600 45.74500
C  19.89500 -8.71700 46.57600
C  21.22700 -8.92900 47.07000
C  18.98500 -6.82100 44.90200
C  18.62900 -9.47800 47.01900
O  17.54000 -9.11800 46.60700
C  18.57100 -10.45100 48.06900
N  24.06700 -9.30700 48.36900
C  22.94100 -10.10700 48.50100
C  23.24500 -11.31700 49.34200
C  24.82000 -11.19500 49.58000
C  25.17600 -9.85700 48.98100
C  22.37600 -11.42000 50.67000
C  25.79500 -12.37400 49.15900
C  26.77700 -12.82000 50.28000
N  25.91900 -7.19000 47.65900
C  26.79800 -8.06900 48.36500
C  28.13800 -7.53600 48.38800
C  28.01800 -6.30200 47.53300
C  26.68600 -6.27300 47.05900
C  29.39200 -7.96300 49.13000
C  28.78600 -5.29700 46.87700
O  29.97600 -4.99000 46.87500
C  27.86000 -4.63800 45.93400
C  27.76300 -3.17500 46.11400
O  27.08100 -2.61800 46.93600
O  28.56500 -2.55900 45.14000
C  28.81400 -1.16200 45.25100
H  21.16200 -5.61100 44.27400
H  21.04900 -10.78100 48.05700
H  27.26300 -9.67300 49.63900
H  25.07300 -3.01200 44.88000
H  23.25400 -4.26300 43.03800
H  21.81000 -2.94500 43.81100
H  23.08500 -2.15000 44.79600
H  22.15500 -3.37800 45.56700
H  25.38800 -4.67900 42.28800
H  26.74800 -4.74300 43.09900
H  26.79300 -2.30700 43.26800
H  25.24700 -2.42100 42.17000
H  19.09000 -5.74700 45.05700
H  17.94500 -7.06600 45.11400
H  19.14500 -6.98500 43.83700
H  19.07100 -11.35600 47.72600
H  17.53600 -10.63900 48.35300
H  19.05700 -10.10700 48.98200
H  23.08000 -12.11400 48.61700
H  24.99900 -11.17300 50.65500
H  21.55100 -10.72600 50.82900
H  22.97500 -11.25600 51.56600
H  21.99200 -12.42300 50.85700
H  26.37300 -12.09500 48.27800
H  25.20600 -13.25600 48.90800
H  27.56000 -13.40100 49.79300
H  26.27500 -13.50400 50.96400
H  27.21600 -12.04900 50.91300
H  29.19900 -8.86800 49.70600
H  29.70100 -7.16800 49.80900
H  30.21900 -8.13400 48.44200
H  28.21800 -4.87100 44.93100
H  29.55600 -0.81400 44.53200
H  29.26200 -0.95200 46.22200
H  27.87000 -0.63200 45.12200
Mg 9.11100 48.41800 25.61800
C  7.21200 48.39900 28.54700
C  11.83200 49.42500 27.39200
C  10.74300 48.68200 22.78500
C  6.28700 47.56300 23.94000
N  9.45100 48.80900 27.74600
C  8.50700 48.75400 28.78800
C  9.27000 49.12200 30.03600
C  10.55500 49.83600 29.52200
C  10.68300 49.21800 28.14600
C  10.43900 51.39100 29.44900
C  9.50300 47.99100 31.11700
C  8.99300 48.28700 32.57500
H  8.58300 47.14700 33.52800
N  11.12700 48.93400 25.14300
C  12.06500 49.26600 26.03200
C  13.33800 49.33600 25.35200
C  13.07300 49.10100 23.97900
C  11.60800 49.02000 23.88200
C  14.58300 49.59900 26.06600
C  14.08800 48.99700 22.81100
O  13.63300 48.92800 21.67600
C  15.56900 48.86700 23.01300
N  8.51300 48.44800 23.58000
C  9.44500 48.32800 22.57900
C  8.77000 48.07800 21.19600
C  7.37900 47.42800 21.68500
C  7.43800 47.82000 23.20200
C  8.43100 49.25200 20.19800
C  7.31100 45.88900 21.45400
C  6.19400 45.47100 20.39600
N  7.13600 47.99300 26.07400
C  6.10800 47.68700 25.28200
C  4.87700 47.44300 26.06500
C  5.27800 47.69600 27.35400
C  6.60700 48.06600 27.27000
C  3.49300 47.03000 25.55800
C  4.79400 47.72100 28.69500
O  3.77300 47.41500 29.24200
C  6.03500 48.28400 29.55000
C  6.17200 47.31700 30.69000
O  6.60800 46.21300 30.67100
O  5.50300 47.87400 31.76500
C  4.90000 46.92500 32.76700
H  12.67600 49.94700 27.84800
H  11.27100 48.65000 21.83000
H  5.41300 47.15300 23.43000
H  8.61900 49.89100 30.45100
H  11.42100 49.46400 30.06900
H  10.79200 51.75700 28.48500
H  11.01800 51.83600 30.25800
H  9.39700 51.70800 29.49600
H  10.57600 47.84900 31.24100
H  9.07100 47.03800 30.81000
H  8.16900 48.99300 32.46600
H  9.84000 48.81200 33.01700
H  14.56200 49.77000 27.14300
H  15.00900 50.46400 25.55800
H  15.19300 48.72200 25.84900
H  15.83400 47.81000 22.98000
H  16.01600 49.23900 23.93500
H  16.07300 49.31300 22.15500
H  9.42700 47.32800 20.75500
H  6.48000 47.94500 21.34800
H  8.83500 49.02900 19.21100
H  8.69300 50.21100 20.64500
H  7.37700 49.30900 19.92400
H  7.11100 45.37800 22.39500
H  8.21000 45.38100 21.10400
H  5.49600 46.30600 20.34200
H  5.83000 44.59700 20.93700
H  6.63100 45.27000 19.41800
H  3.58900 45.95000 25.43800
H  3.10600 47.60300 24.71500
H  2.79700 47.35100 26.33300
H  5.70900 49.22000 30.00400
H  5.77600 46.57700 33.31500
H  4.29700 46.21000 32.20800
H  4.27700 47.44800 33.49200

