158

Mg 2.03700 -1.42500 44.14600
C  5.42000 -0.64600 43.60000
C  1.09900 1.41200 42.44900
C  -1.11100 -2.57100 44.18900
C  3.12500 -4.48400 45.59000
N  3.20700 0.10700 42.89100
C  4.57600 0.28500 43.03000
C  4.86600 1.67500 42.41200
C  3.45300 2.33800 42.29700
C  2.47100 1.24900 42.58700
C  3.33600 3.50800 43.26200
C  5.72900 1.70000 41.06700
C  6.52700 2.97700 41.02100
H  6.31600 3.83800 39.76500
N  0.21800 -0.63000 43.55100
C  0.05100 0.57400 42.89400
C  -1.38400 0.79500 42.79900
C  -2.08900 -0.30800 43.32200
C  -1.01000 -1.19400 43.84600
C  -1.98800 1.84900 41.84700
C  -3.61600 -0.51600 43.26000
O  -4.27600 0.36400 42.65900
C  -4.37700 -1.60100 44.01800
N  1.17800 -3.28900 44.68000
C  -0.19100 -3.50800 44.62600
C  -0.58800 -4.98400 44.95400
C  0.79100 -5.63600 45.28200
C  1.79500 -4.41000 45.16600
C  -1.59400 -5.22800 46.11100
C  1.21100 -6.81600 44.35900
C  1.67800 -8.10600 45.09100
N  3.90500 -2.40500 44.56900
C  4.15300 -3.55400 45.21800
C  5.58100 -3.65400 45.53700
C  6.16800 -2.51800 44.88500
C  5.05900 -1.82000 44.32500
C  6.40300 -4.70600 46.38100
C  7.40300 -1.78700 44.58300
O  8.51800 -2.06400 44.89800
C  7.03700 -0.56600 43.68600
C  7.44000 0.78500 44.33300
O  6.95000 1.16500 45.40800
O  8.38300 1.38000 43.57400
C  8.62000 2.72400 44.11100
H  0.81700 2.42400 42.15300
H  -2.12600 -2.95600 44.07400
H  3.65500 -5.34500 46.00100
H  5.47800 2.07700 43.22000
H  3.22300 2.70000 41.29500
H  2.64700 3.31900 44.08500
H  2.94200 4.37400 42.73000
H  4.24700 3.97900 43.63000
H  5.10000 1.55700 40.18800
H  6.34200 0.81200 41.21600
H  7.57600 2.68400 40.99400
H  6.38800 3.55900 41.93200
H  -2.64300 1.53200 41.03500
H  -1.14500 2.45300 41.51100
H  -2.63600 2.37600 42.54600
H  -5.34800 -1.19100 44.29600
H  -3.82500 -1.97300 44.88200
H  -4.67200 -2.36800 43.30200
H  -1.00600 -5.52800 44.10700
H  0.85400 -5.91200 46.33400
H  -2.00800 -4.33800 46.58400
H  -1.08400 -5.61100 46.99500
H  -2.41200 -5.92700 45.93400
H  2.01700 -6.53800 43.68100
H  0.37800 -7.25200 43.80700
H  1.49200 -8.20700 46.16000
H  2.72900 -8.34000 44.91800
H  1.21800 -8.97300 44.61700
H  6.85000 -4.06000 47.13700
H  7.17300 -5.19600 45.78600
H  5.76100 -5.48100 46.80000
H  7.42300 -0.68300 42.67400
H  7.81900 3.39500 43.80100
H  9.50900 3.23100 43.73400
H  8.61400 2.83100 45.19600
Mg 25.86300 1.77100 29.22600
C  27.81100 1.55200 32.18600
C  23.17300 2.21700 31.14600
C  24.18400 1.89700 26.37700
C  28.86200 0.73700 27.43400
N  25.60500 2.07300 31.41600
C  26.48300 1.91100 32.42100
C  25.84700 2.20700 33.83700
C  24.35100 2.29000 33.46500
C  24.31400 2.21700 31.87600
C  23.56500 1.14700 34.10400
C  26.42500 3.44900 34.57800
C  26.95400 3.28700 36.01900
H  26.65300 4.39000 37.13400
N  23.89900 1.96200 28.87800
C  22.91500 2.09200 29.80400
C  21.62800 2.17600 29.08500
C  21.90400 2.27900 27.66900
C  23.38800 2.00900 27.58000
C  20.33100 2.35300 29.84700
C  21.00500 2.60000 26.57500
O  21.37200 2.56100 25.38900
C  19.55400 2.95500 26.81400
N  26.43600 1.39200 27.23000
C  25.52000 1.57400 26.21700
C  26.13100 1.26100 24.81600
C  27.50500 0.63200 25.14200
C  27.63600 0.93600 26.67100
C  25.19800 0.27900 23.96500
C  28.71700 1.25000 24.37800
C  29.10500 2.69900 24.69600
N  27.87700 1.24200 29.65100
C  28.98700 0.91300 28.88300
C  30.19100 0.74300 29.69400
C  29.73100 0.98600 30.98000
C  28.32100 1.27900 30.89500
C  31.53400 0.40200 29.15100
C  30.17000 1.14500 32.29500
O  31.26600 1.07600 32.83600
C  28.90200 1.49600 33.19900
C  28.79800 0.52500 34.31500
O  28.48400 -0.67300 34.19000
O  29.28100 1.07400 35.51000
C  29.61600 0.17600 36.65900
H  22.25400 2.44600 31.69000
H  23.78300 2.07000 25.37600
H  29.76100 0.47600 26.87100
H  26.12000 1.31300 34.39800
H  23.95400 3.26700 33.74200
H  23.30400 0.38500 33.37100
H  22.67000 1.43300 34.65600
H  24.17300 0.48500 34.72100
H  25.77900 4.32600 34.54500
H  27.36200 3.67400 34.06800
H  28.03900 3.17900 36.02200
H  26.63000 2.27700 36.27000
H  20.42500 2.11900 30.90700
H  19.53300 1.69000 29.51200
H  20.19500 3.42400 29.70000
H  18.99600 2.06800 27.11400
H  19.14000 3.35600 25.88900
H  19.48100 3.71700 27.59000
H  26.29100 2.17100 24.23700
H  27.51300 -0.45500 25.07200
H  24.27900 0.00400 24.48200
H  25.72000 -0.63300 23.67600
H  24.79200 0.87100 23.14400
H  28.47400 1.22100 23.31600
H  29.63900 0.70200 24.57300
H  29.98900 2.51900 25.30700
H  28.35700 3.31500 25.19700
H  29.53500 3.22800 23.84600
H  32.06700 1.27500 28.77500
H  31.33700 -0.23500 28.28900
H  32.11800 -0.13700 29.89700
H  29.02900 2.53000 33.52000
H  30.42600 0.56500 37.27500
H  29.94800 -0.84400 36.46300
H  28.75500 -0.04800 37.28900

