158

Mg 45.21700 5.12100 46.98400
C  42.98200 7.74100 46.71000
C  42.55300 2.89200 46.59600
C  47.41700 2.65400 46.33200
C  47.82400 7.43000 46.48400
N  43.03700 5.36200 46.45300
C  42.32100 6.49100 46.53100
C  40.78600 6.28500 46.46700
C  40.73300 4.76500 46.75000
C  42.20700 4.28000 46.65400
C  39.99600 4.39200 48.07800
C  40.20300 6.83800 45.13300
C  40.49100 6.13000 43.78100
H  41.00600 7.07500 42.69200
N  45.02600 3.02800 46.63500
C  43.84300 2.33300 46.53300
C  44.13100 0.90600 46.49000
C  45.59700 0.86100 46.39300
C  46.08200 2.19200 46.39600
C  43.11200 -0.23800 46.36000
C  46.45000 -0.40000 46.27800
O  45.85700 -1.47800 46.24800
C  47.99100 -0.50800 46.22700
N  47.27000 5.14300 46.19400
C  47.95300 3.90300 46.30100
C  49.52300 4.13600 46.31500
C  49.57400 5.67300 46.11200
C  48.12200 6.13400 46.27200
C  50.17500 3.60700 47.65300
C  50.18100 6.14000 44.77600
C  51.52500 5.75400 44.23200
N  45.49300 7.20500 46.86700
C  46.55100 8.03100 46.70200
C  46.10700 9.37400 46.88200
C  44.71000 9.34300 46.92700
C  44.41000 7.95200 46.77800
C  47.05300 10.56900 47.07100
C  43.51400 10.17500 47.04300
O  43.38100 11.36900 47.19100
C  42.32400 9.08400 47.01200
C  41.42000 9.18000 48.21300
O  41.70300 8.71400 49.28000
O  40.30800 9.90500 47.92100
C  39.46000 10.28500 49.01700
H  41.73000 2.18200 46.49300
H  48.25400 1.95900 46.23100
H  48.69500 8.08900 46.51200
H  40.33200 6.89800 47.24400
H  40.20900 4.30800 45.91000
H  39.04700 3.90500 47.85200
H  39.83300 5.28900 48.67500
H  40.71400 3.82600 48.67100
H  40.41000 7.90700 45.08700
H  39.14300 6.81500 45.38300
H  39.69600 5.58000 43.27800
H  41.30900 5.43200 43.96100
H  43.30500 -0.89700 45.51300
H  42.07500 0.09800 46.34600
H  43.19200 -0.82700 47.27400
H  48.47900 -0.05900 47.09200
H  48.23300 0.07000 45.33500
H  48.27300 -1.55900 46.15100
H  50.07800 3.57400 45.56400
H  50.31400 6.02600 46.83100
H  50.61800 4.36600 48.29800
H  51.00500 2.96300 47.36300
H  49.47100 3.12100 48.32900
H  50.10900 7.22500 44.85700
H  49.44400 5.87100 44.01900
H  51.28300 5.19600 43.32800
H  52.09000 5.14600 44.93900
H  52.16300 6.58300 43.92600
H  46.71600 11.36300 47.73800
H  47.39800 10.90000 46.09100
H  47.95300 10.22700 47.58300
H  41.78700 9.36300 46.10600
H  39.57400 9.63400 49.88400
H  38.40000 10.24400 48.76700
H  39.61800 11.33100 49.27900
Mg 6.75100 54.54400 41.39900
C  6.12900 50.98900 41.12500
C  9.79900 53.93500 40.04500
C  6.73800 57.73400 40.67000
C  3.46900 54.76900 42.68300
N  7.71100 52.66600 40.55700
C  7.39600 51.33300 40.63700
C  8.46600 50.39800 40.11300
C  9.71500 51.31300 40.26200
C  9.06900 52.70900 40.32000
C  10.63600 50.93800 41.44200
C  8.22400 49.82200 38.63300
C  7.54900 50.62700 37.55000
H  6.56500 49.82000 36.62300
N  8.08800 55.72000 40.46000
C  9.39900 55.31000 40.10400
C  10.09400 56.46700 39.65800
C  9.19500 57.57800 39.57800
C  7.90900 57.11400 40.22300
C  11.49400 56.47100 39.23000
C  9.42600 58.94500 39.06100
O  10.51800 59.27700 38.56700
C  8.44600 60.01100 39.13700
N  5.21400 56.02100 41.40900
C  5.56300 57.36600 41.23600
C  4.40800 58.31400 41.63900
C  3.48900 57.35800 42.45200
C  4.11400 55.97900 42.23100
C  4.75900 59.55600 42.44800
C  1.97000 57.48600 42.06800
C  1.14100 58.55100 42.86000
N  5.04900 53.20000 41.90300
C  3.84500 53.43600 42.51100
C  3.11000 52.23100 42.60800
C  3.95400 51.25900 42.12300
C  5.14900 51.86400 41.72300
C  1.75000 52.04500 43.11600
C  4.16000 49.87300 41.88900
O  3.38000 48.96200 42.06500
C  5.59100 49.63100 41.29900
C  5.46400 48.93200 40.02300
O  4.90200 49.38300 39.04500
O  6.04400 47.66500 40.12900
C  5.55800 46.68800 39.17000
H  10.79900 53.89400 39.60600
H  6.60000 58.79700 40.46200
H  2.48700 54.89400 43.14400
H  8.57800 49.47600 40.68300
H  10.36400 51.35200 39.38800
H  11.59900 50.79100 40.95200
H  10.39700 49.96800 41.87900
H  10.57600 51.55600 42.33800
H  7.74000 48.84700 38.68700
H  9.21600 49.54700 38.27400
H  8.26000 51.04400 36.83700
H  7.03500 51.51400 37.91900
H  11.55200 56.35600 38.14700
H  11.95000 55.62200 39.74000
H  11.93700 57.35700 39.68400
H  8.79800 60.87200 38.56800
H  8.41800 60.35300 40.17200
H  7.46600 59.75700 38.73500
H  4.00900 58.57800 40.65900
H  3.73500 57.46000 43.51000
H  5.60300 59.42200 43.12500
H  3.94500 59.96500 43.04700
H  5.11600 60.31200 41.75000
H  1.43400 56.54300 42.17500
H  1.80500 57.69800 41.01100
H  1.77800 59.14400 43.51600
H  0.31100 58.07100 43.37700
H  0.65900 59.25700 42.18300
H  1.14300 52.93200 42.93400
H  1.75000 51.89300 44.19600
H  1.32100 51.15700 42.65300
H  6.16800 48.95000 41.92400
H  5.85200 47.02000 38.17400
H  4.48400 46.84300 39.06700
H  5.77400 45.63600 39.35300

