158

Mg 2.18200 -2.09900 44.92200
C  5.45200 -0.78400 44.83300
C  1.19000 0.80300 43.39800
C  -0.79300 -3.50600 44.59700
C  3.58700 -5.19500 45.97300
N  3.28800 -0.22100 44.00500
C  4.56900 0.08500 44.17200
C  4.92400 1.49600 43.69800
C  3.42200 2.09300 43.57700
C  2.55200 0.85000 43.64100
C  3.08500 3.03600 44.73300
C  5.76400 1.55300 42.35900
C  5.29700 0.73000 41.16100
H  5.06000 1.48400 39.85200
N  0.39200 -1.47600 44.12300
C  0.20800 -0.23000 43.47800
C  -1.17700 -0.08800 43.16800
C  -1.79000 -1.36400 43.50000
C  -0.70600 -2.16300 44.09900
C  -1.74900 1.19600 42.47900
C  -3.21700 -1.64200 43.37300
O  -3.90300 -0.74400 42.83900
C  -3.77600 -2.92800 43.69600
N  1.54900 -4.16700 45.20000
C  0.17600 -4.42900 45.07500
C  -0.07800 -5.87200 45.55400
C  1.34800 -6.41100 45.91100
C  2.21700 -5.20800 45.65300
C  -1.07000 -5.92400 46.72800
C  1.77100 -7.62000 44.98200
C  2.26300 -8.98200 45.66400
N  4.10100 -2.92900 45.39400
C  4.54400 -4.13400 45.77900
C  5.98400 -4.13900 46.07800
C  6.37500 -2.76900 45.69000
C  5.21200 -2.09900 45.30600
C  6.80100 -5.34200 46.56900
C  7.45100 -1.88300 45.48500
O  8.65200 -2.00100 45.68500
C  6.93700 -0.57600 45.05500
C  7.23900 0.28800 46.24100
O  6.73500 0.18900 47.33900
O  8.05200 1.29200 45.88500
C  8.48800 2.27200 46.85700
H  0.85700 1.79800 43.09800
H  -1.74800 -4.02400 44.70000
H  3.98700 -6.08900 46.45600
H  5.58700 1.92700 44.44800
H  3.24300 2.56300 42.61000
H  3.13100 4.09800 44.49300
H  3.86400 2.85600 45.47400
H  2.12000 2.79800 45.18000
H  6.69900 1.07900 42.65500
H  5.96500 2.58400 42.06800
H  4.47100 0.09500 41.48200
H  6.14800 0.06600 41.01400
H  -2.27600 1.89300 43.13100
H  -2.34300 0.83000 41.64200
H  -0.91300 1.75700 42.06100
H  -4.75100 -2.98900 43.21400
H  -3.68400 -3.16700 44.75600
H  -3.18500 -3.63000 43.10800
H  -0.40800 -6.47000 44.70400
H  1.30800 -6.63100 46.97800
H  -1.57300 -6.88500 46.62000
H  -1.81800 -5.13200 46.70900
H  -0.62200 -5.97400 47.72000
H  2.58100 -7.30800 44.32300
H  1.03100 -7.76200 44.19400
H  2.63100 -8.87800 46.68500
H  3.08500 -9.25000 45.00000
H  1.43200 -9.68700 45.64300
H  7.22600 -5.77200 45.66100
H  6.11800 -6.09400 46.96300
H  7.47300 -4.89300 47.30000
H  7.52500 -0.27000 44.19000
H  9.56300 2.40100 46.73200
H  8.31700 2.11700 47.92200
H  8.12100 3.24400 46.52800
Mg 47.77400 25.76300 28.06700
C  48.53800 28.07200 30.65600
C  46.29800 23.69800 30.54600
C  47.20400 23.50300 25.63200
C  49.33500 27.87000 25.77200
N  47.52500 25.94000 30.33300
C  47.79600 26.97400 31.11500
C  47.37100 26.69900 32.49200
C  46.66300 25.27800 32.52300
C  46.82300 24.94100 31.04300
C  47.30300 24.23600 33.48300
C  46.42400 27.81800 33.02100
C  45.71200 27.45400 34.34200
H  45.53300 28.46000 35.45500
N  46.84400 23.92700 28.07800
C  46.29900 23.24800 29.16600
C  45.84500 21.89800 28.71000
C  46.09500 21.89400 27.31200
C  46.78100 23.18300 26.93900
C  45.26200 20.84200 29.62100
C  45.84700 20.71900 26.24700
O  46.22800 20.78900 25.06800
C  44.96000 19.58800 26.59000
N  48.16900 25.70200 25.95100
C  47.80100 24.63100 25.22400
C  48.10800 24.92800 23.71400
C  48.67600 26.41100 23.74100
C  48.84400 26.68300 25.24900
C  49.18200 23.85800 23.20800
C  47.65800 27.41300 23.08300
C  48.03900 27.56900 21.52900
N  48.72600 27.51100 28.16900
C  49.32100 28.27300 27.13000
C  49.88900 29.53000 27.69900
C  49.59800 29.45900 29.09200
C  48.95600 28.21200 29.27500
C  50.71400 30.49000 26.93900
C  49.81300 30.13400 30.31900
O  50.49200 31.11100 30.57700
C  49.05800 29.27600 31.41900
C  49.87300 28.96000 32.63200
O  50.75500 28.10200 32.67400
O  49.42900 29.73200 33.74500
C  50.13500 29.41000 34.93000
H  45.84300 22.98600 31.23700
H  47.03700 22.79600 24.81700
H  49.67600 28.65200 25.09000
H  48.30000 26.80700 33.05200
H  45.59000 25.41300 32.66400
H  48.13300 24.58700 34.09700
H  47.64400 23.46000 32.79800
H  46.50500 23.76700 34.05800
H  45.72900 28.18900 32.26800
H  47.04100 28.66900 33.30900
H  46.19800 26.53900 34.67900
H  44.70300 27.16300 34.05100
H  45.27600 19.81300 29.26200
H  44.17800 20.93300 29.70200
H  45.65300 20.84400 30.63900
H  45.56900 18.84100 27.09900
H  44.62700 19.10400 25.67200
H  44.19700 20.02900 27.23300
H  47.20900 24.75700 23.12300
H  49.72900 26.47500 23.46700
H  50.16800 24.24000 22.94500
H  48.75600 23.34200 22.34800
H  49.36000 23.13700 24.00600
H  47.73900 28.35400 23.62700
H  46.64500 27.03300 23.21800
H  47.40300 26.94300 20.90300
H  49.03600 27.20000 21.28900
H  48.03700 28.58600 21.13500
H  51.61900 29.92400 26.71400
H  50.94100 31.22000 27.71600
H  50.40700 30.78600 25.93600
H  48.15800 29.77300 31.77900
H  51.12200 29.82700 34.72600
H  50.34400 28.38500 35.23400
H  49.79000 30.00000 35.77900

