158

Mg 0.45500 8.18700 25.16400
C  1.56400 9.83100 28.00600
C  1.06300 5.20700 26.77800
C  -0.27700 6.54100 22.21800
C  0.54000 11.07600 23.33700
N  1.53500 7.64100 27.17900
C  1.46000 8.43300 28.23600
C  1.68100 7.63500 29.58500
C  1.42300 6.15200 29.12400
C  1.44100 6.37600 27.58800
C  2.51700 5.16000 29.50600
C  0.62200 8.03900 30.65600
C  0.93400 7.96400 32.12800
H  2.10000 7.07400 32.67100
N  0.38600 6.10700 24.59400
C  0.63000 5.08400 25.41000
C  0.38700 3.80400 24.71500
C  0.13800 4.19800 23.38900
C  0.04200 5.67000 23.37000
C  0.49000 2.44800 25.44200
C  -0.08400 3.29900 22.16200
O  -0.13800 3.67400 21.03000
C  -0.12400 1.84300 22.50000
N  0.09000 8.77300 23.00600
C  -0.26700 7.94600 22.05200
C  -0.55800 8.65200 20.68500
C  -0.60700 10.14600 21.17900
C  0.00500 10.00500 22.57200
C  0.54100 8.27900 19.66000
C  -2.03600 10.81600 21.24400
C  -2.08700 12.20000 20.55000
N  0.89600 10.13100 25.51000
C  1.00400 11.25000 24.66900
C  1.53200 12.41900 25.40600
C  1.77600 11.87300 26.69700
C  1.39000 10.47700 26.73000
C  1.63300 13.80700 24.77300
C  2.24500 12.26300 28.00400
O  2.76000 13.27200 28.50900
C  2.01800 10.98700 28.89000
C  3.20400 10.74500 29.70100
O  4.36000 10.54900 29.33700
O  2.70700 10.63400 31.02500
C  3.67300 10.42600 32.09700
H  1.25600 4.29000 27.33900
H  -0.52500 6.01600 21.29300
H  0.56400 12.01200 22.77400
H  2.71100 7.80400 29.90000
H  0.46000 5.72700 29.40800
H  2.96100 5.58100 30.40800
H  3.37500 5.09900 28.83700
H  2.08900 4.19200 29.76800
H  -0.24200 7.38900 30.51800
H  0.35100 9.08700 30.53100
H  -0.02200 7.71900 32.59200
H  1.14600 8.96100 32.51400
H  -0.27200 1.70300 25.21800
H  0.45900 2.49900 26.53100
H  1.43900 1.93200 25.29900
H  -0.41700 1.24900 21.63400
H  -0.90800 1.76400 23.25300
H  0.84800 1.51400 22.86800
H  -1.54600 8.46000 20.26600
H  0.08700 10.77700 20.62400
H  1.06900 9.12000 19.21100
H  -0.08400 7.76900 18.92700
H  1.19400 7.52100 20.09300
H  -2.37000 10.77400 22.28100
H  -2.79600 10.23600 20.72000
H  -1.11600 12.48000 20.14300
H  -2.14300 12.94500 21.34400
H  -2.85000 12.24000 19.77300
H  1.35500 14.60200 25.46400
H  1.05200 13.79500 23.85100
H  2.65700 13.98500 24.44300
H  1.13700 11.21900 29.48900
H  4.27700 11.32200 32.24400
H  4.35400 9.67600 31.69400
H  3.15100 10.20600 33.02800
Mg 6.69400 54.61100 40.74900
C  5.83900 51.14400 40.57100
C  9.82900 53.80300 40.00100
C  7.18700 57.82100 39.93600
C  3.19100 55.27600 40.83700
N  7.65300 52.64800 40.21000
C  7.22300 51.38900 40.22700
C  8.27800 50.36200 39.84500
C  9.56400 51.16100 40.19100
C  9.01600 52.65700 40.12800
C  10.21400 50.74200 41.57700
C  8.19700 49.81100 38.34000
C  7.38600 50.68700 37.27200
H  6.78400 50.02900 36.02800
N  8.34700 55.76900 40.27200
C  9.60400 55.21200 39.95000
C  10.49500 56.26600 39.67200
C  9.75300 57.49200 39.81500
C  8.38100 57.04100 40.00900
C  11.91500 55.98700 39.35900
C  10.37500 58.86500 39.68000
O  11.53900 58.98500 39.42000
C  9.54600 60.09000 39.73700
N  5.35900 56.35700 40.44300
C  5.85000 57.53800 40.08700
C  4.74500 58.54800 39.74000
C  3.46600 57.80200 40.33900
C  4.01500 56.35500 40.54300
C  5.03500 60.00400 40.24600
C  2.14800 57.83200 39.48300
C  0.86500 58.30100 40.21200
N  4.84900 53.48300 40.83600
C  3.51700 53.90300 41.02200
C  2.68100 52.71500 41.18800
C  3.52400 51.68400 41.05000
C  4.86700 52.17700 40.82700
C  1.20000 52.74900 41.41700
C  3.58400 50.25900 41.06700
O  2.71900 49.41400 41.22700
C  5.10300 49.86800 40.81100
C  5.10100 48.97400 39.53100
O  4.82800 49.36900 38.41600
O  5.39900 47.65700 39.93200
C  5.11800 46.57900 38.98100
H  10.86200 53.45000 39.95600
H  7.36200 58.76600 39.41700
H  2.13100 55.47500 41.00900
H  8.14100 49.42800 40.39000
H  10.35800 50.91800 39.48500
H  10.38600 51.65200 42.15200
H  11.16400 50.28800 41.29500
H  9.65400 50.10200 42.26000
H  7.81000 48.79600 38.43100
H  9.22300 49.59600 38.03900
H  8.17700 51.36400 36.94800
H  6.59100 51.29400 37.70500
H  12.21500 56.31800 38.36400
H  12.06200 54.92000 39.52500
H  12.59900 56.33700 40.13200
H  8.89600 60.13200 38.86400
H  10.29900 60.87800 39.76800
H  8.98300 60.12900 40.66900
H  4.73500 58.63500 38.65400
H  3.29400 58.23300 41.32500
H  6.07600 60.08000 40.56000
H  4.57200 60.44900 41.12700
H  4.92700 60.73500 39.44600
H  2.00000 56.91700 38.91000
H  2.38900 58.55500 38.70300
H  0.41000 59.15100 39.70400
H  1.11900 58.71000 41.19000
H  0.17700 57.47500 40.39200
H  0.65100 52.02700 40.81200
H  0.89000 53.78400 41.27500
H  0.97400 52.70600 42.48200
H  5.38100 49.26200 41.67400
H  4.94900 45.57600 39.37400
H  5.84700 46.50700 38.17400
H  4.21200 46.82700 38.42800

