158

Mg 48.96800 44.80100 43.01200
C  45.75700 45.69000 41.96300
C  48.58900 41.82700 41.53700
C  52.33900 44.55600 43.19800
C  49.39600 48.19700 44.02700
N  47.31100 43.91500 41.98200
C  46.12800 44.38500 41.59500
C  45.24300 43.35500 40.80000
C  46.12500 42.09400 40.93500
C  47.41000 42.60900 41.55800
C  45.42500 40.91900 41.66500
C  44.91300 43.75200 39.34700
C  43.51900 43.33800 38.81700
H  43.43100 42.09500 37.88900
N  50.23700 43.30500 42.65900
C  49.87300 42.07300 42.06200
C  51.04900 41.30000 41.81800
C  52.18100 42.13600 42.13600
C  51.61900 43.36900 42.76800
C  50.97200 39.84600 41.28400
C  53.63400 41.79500 41.77200
O  54.00400 40.68700 41.35700
C  54.73300 42.83400 42.03000
N  50.71700 46.30700 43.46800
C  51.99800 45.86600 43.51900
C  52.90500 46.91600 44.03600
C  51.91400 48.05700 44.39600
C  50.58000 47.51200 43.96900
C  54.01000 46.54200 45.11000
C  52.21400 49.49700 43.99300
C  52.78000 50.44200 45.08300
N  47.78100 46.60100 43.21100
C  48.06600 47.80000 43.72000
C  46.85100 48.58000 43.79200
C  45.89800 47.77900 43.11500
C  46.58200 46.58400 42.75000
C  46.78600 50.00200 44.14600
C  44.49400 47.74700 42.55800
O  43.55300 48.54400 42.59500
C  44.53100 46.45300 41.65900
C  43.29500 45.65300 41.93100
O  42.48200 45.28300 41.13500
O  43.14000 45.46300 43.26500
C  41.85500 44.89000 43.76900
H  48.36900 40.81700 41.18300
H  53.41800 44.42700 43.30200
H  49.48700 49.19200 44.46700
H  44.31500 43.12500 41.32400
H  46.38700 41.68300 39.96000
H  44.37900 40.96400 41.96800
H  45.90000 40.74200 42.63000
H  45.59100 40.03300 41.05200
H  45.59300 43.25800 38.65300
H  44.96000 44.83900 39.28000
H  42.97800 44.10500 38.26400
H  42.93600 43.03800 39.68800
H  51.12000 39.78300 40.20600
H  50.02800 39.34700 41.50500
H  51.64200 39.12400 41.74900
H  54.47400 43.78100 41.55500
H  55.60800 42.48400 41.48200
H  54.82400 42.82600 43.11600
H  53.49400 47.16800 43.15400
H  51.84200 48.06400 45.48400
H  53.81200 45.56300 45.54500
H  53.92100 47.10400 46.04000
H  55.06000 46.50300 44.82100
H  51.33900 49.95400 43.52900
H  52.86400 49.39200 43.12400
H  52.10300 51.28400 45.23200
H  53.75900 50.75200 44.71700
H  53.02100 50.03300 46.06400
H  45.73300 50.28300 44.13700
H  47.15200 50.61300 43.32100
H  47.25500 50.20100 45.11000
H  44.42000 46.79000 40.62800
H  41.74600 45.24100 44.79500
H  41.76200 43.81400 43.62700
H  41.05100 45.30900 43.16300
Mg 42.03300 40.83600 26.78900
C  41.19000 43.01900 29.44900
C  42.79900 38.51800 29.07500
C  42.79600 38.96700 24.19500
C  41.21100 43.54900 24.60300
N  41.95700 40.82800 29.01700
C  41.55700 41.77000 29.91100
C  41.55000 41.27200 31.39700
C  42.06400 39.78100 31.23200
C  42.29700 39.68200 29.71300
C  43.21800 39.30100 32.06600
C  40.06700 41.43200 31.97400
C  39.63600 40.65100 33.24300
H  39.33800 41.44000 34.44100
N  42.76300 39.01700 26.68500
C  42.95000 38.17800 27.72900
C  43.33400 36.86700 27.25500
C  43.51700 37.01400 25.77700
C  42.90500 38.37800 25.49400
C  43.63100 35.72700 28.11000
C  43.98400 35.95400 24.71400
O  43.97200 36.20800 23.50600
C  44.42500 34.60600 25.10200
N  42.03700 41.28600 24.71600
C  42.32400 40.26600 23.88400
C  42.21800 40.77600 22.36800
C  41.46700 42.09800 22.46500
C  41.63800 42.37800 24.00300
C  43.60800 40.77800 21.62500
C  39.99800 41.92200 22.07500
C  39.03100 40.97500 22.93600
N  41.41600 42.93000 26.91400
C  41.09000 43.88500 25.95100
C  40.69100 45.10400 26.60400
C  40.74600 44.81800 27.96700
C  41.18000 43.48500 28.10000
C  40.22600 46.29100 25.93000
C  40.54100 45.34600 29.23800
O  40.15500 46.44400 29.65400
C  40.70600 44.19200 30.24300
C  41.65300 44.67500 31.27500
O  42.86000 44.74500 31.15700
O  40.88000 45.03200 32.38200
C  41.58800 45.68800 33.47900
H  42.88100 37.62800 29.70200
H  43.16900 38.39700 23.34200
H  40.88600 44.31600 23.89600
H  42.25300 41.96500 31.85700
H  41.15000 39.20100 31.36200
H  43.34000 39.91600 32.95700
H  44.14200 39.10200 31.52500
H  42.93600 38.34400 32.50600
H  39.26800 41.38200 31.23400
H  39.96100 42.48500 32.23500
H  40.43600 39.92800 33.40400
H  38.75900 40.02500 33.08200
H  43.13000 34.91300 27.58600
H  43.20700 35.72200 29.11400
H  44.67900 35.43800 28.19300
H  45.16000 34.62200 25.90700
H  44.92800 34.10000 24.27800
H  43.65200 33.88200 25.35900
H  41.61700 40.14200 21.71500
H  41.90800 42.91300 21.89200
H  44.44900 40.92800 22.30100
H  43.82700 41.56200 20.90000
H  43.74400 39.82200 21.11900
H  40.01300 41.56700 21.04400
H  39.67900 42.96300 22.02000
H  39.40400 40.19400 23.59900
H  38.37500 40.50000 22.20600
H  38.39000 41.65400 23.49800
H  41.07000 46.74700 25.41400
H  40.08400 46.96300 26.77600
H  39.22900 46.24800 25.49200
H  39.72000 43.98600 30.65800
H  42.58000 46.01000 33.16300
H  41.62000 44.95200 34.28300
H  40.99100 46.54200 33.80000

