158

Mg 47.92900 15.46100 28.33200
C  45.64500 14.91900 31.19700
C  50.00000 16.86700 30.55700
C  49.75200 16.15200 25.72300
C  45.40900 14.04400 26.34800
N  47.64700 15.95600 30.61500
C  46.75100 15.56900 31.57200
C  47.15900 16.08400 32.97300
C  48.39500 16.98000 32.58300
C  48.78300 16.49000 31.19400
C  48.21800 18.47400 32.65700
C  47.40600 14.98600 33.99900
C  46.78400 15.01200 35.39600
H  46.49700 16.22200 36.15600
N  49.71600 16.37300 28.15300
C  50.47100 16.87800 29.20700
C  51.68800 17.44000 28.63300
C  51.59500 17.14200 27.23000
C  50.28400 16.52400 26.96800
C  52.67500 18.24200 29.40500
C  52.65000 17.30500 26.08000
O  52.46500 16.99100 24.93200
C  54.00400 17.73000 26.52500
N  47.56200 15.20800 26.30500
C  48.52900 15.52000 25.40100
C  48.08600 15.27400 23.98000
C  46.77800 14.53900 24.17100
C  46.48000 14.62600 25.67700
C  47.81600 16.59300 23.21100
C  46.74100 13.03300 23.76300
C  46.07700 12.76300 22.41600
N  45.94600 14.64900 28.62800
C  45.12900 13.98500 27.72600
C  43.96100 13.45900 28.43800
C  44.20500 13.67600 29.79000
C  45.36200 14.51500 29.89600
C  42.70700 13.01000 27.86200
C  43.61500 13.51900 31.10200
O  42.61700 12.82800 31.37200
C  44.52200 14.37500 32.11400
C  43.66100 15.52300 32.58700
O  43.32800 16.47300 31.94000
O  43.20300 15.23000 33.82700
C  42.62900 16.34800 34.50400
H  50.60800 17.28500 31.36200
H  50.24100 16.56300 24.83800
H  44.65600 13.53400 25.74400
H  46.32900 16.66500 33.37500
H  49.15100 16.75500 33.33500
H  47.17100 18.76800 32.73100
H  48.59600 18.91800 31.73600
H  48.71500 18.86000 33.54700
H  48.46800 14.90100 34.22800
H  47.12500 14.03400 33.54700
H  47.24600 14.20800 35.96900
H  45.82900 14.55100 35.14500
H  53.66600 17.85900 29.16100
H  52.36400 18.37300 30.44100
H  52.57900 19.26200 29.03100
H  54.47500 16.88800 27.03000
H  54.09500 18.62000 27.14700
H  54.51000 17.81200 25.56200
H  48.88700 14.68100 23.53900
H  45.92900 15.06800 23.73700
H  48.07700 17.44600 23.83700
H  46.77700 16.73100 22.91200
H  48.39200 16.67900 22.29000
H  46.12500 12.56600 24.53200
H  47.73600 12.58700 23.76300
H  45.67600 13.70500 22.03900
H  45.25300 12.05100 22.45800
H  46.71800 12.35200 21.63600
H  41.79100 12.95200 28.44900
H  42.98700 12.03700 27.45800
H  42.48600 13.63400 26.99600
H  44.83900 13.83300 33.00500
H  41.74200 16.60900 33.92700
H  43.18500 17.27300 34.65100
H  42.19600 16.06300 35.46400
Mg 47.75300 24.22200 28.06500
C  48.23100 26.48400 30.81500
C  46.79100 21.88500 30.32900
C  47.42800 22.08600 25.47100
C  48.92500 26.74500 25.97700
N  47.52600 24.23800 30.30500
C  47.72200 25.22700 31.18700
C  47.21000 24.78700 32.58700
C  46.77700 23.27700 32.40700
C  47.07400 23.11700 30.87800
C  47.60800 22.23700 33.28600
C  46.13700 25.79200 33.12700
C  46.42300 26.26700 34.60700
H  46.28300 25.15200 35.62200
N  47.27700 22.12600 27.93900
C  46.86500 21.40200 28.99300
C  46.42200 20.09400 28.50800
C  46.52200 20.22200 27.10700
C  47.10400 21.47600 26.76000
C  46.01800 18.97400 29.31800
C  46.07400 19.15400 26.02200
O  46.38100 19.30000 24.83500
C  45.20100 18.04200 26.40100
N  48.33600 24.31000 26.02000
C  48.06300 23.27400 25.15800
C  48.30800 23.77900 23.69900
C  48.54800 25.29800 23.83300
C  48.65400 25.45100 25.36600
C  49.44600 23.02000 22.95200
C  47.39100 26.13700 23.23700
C  45.92600 25.74700 23.53700
N  48.38500 26.22400 28.29000
C  48.89900 27.09000 27.38100
C  49.24000 28.32400 27.97400
C  48.99900 28.13300 29.31200
C  48.50800 26.89200 29.47100
C  49.89400 29.51800 27.33800
C  49.05700 28.73700 30.57200
O  49.49300 29.84100 30.88600
C  48.44100 27.67400 31.63000
C  49.39900 27.43200 32.81700
O  50.21600 26.59500 33.06100
O  49.16400 28.53200 33.71000
C  49.75100 28.48900 35.04900
H  46.51700 21.09600 31.03300
H  47.36400 21.54400 24.52600
H  49.17800 27.52400 25.25600
H  48.11000 24.86600 33.19800
H  45.72600 23.11200 32.64600
H  46.92000 21.59100 33.83200
H  48.22800 22.70700 34.05000
H  48.32300 21.63300 32.72700
H  45.15400 25.32400 33.19300
H  46.06300 26.68300 32.50300
H  45.69400 27.07100 34.70700
H  47.43500 26.66800 34.66400
H  46.41700 18.92400 30.33100
H  46.45400 18.06000 28.91500
H  44.95800 18.90300 29.56300
H  44.50300 18.41000 27.15200
H  45.69900 17.18400 26.85300
H  44.70100 17.80800 25.46100
H  47.34800 23.60500 23.21400
H  49.45300 25.69400 23.37200
H  49.97400 22.43400 23.70400
H  50.22400 23.74700 22.71700
H  49.30200 22.32900 22.12100
H  47.59300 25.86500 22.20100
H  47.67200 27.16900 23.44900
H  46.01800 25.05200 24.37100
H  45.49800 25.35600 22.61400
H  45.46800 26.66700 23.90000
H  50.67600 29.16000 26.66800
H  50.33000 30.06800 28.17200
H  49.15100 29.95700 26.67300
H  47.52200 28.14200 31.98500
H  50.82800 28.33900 34.97300
H  49.27300 27.75500 35.69800
H  49.55800 29.43400 35.55600

