158

Mg 1.01600 8.03200 27.92400
C  1.37200 10.21100 30.51900
C  1.39300 5.35900 30.00600
C  1.64900 6.07900 25.21600
C  1.15900 10.80000 25.71200
N  1.49000 7.83800 30.02700
C  1.33100 8.85600 30.92000
C  1.34100 8.31400 32.40500
C  1.48000 6.79100 32.18800
C  1.41800 6.66800 30.63500
C  2.83100 6.19500 32.72000
C  0.15700 8.79100 33.27400
C  0.49700 9.16300 34.76400
H  0.04900 8.12500 35.73600
N  1.28600 5.97300 27.63700
C  1.34100 5.05100 28.58000
C  1.45300 3.78000 28.02200
C  1.62500 3.98200 26.61600
C  1.52200 5.39800 26.44700
C  1.36600 2.50600 28.86300
C  1.72900 2.90000 25.39600
O  1.95400 3.12500 24.25900
C  1.64600 1.46000 25.83400
N  1.23200 8.33800 25.85900
C  1.45800 7.37200 24.87600
C  1.75600 7.88400 23.47600
C  1.34500 9.36300 23.59200
C  1.20400 9.51900 25.15300
C  3.24400 7.58000 23.03800
C  0.15500 9.81900 22.71200
C  -1.28200 9.39700 23.09200
N  1.22700 10.14200 28.01400
C  1.20900 11.07000 27.11100
C  1.42600 12.30300 27.71600
C  1.58000 12.11400 29.06300
C  1.34300 10.69100 29.18600
C  1.41000 13.64000 27.10200
C  1.87200 12.67900 30.42600
O  2.20700 13.82800 30.79200
C  1.63600 11.43700 31.43200
C  2.80300 11.35000 32.28200
O  3.92900 10.95300 31.94200
O  2.57600 11.95800 33.51700
C  3.71300 12.25400 34.37800
H  1.32200 4.60100 30.79000
H  1.97700 5.54100 24.32400
H  1.28400 11.66700 25.06000
H  2.23900 8.78900 32.80000
H  0.64900 6.17400 32.52900
H  3.29800 5.71800 31.85800
H  2.59500 5.46500 33.49400
H  3.56300 6.90400 33.10800
H  -0.51500 7.93400 33.24000
H  -0.32200 9.64000 32.78700
H  0.10900 10.16500 34.94600
H  1.58300 9.21800 34.84000
H  2.18700 1.86500 28.54200
H  0.44700 2.11400 28.42800
H  1.32000 2.56100 29.95100
H  2.50900 1.24400 26.46400
H  1.68000 0.81900 24.95300
H  0.70400 1.21700 26.32600
H  1.10300 7.33900 22.79500
H  2.24300 9.93000 23.34400
H  3.90300 7.39300 23.88700
H  3.60600 8.48000 22.54000
H  3.38200 6.83000 22.26000
H  0.36800 9.38600 21.73400
H  0.23000 10.88800 22.51100
H  -1.76600 8.67400 22.43600
H  -1.84600 10.32800 23.16100
H  -1.35200 9.06300 24.12700
H  0.75900 14.39200 27.54900
H  1.14600 13.58400 26.04600
H  2.39400 14.09500 27.21600
H  0.78100 11.75500 32.02900
H  4.23600 13.13800 34.01400
H  4.46900 11.47800 34.50500
H  3.24800 12.67600 35.26900
Mg 17.47900 -0.28000 27.89100
C  16.43600 1.71700 30.54700
C  19.52700 -1.97200 30.06700
C  19.09100 -1.82400 25.24800
C  16.03700 1.89900 25.77700
N  17.94700 -0.04200 30.05100
C  17.19900 0.63700 30.94800
C  17.50100 0.25200 32.39600
C  18.64500 -0.80200 32.22400
C  18.79100 -0.91800 30.68200
C  19.99200 -0.43900 32.89400
C  16.25100 -0.39500 33.14100
C  15.98200 -0.03100 34.62400
H  17.20700 0.55900 35.42500
N  18.88100 -1.91200 27.69700
C  19.58200 -2.48500 28.72500
C  20.49500 -3.51600 28.25000
C  20.36500 -3.52100 26.77700
C  19.41700 -2.38300 26.52300
C  21.28600 -4.40000 29.19300
C  21.01600 -4.40500 25.77200
O  20.84500 -4.20500 24.56100
C  22.08000 -5.35400 26.11900
N  17.60900 -0.04100 25.78200
C  18.19700 -0.77500 24.89100
C  17.72700 -0.42000 23.45100
C  16.64400 0.67600 23.66100
C  16.73400 0.84500 25.13900
C  18.87000 0.12500 22.46800
C  15.27600 0.31400 23.03900
C  14.91200 1.08400 21.70900
N  16.41400 1.50100 28.01700
C  15.82400 2.25200 27.07700
C  15.16300 3.43500 27.67700
C  15.41300 3.27200 29.05900
C  16.14700 2.02200 29.17800
C  14.49700 4.50500 26.84700
C  15.13100 3.75100 30.40100
O  14.35000 4.69800 30.78000
C  15.67300 2.74500 31.36000
C  16.67900 3.52700 32.10900
O  17.66300 4.04000 31.65600
O  16.22200 3.65800 33.42300
C  16.87200 4.58700 34.31100
H  19.94100 -2.72600 30.74000
H  19.61500 -2.32200 24.43000
H  15.35000 2.37200 25.07200
H  17.85300 1.18900 32.82700
H  18.39000 -1.83000 32.48400
H  20.42100 -1.33400 33.34400
H  19.84800 0.41600 33.55400
H  20.79700 -0.02800 32.28300
H  16.36300 -1.47800 33.19000
H  15.27500 -0.21400 32.69000
H  15.69400 -0.89000 35.22900
H  15.04100 0.51800 34.66600
H  20.64300 -5.18700 29.58600
H  21.63800 -3.72800 29.97500
H  22.15900 -4.88500 28.75600
H  22.81300 -4.58000 26.34500
H  22.44500 -5.89900 25.24900
H  21.71100 -5.91900 26.97500
H  17.38700 -1.41600 23.16700
H  16.93900 1.61500 23.19400
H  19.87300 -0.16900 22.77600
H  18.93000 1.21200 22.53300
H  18.63000 -0.28100 21.48600
H  14.55200 0.50000 23.83300
H  15.23200 -0.75800 22.84500
H  15.74700 1.53600 21.17400
H  14.26000 1.87700 22.07600
H  14.45300 0.44800 20.95100
H  13.50500 4.24300 26.48100
H  15.08200 4.92600 26.02900
H  14.37600 5.30200 27.58100
H  14.88800 2.38300 32.02400
H  17.61300 5.20600 33.80400
H  17.55500 4.02900 34.95100
H  16.18900 5.19100 34.90900

