158

Mg 6.72600 54.37700 41.45900
C  5.92900 50.90700 41.29600
C  9.71700 53.78900 40.08600
C  7.28000 57.66400 41.46500
C  3.28200 54.92200 42.52100
N  7.66100 52.51500 40.53700
C  7.22500 51.20900 40.79500
C  8.28700 50.23400 40.30300
C  9.56700 51.21100 40.32800
C  8.98200 52.62700 40.28100
C  10.43000 51.10000 41.57000
C  8.06700 49.58900 38.82900
C  7.21400 50.39200 37.82100
H  6.57700 49.67800 36.65500
N  8.30400 55.60400 40.77600
C  9.43000 55.18700 40.22000
C  10.33100 56.31300 40.09400
C  9.66500 57.45300 40.58700
C  8.38900 56.98000 41.00400
C  11.70200 56.33200 39.53500
C  10.20200 58.92600 40.52800
O  11.22300 59.31100 39.97500
C  9.31700 60.02800 41.07600
N  5.35800 56.06900 41.76900
C  5.90100 57.28500 41.76900
C  4.82500 58.39500 42.11800
C  3.52200 57.50300 42.34000
C  4.08400 56.05000 42.24800
C  5.30500 59.35700 43.25600
C  2.34700 57.85800 41.35200
C  0.91900 57.38800 41.74700
N  4.95800 53.21200 41.94500
C  3.70300 53.62000 42.37000
C  2.90100 52.43000 42.59500
C  3.70600 51.35700 42.33000
C  4.94700 51.83800 41.75500
C  1.44200 52.41000 43.11400
C  3.77400 49.88900 42.27300
O  2.93500 49.11600 42.65800
C  5.22700 49.58000 41.52300
C  5.04700 48.70000 40.39300
O  4.40900 48.94500 39.33800
O  5.80100 47.57300 40.70800
C  5.70400 46.54300 39.64900
H  10.76300 53.62800 39.81500
H  7.42400 58.73100 41.64300
H  2.26700 55.12700 42.86500
H  8.41100 49.41000 41.00500
H  10.13500 51.09500 39.40500
H  10.08500 50.20500 42.08700
H  10.39700 51.94000 42.26400
H  11.47600 50.94800 41.30200
H  7.60900 48.62300 39.04200
H  9.03900 49.47900 38.34900
H  7.97100 50.98900 37.31200
H  6.56700 51.10100 38.33600
H  11.97400 55.36400 39.11400
H  12.42700 56.64700 40.28600
H  11.71900 56.99200 38.66700
H  9.91300 60.94000 41.05900
H  9.03700 59.82600 42.11000
H  8.37400 60.17000 40.54900
H  4.68200 59.02700 41.24200
H  3.23800 57.59700 43.38800
H  4.84600 59.13400 44.21900
H  5.02800 60.35300 42.91100
H  6.36800 59.27400 43.48300
H  2.56400 57.32700 40.42500
H  2.38700 58.94200 41.24800
H  0.56300 56.81900 40.88800
H  0.26000 58.20700 42.03200
H  0.90800 56.75800 42.63600
H  0.94500 51.57900 42.61500
H  0.94000 53.33800 42.84100
H  1.43800 52.19200 44.18200
H  5.82500 49.08500 42.28900
H  6.08000 46.93300 38.70400
H  4.66600 46.22100 39.56100
H  6.37400 45.69800 39.80600
Mg -5.43100 25.58200 26.51600
C  -3.78000 26.77900 29.51700
C  -7.03700 23.22500 28.48500
C  -6.54900 24.08400 23.73900
C  -3.08500 27.18500 24.72800
N  -5.34400 25.11900 28.71300
C  -4.77800 25.84900 29.78100
C  -5.39200 25.37900 31.12500
C  -6.04500 24.05000 30.71700
C  -6.22300 24.16600 29.18300
C  -5.31800 22.76900 31.18000
C  -6.37100 26.43300 31.69300
C  -6.39300 26.63200 33.25500
H  -5.80000 25.54700 34.13700
N  -6.75400 23.94700 26.15800
C  -7.35400 23.14600 27.09600
C  -8.22900 22.15100 26.38300
C  -8.09800 22.38000 24.95600
C  -7.17000 23.58000 24.92400
C  -9.10800 21.16400 27.17400
C  -8.74300 21.61600 23.79400
O  -8.57600 21.81400 22.58800
C  -9.59700 20.43500 24.04700
N  -4.77000 25.50700 24.54800
C  -5.45600 24.87500 23.58500
C  -4.95100 25.19600 22.16100
C  -3.94200 26.35700 22.47300
C  -3.92000 26.38400 23.99500
C  -4.43900 23.95700 21.36600
C  -4.16900 27.78800 21.91300
C  -3.12300 28.48500 21.03100
N  -3.83900 26.85900 26.97000
C  -3.04900 27.44800 26.11400
C  -2.11700 28.31400 26.79200
C  -2.44900 28.13300 28.14200
C  -3.42000 27.18600 28.20200
C  -1.08800 29.23600 26.18500
C  -2.10200 28.52900 29.50300
O  -1.29200 29.39600 29.83200
C  -3.08900 27.80700 30.43400
C  -2.25200 27.08900 31.48200
O  -1.17900 26.54900 31.33800
O  -2.86400 27.15800 32.69400
C  -2.02000 26.79000 33.83900
H  -7.54600 22.53800 29.16400
H  -6.90900 23.65100 22.80400
H  -2.33400 27.81200 24.24300
H  -4.62100 25.05200 31.82200
H  -7.02400 24.00900 31.19500
H  -4.92000 22.24600 30.31000
H  -5.92300 22.13100 31.82300
H  -4.38900 22.93600 31.72600
H  -7.39800 26.27300 31.36700
H  -6.13600 27.40800 31.26700
H  -7.46100 26.63300 33.46900
H  -5.98700 27.59500 33.56900
H  -9.04500 20.14200 26.79900
H  -10.15700 21.45600 27.11600
H  -8.82500 21.04100 28.21900
H  -10.30500 20.63800 24.85200
H  -8.88000 19.68000 24.36900
H  -10.15100 20.20700 23.13600
H  -5.76100 25.61800 21.56700
H  -2.96000 26.00800 22.15300
H  -4.43300 23.04800 21.96900
H  -3.49000 24.16900 20.87300
H  -4.93900 23.89600 20.39900
H  -4.32200 28.45300 22.76400
H  -5.03900 27.65400 21.27100
H  -3.06300 29.55600 21.22200
H  -3.29600 28.41600 19.95700
H  -2.11400 28.09300 21.16500
H  -0.34800 28.62200 25.67200
H  -0.59700 29.82700 26.95800
H  -1.57400 29.90300 25.47200
H  -3.87800 28.34900 30.95500
H  -0.98700 27.12900 33.75400
H  -2.04300 25.71900 34.04200
H  -2.39100 27.43400 34.63600

