158

Mg 3.07700 -0.31100 44.99500
C  6.57200 0.35400 44.68700
C  2.60300 2.44100 42.89400
C  -0.04500 -1.10300 44.95400
C  3.99700 -3.49900 46.43200
N  4.40400 1.16600 43.89400
C  5.78000 1.16600 43.90300
C  6.36900 2.26300 42.98200
C  5.08500 3.08300 42.71100
C  3.95900 2.16600 43.11600
C  4.90200 4.52700 43.26800
C  7.14300 1.59600 41.81200
C  8.59700 2.07200 41.48200
H  9.05200 2.00700 40.07700
N  1.49000 0.61700 44.16700
C  1.48500 1.69500 43.39300
C  0.06600 2.01900 43.08900
C  -0.74100 0.97300 43.55300
C  0.19200 0.11800 44.35000
C  -0.35600 3.29000 42.35800
C  -2.24500 0.79800 43.27800
O  -2.77700 1.63400 42.57300
C  -2.97900 -0.34200 43.76500
N  2.18100 -2.07600 45.52600
C  0.82800 -2.12900 45.42800
C  0.35700 -3.52000 45.78500
C  1.57000 -4.30500 46.41600
C  2.67000 -3.28300 46.03800
C  -0.81100 -3.55900 46.76100
C  1.94600 -5.72400 45.83800
C  0.74000 -6.65900 45.37700
N  4.87500 -1.40600 45.51900
C  5.03600 -2.61900 46.15300
C  6.45800 -2.73200 46.49100
C  7.06400 -1.60400 45.92600
C  6.09100 -0.80900 45.33800
C  7.14300 -3.76300 47.25900
C  8.32900 -0.91200 45.73600
O  9.45300 -1.17600 46.05800
C  8.06700 0.33300 44.91700
C  8.49300 1.47000 45.79400
O  7.88500 1.83300 46.83000
O  9.68300 1.99800 45.28800
C  9.93700 3.36800 45.80600
H  2.35100 3.25700 42.21300
H  -1.08400 -1.44100 44.95600
H  4.17000 -4.43500 46.96600
H  7.04900 2.84800 43.60100
H  5.06300 3.07100 41.62100
H  4.93400 5.20600 42.41500
H  5.78700 4.76100 43.86100
H  3.94800 4.64900 43.78100
H  6.58200 1.85600 40.91500
H  7.05400 0.51600 41.69200
H  9.34200 1.59000 42.11400
H  8.76800 3.10900 41.77200
H  -0.90400 3.07500 41.44100
H  0.48700 3.93800 42.11900
H  -1.12100 3.71000 43.01000
H  -4.04500 -0.16700 43.61900
H  -2.71900 -0.49000 44.81300
H  -2.71000 -1.26800 43.25800
H  0.13800 -3.90600 44.79000
H  1.57700 -4.26200 47.50500
H  -0.89400 -2.66700 47.38100
H  -0.81900 -4.48000 47.34400
H  -1.70800 -3.68500 46.15500
H  2.56300 -6.27100 46.55200
H  2.60800 -5.72400 44.97200
H  0.96800 -7.69400 45.63100
H  0.60300 -6.72200 44.29700
H  -0.25500 -6.38400 45.72700
H  7.20200 -4.71700 46.73500
H  6.56500 -3.78900 48.18400
H  8.12400 -3.40800 47.57500
H  8.57100 0.38200 43.95200
H  10.35500 4.02100 45.03900
H  10.62500 3.43400 46.64800
H  9.03600 3.91100 46.09000
Mg 49.33300 45.20300 43.17300
C  46.01800 45.83100 42.13700
C  49.18300 42.23800 41.53500
C  52.69500 45.12700 43.22800
C  49.48900 48.69200 43.97200
N  47.80200 44.19000 41.96400
C  46.55200 44.65900 41.61200
C  45.83900 43.78200 40.66800
C  46.69400 42.47200 40.74100
C  47.98000 42.98700 41.48100
C  46.02800 41.31300 41.56800
C  45.68200 44.46100 39.22800
C  44.24500 44.45300 38.62200
H  44.03400 43.45700 37.49400
N  50.73300 43.65400 42.82400
C  50.43600 42.48200 42.14000
C  51.66400 41.68300 42.17000
C  52.73700 42.54400 42.69000
C  52.07500 43.85500 42.95700
C  51.74300 40.29200 41.66800
C  54.14200 42.13300 42.87900
O  54.51100 40.97900 42.61200
C  55.11900 43.06700 43.68500
N  50.92300 46.71700 43.50400
C  52.19400 46.43700 43.45900
C  53.06600 47.69400 43.61900
C  52.03600 48.75600 44.10600
C  50.70700 48.08800 43.81100
C  54.40600 47.53900 44.49900
C  52.18700 50.16100 43.35400
C  52.07700 51.50300 44.07100
N  47.98400 46.84800 43.30400
C  48.19600 48.11600 43.73900
C  46.88100 48.78900 43.92400
C  46.02800 47.87900 43.29600
C  46.74800 46.73900 42.87200
C  46.56700 50.21000 44.17700
C  44.69300 47.75200 42.85900
O  43.73000 48.47600 43.11800
C  44.64700 46.47900 41.96000
C  43.47600 45.68100 42.44700
O  42.38300 45.58800 41.89800
O  43.87700 45.10500 43.63400
C  42.79800 44.33700 44.26300
H  48.91200 41.28300 41.08000
H  53.78500 45.08200 43.17400
H  49.38200 49.75500 44.19500
H  44.88300 43.43300 41.05700
H  46.93600 42.03700 39.77200
H  44.97500 41.50600 41.77200
H  46.48500 41.05700 42.52400
H  46.08300 40.45400 40.89900
H  46.33800 43.90300 38.56000
H  46.06700 45.47200 39.35500
H  44.13800 45.49900 38.33300
H  43.48900 44.21600 39.37100
H  52.71300 40.05000 41.23300
H  50.89300 40.13000 41.00600
H  51.65700 39.58100 42.49000
H  54.63000 43.32200 44.62500
H  55.44000 43.89800 43.05700
H  55.98100 42.46200 43.96500
H  53.27900 47.97700 42.58800
H  52.06900 48.90900 45.18500
H  54.39000 46.62000 45.08500
H  54.64600 48.39800 45.12500
H  55.26200 47.38900 43.84100
H  51.39200 50.17800 42.60900
H  53.01700 50.09000 42.65000
H  52.60300 52.33400 43.60200
H  52.44200 51.39100 45.09300
H  51.03800 51.83300 44.08900
H  46.58500 50.47600 45.23400
H  45.54100 50.33600 43.83100
H  47.34200 50.88600 43.81500
H  44.48600 46.78800 40.92800
H  42.72700 43.37200 43.76100
H  41.81700 44.81100 44.28800
H  43.07800 44.15800 45.30100

