158

Mg 7.86600 2.06400 28.25300
C  9.34400 0.66800 31.06000
C  5.64100 3.80100 30.29600
C  6.45000 3.37600 25.54700
C  9.56500 -0.23600 26.30800
N  7.67200 2.27200 30.40900
C  8.34200 1.58800 31.37800
C  8.14700 2.27500 32.75800
C  6.81400 3.05100 32.53900
C  6.69900 3.09700 30.99600
C  5.54100 2.35200 33.16500
C  9.38900 3.10700 33.26100
C  9.91000 2.90500 34.69300
H  9.09400 2.20400 35.75400
N  6.33900 3.46200 27.95600
C  5.53900 4.02800 28.95100
C  4.50100 4.86100 28.30000
C  4.75100 4.80700 26.88900
C  5.87300 3.87500 26.76600
C  3.40800 5.59600 29.04700
C  4.00200 5.50000 25.80700
O  4.13300 5.24600 24.59100
C  2.91100 6.54000 26.16900
N  7.84400 1.54600 26.19800
C  7.36400 2.36700 25.31100
C  7.88800 2.03600 23.87800
C  8.87100 0.87000 24.16800
C  8.72600 0.66600 25.66100
C  6.65800 1.75400 22.95000
C  10.31300 0.99100 23.62500
C  11.42000 1.70500 24.48900
N  9.16900 0.43400 28.55500
C  9.81900 -0.34000 27.65300
C  10.77700 -1.14600 28.41300
C  10.65100 -0.77000 29.76600
C  9.63900 0.22000 29.80000
C  11.66300 -2.17400 27.83100
C  11.22700 -0.93100 31.09100
O  12.10200 -1.63300 31.50900
C  10.41900 -0.01900 31.98200
C  9.89600 -0.93500 33.05800
O  9.17400 -1.87500 32.82400
O  10.50500 -0.62300 34.23000
C  10.36400 -1.70600 35.17600
H  4.92800 4.27000 30.97800
H  5.98600 3.89100 24.70300
H  10.16100 -0.91700 25.69800
H  7.89900 1.39200 33.34800
H  6.96400 4.02000 33.01500
H  5.23700 2.95300 34.02200
H  5.75000 1.33700 33.50300
H  4.65200 2.28900 32.53700
H  9.23600 4.18400 33.19700
H  10.22200 3.03800 32.56100
H  10.02600 3.88700 35.15300
H  10.91200 2.48000 34.74300
H  3.48500 6.66600 29.23900
H  3.34400 5.10700 30.01800
H  2.43200 5.35100 28.62700
H  2.09300 6.17900 26.79200
H  2.46000 6.74000 25.19700
H  3.19800 7.54300 26.48600
H  8.45400 2.94400 23.67100
H  8.35200 -0.05900 23.93300
H  6.65000 2.57500 22.23400
H  5.67600 1.77500 23.42200
H  6.73300 0.80200 22.42400
H  10.22600 1.54500 22.69100
H  10.79400 0.05000 23.35700
H  11.12000 2.06400 25.47300
H  11.80100 2.50700 23.85600
H  12.25400 1.00800 24.57400
H  11.84200 -2.95300 28.57200
H  12.58300 -1.62400 27.63000
H  11.21700 -2.56900 26.91800
H  11.14400 0.75000 32.24600
H  9.73600 -2.52600 34.82800
H  9.94100 -1.38000 36.12600
H  11.31000 -2.06000 35.58700
Mg 46.83600 16.65300 27.40900
C  45.01000 16.51000 30.41100
C  49.18900 18.43000 28.99600
C  48.32100 16.94500 24.40700
C  44.21800 15.00900 25.81500
N  46.91700 17.62000 29.51600
C  46.19700 17.22000 30.62200
C  46.88400 17.65400 31.91900
C  48.19100 18.50800 31.36500
C  48.14600 18.15300 29.91300
C  48.15700 19.98500 31.64100
C  47.33500 16.45700 32.73300
C  47.06300 16.56500 34.20700
H  47.05200 18.00700 34.82100
N  48.48400 17.64100 26.76900
C  49.39900 18.33400 27.58200
C  50.50600 18.75400 26.72100
C  50.21300 18.33800 25.40500
C  48.96700 17.63400 25.53400
C  51.64900 19.59800 27.29700
C  50.98400 18.62400 24.09500
O  50.70700 18.26500 22.96400
C  52.18400 19.48700 24.26200
N  46.37600 15.94200 25.36800
C  47.20400 16.14300 24.33700
C  46.67300 15.49000 23.01100
C  45.26300 14.88100 23.52500
C  45.30200 15.18800 25.03700
C  46.46600 16.66400 21.96100
C  45.01300 13.39500 23.09100
C  44.23500 13.26500 21.79600
N  45.05800 15.80300 28.00600
C  44.01400 15.27500 27.22100
C  42.85100 14.91000 28.02100
C  43.24000 15.44000 29.31400
C  44.56100 15.95700 29.17600
C  41.72400 14.08700 27.59800
C  42.82500 15.54600 30.72200
O  41.77500 15.14100 31.22200
C  44.05100 16.12000 31.46600
C  43.56300 17.20800 32.32100
O  43.16000 18.31400 31.99300
O  43.54300 16.68300 33.60300
C  42.68000 17.48900 34.46000
H  49.96100 18.92700 29.58600
H  48.86300 17.08100 23.46800
H  43.31200 14.63200 25.33600
H  46.29400 18.33600 32.53100
H  49.11700 18.13600 31.80300
H  49.05200 20.20600 32.22100
H  47.28500 20.27200 32.22900
H  48.17900 20.50300 30.68200
H  48.39900 16.22200 32.71100
H  46.81600 15.60400 32.29400
H  47.82100 15.98700 34.73600
H  46.18500 15.93800 34.36700
H  52.60900 19.12800 27.08500
H  51.66200 19.62800 28.38600
H  51.66000 20.60500 26.88100
H  51.88900 20.38300 24.80900
H  52.51000 19.92900 23.32000
H  52.99800 18.95900 24.75900
H  47.44200 14.79500 22.67400
H  44.45600 15.43300 23.04400
H  46.47700 17.63500 22.45600
H  45.46500 16.50600 21.55900
H  47.16300 16.59100 21.12600
H  44.45300 12.97100 23.92500
H  45.97800 12.89000 23.07100
H  44.90700 12.73300 21.12300
H  44.07800 14.21400 21.28400
H  43.29200 12.74200 21.95400
H  41.98200 13.07300 27.29500
H  41.29500 14.54400 26.70600
H  41.05700 14.08300 28.46000
H  44.56600 15.40100 32.10300
H  42.94500 18.54300 34.37200
H  42.63000 17.05400 35.45800
H  41.70800 17.45200 33.96700

