158

Mg 47.61100 25.11700 27.84600
C  48.41000 27.27000 30.46700
C  46.94600 22.70600 30.27100
C  47.31200 22.95900 25.35400
C  49.11400 27.38300 25.61200
N  47.34700 25.09000 30.11800
C  47.81000 26.10600 30.95500
C  47.55900 25.78400 32.41300
C  47.01600 24.34900 32.28600
C  47.09500 24.00200 30.82900
C  47.60200 23.21400 33.20200
C  46.41200 26.73000 32.90900
C  45.83900 26.30000 34.28300
H  45.47200 27.38300 35.34000
N  47.20300 23.12700 27.77500
C  46.89600 22.28900 28.88900
C  46.61800 20.92500 28.43300
C  46.73300 21.02400 26.97900
C  47.16900 22.40700 26.61200
C  46.17400 19.71400 29.26900
C  46.34800 20.02100 25.96700
O  46.50100 20.20300 24.78200
C  45.67500 18.66000 26.24200
N  48.19700 25.20600 25.84500
C  47.85700 24.17300 24.98900
C  48.03900 24.59900 23.50700
C  48.32200 26.09700 23.60700
C  48.63700 26.21200 25.07300
C  49.19200 23.78300 22.73100
C  47.07100 27.00500 23.16700
C  47.44200 28.00600 22.06200
N  48.54800 26.98800 27.94600
C  49.15600 27.80600 26.94000
C  49.69200 28.95100 27.61700
C  49.44800 28.84200 28.99200
C  48.68700 27.62100 29.14400
C  50.43500 30.04900 26.90800
C  49.69300 29.37300 30.26400
O  50.28800 30.41700 30.59400
C  49.11100 28.38700 31.23200
C  50.22700 27.93400 32.17000
O  50.87800 26.95900 31.92300
O  50.27100 28.68700 33.32500
C  51.41700 28.34800 34.16200
H  46.78200 21.82400 30.89400
H  47.04500 22.35100 24.48800
H  49.46100 28.00000 24.78100
H  48.45700 25.94900 33.00900
H  45.99000 24.27700 32.64500
H  47.93400 22.30100 32.70700
H  47.03800 22.89700 34.07900
H  48.58900 23.55600 33.51600
H  45.59000 26.75400 32.19300
H  46.74700 27.76200 33.01400
H  46.51000 25.62800 34.81600
H  44.89900 25.80300 34.04400
H  46.61900 18.77600 28.93600
H  45.09500 19.68400 29.12400
H  46.49000 19.83400 30.30500
H  45.27900 18.12600 25.37900
H  44.81700 18.81200 26.89700
H  46.49300 18.06400 26.64800
H  47.08700 24.46300 22.99400
H  49.19600 26.37700 23.01800
H  50.12300 24.34100 22.62900
H  48.89200 23.65600 21.69100
H  49.34800 22.82900 23.23600
H  46.70700 27.50500 24.06500
H  46.27900 26.34600 22.81200
H  47.00500 27.62400 21.13900
H  48.52600 28.04800 21.95700
H  47.13300 29.00300 22.37600
H  50.96900 30.67300 27.62500
H  49.76800 30.69800 26.34000
H  51.20600 29.65900 26.24300
H  48.43100 28.87500 31.93100
H  52.28700 28.37800 33.50800
H  51.27500 27.37700 34.63600
H  51.53600 29.02400 35.00900
Mg -11.96600 16.21400 42.22300
C  -8.91500 14.73400 41.88400
C  -10.65700 19.16500 40.84400
C  -15.06400 17.42100 41.73200
C  -13.32000 13.00500 42.97000
N  -9.97700 16.81000 41.32700
C  -8.89300 16.02700 41.32800
C  -7.69300 16.75300 40.69300
C  -8.26100 18.21300 40.47400
C  -9.72900 18.09300 40.84900
C  -7.55000 19.37700 41.32600
C  -7.25300 16.11300 39.35700
C  -5.71800 16.19200 39.00100
H  -5.28100 17.00000 37.79000
N  -12.73100 18.10500 41.53300
C  -12.01100 19.15500 41.09800
C  -12.95300 20.25300 40.81000
C  -14.24600 19.81600 41.13200
C  -14.06000 18.39200 41.44700
C  -12.44700 21.50200 40.14100
C  -15.54400 20.55600 41.04700
O  -15.53600 21.75200 40.68600
C  -17.05300 19.86600 41.20900
N  -13.88700 15.28800 42.08600
C  -14.94800 16.07800 42.03900
C  -16.30100 15.20700 42.21900
C  -15.73300 13.86600 42.64900
C  -14.22300 14.05000 42.60100
C  -17.37600 15.76800 43.22000
C  -16.20500 12.63000 41.85400
C  -17.05300 11.72500 42.70800
N  -11.25200 14.28100 42.70000
C  -11.89600 13.14200 43.04700
C  -10.91000 12.13700 43.32600
C  -9.70800 12.67100 42.85500
C  -9.99500 13.99100 42.42500
C  -11.18700 10.87900 44.01300
C  -8.36100 12.37100 42.65900
O  -7.72300 11.36900 42.92600
C  -7.82900 13.71900 41.96800
C  -6.86500 14.18300 42.96000
O  -7.10000 14.77700 44.01200
O  -5.58300 13.99900 42.53100
C  -4.45800 14.51500 43.37200
H  -10.18900 20.05600 40.42100
H  -16.11700 17.67900 41.59600
H  -13.75400 12.01100 43.09300
H  -6.93300 16.78300 41.47300
H  -8.16700 18.50200 39.42800
H  -6.59600 19.00000 41.69600
H  -8.06200 19.71700 42.22700
H  -7.31400 20.24300 40.70700
H  -7.80700 16.59100 38.54900
H  -7.50800 15.05600 39.28100
H  -5.35200 15.17600 38.85500
H  -5.16100 16.55400 39.86600
H  -11.95800 21.28700 39.19100
H  -11.72600 21.89500 40.85900
H  -13.13200 22.31800 39.91000
H  -17.80800 20.63700 41.05200
H  -17.25800 19.44200 42.19200
H  -17.25500 19.06800 40.49400
H  -16.66400 15.25400 41.19200
H  -15.99600 13.75200 43.70100
H  -18.20400 16.04300 42.56600
H  -17.04800 16.67400 43.73100
H  -17.73000 15.02400 43.93400
H  -15.30600 12.06700 41.60300
H  -16.75700 12.93100 40.96400
H  -17.57300 12.27800 43.49100
H  -16.47500 10.89800 43.12100
H  -17.90300 11.31800 42.16000
H  -11.37200 10.14200 43.23200
H  -12.10100 10.87700 44.60800
H  -10.30000 10.60500 44.58400
H  -7.30100 13.51300 41.03700
H  -4.81000 15.42500 43.85800
H  -3.60600 14.84100 42.77600
H  -4.12700 13.85300 44.17300

