158

Mg 17.34200 -2.48900 27.88000
C  16.51200 -0.81800 30.81200
C  19.24500 -4.70800 29.73900
C  18.32500 -3.83800 24.92500
C  15.42000 -0.20200 26.16300
N  17.76200 -2.74900 30.04100
C  17.20300 -2.05000 31.10200
C  17.61100 -2.58800 32.43400
C  18.66000 -3.68600 32.02600
C  18.52100 -3.79500 30.50400
C  20.15400 -3.39800 32.51000
C  16.41100 -3.06000 33.32600
C  16.52600 -2.47000 34.76100
H  17.92200 -2.44000 35.37600
N  18.42200 -4.14000 27.49600
C  19.17000 -4.92400 28.32500
C  19.93900 -5.94000 27.63300
C  19.66100 -5.64800 26.22400
C  18.78200 -4.48000 26.17800
C  20.71300 -7.07000 28.32200
C  20.22000 -6.38900 25.01900
O  20.01900 -6.08300 23.85300
C  21.09200 -7.60500 25.18100
N  16.94600 -2.07300 25.77900
C  17.33100 -2.84600 24.74400
C  16.81100 -2.42900 23.43800
C  15.65000 -1.35800 23.87600
C  16.00700 -1.16100 25.36200
C  17.90900 -1.91200 22.57300
C  14.10400 -1.69400 23.70300
C  13.62600 -3.08600 23.98900
N  16.40600 -0.65600 28.23100
C  15.52600 0.08900 27.49800
C  14.95500 1.15300 28.25400
C  15.35300 0.84300 29.57800
C  16.20000 -0.24800 29.55200
C  14.02100 2.15200 27.87500
C  15.31300 1.28000 30.94100
O  14.92400 2.37100 31.49500
C  15.98100 0.13400 31.81100
C  17.06200 0.74700 32.67200
O  18.17800 0.99400 32.34000
O  16.52300 1.12500 33.82100
C  17.28900 1.91900 34.80700
H  20.03200 -5.26600 30.25200
H  18.62900 -4.35800 24.01500
H  14.76000 0.55400 25.73400
H  18.12800 -1.68200 32.74800
H  18.39800 -4.67000 32.41500
H  20.22500 -2.68300 33.32900
H  20.82300 -3.10500 31.70100
H  20.55300 -4.26200 33.04200
H  16.34200 -4.13700 33.47500
H  15.46100 -2.66100 32.96800
H  15.81100 -3.03500 35.35900
H  16.15000 -1.45000 34.67700
H  20.37000 -8.05000 27.99200
H  20.62000 -7.04900 29.40800
H  21.73500 -6.92100 27.97300
H  22.05200 -7.19400 25.49300
H  21.31700 -8.09200 24.23100
H  20.61600 -8.30900 25.86300
H  16.29600 -3.19600 22.85900
H  15.86200 -0.34300 23.54000
H  18.75200 -1.64900 23.21200
H  17.60300 -1.05500 21.97300
H  18.23500 -2.61300 21.80400
H  13.83600 -1.43200 22.67900
H  13.47200 -1.04500 24.30800
H  12.82700 -3.14900 24.72700
H  14.42600 -3.72500 24.36300
H  13.34000 -3.64300 23.09600
H  14.43900 2.79600 27.10200
H  13.62200 2.75300 28.69300
H  13.11300 1.72200 27.45200
H  15.23200 -0.40400 32.39200
H  18.36400 1.99000 34.64300
H  17.28200 1.37200 35.74900
H  17.01800 2.97500 34.79400
Mg 26.18600 -0.56700 29.82800
C  27.80700 -0.69700 32.98400
C  23.13400 -0.30900 31.57700
C  24.58300 -0.55900 26.87400
C  29.31000 -1.11400 28.29000
N  25.54000 -0.48700 32.05100
C  26.41000 -0.46300 33.18200
C  25.58000 -0.21400 34.46200
C  24.08700 -0.13900 33.95500
C  24.25400 -0.28800 32.45800
C  23.13100 -1.15500 34.63600
C  26.01500 0.98600 35.41800
C  26.00600 0.36300 36.83100
H  26.48700 1.19400 37.96900
N  24.14400 -0.24300 29.30900
C  23.01600 -0.23200 30.13400
C  21.83200 -0.08900 29.36800
C  22.30700 0.02700 28.00000
C  23.72400 -0.27300 27.98400
C  20.43000 0.19100 29.89800
C  21.53400 0.53700 26.80000
O  22.04400 0.50700 25.64600
C  20.08900 1.05600 26.83800
N  26.80000 -0.79900 27.94800
C  25.98000 -0.75500 26.85800
C  26.80000 -1.05800 25.58800
C  28.18200 -0.72100 26.09000
C  28.14400 -0.91900 27.57900
C  26.63700 -2.54300 25.03000
C  28.66300 0.75600 25.78900
C  29.66400 0.80500 24.63100
N  28.12000 -1.19900 30.52000
C  29.32000 -1.29100 29.76000
C  30.41800 -1.53600 30.63700
C  29.89300 -1.19300 31.92700
C  28.48700 -1.02500 31.77700
C  31.76500 -1.89100 30.18800
C  30.23500 -1.18200 33.32300
O  31.31000 -1.35800 33.92900
C  28.92200 -0.81400 34.04100
C  28.51600 -1.84500 34.99500
O  27.72800 -2.75500 34.80000
O  29.11300 -1.59200 36.18600
C  29.06700 -2.74000 37.09100
H  22.17400 -0.32800 32.09800
H  24.17100 -0.64000 25.86600
H  30.25800 -1.08800 27.74700
H  25.76800 -1.11100 35.05200
H  23.65000 0.82600 34.21000
H  22.41900 -0.56800 35.21600
H  23.64900 -1.81700 35.33000
H  22.56800 -1.72800 33.90000
H  25.24900 1.76100 35.42000
H  26.97800 1.45300 35.21200
H  26.67400 -0.49100 36.93800
H  25.02700 0.00600 37.14900
H  20.42800 1.19300 30.32700
H  20.16600 -0.52600 30.67600
H  19.76500 -0.05900 29.07200
H  19.64400 1.33000 25.88100
H  19.95100 1.86500 27.55500
H  19.43100 0.23500 27.12500
H  26.30700 -0.50900 24.78600
H  28.87100 -1.47200 25.70500
H  26.09300 -3.16400 25.74100
H  27.61100 -3.01900 24.91700
H  26.12700 -2.56300 24.06700
H  29.16900 1.10900 26.68800
H  27.85900 1.47600 25.63900
H  29.99500 -0.20500 24.39100
H  30.47300 1.50300 24.84500
H  29.23300 1.21600 23.71800
H  32.17200 -2.41900 31.05100
H  32.45200 -1.12800 29.82300
H  31.68800 -2.59400 29.35800
H  29.01700 0.13700 34.56500
H  29.78600 -3.47200 36.72400
H  28.09900 -3.23700 37.16100
H  29.35100 -2.53000 38.12200

