158

Mg 35.77100 2.40200 30.19400
C  33.44100 3.84600 32.32800
C  38.07000 2.24200 32.73700
C  38.05400 1.29700 27.88600
C  33.26200 2.43100 27.65800
N  35.72800 3.03000 32.21300
C  34.66200 3.58000 32.90700
C  35.05000 3.64400 34.44200
C  36.55900 3.49100 34.49900
C  36.78000 2.84400 33.10000
C  37.42700 4.69200 34.72300
C  34.25500 2.64700 35.33500
C  34.08600 3.03500 36.75500
H  34.71100 4.30700 37.33100
N  37.74400 1.90000 30.30900
C  38.54400 1.86600 31.44400
C  39.78200 1.25800 31.16800
C  39.74000 0.88400 29.80200
C  38.45300 1.39300 29.26100
C  40.82300 1.06900 32.30000
C  40.83600 0.21000 29.06200
O  40.68500 -0.20900 27.92700
C  42.18800 -0.09200 29.71700
N  35.68200 1.92900 28.12400
C  36.77300 1.52300 27.42400
C  36.39400 1.26200 25.97100
C  34.81400 1.32400 26.00900
C  34.57900 2.02700 27.32700
C  36.98700 2.36800 25.03100
C  34.16600 -0.09900 25.93100
C  32.74700 -0.12600 25.36900
N  33.79100 3.12000 29.91600
C  32.92100 3.16500 28.84500
C  31.65200 3.73300 29.24300
C  31.80900 3.96200 30.59600
C  33.10400 3.64400 30.96400
C  30.43300 3.93900 28.41800
C  31.10000 4.44300 31.76900
O  29.94300 4.72600 31.92400
C  32.12400 4.46600 32.98800
C  32.33600 5.83200 33.48800
O  33.15400 6.61800 33.08200
O  31.51300 6.01200 34.58600
C  31.70200 7.20900 35.41000
H  38.74400 2.20900 33.59600
H  38.83500 0.91000 27.22800
H  32.58000 2.20200 26.83600
H  34.88600 4.66000 34.80300
H  36.80500 2.75300 35.26200
H  37.65200 4.79500 35.78500
H  36.76000 5.54600 34.60100
H  38.31900 4.72200 34.09700
H  34.69100 1.64800 35.35500
H  33.28500 2.47700 34.86600
H  34.33000 2.19400 37.40400
H  33.00500 2.99900 36.88600
H  41.89100 0.93100 32.13600
H  40.45000 0.26300 32.93300
H  40.69500 1.99300 32.86300
H  42.52900 0.73400 30.34100
H  42.95000 -0.44700 29.02300
H  42.19300 -0.96000 30.37600
H  36.54600 0.25000 25.59500
H  34.34600 1.90400 25.21400
H  37.59400 2.00200 24.20300
H  37.48900 3.14700 25.60400
H  36.20800 2.97600 24.57000
H  34.12100 -0.39400 26.98000
H  34.84000 -0.80100 25.43900
H  32.58800 0.47000 24.47000
H  31.98800 0.07200 26.12600
H  32.69500 -1.09500 24.87300
H  29.71100 3.13000 28.52200
H  30.68800 4.06400 27.36500
H  30.14700 4.92600 28.78100
H  31.72200 3.83600 33.78200
H  32.75600 7.42900 35.57800
H  31.11700 7.01500 36.30900
H  31.24900 8.02600 34.84800
Mg 26.71200 50.02800 26.27000
C  24.90000 51.36300 28.77400
C  28.92600 48.87200 28.82600
C  28.70200 48.83800 23.93200
C  24.83300 51.59500 23.85500
N  26.96100 50.31900 28.52400
C  25.95600 50.71700 29.32000
C  26.15900 50.40900 30.82100
C  27.58000 49.80000 30.73400
C  27.87500 49.68300 29.26600
C  28.75900 50.39600 31.54400
C  25.12500 49.43800 31.49700
C  24.40900 49.88900 32.83200
H  24.65500 49.23500 34.19500
N  28.51400 48.90500 26.38900
C  29.24000 48.44700 27.50000
C  30.41200 47.76000 26.99400
C  30.37300 47.79000 25.57200
C  29.10400 48.50400 25.21000
C  31.37200 47.13600 28.01600
C  31.38300 47.14000 24.56500
O  31.43100 47.32200 23.37000
C  32.43200 46.27900 25.19000
N  26.80300 50.22900 24.16200
C  27.65800 49.58300 23.44000
C  27.24000 49.64000 21.85000
C  25.97700 50.46400 21.91600
C  25.81700 50.77600 23.39800
C  28.23900 50.37500 20.94500
C  24.62900 49.75400 21.36700
C  24.85100 48.94100 20.06600
N  25.21600 51.32900 26.26400
C  24.47400 51.88100 25.22300
C  23.33900 52.59300 25.82600
C  23.36600 52.28300 27.17900
C  24.55500 51.57000 27.39700
C  22.19100 53.37000 25.07900
C  22.81100 52.51200 28.41100
O  21.82600 53.18700 28.64900
C  23.70500 51.94000 29.53500
C  24.09700 52.92200 30.52900
O  24.81300 53.87200 30.41300
O  23.31800 52.69700 31.63800
C  23.28800 53.72000 32.69000
H  29.47900 48.41400 29.64900
H  29.32000 48.37200 23.16200
H  24.17800 52.17200 23.19900
H  26.21500 51.33500 31.39400
H  27.51400 48.74000 30.98000
H  29.53500 50.73300 30.85600
H  29.34400 49.62400 32.04300
H  28.44900 51.21500 32.19400
H  25.52800 48.45100 31.72600
H  24.36400 49.31500 30.72700
H  23.32100 49.88600 32.76500
H  24.58900 50.93500 33.07700
H  32.39800 47.40600 27.76600
H  31.28500 46.05800 28.14900
H  31.32000 47.62900 28.98700
H  31.92600 45.54100 25.81200
H  33.07800 46.93000 25.78000
H  32.97400 45.66500 24.47100
H  27.08300 48.61400 21.51700
H  26.04500 51.45500 21.46700
H  27.91000 51.26700 20.41300
H  28.66900 49.66200 20.24100
H  29.08700 50.58000 21.59800
H  23.97200 50.62400 21.34800
H  24.24500 49.09600 22.14700
H  24.10400 49.28200 19.35000
H  24.61300 47.88500 20.20000
H  25.85400 49.15000 19.69700
H  21.56000 53.93000 25.77000
H  21.75800 52.74400 24.29900
H  22.60500 54.08000 24.36200
H  22.98500 51.29300 30.03600
H  23.67700 54.68800 32.37200
H  23.75000 53.36200 33.61000
H  22.25100 53.80100 33.01800

