158

Mg 23.18800 -7.86200 45.47500
C  25.58200 -5.55800 44.52800
C  21.01300 -6.28000 43.29000
C  21.07200 -10.40900 45.89700
C  25.69500 -9.59500 47.16800
N  23.32900 -6.18800 44.01800
C  24.37500 -5.31400 43.84900
C  24.06500 -4.20900 42.81000
C  22.50600 -4.41300 42.60300
C  22.28500 -5.72200 43.28000
C  21.55600 -3.25500 43.13200
C  24.95700 -4.25000 41.51700
C  25.64400 -2.94100 41.08700
H  25.83000 -2.57700 39.55400
N  21.25400 -8.24100 44.87500
C  20.52600 -7.49200 43.94600
C  19.17500 -7.97700 43.89000
C  19.21300 -9.18500 44.71300
C  20.50800 -9.28800 45.26200
C  18.09900 -7.39100 43.01600
C  17.96300 -9.99300 45.03100
O  16.98800 -9.76200 44.34500
C  17.77700 -10.92300 46.14200
N  23.50100 -9.92800 46.17300
C  22.39400 -10.68100 46.39300
C  22.75000 -11.86900 47.31000
C  24.12500 -11.47300 47.81500
C  24.50300 -10.29000 47.00800
C  21.64900 -12.29800 48.34000
C  25.20300 -12.72800 47.91000
C  25.65600 -13.36400 46.53800
N  25.20800 -7.58700 45.86000
C  26.04100 -8.40500 46.63500
C  27.31400 -7.70800 46.67900
C  27.23700 -6.62000 45.87500
C  25.91600 -6.61600 45.39900
C  28.60800 -8.26800 47.34300
C  27.91800 -5.42200 45.36200
O  29.00900 -5.00200 45.66100
C  26.88300 -4.79100 44.33700
C  26.63700 -3.42400 44.75500
O  26.10600 -3.08400 45.85200
O  27.27000 -2.60000 43.87700
C  27.19000 -1.22700 44.18500
H  20.25500 -5.69100 42.77100
H  20.42100 -11.25300 46.13400
H  26.48300 -10.12200 47.71000
H  24.29100 -3.27600 43.32600
H  22.42100 -4.56000 41.52600
H  20.88700 -2.98800 42.31300
H  22.04300 -2.30600 43.35400
H  20.94500 -3.52700 43.99200
H  24.41300 -4.64400 40.65900
H  25.70900 -5.00600 41.74500
H  26.67300 -2.83100 41.43100
H  24.99400 -2.11900 41.38700
H  17.47100 -8.17500 42.59300
H  18.64800 -6.87300 42.23000
H  17.64200 -6.54200 43.52400
H  18.36300 -10.47200 46.94300
H  18.24000 -11.82800 45.74800
H  16.82800 -11.15300 46.62500
H  22.95600 -12.70200 46.63900
H  23.99200 -11.04700 48.81000
H  21.26200 -13.28700 48.09500
H  20.73600 -11.70400 48.39600
H  22.00500 -12.17100 49.36300
H  24.73800 -13.50700 48.51400
H  26.06300 -12.49300 48.53700
H  26.65200 -12.99300 46.30000
H  24.97400 -13.22600 45.69900
H  25.75900 -14.44100 46.67200
H  29.10200 -9.02500 46.73300
H  28.48200 -8.50100 48.40000
H  29.31000 -7.43500 47.31000
H  27.26900 -4.82400 43.31800
H  26.20600 -0.80600 44.39200
H  27.48400 -0.53600 43.39500
H  27.78500 -1.01100 45.07200
Mg 31.22500 59.66200 38.88400
C  28.34000 57.72000 37.80000
C  33.19300 57.04800 37.95400
C  33.82300 61.78700 39.08100
C  29.02700 62.28000 39.64900
N  30.81400 57.72100 37.90200
C  29.61400 57.08000 37.74500
C  29.81600 55.76200 37.03300
C  31.29000 55.41300 37.40800
C  31.82100 56.85900 37.79500
C  31.51800 54.32900 38.48600
C  29.45600 55.61000 35.53600
C  28.33900 54.67100 35.08100
H  27.24000 55.27800 34.14500
N  33.29400 59.46400 38.67900
C  33.85500 58.27300 38.37700
C  35.33400 58.46800 38.42900
C  35.53300 59.81200 38.75800
C  34.22400 60.44800 38.84600
C  36.36400 57.42000 38.19300
C  36.87500 60.49400 38.98300
O  37.93300 59.88700 39.00300
C  36.96300 61.98100 39.34300
N  31.36700 61.82700 39.17700
C  32.59100 62.42100 39.29000
C  32.43800 63.89000 39.59200
C  30.90700 64.05300 39.95500
C  30.38400 62.68200 39.55500
C  33.36800 64.46900 40.71600
C  30.30900 65.18200 39.15900
C  29.37500 66.24200 39.84900
N  29.12200 59.98600 38.75400
C  28.37600 61.07500 39.18100
C  26.96300 60.77600 39.06700
C  26.94200 59.44200 38.55800
C  28.26600 59.05900 38.31600
C  25.80100 61.62300 39.59000
C  26.05800 58.29700 38.22000
O  24.87300 58.14500 38.26200
C  26.89900 57.15100 37.65300
C  26.55400 55.88000 38.40200
O  27.19300 55.47700 39.33700
O  25.58000 55.15300 37.78800
C  25.25700 53.84700 38.26900
H  33.81200 56.23100 37.57700
H  34.61000 62.54400 39.09200
H  28.37300 63.04200 40.07800
H  29.13000 55.13400 37.60200
H  31.78200 55.09700 36.48800
H  30.66800 53.64600 38.48700
H  31.55000 54.82100 39.45800
H  32.42100 53.74500 38.30800
H  30.32200 55.36600 34.92100
H  29.08700 56.60200 35.27700
H  27.81900 54.25400 35.94300
H  28.78200 53.84000 34.53100
H  35.98200 56.59800 37.58700
H  36.56100 56.98900 39.17500
H  37.36300 57.71600 37.87200
H  38.01300 62.27200 39.37300
H  36.46200 62.18000 40.29000
H  36.49600 62.51800 38.51800
H  32.63800 64.48400 38.70100
H  30.72500 64.17400 41.02300
H  34.17600 63.86400 41.12800
H  32.83400 64.84800 41.58700
H  33.85400 65.32500 40.24700
H  29.76000 64.87600 38.26800
H  31.12500 65.86000 38.90800
H  29.77300 67.25100 39.74100
H  29.27800 65.98400 40.90400
H  28.39600 66.22900 39.37100
H  26.02200 61.86700 40.62900
H  24.86700 61.06800 39.50600
H  25.80600 62.58200 39.07100
H  26.77300 57.00300 36.58000
H  25.90800 53.04300 37.92800
H  24.27200 53.53100 37.92300
H  25.16800 53.79900 39.35500

