158

Mg -2.21900 17.58000 25.71800
C  -2.83400 15.19400 28.23800
C  -2.91500 20.03800 27.85700
C  -2.02100 19.63100 23.09700
C  -2.08500 14.79500 23.51600
N  -2.81200 17.54300 27.75400
C  -2.98200 16.48900 28.66800
C  -3.53700 16.98400 29.99600
C  -3.43000 18.53600 29.79700
C  -3.09500 18.74100 28.37100
C  -4.68400 19.36500 30.30000
C  -2.68100 16.47700 31.23300
C  -2.50700 17.41100 32.45700
H  -2.51000 16.84200 33.82800
N  -2.36700 19.61700 25.48900
C  -2.54900 20.45000 26.56100
C  -2.38800 21.80400 26.12800
C  -2.23400 21.70900 24.69100
C  -2.16500 20.30900 24.35900
C  -2.53800 22.99100 26.96000
C  -2.03900 22.76200 23.63800
O  -1.77200 22.44400 22.46500
C  -2.13400 24.18100 24.04300
N  -1.97700 17.23400 23.64200
C  -2.03000 18.26600 22.77700
C  -2.00000 17.81800 21.31000
C  -1.95200 16.28000 21.48500
C  -1.98400 16.05800 22.94400
C  -3.21800 18.38100 20.38700
C  -0.67600 15.65000 20.82500
C  0.52500 15.30200 21.69100
N  -2.26900 15.43500 25.80900
C  -2.18000 14.46600 24.88600
C  -2.41000 13.15100 25.45200
C  -2.59600 13.40700 26.80900
C  -2.53900 14.83200 26.93400
C  -2.29300 11.82000 24.82400
C  -2.68100 12.76400 28.10700
O  -2.57000 11.55600 28.42600
C  -2.88600 13.89200 29.08000
C  -1.63300 13.68900 29.99800
O  -0.50200 14.00600 29.77400
O  -2.03100 12.83100 31.03000
C  -0.96600 12.35000 31.93400
H  -3.03900 20.78000 28.64900
H  -1.97200 20.24600 22.19600
H  -2.18800 13.97300 22.80400
H  -4.55400 16.60200 30.09200
H  -2.54700 19.02500 30.20800
H  -5.14900 19.77600 29.40400
H  -4.52200 20.22000 30.95600
H  -5.36900 18.75900 30.89200
H  -1.68500 16.32600 30.81800
H  -3.15300 15.53000 31.49500
H  -3.37100 18.07500 32.47400
H  -1.56500 17.94900 32.34500
H  -3.46000 23.54300 26.77500
H  -1.65600 23.60500 26.77800
H  -2.47600 22.65600 27.99500
H  -2.05300 24.75500 23.12000
H  -1.24100 24.40400 24.62600
H  -3.07500 24.11100 24.58900
H  -0.96800 18.13500 21.16300
H  -2.78000 15.70100 21.07400
H  -3.86200 19.10300 20.88800
H  -3.65600 17.44800 20.03400
H  -2.77800 18.91500 19.54500
H  -0.22800 16.34400 20.11400
H  -0.98000 14.77700 20.24700
H  0.96500 14.38300 21.30200
H  0.37200 15.25200 22.76900
H  1.33700 16.02800 21.64200
H  -1.26400 11.49800 24.98500
H  -2.53500 11.80400 23.76200
H  -2.97900 11.18900 25.38900
H  -3.83500 13.80600 29.60900
H  -0.61400 11.33200 31.76900
H  -1.29900 12.28000 32.97000
H  -0.07900 12.95900 32.10600
Mg 7.30200 54.80900 42.17000
C  6.51300 51.47100 41.48700
C  10.47500 54.21300 40.95700
C  7.71700 58.21000 41.87000
C  3.87000 55.28500 42.62100
N  8.28600 53.08700 41.22400
C  7.82700 51.78400 41.14500
C  9.00900 50.85200 40.67300
C  10.26600 51.71400 41.00100
C  9.62700 53.10300 40.99000
C  11.04400 51.29300 42.31500
C  8.97300 50.40000 39.20100
C  8.79700 51.45500 38.07900
H  7.53900 51.24000 37.23400
N  8.95900 55.99800 41.61500
C  10.17100 55.53400 41.21500
C  11.03600 56.63400 41.00700
C  10.28300 57.81900 41.34400
C  8.91400 57.38600 41.68400
C  12.48400 56.60400 40.44100
C  10.75700 59.25900 41.45000
O  11.90500 59.53600 41.08900
C  9.96300 60.51600 41.88000
N  5.95800 56.52700 42.17200
C  6.38400 57.81800 42.03300
C  5.26200 58.85300 42.29700
C  4.02200 57.85100 42.49700
C  4.66400 56.45700 42.46300
C  5.54200 59.76800 43.52600
C  2.83000 58.06800 41.47900
C  1.58000 58.83600 41.93200
N  5.54600 53.65800 42.23900
C  4.24900 53.98900 42.52800
C  3.47800 52.83100 42.72100
C  4.33800 51.82100 42.30400
C  5.57200 52.38300 42.00400
C  2.04000 52.70000 43.18300
C  4.37400 50.36100 42.08200
O  3.51500 49.45800 42.31400
C  5.83100 50.13500 41.52100
C  5.88700 49.22300 40.40700
O  5.42100 49.49300 39.28400
O  6.61700 48.07500 40.71200
C  6.94400 47.10800 39.70000
H  11.53600 53.99600 40.82000
H  7.99100 59.26700 41.84400
H  2.82500 55.45200 42.89100
H  8.85600 49.99400 41.32700
H  10.96800 51.41100 40.22500
H  10.43200 50.66400 42.96100
H  11.24900 52.21000 42.86800
H  11.97100 50.74500 42.14200
H  8.20200 49.63400 39.12100
H  9.93600 49.95100 38.95900
H  9.70000 51.29100 37.49200
H  8.76700 52.43000 38.56500
H  12.79600 55.60500 40.13700
H  13.03700 56.97200 41.30500
H  12.73200 57.23300 39.58600
H  9.32000 60.93300 41.10400
H  10.64700 61.33500 42.09900
H  9.56500 60.25200 42.85900
H  5.14600 59.46000 41.39900
H  3.56600 57.99400 43.47600
H  5.11100 59.29000 44.40600
H  5.19100 60.77500 43.30100
H  6.60300 59.81500 43.77100
H  2.52700 57.09200 41.10100
H  3.14900 58.66700 40.62600
H  0.85600 58.08700 42.25500
H  1.03000 59.43100 41.20300
H  1.91000 59.39700 42.80600
H  1.69300 51.73600 43.55600
H  1.44100 52.87400 42.29000
H  1.95600 53.52600 43.89000
H  6.45600 49.59000 42.22800
H  7.96100 47.03000 39.31700
H  6.34800 47.17800 38.79000
H  6.79000 46.15100 40.19800

