158

Mg 1.42000 42.47000 25.84500
C  2.98800 42.58700 29.02900
C  -1.51800 41.56000 27.59800
C  0.16000 41.56100 22.94700
C  4.51500 43.06700 24.39200
N  0.79700 42.09900 28.04700
C  1.65200 42.27300 29.14600
C  0.96900 41.83300 30.48500
C  -0.44600 41.42700 29.99300
C  -0.40700 41.75500 28.45500
C  -0.83800 39.91300 30.34500
C  0.89400 43.12000 31.46500
C  0.93200 42.94900 32.95700
H  0.80800 41.48200 33.52900
N  -0.49700 41.80200 25.29500
C  -1.56600 41.61500 26.17000
C  -2.69900 41.27600 25.28900
C  -2.24500 41.19200 23.88500
C  -0.84700 41.50700 23.99900
C  -4.08800 40.95400 25.75900
C  -2.93200 40.80000 22.64400
O  -2.39600 40.77400 21.52200
C  -4.41000 40.54100 22.62500
N  2.18100 42.47500 23.96100
C  1.46200 41.96700 22.89600
C  2.38300 41.77900 21.62900
C  3.52800 42.83900 21.98700
C  3.43900 42.77500 23.55300
C  2.89600 40.30200 21.54800
C  3.42500 44.26400 21.47200
C  4.36400 44.62200 20.30800
N  3.33700 42.80200 26.51700
C  4.48000 43.08200 25.80100
C  5.56700 43.16000 26.71300
C  5.06300 42.98900 27.96800
C  3.68600 42.76700 27.82400
C  6.94500 43.25800 26.21100
C  5.38700 42.77500 29.36800
O  6.50300 42.66600 29.89200
C  4.00900 42.64000 30.18900
C  4.13200 41.37200 31.03300
O  4.19100 40.21700 30.61600
O  4.33100 41.82100 32.31700
C  4.77500 40.72700 33.28100
H  -2.42200 41.24700 28.12400
H  -0.13700 41.22000 21.95300
H  5.51300 43.29000 24.00800
H  1.52300 41.09100 31.06000
H  -1.23300 42.01800 30.46100
H  -0.83900 39.35000 29.41100
H  -1.78500 39.78500 30.86800
H  -0.07900 39.40500 30.94000
H  -0.10400 43.44000 31.16700
H  1.53500 43.87300 31.00700
H  0.01300 43.45700 33.24900
H  1.83300 43.41700 33.35400
H  -4.12900 39.87600 25.60300
H  -4.78500 41.57100 25.19200
H  -4.19100 41.02100 26.84200
H  -4.55300 39.51300 22.95600
H  -4.60800 40.59000 21.55500
H  -4.89800 41.37100 23.13600
H  1.72600 42.05800 20.80500
H  4.47100 42.45300 21.60000
H  2.65200 39.91600 22.53700
H  3.96400 40.17100 21.36900
H  2.44700 39.72700 20.73900
H  3.58000 44.96200 22.29400
H  2.42000 44.30600 21.05300
H  3.80000 44.92500 19.42600
H  5.18700 43.91100 20.23400
H  4.82100 45.57400 20.58300
H  7.17900 42.50800 25.45600
H  7.57000 43.25400 27.10400
H  7.04900 44.19000 25.65600
H  3.88300 43.54300 30.78700
H  5.86400 40.75000 33.31600
H  4.47800 39.72800 32.96100
H  4.23600 40.91300 34.21000
Mg -1.44000 34.46600 27.44100
C  -3.19400 32.56100 29.82200
C  -0.01600 36.21300 29.91200
C  -0.13900 36.40600 25.05000
C  -3.23200 32.70400 25.03100
N  -1.70600 34.41200 29.55100
C  -2.37500 33.57800 30.37500
C  -2.16900 33.89000 31.88700
C  -1.31000 35.18400 31.80100
C  -1.01900 35.31500 30.32300
C  -2.00900 36.38900 32.49900
C  -1.38700 32.70800 32.63800
C  -2.12900 32.03700 33.91400
H  -1.47600 32.08400 35.28200
N  -0.15300 36.07300 27.50000
C  0.36700 36.60100 28.63100
C  1.38000 37.52200 28.25600
C  1.41800 37.62200 26.79500
C  0.30800 36.69800 26.38600
C  2.28800 38.14500 29.21700
C  2.26200 38.46900 25.87100
O  2.29300 38.33200 24.63800
C  3.17900 39.44200 26.44400
N  -1.91300 34.76100 25.31800
C  -1.10800 35.57600 24.58600
C  -1.51500 35.41900 23.04400
C  -2.35000 34.06500 23.07800
C  -2.54200 33.86100 24.55300
C  -2.20900 36.60900 22.42300
C  -1.54300 32.91600 22.48400
C  -1.75700 32.58600 20.99000
N  -2.88600 32.88700 27.40800
C  -3.39000 32.25000 26.35300
C  -4.17600 31.12700 26.80800
C  -4.14600 31.25700 28.18100
C  -3.27700 32.28600 28.47800
C  -4.89800 30.16800 25.95000
C  -4.64900 30.63800 29.33500
O  -5.33500 29.58700 29.43200
C  -4.02400 31.49400 30.48300
C  -5.13600 32.12900 31.22800
O  -5.67500 33.20300 30.96800
O  -5.43400 31.43300 32.40500
C  -6.39500 32.03600 33.31700
H  0.52300 36.69000 30.73300
H  0.31400 36.94200 24.21300
H  -3.54300 32.00500 24.25100
H  -3.15300 34.07200 32.32000
H  -0.36100 35.11600 32.33300
H  -3.01500 36.10300 32.80400
H  -2.11200 37.35300 31.99900
H  -1.49300 36.63900 33.42600
H  -0.47800 33.15200 33.04200
H  -1.02200 32.02100 31.87400
H  -2.22700 30.96700 33.73200
H  -3.19100 32.27000 33.99200
H  1.83600 38.08200 30.20700
H  2.41400 39.21100 29.02700
H  3.23500 37.60600 29.20300
H  2.57300 40.09500 27.07200
H  3.57200 39.97700 25.57900
H  4.04700 38.97100 26.90500
H  -0.65200 35.20200 22.41400
H  -3.35900 34.17800 22.68100
H  -2.15200 37.50400 23.04300
H  -3.27700 36.39600 22.39900
H  -1.86300 36.90500 21.43300
H  -1.71200 31.96300 22.98500
H  -0.47900 33.14300 22.55100
H  -2.53300 33.24500 20.59900
H  -2.11900 31.57000 20.83200
H  -0.79500 32.81000 20.53000
H  -5.32200 29.40300 26.60100
H  -4.26400 29.61900 25.25300
H  -5.70700 30.56600 25.33800
H  -3.50000 30.83200 31.17300
H  -6.58800 33.10000 33.17900
H  -5.87700 32.00000 34.27500
H  -7.34000 31.50100 33.21900

