158

Mg -2.05100 17.58600 27.23100
C  -2.62700 15.33200 29.78300
C  -2.45400 20.21100 29.54900
C  -2.01800 19.72900 24.70200
C  -2.28100 14.86300 24.98500
N  -2.53700 17.65200 29.40300
C  -2.68000 16.66500 30.30500
C  -2.80800 17.13900 31.76700
C  -2.85700 18.71200 31.58100
C  -2.52400 18.90400 30.08600
C  -4.09500 19.53000 32.10600
C  -1.72900 16.64600 32.77200
C  -1.27500 17.54000 33.92900
H  -0.85000 16.69100 35.16200
N  -2.15200 19.67600 27.13100
C  -2.33200 20.53800 28.18100
C  -2.22900 21.91400 27.64300
C  -2.02800 21.76000 26.19700
C  -2.03500 20.38900 25.99200
C  -2.22800 23.15300 28.45400
C  -1.85100 22.87700 25.19100
O  -1.56300 22.65100 24.00200
C  -2.06700 24.30700 25.52300
N  -2.11300 17.37500 25.14800
C  -2.10500 18.42400 24.35700
C  -2.12900 18.01900 22.83300
C  -1.94800 16.43000 22.92900
C  -2.10100 16.16200 24.47300
C  -3.41500 18.38700 22.00100
C  -0.60100 15.95500 22.38300
C  0.61300 16.27300 23.29700
N  -2.37000 15.57800 27.32300
C  -2.36000 14.59400 26.34600
C  -2.53800 13.31700 26.88300
C  -2.66900 13.53600 28.21000
C  -2.54800 14.91000 28.47600
C  -2.86200 11.97900 26.25000
C  -2.88000 12.90600 29.50200
O  -3.14800 11.74600 29.78400
C  -2.79000 13.98700 30.58600
C  -1.53200 13.66600 31.33400
O  -0.34100 13.88900 31.03800
O  -1.90000 13.08200 32.48700
C  -0.86600 12.66400 33.43000
H  -2.41500 21.03000 30.27000
H  -2.00100 20.39000 23.83300
H  -2.36900 13.99900 24.32200
H  -3.67300 16.65400 32.21900
H  -1.95400 19.03500 32.10000
H  -4.87300 18.98800 32.64300
H  -4.49100 20.02500 31.21900
H  -3.81100 20.24800 32.87500
H  -0.84700 16.35400 32.20200
H  -2.08700 15.70600 33.19300
H  -1.98500 18.23600 34.37400
H  -0.47700 18.20600 33.60100
H  -1.28700 23.70400 28.44300
H  -2.29200 22.95300 29.52400
H  -2.95500 23.89500 28.12400
H  -2.08800 25.05300 24.72800
H  -1.39300 24.66500 26.30200
H  -3.07900 24.47800 25.88900
H  -1.22300 18.40900 22.36900
H  -2.81400 15.91400 22.51400
H  -4.18800 18.81600 22.63900
H  -3.92700 17.57700 21.48100
H  -3.19600 19.21500 21.32700
H  -0.53300 16.45800 21.41800
H  -0.64000 14.87000 22.28300
H  0.98300 15.29400 23.60100
H  0.51500 16.76600 24.26400
H  1.30400 16.88900 22.72100
H  -1.98600 11.33300 26.30100
H  -3.10700 12.12900 25.19800
H  -3.67100 11.48700 26.78900
H  -3.55900 13.88600 31.35100
H  -1.42800 12.52300 34.35300
H  -0.11500 13.43000 33.62400
H  -0.39800 11.71000 33.19200
Mg 36.16100 2.82700 30.93700
C  33.27100 3.19100 32.86400
C  37.97500 3.19900 33.76800
C  38.81200 2.01200 29.18900
C  34.30800 3.00400 28.04200
N  35.57900 3.09800 33.03900
C  34.40900 3.13600 33.65200
C  34.54100 3.10200 35.17200
C  36.06900 3.44700 35.36100
C  36.61100 3.25100 33.95200
C  36.26500 4.96600 35.82100
C  34.17700 1.71100 35.67400
C  33.89900 1.67700 37.21400
H  34.40500 2.77900 38.19100
N  38.15200 2.60500 31.40100
C  38.72300 2.87000 32.61600
C  40.17400 2.49900 32.54400
C  40.38500 1.97600 31.24800
C  39.08700 2.17700 30.53000
C  41.24500 2.62400 33.74400
C  41.55200 1.14600 30.72500
O  41.55500 0.61900 29.60900
C  42.67700 0.90500 31.69700
N  36.59600 2.88800 28.82400
C  37.80200 2.42500 28.32700
C  37.79800 2.03900 26.87800
C  36.25200 2.29900 26.51400
C  35.70600 2.82200 27.86400
C  38.82000 2.76900 26.07900
C  35.45700 1.12600 25.84900
C  35.10600 1.35100 24.33700
N  34.18800 2.97000 30.50500
C  33.59200 3.15000 29.28400
C  32.13600 3.48300 29.50100
C  31.91100 3.41500 30.88500
C  33.23900 3.18100 31.43000
C  31.08500 3.78600 28.35600
C  30.99300 3.52500 32.04500
O  29.79100 3.67500 32.07200
C  31.86700 3.42700 33.33600
C  31.66700 4.71200 34.00900
O  32.27000 5.75100 33.70200
O  30.89700 4.57200 35.15600
C  31.19900 5.48700 36.26300
H  38.71000 3.27500 34.57200
H  39.59400 1.39100 28.74800
H  33.65600 2.98300 27.16700
H  33.92600 3.93700 35.50600
H  36.56300 2.80400 36.08900
H  36.83800 5.49700 35.06100
H  36.79400 4.99400 36.77300
H  35.34300 5.54100 35.91300
H  34.95500 0.95100 35.60500
H  33.35100 1.28300 35.10600
H  34.22800 0.69100 37.54500
H  32.81000 1.67000 37.26700
H  40.81400 3.17500 34.58000
H  42.14800 3.08000 33.33700
H  41.43600 1.59700 34.05700
H  43.08200 1.86100 32.02900
H  43.40700 0.40200 31.06300
H  42.32600 0.22900 32.47700
H  38.03300 0.98500 26.73200
H  36.25200 3.22000 25.93000
H  38.33700 3.51500 25.44800
H  39.53600 2.10300 25.59800
H  39.35800 3.38400 26.80000
H  34.53500 0.92400 26.39300
H  36.00000 0.18100 25.81600
H  35.74800 0.75300 23.69000
H  35.04800 2.39500 24.02800
H  34.08600 1.06200 24.08500
H  31.44900 4.34200 27.49200
H  30.30100 4.42100 28.76700
H  30.66700 2.79800 28.16500
H  31.38800 2.70700 34.00000
H  32.25600 5.74400 36.20800
H  31.01000 4.84200 37.12100
H  30.50500 6.32800 36.27100

