158

Mg 1.64000 41.14600 24.87300
C  3.92800 41.62400 27.71500
C  -0.61100 39.97300 27.04300
C  -0.19200 40.48700 22.22500
C  4.35800 42.04400 22.78100
N  1.67700 40.84900 27.19700
C  2.64300 41.24400 28.12200
C  2.23200 41.07200 29.54600
C  0.75700 40.32000 29.28400
C  0.58100 40.40400 27.76400
C  0.63300 38.88600 29.84100
C  2.15700 42.49300 30.27000
C  1.93000 42.45900 31.76200
H  1.65600 41.09800 32.42900
N  -0.15100 40.34600 24.67000
C  -0.99900 39.97600 25.67100
C  -2.20900 39.45800 25.01400
C  -2.04700 39.51700 23.61000
C  -0.74100 40.17800 23.45700
C  -3.26600 38.94600 25.88800
C  -2.97300 38.95100 22.48600
O  -2.57400 38.90900 21.33100
C  -4.33600 38.35100 22.88700
N  1.99900 41.30500 22.81700
C  1.06600 41.00000 21.90800
C  1.52800 41.29000 20.51800
C  2.85600 42.17500 20.74400
C  3.15200 41.77600 22.19100
C  1.61000 40.11000 19.47100
C  2.73500 43.68300 20.66500
C  3.19500 44.40400 19.36900
N  3.74200 41.67300 25.12400
C  4.73200 41.93600 24.19100
C  6.02500 42.13300 24.86000
C  5.74900 42.04500 26.21800
C  4.37200 41.75200 26.35100
C  7.28800 42.34100 24.17100
C  6.36800 42.14000 27.51100
O  7.51100 42.30700 27.90800
C  5.15900 41.96300 28.53700
C  5.41000 40.89900 29.61700
O  5.44700 39.72500 29.46100
O  5.48800 41.47500 30.91000
C  5.50800 40.53400 32.03600
H  -1.33900 39.63800 27.78400
H  -0.88700 40.49900 21.38300
H  5.12000 42.36800 22.07000
H  2.92500 40.42100 30.08000
H  -0.00600 40.96500 29.72000
H  1.61000 38.49900 30.12900
H  0.20300 38.24200 29.07300
H  -0.03800 38.87300 30.70000
H  1.40800 43.06100 29.71800
H  3.10800 43.01300 30.15600
H  1.07600 43.07000 32.05300
H  2.82700 42.81800 32.26500
H  -2.95300 37.94400 26.18300
H  -4.29000 38.94100 25.51400
H  -3.37900 39.55800 26.78200
H  -4.88900 39.05600 23.50700
H  -4.15200 37.40200 23.39000
H  -5.00100 38.21100 22.03400
H  0.72500 41.98400 20.27000
H  3.61000 41.77000 20.06900
H  0.99900 40.47900 18.64700
H  1.25800 39.21700 19.98800
H  2.67600 40.01600 19.26500
H  3.39800 44.07000 21.43800
H  1.71600 43.95900 20.93500
H  2.29400 44.86100 18.95800
H  3.65800 43.69400 18.68300
H  3.92500 45.12700 19.73200
H  7.98400 41.54700 24.44300
H  7.66900 43.32600 24.44200
H  7.11500 42.14400 23.11300
H  4.96100 42.93300 28.99400
H  6.55800 40.38500 32.28600
H  5.03500 39.59800 31.73800
H  4.86200 40.85700 32.85300
Mg -5.84500 24.37000 25.51200
C  -4.35400 25.77000 28.47100
C  -7.64900 22.32700 27.58900
C  -6.76500 22.79700 22.80800
C  -3.72400 26.55300 23.60700
N  -6.10000 24.30500 27.76800
C  -5.42400 24.93400 28.70500
C  -5.84700 24.50800 30.17000
C  -6.76100 23.27900 29.90500
C  -6.87400 23.26800 28.31800
C  -6.30900 21.87800 30.41000
C  -6.49900 25.65500 30.93400
C  -6.10400 25.69700 32.40500
H  -5.57600 24.39600 33.02600
N  -7.05500 22.83700 25.21300
C  -7.78900 22.13900 26.18800
C  -8.71100 21.25200 25.50300
C  -8.27000 21.21100 24.14700
C  -7.32900 22.31500 24.02500
C  -9.78500 20.46800 26.29900
C  -8.90000 20.46200 23.00300
O  -8.53500 20.52200 21.83400
C  -10.00500 19.49700 23.26500
N  -5.39100 24.73700 23.54500
C  -5.89000 23.81300 22.62500
C  -5.21500 24.05900 21.26800
C  -4.36300 25.40200 21.37300
C  -4.49600 25.61300 22.94400
C  -4.50800 22.96600 20.45200
C  -4.91700 26.68600 20.58700
C  -4.03200 27.47000 19.56100
N  -4.44000 25.93900 25.89600
C  -3.60700 26.70600 25.01500
C  -2.63100 27.46000 25.73900
C  -2.85400 27.11600 27.09600
C  -4.00700 26.27400 27.14800
C  -1.60900 28.28300 25.20100
C  -2.24800 27.23000 28.39000
O  -1.20900 27.79200 28.71400
C  -3.32700 26.47800 29.40300
C  -2.48600 25.67200 30.38400
O  -1.84500 24.69100 30.03100
O  -2.58100 26.11100 31.67200
C  -1.61400 25.47400 32.57100
H  -8.21700 21.74800 28.32100
H  -6.97400 22.22100 21.90400
H  -3.09400 27.19600 22.98900
H  -4.97500 24.04400 30.63200
H  -7.79000 23.53600 30.15800
H  -5.47000 22.05100 31.08400
H  -6.00500 21.22800 29.59000
H  -7.10200 21.46300 31.03200
H  -7.58600 25.58200 30.92300
H  -6.18800 26.51400 30.34000
H  -6.90100 26.20800 32.94600
H  -5.22800 26.34500 32.40700
H  -9.33500 19.59800 26.77800
H  -10.60600 20.04400 25.72200
H  -10.17300 21.09600 27.10100
H  -9.68400 18.86900 24.09700
H  -10.27200 18.90600 22.38900
H  -10.79700 20.15100 23.63100
H  -6.08000 24.36700 20.68000
H  -3.31200 25.25900 21.12100
H  -4.30100 22.13000 21.12000
H  -3.51300 23.23400 20.09500
H  -5.13200 22.70100 19.59900
H  -5.34600 27.40100 21.28900
H  -5.79200 26.37600 20.01700
H  -4.31900 27.29500 18.52400
H  -2.99600 27.15700 19.69000
H  -4.04000 28.55500 19.66600
H  -0.82200 28.43200 25.94100
H  -1.99800 29.28700 25.02900
H  -1.23600 27.94400 24.23500
H  -3.94200 27.11800 30.03600
H  -1.60500 24.38500 32.51600
H  -1.91600 25.73600 33.58500
H  -0.60800 25.76600 32.26900

