158

Mg 1.44900 -2.11900 44.10600
C  4.92500 -1.58000 43.92300
C  1.01000 0.66700 42.28300
C  -1.74800 -3.04000 43.88500
C  2.13400 -5.26800 45.72900
N  2.89400 -0.58700 43.26000
C  4.21600 -0.58500 43.22300
C  4.79200 0.58600 42.28200
C  3.44500 1.35900 41.99100
C  2.33800 0.43800 42.55100
C  3.42800 2.78500 42.47900
C  5.54100 0.06100 41.06800
C  7.03700 0.59500 41.03900
H  7.42800 1.49600 39.91000
N  -0.10400 -1.24500 43.30200
C  -0.10700 -0.06700 42.63700
C  -1.45100 0.24700 42.33200
C  -2.31400 -0.86900 42.57900
C  -1.42300 -1.81400 43.23600
C  -1.94900 1.47200 41.70000
C  -3.76600 -0.99200 42.34700
O  -4.43300 0.02900 42.13400
C  -4.40800 -2.35800 42.40100
N  0.33200 -3.88000 44.78300
C  -1.01300 -4.00400 44.60300
C  -1.57200 -5.35000 45.02600
C  -0.33600 -5.91400 45.86200
C  0.80300 -5.02100 45.39700
C  -2.95000 -5.25300 45.73900
C  -0.10000 -7.44500 45.75000
C  0.49100 -8.19700 47.03400
N  3.13900 -3.25700 44.67600
C  3.21800 -4.47700 45.41700
C  4.59400 -4.80800 45.53600
C  5.30800 -3.67000 45.03500
C  4.38700 -2.73300 44.54200
C  5.03700 -6.10100 46.18500
C  6.66500 -3.08700 44.88200
O  7.71300 -3.43300 45.31200
C  6.43100 -1.73800 44.10200
C  6.80000 -0.52400 44.91200
O  6.20200 -0.02300 45.83700
O  7.91300 0.06600 44.33400
C  8.13600 1.41100 44.71500
H  0.95600 1.57500 41.68000
H  -2.80100 -3.32400 43.93600
H  2.30600 -6.25100 46.17100
H  5.36600 1.31700 42.85000
H  3.27800 1.38700 40.91400
H  2.68400 2.80500 43.27500
H  3.27400 3.49600 41.66700
H  4.37000 3.06200 42.95200
H  5.06900 0.44900 40.16500
H  5.50300 -1.02300 40.96500
H  7.66000 -0.29800 40.97500
H  7.25000 1.07600 41.99400
H  -2.59400 1.25900 40.84800
H  -1.09800 2.12400 41.50300
H  -2.53700 2.01500 42.44000
H  -5.22100 -2.38100 41.67600
H  -4.93500 -2.51200 43.34200
H  -3.75200 -3.12200 41.98500
H  -1.74000 -5.93200 44.11900
H  -0.28900 -5.66400 46.92200
H  -2.76200 -5.86700 46.62000
H  -3.78500 -5.69100 45.19300
H  -3.14100 -4.18900 45.88400
H  0.61200 -7.76200 44.98900
H  -1.05400 -7.91900 45.51900
H  1.43200 -8.72500 46.88100
H  -0.19800 -8.85000 47.57000
H  0.71800 -7.42500 47.76900
H  4.61800 -6.98500 45.70600
H  4.63600 -6.11800 47.19900
H  6.12700 -6.08800 46.18000
H  6.99200 -1.93900 43.19000
H  8.82500 1.82400 43.97900
H  8.57400 1.70800 45.66800
H  7.21700 1.96600 44.52600
Mg 54.71000 22.88900 44.67900
C  52.84900 25.63800 43.75700
C  52.09900 20.97100 43.54900
C  56.78200 20.27500 44.86300
C  57.48500 25.03700 45.40400
N  52.72900 23.26900 43.57900
C  52.16500 24.48400 43.46300
C  50.66700 24.34000 42.98600
C  50.32400 22.86200 43.41600
C  51.79800 22.36800 43.55900
C  49.43700 22.80500 44.62000
C  50.55200 24.49300 41.45800
C  49.17400 24.77800 41.01800
H  48.73400 24.03100 39.70300
N  54.49500 20.88400 44.26800
C  53.36600 20.34100 43.75800
C  53.66900 18.88300 43.60900
C  55.03400 18.61100 43.79500
C  55.49900 19.93200 44.35800
C  52.67100 17.84900 43.11600
C  55.77900 17.40300 43.67700
O  55.29800 16.41900 43.16000
C  57.33300 17.23900 43.96200
N  56.87100 22.75900 44.94600
C  57.45800 21.49600 45.09200
C  58.93400 21.59000 45.54700
C  59.11200 23.16700 45.81400
C  57.72100 23.67700 45.39800
C  59.46900 20.64000 46.62500
C  60.31400 23.78100 44.97800
C  61.48400 22.92900 44.60300
N  55.16300 24.91700 44.61500
C  56.26500 25.62700 44.96700
C  55.90900 27.03700 44.92500
C  54.58800 27.12100 44.43800
C  54.18700 25.81200 44.24100
C  56.80800 28.13800 45.06900
C  53.46000 27.98200 44.21000
O  53.32100 29.20300 44.22900
C  52.31900 27.07600 43.63600
C  52.16300 27.39100 42.21100
O  52.96500 27.13000 41.35800
O  51.03700 28.12400 42.03800
C  50.62700 28.41000 40.69700
H  51.20400 20.37300 43.36500
H  57.51700 19.48100 45.00500
H  58.35500 25.67800 45.56300
H  50.09500 25.12800 43.47500
H  49.79500 22.20200 42.72900
H  48.58500 22.14900 44.44200
H  48.95000 23.75500 44.83700
H  50.08500 22.53500 45.45300
H  50.92100 23.59600 40.95900
H  51.24600 25.28000 41.16300
H  48.95600 25.83600 40.87100
H  48.52700 24.45000 41.83100
H  52.78400 17.64000 42.05200
H  51.65600 18.16300 43.35500
H  52.88100 16.93600 43.67400
H  57.63500 17.34800 45.00400
H  57.72300 18.06200 43.36400
H  57.62800 16.26100 43.58200
H  59.46800 21.19800 44.68200
H  59.35900 23.47600 46.83000
H  60.15600 21.13600 47.31100
H  60.09300 19.92900 46.08300
H  58.66600 20.20600 47.22000
H  60.66700 24.61900 45.57900
H  59.87600 24.17900 44.06300
H  61.36100 22.52800 43.59700
H  61.57700 22.19500 45.40400
H  62.40900 23.49900 44.67800
H  56.78500 28.62500 44.09500
H  57.83100 27.93000 45.38400
H  56.33300 28.78000 45.81100
H  51.37300 27.34900 44.10400
H  49.56000 28.60900 40.59400
H  50.85400 27.57300 40.03700
H  51.12500 29.34600 40.44500

