158

Mg 42.64100 41.13500 25.32100
C  41.66600 43.58400 27.81800
C  43.72300 39.09900 27.86300
C  43.70300 39.07300 22.98600
C  41.77500 43.47400 22.87900
N  42.74900 41.45900 27.62700
C  42.16700 42.43300 28.41500
C  42.14000 42.01100 29.84400
C  42.67400 40.51100 29.77100
C  43.13100 40.33500 28.34900
C  43.79700 40.22100 30.81900
C  40.68200 42.01800 30.48200
C  40.48800 41.32000 31.82200
H  39.78600 42.08400 32.96500
N  43.54100 39.35400 25.43100
C  43.95200 38.67200 26.54000
C  44.67400 37.47500 26.18800
C  44.60200 37.36500 24.76700
C  43.90300 38.61000 24.34800
C  45.21900 36.49400 27.15400
C  45.11800 36.28000 23.79600
O  45.01500 36.24800 22.57100
C  45.62000 35.00800 24.48500
N  42.69100 41.17800 23.31000
C  43.13800 40.23600 22.51900
C  42.97600 40.49400 21.02000
C  42.37500 41.95900 20.97300
C  42.19800 42.21400 22.44700
C  44.32200 40.35600 20.26400
C  41.10100 42.24300 20.17800
C  41.09000 43.39300 19.17000
N  41.86100 43.08700 25.26200
C  41.49800 43.88300 24.23400
C  41.11100 45.19700 24.70000
C  41.05700 45.13600 26.06800
C  41.54800 43.82100 26.38100
C  40.77600 46.42900 23.84400
C  40.73200 45.84900 27.32000
O  40.33700 46.97200 27.50600
C  40.99800 44.76400 28.44400
C  41.85300 45.44400 29.46700
O  43.05600 45.65000 29.30100
O  41.04400 45.83600 30.53000
C  41.82600 46.11900 31.74500
H  43.86300 38.42700 28.71200
H  44.09700 38.43500 22.19200
H  41.54000 44.18800 22.08700
H  42.83800 42.60100 30.43900
H  41.87800 39.78400 29.93200
H  43.60000 40.85500 31.68300
H  44.72700 40.38100 30.27200
H  43.64300 39.14900 30.94200
H  40.00000 41.52700 29.78700
H  40.33400 43.05100 30.46200
H  41.47500 41.07900 32.21700
H  39.95400 40.38100 31.67800
H  45.02400 36.82400 28.17500
H  46.29500 36.44000 26.99000
H  44.82100 35.50200 26.94400
H  44.74800 34.59300 24.98900
H  46.41800 35.15500 25.21300
H  45.94700 34.33000 23.69600
H  42.28900 39.83400 20.49000
H  43.06700 42.71100 20.59500
H  45.15900 40.16500 20.93500
H  44.51900 41.27000 19.70300
H  44.22500 39.47700 19.62800
H  40.35300 42.48300 20.93500
H  40.84900 41.30900 19.67600
H  42.12500 43.71800 19.05900
H  40.51800 44.22700 19.57700
H  40.72600 42.95000 18.24400
H  40.52000 46.19400 22.81100
H  41.58700 47.15400 23.78000
H  39.97200 46.94700 24.36700
H  40.01500 44.47300 28.81400
H  41.31800 45.64800 32.58700
H  41.83200 47.17500 32.01600
H  42.86700 45.80100 31.79100
Mg -12.92900 38.38600 42.23300
C  -11.68700 35.41100 40.85300
C  -10.32200 40.15000 40.64900
C  -14.48500 41.47500 42.79000
C  -15.49600 36.73800 43.56900
N  -11.22200 37.80700 40.79500
C  -10.89200 36.52000 40.46200
C  -9.56100 36.50100 39.66500
C  -9.04700 37.99100 39.78100
C  -10.19400 38.71500 40.56000
C  -7.69500 38.07700 40.48400
C  -9.84700 35.96800 38.18400
C  -8.79400 34.94200 37.84600
H  -7.64200 35.53900 36.89700
N  -12.47500 40.53700 41.79500
C  -11.36300 40.99000 41.15300
C  -11.36100 42.38700 41.16700
C  -12.56900 42.80400 41.68200
C  -13.28300 41.59600 42.13500
C  -10.23200 43.25800 40.60900
C  -13.07200 44.30900 41.79100
O  -12.40300 45.22900 41.38700
C  -14.29900 44.67300 42.50800
N  -14.78400 39.02300 42.81200
C  -15.02600 40.27200 43.24800
C  -16.30400 40.30700 44.16700
C  -16.49700 38.80200 44.51000
C  -15.49700 38.10700 43.59500
C  -16.24500 41.29100 45.37700
C  -17.93100 38.26200 44.25000
C  -19.11800 39.04800 44.94300
N  -13.58800 36.43800 42.23300
C  -14.60900 35.88300 42.90500
C  -14.62700 34.40200 42.66600
C  -13.39100 34.24800 41.96300
C  -12.88300 35.47600 41.63200
C  -15.69000 33.40600 42.92700
C  -12.51800 33.25600 41.38200
O  -12.62000 32.05200 41.53900
C  -11.38400 33.95700 40.52000
C  -10.10200 33.43800 41.01200
O  -9.48900 32.51400 40.48500
O  -9.73700 33.98000 42.26300
C  -8.73600 33.13500 42.94400
H  -9.43800 40.59800 40.19100
H  -15.08600 42.29100 43.19600
H  -16.28100 36.15600 44.05600
H  -8.93600 35.82800 40.25100
H  -8.94100 38.40300 38.77700
H  -7.11100 37.16600 40.35300
H  -7.83800 38.16200 41.56100
H  -7.14700 38.93600 40.09600
H  -9.72200 36.76200 37.44800
H  -10.83400 35.50800 38.14000
H  -9.31800 34.18300 37.26500
H  -8.29000 34.53600 38.72300
H  -9.28700 42.72900 40.48700
H  -9.96000 43.95900 41.39800
H  -10.51200 43.86500 39.74700
H  -15.11100 44.05300 42.12800
H  -14.54900 45.72900 42.40200
H  -14.23000 44.46400 43.57600
H  -17.06500 40.80400 43.56500
H  -16.23700 38.65000 45.55700
H  -16.58200 42.29200 45.10600
H  -15.25300 41.25200 45.82700
H  -16.89800 40.99700 46.19900
H  -17.99600 37.26300 44.68100
H  -18.02100 38.14900 43.17000
H  -18.72400 39.78400 45.64500
H  -19.78300 38.43200 45.54800
H  -19.76200 39.45300 44.16200
H  -16.39100 33.52900 42.10200
H  -16.02600 33.67600 43.92800
H  -15.25100 32.41000 42.86600
H  -11.32600 33.64000 39.47800
H  -8.55800 33.75700 43.82000
H  -7.80600 32.96100 42.40300
H  -9.19800 32.17100 43.15900

