158

Mg 45.10100 4.58200 45.34900
C  43.10800 7.39100 45.84700
C  42.43900 2.62700 45.11500
C  47.29400 2.14300 44.58500
C  47.77500 6.88300 45.06600
N  42.94100 4.98700 45.40100
C  42.33400 6.15000 45.69700
C  40.77000 5.95700 45.87600
C  40.65000 4.33300 45.78900
C  42.11200 3.94400 45.44300
C  40.08100 3.64000 47.06900
C  39.91700 6.67400 44.75300
C  40.64100 7.13200 43.50000
H  40.09800 6.79200 42.08900
N  44.86900 2.63900 44.79100
C  43.67900 2.03400 44.82400
C  43.87700 0.61700 44.36900
C  45.31700 0.46600 44.23700
C  45.90000 1.78600 44.53100
C  42.77000 -0.38400 44.28500
C  46.05300 -0.81100 43.87600
O  45.46900 -1.87800 44.00300
C  47.51000 -0.90000 43.63800
N  47.26300 4.56200 44.80100
C  47.92900 3.33200 44.75700
C  49.43100 3.52300 44.66400
C  49.61300 5.11000 44.57300
C  48.14700 5.55300 44.82700
C  50.24700 2.88000 45.75700
C  50.08500 5.58900 43.13900
C  49.20300 5.19800 41.91700
N  45.45100 6.68800 45.46000
C  46.55700 7.40100 45.32400
C  46.28700 8.81000 45.48000
C  44.92300 8.82200 45.85500
C  44.44900 7.55200 45.68600
C  47.25200 9.87400 45.47000
C  43.79500 9.67100 46.16000
O  43.71500 10.91200 46.28600
C  42.57000 8.69900 46.29600
C  42.00400 8.70600 47.67800
O  42.45800 8.10900 48.61100
O  40.77300 9.35800 47.67900
C  39.92400 9.26900 48.91600
H  41.61600 1.92000 45.23300
H  48.05900 1.36600 44.52300
H  48.66300 7.51600 45.11900
H  40.50100 6.37400 46.84600
H  40.02900 4.08600 44.92700
H  39.95700 4.30800 47.92200
H  40.82400 2.87600 47.30000
H  39.09500 3.21100 46.89100
H  39.57800 7.59400 45.22900
H  39.02000 6.13300 44.45400
H  41.60500 6.63500 43.38900
H  40.80800 8.20900 43.48500
H  42.91300 -0.97100 43.37800
H  41.84600 0.19400 44.24600
H  42.68000 -0.98000 45.19300
H  47.81700 -1.84100 43.18200
H  48.06900 -0.91300 44.57400
H  47.78700 -0.05000 43.01500
H  49.59500 3.06400 43.68900
H  50.31800 5.47800 45.31800
H  49.50900 2.58900 46.50400
H  51.04400 3.50100 46.16600
H  50.64800 1.98600 45.28000
H  51.02300 5.12900 42.82700
H  50.28800 6.65800 43.21000
H  49.28600 5.90100 41.08800
H  48.12500 5.13000 42.05900
H  49.51400 4.24200 41.49600
H  47.59000 10.05600 44.45000
H  48.11000 9.61200 46.08800
H  46.82900 10.79600 45.86800
H  41.75900 8.89600 45.59500
H  39.40900 8.31000 48.97200
H  39.14400 10.00100 48.70600
H  40.47600 9.56700 49.80800
Mg 49.57400 46.45100 43.76300
C  46.24600 46.92000 42.68200
C  49.07800 43.03600 42.80700
C  52.85600 45.94300 43.97400
C  49.88100 49.78100 44.35700
N  47.79400 45.15200 42.83600
C  46.58200 45.58400 42.53000
C  45.75700 44.51500 41.82600
C  46.61400 43.26400 42.09100
C  47.93000 43.82700 42.59600
C  46.00000 42.46000 43.26800
C  45.38600 44.85400 40.27100
C  46.45400 44.63700 39.17900
H  45.86500 44.20400 37.82600
N  50.78300 44.73800 43.63400
C  50.36000 43.43600 43.28100
C  51.49500 42.52900 43.27100
C  52.68200 43.37400 43.67000
C  52.11600 44.76700 43.80300
C  51.42800 41.04900 42.90200
C  54.03300 42.88700 43.90600
O  54.29500 41.67400 43.87000
C  55.10200 43.76000 44.39400
N  51.15900 47.70300 44.05200
C  52.46600 47.28200 44.13800
C  53.47300 48.44100 44.40400
C  52.47800 49.65300 44.54600
C  51.06800 49.02900 44.27200
C  54.35900 48.17800 45.70600
C  52.75400 50.81300 43.57300
C  53.33400 52.14100 44.09500
N  48.33500 48.16900 43.64900
C  48.58500 49.41100 43.95900
C  47.39700 50.19700 43.81300
C  46.42200 49.28600 43.32800
C  47.03500 48.02600 43.24100
C  47.07700 51.67800 44.25200
C  45.05300 49.09200 42.92600
O  44.12700 49.83300 43.00100
C  44.91600 47.56600 42.39900
C  43.87600 46.85200 43.13600
O  43.89400 46.67000 44.36400
O  42.90200 46.41300 42.27300
C  41.72000 45.84300 42.93800
H  49.10700 42.01000 42.43200
H  53.94400 45.85100 43.97800
H  50.12300 50.82800 44.55300
H  44.85000 44.58800 42.42600
H  46.65500 42.53600 41.28100
H  45.02200 42.85600 43.54400
H  46.59000 42.53900 44.18100
H  45.74300 41.44400 42.96800
H  45.07400 45.89700 40.20500
H  44.50000 44.23400 40.13300
H  47.23200 43.94300 39.49600
H  47.07900 45.53000 39.18200
H  51.01000 41.03200 41.89600
H  50.71200 40.59200 43.58600
H  52.34600 40.46500 42.83100
H  54.82300 44.31700 45.28900
H  55.65600 44.39500 43.70300
H  55.83200 43.05200 44.78600
H  53.98500 48.63300 43.46100
H  52.52300 50.04100 45.56400
H  54.39300 47.14600 46.05700
H  54.05500 48.83000 46.52400
H  55.37100 48.28100 45.31400
H  51.88000 51.07400 42.97700
H  53.46700 50.53000 42.79800
H  54.41800 52.09300 43.98900
H  53.10400 52.26200 45.15400
H  52.80000 52.95600 43.60700
H  47.18900 52.48000 43.52300
H  47.67500 51.93100 45.12800
H  46.04500 51.72100 44.59800
H  44.78200 47.78800 41.34000
H  41.28100 46.61200 43.57400
H  42.11600 44.96700 43.45100
H  41.03600 45.63800 42.11500

