158

Mg 44.99100 4.60600 47.18700
C  43.25400 7.63900 46.72200
C  42.00800 3.00500 46.41900
C  46.78700 1.80300 46.85800
C  47.93400 6.54300 47.06400
N  42.85400 5.30000 46.55200
C  42.38600 6.55700 46.61400
C  40.88400 6.60700 46.32100
C  40.50400 5.09400 46.33600
C  41.84500 4.40100 46.43200
C  39.54900 4.58200 47.40900
C  40.41700 7.54900 45.18900
C  41.13500 7.70200 43.84800
H  40.30300 7.32800 42.60100
N  44.44200 2.68800 46.78500
C  43.15800 2.18000 46.55800
C  43.20800 0.78300 46.31400
C  44.61500 0.44500 46.47100
C  45.30900 1.69800 46.74400
C  42.07600 -0.04600 45.73300
C  45.15200 -0.97500 46.21900
O  44.39900 -1.89700 46.02700
C  46.67500 -1.29600 46.24700
N  47.09400 4.25700 46.85400
C  47.55300 2.94300 47.05500
C  49.10200 2.88600 47.09300
C  49.43100 4.35800 47.02700
C  48.06600 5.12100 46.93100
C  49.58400 2.08100 48.38500
C  50.38500 4.86800 45.86600
C  51.56800 5.89600 46.17300
N  45.53900 6.70300 47.08700
C  46.75200 7.31000 47.12300
C  46.59400 8.79400 47.21100
C  45.22100 8.95300 47.08000
C  44.62000 7.63400 46.91800
C  47.72900 9.84500 47.23600
C  44.16900 9.92200 46.91300
O  44.23900 11.15600 46.99800
C  42.92200 9.09900 46.67700
C  41.96400 9.39300 47.76600
O  41.72400 8.68200 48.75000
O  41.33700 10.51200 47.47800
C  39.94400 10.41100 47.96100
H  41.07800 2.47000 46.22200
H  47.41600 0.91500 46.94300
H  48.83400 7.14800 47.19100
H  40.43600 7.12000 47.17200
H  40.17500 4.80100 45.33900
H  38.81500 5.27500 47.81900
H  40.16900 4.30600 48.26200
H  38.92800 3.73000 47.13400
H  40.22400 8.56800 45.52200
H  39.44700 7.20700 44.82900
H  42.07200 7.14600 43.79900
H  41.29500 8.77400 43.73100
H  42.38300 -0.50900 44.79500
H  41.20300 0.58900 45.58700
H  41.96900 -0.89200 46.41200
H  46.72700 -2.37600 46.11100
H  47.02600 -1.01600 47.24000
H  47.30000 -0.75100 45.53900
H  49.31300 2.42300 46.12900
H  49.86300 4.74900 47.94800
H  49.37300 1.01200 48.39900
H  49.14200 2.57800 49.24900
H  50.65200 2.26100 48.50500
H  49.83600 5.22200 44.99400
H  50.90900 3.98100 45.51100
H  51.38800 6.75100 45.52200
H  52.52700 5.48700 45.85600
H  51.50400 6.30400 47.18200
H  48.12500 10.19500 46.28300
H  48.46000 9.16000 47.66700
H  47.70600 10.64700 47.97300
H  42.41300 9.41600 45.76700
H  39.37900 11.25300 47.56000
H  39.84100 10.32100 49.04300
H  39.40300 9.56100 47.54600
Mg 35.45600 49.71400 26.24100
C  35.81600 47.72700 29.05600
C  34.19100 52.23800 28.09400
C  35.34200 51.78700 23.46600
C  36.51400 47.09000 24.22300
N  34.97600 49.89400 28.35100
C  35.23000 48.99500 29.32900
C  34.86200 49.53500 30.65900
C  34.24100 50.90300 30.38700
C  34.44300 51.08200 28.81900
C  32.74000 51.17900 30.89000
C  36.20000 49.67800 31.37500
C  36.30300 49.22400 32.88500
H  35.16200 49.51800 33.85400
N  34.98700 51.77700 25.88200
C  34.46600 52.60000 26.80000
C  34.25300 53.92100 26.22300
C  34.49400 53.80100 24.79000
C  35.02900 52.44800 24.67400
C  33.72300 55.03500 27.10700
C  34.21700 54.82300 23.71500
O  34.22400 54.48100 22.55300
C  33.66300 56.18300 24.02900
N  35.89200 49.44900 24.14700
C  35.64900 50.41000 23.20300
C  36.08400 49.90900 21.78500
C  36.46600 48.38800 22.02300
C  36.27400 48.27900 23.57100
C  35.04300 49.98900 20.62600
C  37.84600 47.98600 21.41000
C  39.14000 48.34300 22.27900
N  35.93700 47.73200 26.54300
C  36.51400 46.86000 25.62000
C  36.93300 45.65300 26.39600
C  36.67300 45.94600 27.73400
C  36.09200 47.25700 27.78000
C  37.55900 44.50100 25.75700
C  36.83600 45.52600 29.12600
O  37.25700 44.49700 29.58700
C  36.14900 46.57400 30.03300
C  34.98900 45.97600 30.70600
O  33.89900 45.65600 30.21300
O  35.38200 45.75000 31.96900
C  34.35800 45.10300 32.83800
H  33.75200 53.02700 28.70700
H  35.29200 52.40500 22.56800
H  37.00300 46.33200 23.60800
H  34.23300 48.95000 31.32900
H  34.80700 51.72000 30.83500
H  32.17000 51.39000 29.98500
H  32.70900 52.06200 31.52800
H  32.25700 50.34100 31.39100
H  36.44200 50.74000 31.41400
H  37.06100 49.24700 30.86500
H  37.20100 49.73100 33.23700
H  36.40200 48.14500 33.00900
H  32.63900 55.10100 27.01900
H  34.09800 56.01300 26.80600
H  34.13000 54.92100 28.11200
H  34.29200 56.96800 24.44700
H  32.75000 56.01500 24.60100
H  33.29400 56.42100 23.03100
H  36.91500 50.47000 21.35800
H  35.70300 47.77400 21.54500
H  34.17500 50.51900 21.01800
H  34.85500 48.98600 20.24200
H  35.43900 50.64600 19.85100
H  37.94800 48.52900 20.47000
H  37.92000 46.90700 21.27500
H  39.92400 48.78300 21.66300
H  39.46300 47.35300 22.60200
H  38.77600 48.88100 23.15400
H  36.78100 43.82900 25.39300
H  38.04700 43.91200 26.53300
H  38.28200 44.79300 24.99600
H  36.82800 47.01600 30.76200
H  34.70200 44.79500 33.82600
H  34.06800 44.20100 32.29900
H  33.54600 45.79600 33.06100

