158

Mg 7.34700 2.44500 28.31100
C  8.88100 0.95100 31.01200
C  5.32600 4.26800 30.40000
C  5.62800 3.66200 25.53500
C  9.17300 0.33800 26.11300
N  7.18500 2.59500 30.42200
C  7.89000 1.90700 31.35500
C  7.62600 2.51000 32.78200
C  6.28900 3.35200 32.53300
C  6.23900 3.40700 31.01000
C  4.92900 2.74800 33.16100
C  8.91900 3.20500 33.34200
C  8.82600 4.33200 34.42600
H  9.52100 4.15600 35.82400
N  5.68500 3.76300 27.99600
C  5.13700 4.51900 29.00300
C  4.26600 5.51300 28.38600
C  4.30500 5.37900 26.96000
C  5.21900 4.22600 26.77600
C  3.44200 6.48700 29.20400
C  3.64200 6.13700 25.89000
O  3.74100 5.94100 24.73500
C  2.79000 7.34000 26.25500
N  7.41000 2.03500 26.15800
C  6.65100 2.71700 25.29600
C  6.96400 2.28700 23.86800
C  8.25500 1.38300 24.00800
C  8.26900 1.22900 25.52700
C  5.70100 1.73500 23.29500
C  9.50700 2.11100 23.46900
C  10.63300 1.28100 22.78100
N  8.73600 0.85800 28.46100
C  9.38200 0.11900 27.51800
C  10.25600 -0.85000 28.14700
C  10.19800 -0.48200 29.53800
C  9.17400 0.53200 29.68600
C  11.20300 -1.88500 27.44000
C  10.70100 -0.65200 30.93500
O  11.60500 -1.36700 31.35700
C  9.86800 0.25900 31.90400
C  9.25900 -0.52000 33.05000
O  8.61900 -1.55200 32.99200
O  9.78900 0.09000 34.19100
C  9.54800 -0.70600 35.42700
H  4.85600 4.94500 31.11600
H  5.32800 4.16400 24.61300
H  9.68700 -0.29400 25.38600
H  7.44200 1.58900 33.33300
H  6.32600 4.36200 32.94400
H  5.00400 1.77800 33.65400
H  4.14700 2.75800 32.40200
H  4.53400 3.46600 33.87900
H  9.44300 3.38700 32.40300
H  9.56700 2.43600 33.76200
H  7.78600 4.56700 34.65400
H  9.07300 5.22400 33.84900
H  2.39900 6.18500 29.10300
H  3.61700 7.50700 28.86100
H  3.63800 6.36400 30.26900
H  2.07200 7.06700 27.02900
H  2.33600 7.75900 25.35700
H  3.33000 8.18200 26.68800
H  7.06000 3.19600 23.27500
H  8.04500 0.36700 23.67200
H  4.82600 1.87500 23.93000
H  5.80700 0.68000 23.04500
H  5.43700 2.30200 22.40300
H  10.07400 2.65700 24.22400
H  9.18800 2.79400 22.68200
H  10.89900 1.82100 21.87300
H  10.27100 0.29300 22.49700
H  11.62600 1.22300 23.22800
H  12.21300 -1.51800 27.25800
H  10.69600 -2.42500 26.64000
H  11.32900 -2.60700 28.24600
H  10.52400 1.03600 32.29800
H  10.49400 -1.05700 35.84000
H  8.87600 -1.56000 35.34500
H  9.06800 0.03500 36.06600
Mg 16.20100 -1.83600 27.96200
C  15.01700 0.22700 30.44600
C  18.11100 -3.52400 30.31800
C  17.54600 -3.70200 25.44400
C  14.54700 0.15200 25.60400
N  16.66200 -1.50000 30.04400
C  15.91700 -0.69100 30.90800
C  16.32500 -0.95700 32.38000
C  17.46200 -1.98500 32.26800
C  17.38100 -2.39700 30.79500
C  18.89200 -1.41200 32.56300
C  15.17000 -1.44000 33.25100
C  15.31800 -1.21300 34.75400
H  16.47100 -0.39000 35.31900
N  17.60900 -3.47200 27.88400
C  18.24500 -4.08400 28.97300
C  19.16700 -5.16100 28.45500
C  18.92100 -5.25400 27.07300
C  18.04000 -4.14400 26.70300
C  20.20200 -5.76700 29.30300
C  19.41300 -6.26500 26.01800
O  19.02900 -6.19000 24.86200
C  20.34700 -7.34600 26.36600
N  16.14100 -1.76800 25.95200
C  16.80300 -2.61400 25.07900
C  16.55100 -2.25400 23.60300
C  15.38100 -1.28300 23.69300
C  15.33400 -0.92100 25.20100
C  17.84200 -1.82700 22.82700
C  14.01900 -1.74300 23.10100
C  13.65100 -1.15000 21.72600
N  14.98100 -0.11900 27.98000
C  14.32000 0.52700 26.95900
C  13.42000 1.55600 27.57400
C  13.72900 1.54300 28.92000
C  14.70200 0.47200 29.11500
C  12.41600 2.44400 26.83500
C  13.35100 2.08900 30.18100
O  12.53300 2.99300 30.47400
C  14.17600 1.26700 31.17800
C  14.93400 2.13800 32.06800
O  16.06600 2.59100 31.99500
O  14.14200 2.52100 33.11000
C  14.74400 3.34800 34.12300
H  18.68400 -4.15900 30.99700
H  17.97700 -4.23600 24.59500
H  13.99000 0.63700 24.80000
H  16.68300 -0.06800 32.90000
H  17.23200 -2.80300 32.95100
H  19.19800 -2.00100 33.42800
H  18.84600 -0.36200 32.85300
H  19.47700 -1.45300 31.64400
H  15.13700 -2.52900 33.20600
H  14.21500 -1.04800 32.90400
H  15.45200 -2.16500 35.26600
H  14.41800 -0.70000 35.09400
H  21.14000 -6.04800 28.82300
H  19.86800 -6.60600 29.91300
H  20.54700 -5.02600 30.02400
H  20.07300 -7.96700 27.21800
H  21.35500 -6.94200 26.46500
H  20.24300 -7.98400 25.48800
H  16.19400 -3.19200 23.17900
H  15.71100 -0.39000 23.16100
H  18.03100 -2.24400 21.83800
H  18.63500 -2.18100 23.48600
H  17.89700 -0.74200 22.74200
H  13.12800 -1.57900 23.70600
H  14.05400 -2.82000 22.93200
H  14.48600 -1.28300 21.03800
H  13.51700 -0.07600 21.86000
H  12.73200 -1.57000 21.31800
H  12.22000 2.03500 25.84400
H  12.95100 3.33600 26.51000
H  11.53300 2.69600 27.42300
H  13.48300 0.69600 31.79500
H  14.01500 3.41700 34.93000
H  14.89900 4.38400 33.82200
H  15.60600 2.94300 34.65300

