158

Mg 1.73000 -3.21200 44.76500
C  5.03700 -2.53400 44.09900
C  0.71600 -0.57500 42.76800
C  -1.58800 -4.45500 44.76000
C  2.74700 -6.28300 46.02900
N  2.76500 -1.85600 43.45100
C  4.15300 -1.66200 43.48600
C  4.54900 -0.34400 42.75900
C  3.09900 0.30300 42.53300
C  2.16000 -0.76800 42.93100
C  2.94500 1.67400 43.20900
C  5.17500 -0.70000 41.43300
C  6.27300 0.43600 41.03300
H  6.39300 0.91400 39.58200
N  -0.22700 -2.57200 43.94600
C  -0.38700 -1.43900 43.09400
C  -1.81900 -1.26400 42.82500
C  -2.52000 -2.31500 43.49000
C  -1.46700 -3.18800 44.16200
C  -2.34600 -0.12900 41.96700
C  -3.97500 -2.34600 43.52800
O  -4.68100 -1.60700 42.81600
C  -4.66200 -3.27600 44.41200
N  0.73800 -5.07500 45.34400
C  -0.60900 -5.31700 45.33800
C  -0.81200 -6.89300 45.69300
C  0.51200 -7.28300 46.40200
C  1.36400 -6.16800 45.88400
C  -2.06000 -7.32600 46.47500
C  1.05400 -8.65300 45.91100
C  1.90100 -9.49000 46.84700
N  3.54400 -4.21600 45.17500
C  3.79700 -5.38100 45.79600
C  5.16600 -5.51900 46.01600
C  5.77600 -4.41800 45.43300
C  4.70700 -3.71800 44.80300
C  5.94700 -6.79200 46.60400
C  7.02600 -3.72800 45.12700
O  8.19700 -3.96800 45.34900
C  6.58700 -2.52400 44.12900
C  7.13400 -1.31100 44.70400
O  6.90500 -0.80800 45.78300
O  8.10600 -0.74900 43.83600
C  8.62600 0.56800 44.20600
H  0.48600 0.29000 42.14200
H  -2.57200 -4.89700 44.58700
H  3.16200 -7.17100 46.51200
H  5.26800 0.22500 43.34900
H  2.86000 0.41400 41.47500
H  2.84700 2.31800 42.33500
H  3.83600 1.90500 43.79300
H  2.12000 1.77400 43.91400
H  4.44500 -0.89300 40.64800
H  5.67500 -1.66300 41.53800
H  7.29700 0.09900 41.19300
H  6.01500 1.29400 41.65500
H  -3.23400 0.41700 42.28600
H  -2.47000 -0.53200 40.96100
H  -1.62200 0.68300 41.89900
H  -4.80800 -4.27000 43.99000
H  -5.64700 -2.85600 44.61900
H  -4.25000 -3.32600 45.42000
H  -0.72800 -7.39600 44.72900
H  0.61600 -7.10300 47.47200
H  -2.74200 -7.94600 45.89200
H  -2.60600 -6.41000 46.70000
H  -1.86600 -7.91200 47.37400
H  1.59700 -8.52200 44.97500
H  0.22800 -9.30300 45.62300
H  2.89400 -9.68100 46.44100
H  1.47900 -10.49400 46.88500
H  2.02600 -9.00500 47.81500
H  6.99500 -6.74500 46.30700
H  5.50700 -7.64400 46.08600
H  5.95200 -6.95600 47.68100
H  7.07000 -2.74200 43.17600
H  9.25400 0.85600 43.36300
H  9.23300 0.53200 45.11000
H  7.81200 1.23900 44.48300
Mg 0.13300 7.49500 26.50800
C  0.86400 9.51800 29.21300
C  -0.28400 4.80900 28.71600
C  -0.15500 5.48700 23.86300
C  0.57000 10.21500 24.36800
N  0.25700 7.17600 28.80400
C  0.57400 8.16100 29.69400
C  0.68600 7.55000 31.13100
C  0.23700 6.16100 30.92600
C  0.05200 6.00200 29.43100
C  1.08900 5.03300 31.68200
C  -0.36500 8.18500 32.12600
C  -0.04600 8.20000 33.62900
H  -0.58000 6.95900 34.39700
N  -0.22400 5.41400 26.30200
C  -0.48900 4.52500 27.32800
C  -0.66700 3.20600 26.81400
C  -0.60200 3.36600 25.39500
C  -0.38600 4.83400 25.11400
C  -0.81300 1.98600 27.71600
C  -0.66900 2.44700 24.23700
O  -0.59300 2.74000 23.08000
C  -0.88600 1.01800 24.62500
N  0.08300 7.77800 24.40300
C  0.10400 6.76200 23.57900
C  0.67500 7.25300 22.18800
C  0.41900 8.74500 22.35500
C  0.33100 8.96900 23.80600
C  2.17500 6.91500 21.98100
C  -0.73700 9.33100 21.46400
C  -2.11700 9.68700 22.14100
N  0.67800 9.37700 26.66700
C  0.84900 10.41900 25.72300
C  1.35500 11.62500 26.43600
C  1.38400 11.28100 27.72800
C  0.92700 9.97400 27.86300
C  1.74900 13.02800 25.96500
C  1.75600 11.83100 29.03400
O  2.26600 12.91200 29.34200
C  1.33800 10.70400 30.11500
C  2.41200 10.29000 31.02300
O  3.32200 9.49100 30.78900
O  2.30500 10.96800 32.19100
C  3.44800 10.82300 33.06100
H  -0.44900 4.10500 29.53300
H  -0.13600 4.86900 22.96300
H  0.74700 11.00600 23.63600
H  1.68200 7.63100 31.56600
H  -0.76800 5.98200 31.30700
H  1.58100 4.41900 30.92900
H  0.33200 4.48300 32.24200
H  1.93100 5.35600 32.29500
H  -1.28800 7.60600 32.07700
H  -0.58600 9.20600 31.81500
H  -0.56600 9.06800 34.03500
H  1.04100 8.12600 33.63100
H  0.15400 1.48400 27.74200
H  -1.61200 1.33700 27.35800
H  -1.06600 2.23900 28.74600
H  -1.84900 0.95600 25.13200
H  -0.13800 0.49400 25.22000
H  -1.00900 0.42500 23.71900
H  0.00300 6.82300 21.44500
H  1.35700 9.23800 22.09900
H  2.36400 6.02500 22.58100
H  2.98200 7.62100 22.17700
H  2.27500 6.39300 21.02900
H  -0.85700 8.69600 20.58600
H  -0.52700 10.36200 21.17900
H  -2.78300 8.97300 21.65600
H  -2.35300 10.68900 21.78300
H  -2.20600 9.63300 23.22600
H  0.90300 13.69700 26.12200
H  2.10500 13.01300 24.93500
H  2.52400 13.33100 26.66900
H  0.45800 10.90300 30.72700
H  3.41500 11.65100 33.76800
H  4.44700 10.66800 32.65500
H  3.13300 10.03500 33.74600

