158

Mg 8.05000 2.63300 28.10800
C  9.76900 1.36900 30.95900
C  6.09300 4.54900 30.25900
C  6.67100 3.96400 25.46200
C  10.02400 0.57000 26.18800
N  7.88800 2.80300 30.36000
C  8.79500 2.34500 31.33600
C  8.61700 2.95400 32.71500
C  7.36500 3.83000 32.46400
C  7.10800 3.76700 30.94300
C  6.03400 3.60500 33.26900
C  9.88100 3.66300 33.20600
C  9.57100 4.43700 34.51900
H  10.52000 4.24300 35.72400
N  6.54500 3.98100 27.85300
C  5.88700 4.75000 28.84800
C  4.84400 5.54600 28.24500
C  4.98300 5.40700 26.84800
C  6.12300 4.46100 26.66300
C  3.79600 6.41200 29.02700
C  4.13000 6.05100 25.74500
O  4.25100 5.80200 24.62500
C  2.92500 6.93000 26.05500
N  8.11500 2.12700 26.17100
C  7.59000 2.93800 25.21400
C  7.94800 2.49700 23.73900
C  8.98200 1.46000 23.96800
C  9.04800 1.39200 25.55700
C  6.71700 2.03100 22.96100
C  10.40500 1.65900 23.31800
C  10.90100 0.43200 22.46500
N  9.51000 1.23500 28.44200
C  10.19100 0.46900 27.58900
C  11.13500 -0.42900 28.25900
C  11.01000 -0.13300 29.60800
C  10.00300 0.89800 29.63700
C  12.15800 -1.32800 27.62600
C  11.57600 -0.26900 30.92100
O  12.42900 -1.04400 31.23400
C  10.73000 0.69200 31.86800
C  10.10900 -0.01100 32.99900
O  9.24100 -0.87700 32.85500
O  10.53600 0.45500 34.18200
C  10.15300 -0.21900 35.43500
H  5.54800 5.23800 30.90700
H  6.38000 4.55800 24.59400
H  10.45000 -0.21500 25.55900
H  8.34700 2.17100 33.42300
H  7.60000 4.87700 32.65400
H  5.18900 3.59300 32.58200
H  5.84000 4.46200 33.91600
H  5.98300 2.70400 33.88100
H  10.24500 4.44500 32.54100
H  10.72900 3.00300 33.38600
H  8.60200 4.06800 34.85700
H  9.61400 5.50200 34.28800
H  4.03200 6.43100 30.09100
H  2.85200 5.92700 28.77700
H  3.88200 7.42500 28.63500
H  2.28800 6.28600 26.66100
H  2.32700 7.40600 25.27800
H  3.33400 7.76100 26.62900
H  8.35900 3.36300 23.22000
H  8.61600 0.46300 23.72100
H  5.75200 2.13600 23.45700
H  6.78800 1.03300 22.52700
H  6.71000 2.74200 22.13500
H  11.08700 2.02100 24.08700
H  10.32000 2.45000 22.57400
H  10.12500 -0.32100 22.60000
H  11.79900 -0.01200 22.89400
H  10.94700 0.61600 21.39200
H  13.13900 -1.01100 27.98100
H  12.17500 -1.25700 26.53800
H  11.89900 -2.36900 27.82000
H  11.56400 1.35100 32.11000
H  11.03300 -0.33600 36.06700
H  9.70300 -1.20600 35.33100
H  9.42500 0.35500 36.00900
Mg 40.89100 9.34400 29.74600
C  42.59300 10.58700 32.74200
C  38.63200 8.06800 31.83200
C  39.32300 8.43200 27.12000
C  43.73400 10.06900 27.91600
N  40.61900 9.45700 32.16200
C  41.40300 9.97900 33.11700
C  40.79400 9.87700 34.46100
C  39.71000 8.77700 34.18300
C  39.64800 8.74600 32.60800
C  39.85700 7.44100 34.98400
C  40.28900 11.25200 35.04500
C  40.05300 11.23900 36.57800
H  40.67600 12.28400 37.55800
N  39.22300 8.46000 29.47400
C  38.36400 8.07300 30.46800
C  37.19000 7.38200 29.89600
C  37.41700 7.52900 28.46300
C  38.68400 8.13800 28.30400
C  35.99900 6.83300 30.66500
C  36.49500 7.03800 27.34300
O  36.79200 7.02800 26.17600
C  35.08900 6.65100 27.65500
N  41.44200 9.30300 27.75100
C  40.55900 9.01400 26.82900
C  41.21000 8.94800 25.40400
C  42.64100 9.47300 25.71000
C  42.66200 9.60000 27.18000
C  41.10500 7.70400 24.52200
C  43.06700 10.76300 24.96100
C  42.35800 12.05100 25.32600
N  42.78500 10.15400 30.13800
C  43.72100 10.57500 29.26400
C  44.67600 11.35500 29.92000
C  44.28500 11.40000 31.27600
C  43.09000 10.61400 31.37400
C  45.84800 11.92000 29.32000
C  44.71900 11.85800 32.59900
O  45.64700 12.51000 33.07300
C  43.60200 11.44800 33.52700
C  44.07800 10.69100 34.77400
O  44.49600 9.54600 34.65100
O  44.16800 11.38700 35.88100
C  44.56100 10.80500 37.14700
H  37.91600 7.45400 32.38200
H  38.75800 8.08300 26.25400
H  44.65000 10.26900 27.35600
H  41.48700 9.45700 35.19000
H  38.75900 9.23400 34.45600
H  39.94400 6.58400 34.31600
H  38.95100 7.46000 35.58900
H  40.77100 7.68600 35.52500
H  39.43700 11.58400 34.45100
H  41.01000 12.04800 34.86300
H  40.42600 10.32100 37.03100
H  38.99300 11.16800 36.82000
H  36.07400 7.15600 31.70300
H  35.88800 5.75100 30.58700
H  35.03900 7.19500 30.29800
H  34.36700 7.46000 27.76700
H  35.05700 5.86900 28.41400
H  34.83500 6.14400 26.72400
H  40.82100 9.78500 24.82500
H  43.45400 8.77000 25.52500
H  40.54700 6.88100 24.96800
H  42.08700 7.26900 24.33700
H  40.62500 7.97900 23.58300
H  42.96100 10.65200 23.88100
H  44.12800 10.81400 25.20100
H  43.18900 12.72700 25.52300
H  41.79500 11.92600 26.25100
H  41.74300 12.44700 24.51800
H  45.91300 11.94200 28.23300
H  46.73400 11.40400 29.69100
H  45.94200 12.97600 29.57500
H  43.20400 12.43800 33.75100
H  44.19500 11.57700 37.82500
H  45.63400 10.68900 37.30100
H  43.93600 9.91500 37.21500

