158

Mg 41.17000 9.06500 29.66000
C  43.09300 10.24600 32.31700
C  39.02600 7.69000 31.92900
C  39.55200 7.56300 27.15700
C  43.68700 10.02700 27.45800
N  41.10700 8.94200 31.92300
C  41.85600 9.72300 32.75100
C  41.34600 9.73500 34.24800
C  40.13100 8.83200 34.02200
C  40.01800 8.49400 32.57000
C  39.98900 7.68400 34.98800
C  41.20100 11.18100 34.80900
C  42.09200 11.43300 36.10400
H  41.35500 12.01700 37.34400
N  39.56500 7.77600 29.55300
C  38.85500 7.33700 30.60700
C  37.72700 6.54600 30.11900
C  37.77600 6.60600 28.70400
C  39.04500 7.26300 28.40000
C  36.68100 5.85000 31.00700
C  36.78600 6.21900 27.68000
O  36.98600 6.31000 26.49000
C  35.45000 5.66100 28.09400
N  41.60700 8.79000 27.62200
C  40.68700 8.31700 26.77600
C  41.14600 8.46900 25.27600
C  42.35100 9.47300 25.40100
C  42.56200 9.42200 26.92200
C  41.56600 7.07800 24.76600
C  42.20200 10.99200 24.94100
C  40.86500 11.74600 25.07700
N  43.04800 9.85500 29.80800
C  43.97100 10.16800 28.82300
C  45.07900 10.75200 29.44300
C  44.79500 10.92000 30.82400
C  43.51400 10.28700 30.95300
C  46.30900 11.40800 28.81800
C  45.26700 11.44300 32.08600
O  46.28300 12.10900 32.36100
C  44.17800 10.92900 33.10000
C  44.78700 10.00400 34.08700
O  44.98600 8.79900 34.00500
O  45.06000 10.72300 35.26300
C  45.57200 9.93900 36.37000
H  38.23100 7.49800 32.65300
H  39.16700 6.87800 26.39900
H  44.42800 10.43300 26.76700
H  42.07900 9.15000 34.80300
H  39.26900 9.47700 34.19400
H  40.23400 6.76100 34.46300
H  38.96300 7.47600 35.29200
H  40.59600 7.80800 35.88400
H  40.15200 11.23400 35.10000
H  41.39300 11.98900 34.10200
H  42.83400 12.14300 35.73800
H  42.59000 10.50900 36.39800
H  36.86600 4.82200 30.69800
H  35.65500 6.19000 30.86400
H  36.82800 5.99900 32.07700
H  35.71200 4.67500 28.48000
H  34.76800 5.54200 27.25200
H  34.95400 6.35800 28.77000
H  40.28200 8.77500 24.68700
H  43.21300 8.97700 24.95500
H  41.00200 6.82700 23.86800
H  41.27500 6.32400 25.49800
H  42.61500 6.91600 24.51700
H  42.43300 11.12700 23.88400
H  43.02500 11.64700 25.22800
H  40.27600 11.08600 25.71400
H  40.47300 11.84700 24.06500
H  41.08400 12.72500 25.50400
H  46.47100 11.08700 27.79000
H  47.19600 11.18000 29.40900
H  46.19800 12.48900 28.91000
H  43.78500 11.80500 33.61600
H  46.62400 9.77900 36.13400
H  44.98900 9.10300 36.75600
H  45.44100 10.50400 37.29200
Mg 16.86500 52.04700 26.77800
C  18.78600 50.46300 29.23200
C  14.58500 52.95600 29.09300
C  15.16600 53.34800 24.22100
C  18.90100 50.32700 24.34400
N  16.67500 51.59500 28.88100
C  17.62700 51.08700 29.75600
C  17.22400 51.35900 31.26800
C  15.78200 51.92200 31.12200
C  15.62700 52.18400 29.63300
C  14.74100 50.95900 31.74900
C  18.26300 52.40500 31.77300
C  18.49000 52.36800 33.25800
H  17.56000 51.51500 34.12800
N  15.31000 53.24800 26.68900
C  14.47200 53.53100 27.78600
C  13.38800 54.43100 27.32100
C  13.61000 54.66100 25.88600
C  14.72800 53.74300 25.51000
C  12.41700 55.05300 28.18600
C  12.73900 55.46600 24.94300
O  12.68100 55.31000 23.71400
C  11.68700 56.43700 25.50500
N  17.09900 52.01600 24.63800
C  16.16100 52.59300 23.82500
C  16.45600 52.20800 22.31500
C  17.74100 51.29700 22.34900
C  17.98100 51.26300 23.86200
C  15.28900 51.51500 21.48200
C  18.94200 51.76800 21.45500
C  19.61000 53.08000 21.72700
N  18.48300 50.67100 26.77600
C  19.12200 50.04900 25.72600
C  20.24900 49.29300 26.27500
C  20.11800 49.41300 27.65000
C  19.05300 50.26400 27.90600
C  21.19100 48.54500 25.51100
C  20.79500 49.10900 28.93500
O  21.83100 48.58100 29.22200
C  19.91600 49.85000 29.98200
C  19.49500 48.81400 30.96200
O  18.76000 47.82400 30.73800
O  20.03300 49.07500 32.20900
C  19.70100 48.07900 33.18900
H  13.81800 53.26100 29.80700
H  14.74700 53.73500 23.29000
H  19.50700 49.90800 23.53800
H  17.36000 50.41700 31.80000
H  15.58500 52.88700 31.58800
H  15.03700 50.34900 32.60200
H  14.27000 50.27700 31.04100
H  13.92300 51.56300 32.14200
H  17.79100 53.34200 31.47800
H  19.11900 52.41600 31.09700
H  18.41700 53.36900 33.68200
H  19.53600 52.09100 33.39200
H  12.66800 54.92200 29.23800
H  11.48200 54.56400 27.91500
H  12.34100 56.12400 27.99300
H  10.88300 55.96300 26.06800
H  11.42900 57.02700 24.62600
H  12.27200 57.17500 26.05400
H  16.74700 53.11300 21.78100
H  17.47100 50.29600 22.01200
H  15.71900 51.16800 20.54200
H  14.47600 52.16900 21.16800
H  14.96000 50.60800 21.98900
H  18.72900 51.61200 20.39700
H  19.77800 51.08400 21.60000
H  20.66800 52.93700 21.94600
H  19.21200 53.52600 22.63900
H  19.61600 53.77800 20.89000
H  20.51000 47.89500 24.96100
H  21.84600 47.90800 26.10600
H  21.65500 49.28800 24.86200
H  20.50300 50.63600 30.45800
H  20.30400 47.17200 33.13800
H  18.67100 47.74400 33.06100
H  19.72800 48.55700 34.16800

