158

Mg 46.31600 3.68400 47.56000
C  43.85400 6.04500 46.71000
C  43.79100 1.17400 47.22600
C  48.80900 1.45600 47.39200
C  48.72400 6.31700 47.01500
N  44.02300 3.66200 47.10300
C  43.27300 4.72300 46.81100
C  41.77700 4.29200 46.59900
C  41.77000 2.77600 46.93200
C  43.26800 2.49500 47.19400
C  40.85200 2.27200 48.01300
C  41.17000 4.72700 45.23700
C  39.97400 5.75000 45.19400
H  40.17600 6.77000 44.15800
N  46.33200 1.63200 47.43000
C  45.18000 0.74600 47.28100
C  45.67400 -0.66000 47.13800
C  47.11400 -0.52800 47.01900
C  47.50600 0.91800 47.34700
C  44.75600 -1.88600 47.06300
C  48.04400 -1.69700 46.75400
O  47.56000 -2.87600 46.72500
C  49.46900 -1.56800 46.48300
N  48.41000 3.83900 47.17800
C  49.22000 2.74600 47.42300
C  50.75300 3.14600 47.33600
C  50.68900 4.70000 47.48300
C  49.15100 5.00100 47.26900
C  51.62800 2.28300 48.42100
C  51.54500 5.37800 46.31000
C  52.66500 6.42800 46.57200
N  46.34900 5.71600 47.07800
C  47.38300 6.61300 46.89800
C  46.83200 7.89400 46.61800
C  45.44200 7.75700 46.62800
C  45.19300 6.37500 46.83700
C  47.71100 9.15100 46.29500
C  44.19200 8.37900 46.41100
O  43.96200 9.53700 46.09500
C  43.07200 7.35300 46.57000
C  42.26100 7.68300 47.79100
O  42.40000 7.17900 48.89400
O  41.29700 8.57200 47.51900
C  40.43800 8.99800 48.66700
H  43.05700 0.39900 46.99600
H  49.69300 0.81700 47.45200
H  49.47100 7.10100 46.87500
H  41.17700 4.85500 47.31400
H  41.48000 2.30400 45.99300
H  40.26100 3.07300 48.45900
H  41.48000 1.82900 48.78600
H  40.21300 1.48200 47.62100
H  40.84900 3.87100 44.64400
H  41.99800 5.25900 44.76900
H  39.94600 6.12500 46.21700
H  39.07400 5.15400 45.04200
H  45.10300 -2.36700 46.14900
H  43.73200 -1.55400 46.89300
H  44.72200 -2.60600 47.88100
H  49.92700 -2.43500 46.00800
H  49.84900 -1.38900 47.48900
H  49.73900 -0.64800 45.96400
H  51.05100 2.77400 46.35600
H  50.94500 5.08300 48.47100
H  51.05400 1.73100 49.16500
H  52.17900 3.00000 49.02900
H  52.37500 1.69100 47.89200
H  50.85100 5.81800 45.59400
H  52.10100 4.59900 45.78800
H  52.47800 6.69000 47.61300
H  52.70100 7.26800 45.87800
H  53.60400 5.91000 46.37500
H  48.50300 9.12700 47.04300
H  47.10200 10.04900 46.39600
H  48.02500 9.11700 45.25200
H  42.43400 7.35400 45.68600
H  39.51100 8.42600 48.68500
H  40.25800 10.03300 48.37700
H  40.94500 8.86600 49.62300
Mg 47.80600 16.60300 27.74600
C  45.97900 16.26600 30.75400
C  50.20100 18.29300 29.45500
C  49.41300 17.05600 24.81900
C  45.10200 15.12900 25.98600
N  48.11400 17.05700 29.89700
C  47.26800 16.70200 30.95300
C  47.90000 17.10800 32.30100
C  49.22200 17.95300 31.85200
C  49.21200 17.72300 30.33500
C  49.21500 19.46200 32.29500
C  48.30800 15.96700 33.16800
C  47.52700 15.89100 34.59200
H  47.40400 17.22700 35.34800
N  49.64500 17.41800 27.26700
C  50.43400 18.11200 28.09000
C  51.70600 18.31300 27.38200
C  51.49500 17.96900 25.96700
C  50.11100 17.43000 25.98100
C  52.87700 18.93100 28.01500
C  52.48200 18.18200 24.82900
O  52.21300 17.96600 23.68000
C  53.83100 18.84400 25.04400
N  47.37200 16.14500 25.69500
C  48.16400 16.50500 24.64000
C  47.70400 15.88200 23.33600
C  46.24500 15.30200 23.69000
C  46.23500 15.48000 25.20500
C  47.66300 16.87100 22.12100
C  46.12700 13.81900 23.25000
C  44.95200 13.39300 22.41700
N  45.82000 16.06300 28.18600
C  44.90000 15.34200 27.39500
C  43.83300 14.89300 28.35000
C  44.18000 15.29600 29.62800
C  45.45400 15.89500 29.49700
C  42.66500 14.07700 27.98400
C  43.75300 15.29000 30.96700
O  42.73000 14.82600 31.45400
C  44.94500 15.72900 31.79900
C  44.38900 16.77000 32.68500
O  44.05500 17.87100 32.29800
O  44.06800 16.22000 33.87700
C  43.24100 17.08000 34.78400
H  50.88800 18.92700 30.02100
H  50.03700 16.97600 23.92700
H  44.33600 14.60600 25.41000
H  47.16600 17.75700 32.77900
H  50.13500 17.49900 32.23700
H  50.18600 19.68000 32.74100
H  48.47200 19.55100 33.08700
H  48.94100 20.07800 31.43900
H  49.37600 16.02700 33.37800
H  48.04900 15.12700 32.52400
H  48.05700 15.18800 35.23500
H  46.55100 15.42300 34.46500
H  52.82700 18.95900 29.10400
H  53.23500 19.90800 27.69100
H  53.77200 18.31900 27.89800
H  53.82900 19.89000 25.35100
H  54.40200 18.80200 24.11600
H  54.32000 18.25500 25.81900
H  48.42400 15.08600 23.15100
H  45.43300 15.92300 23.31200
H  47.91100 16.33300 21.20600
H  48.38300 17.68600 22.19100
H  46.68800 17.31400 21.91300
H  46.16600 13.25900 24.18400
H  47.08300 13.61100 22.77000
H  44.20300 14.16800 22.57700
H  44.57500 12.49700 22.91000
H  45.27000 13.25600 21.38300
H  42.55000 14.22700 26.91100
H  41.84400 14.56700 28.50700
H  42.87100 13.03700 28.23800
H  45.37100 14.91800 32.39000
H  42.37500 17.34800 34.17900
H  43.80800 17.98400 35.00800
H  43.15300 16.56300 35.74000

