158

Mg 17.18200 -1.65700 27.84000
C  16.22300 0.57200 30.34900
C  19.07900 -3.25500 30.01600
C  18.63800 -3.21500 25.19800
C  15.61400 0.55900 25.53500
N  17.73900 -1.19600 29.93800
C  17.08200 -0.41600 30.79000
C  17.40800 -0.70900 32.23900
C  18.56300 -1.74300 32.15100
C  18.42200 -2.19500 30.61600
C  20.00200 -1.09700 32.37800
C  16.10500 -1.24600 32.87200
C  15.97400 -0.89600 34.39300
H  17.15900 -0.30200 35.17600
N  18.57900 -3.14600 27.66100
C  19.16700 -3.74000 28.65600
C  19.89100 -4.89400 28.12000
C  19.68500 -4.90700 26.73200
C  18.87500 -3.71200 26.48000
C  20.31400 -5.97200 29.05800
C  20.16200 -5.91100 25.71200
O  19.92100 -5.73700 24.52100
C  20.88100 -7.14400 26.08100
N  17.09300 -1.40100 25.64500
C  17.84700 -2.18200 24.77200
C  17.64200 -1.72400 23.33000
C  16.47900 -0.62600 23.44200
C  16.33200 -0.49400 24.99000
C  18.97100 -1.47200 22.59100
C  15.14400 -0.89600 22.67900
C  13.86300 -1.39000 23.51600
N  15.98200 0.10400 27.93800
C  15.40300 0.85400 26.94700
C  14.63400 1.91500 27.49700
C  14.93800 1.85700 28.86100
C  15.86500 0.83900 29.02600
C  13.78800 2.91400 26.77200
C  14.59100 2.38000 30.14200
O  13.86300 3.30400 30.46800
C  15.43800 1.56900 31.20500
C  16.28800 2.56700 31.89500
O  17.50100 2.76200 31.77700
O  15.54600 3.07000 32.86500
C  16.15500 3.98800 33.85300
H  19.58000 -3.77400 30.83700
H  19.14800 -3.62900 24.32500
H  15.02500 1.18900 24.86500
H  17.70900 0.24900 32.66400
H  18.35800 -2.66200 32.70000
H  19.88100 -0.09600 32.79200
H  20.53100 -0.96500 31.43500
H  20.59300 -1.65900 33.10200
H  16.12300 -2.30400 32.60800
H  15.24100 -0.77700 32.40300
H  15.63800 -1.78900 34.92100
H  15.20300 -0.13400 34.50400
H  21.37700 -6.15600 28.90400
H  19.70500 -6.85500 28.86100
H  20.35200 -5.68000 30.10800
H  21.77700 -6.93600 26.66500
H  21.20200 -7.52400 25.11100
H  20.18600 -7.89900 26.44900
H  17.14400 -2.55300 22.82700
H  16.89400 0.32400 23.10500
H  18.80300 -0.48100 22.16700
H  19.34900 -2.28600 21.97300
H  19.73800 -1.45000 23.36500
H  15.32300 -1.68500 21.94800
H  14.88800 0.02800 22.16100
H  13.28500 -1.97800 22.80400
H  13.22600 -0.53500 23.74400
H  14.17500 -1.94100 24.40300
H  14.25300 3.36100 25.89300
H  13.57400 3.69900 27.49700
H  12.84700 2.47900 26.43300
H  14.72200 1.11200 31.88800
H  17.09700 4.41300 33.50600
H  16.20600 3.51800 34.83500
H  15.55700 4.89600 33.94200
Mg -11.83900 37.84800 42.03400
C  -9.57800 35.51900 41.05100
C  -9.94800 40.27600 40.55100
C  -14.36300 39.96000 42.60500
C  -14.09900 35.22700 42.79000
N  -10.10400 37.83300 40.75500
C  -9.26800 36.79200 40.55400
C  -7.88800 37.19000 39.94900
C  -7.98200 38.74500 40.05600
C  -9.47500 38.97900 40.50700
C  -6.90600 39.35900 40.95700
C  -7.79000 36.57900 38.50700
C  -6.53800 35.80500 38.04800
H  -5.62000 36.44100 36.94600
N  -12.09400 39.87200 41.74400
C  -11.21200 40.66400 41.09100
C  -11.72800 42.03000 41.21300
C  -12.94700 42.02200 41.82800
C  -13.21400 40.61100 42.07100
C  -10.87100 43.15000 40.88800
C  -13.84800 43.21800 42.27100
O  -13.50000 44.34900 41.99000
C  -15.12700 43.01800 43.05100
N  -13.93600 37.58300 42.47100
C  -14.72400 38.63700 42.74000
C  -16.17900 38.26000 43.14000
C  -16.12800 36.69300 43.15000
C  -14.67900 36.50500 42.68100
C  -16.59300 38.86400 44.52500
C  -17.06400 36.12500 42.09200
C  -16.78200 36.52200 40.52800
N  -11.83000 35.78500 42.00000
C  -12.76100 34.84600 42.49900
C  -12.08100 33.57900 42.64800
C  -10.86100 33.71900 41.99600
C  -10.76800 35.10600 41.69500
C  -12.71000 32.30200 43.13300
C  -9.72600 33.09000 41.37400
O  -9.53800 31.90600 41.23700
C  -8.77300 34.29400 40.90700
C  -7.57300 34.24200 41.81600
O  -7.45900 35.00300 42.74400
O  -6.74200 33.27400 41.38600
C  -5.46800 33.05900 42.21900
H  -9.16000 40.98300 40.28300
H  -15.16400 40.63900 42.90200
H  -14.87100 34.58000 43.21100
H  -7.09400 36.77900 40.57300
H  -7.83000 39.13900 39.05100
H  -6.40900 38.63400 41.60200
H  -7.40700 40.02900 41.65500
H  -6.25300 39.96100 40.32600
H  -8.02800 37.40100 37.83300
H  -8.60800 35.86100 38.45300
H  -6.77000 34.77100 37.79200
H  -5.88400 35.73400 38.91700
H  -10.87600 43.15000 39.79800
H  -9.89200 42.98600 41.33800
H  -11.16400 44.10500 41.32500
H  -15.85700 42.51900 42.41500
H  -15.63100 43.90800 43.42800
H  -14.84700 42.47900 43.95700
H  -16.88200 38.72000 42.44600
H  -16.36400 36.29700 44.13800
H  -15.85700 39.43000 45.09500
H  -16.79200 38.04000 45.21000
H  -17.46700 39.50600 44.41100
H  -18.09600 36.35100 42.36200
H  -16.91800 35.04700 42.17100
H  -16.11000 37.37600 40.44900
H  -17.73900 36.66300 40.02600
H  -16.31900 35.72800 39.94200
H  -12.56200 31.59500 42.31800
H  -13.77700 32.37400 43.34400
H  -12.03200 32.00200 43.93200
H  -8.48100 34.20700 39.86000
H  -5.55300 32.09500 42.72000
H  -5.22400 33.82200 42.95800
H  -4.63100 32.91600 41.53600

