158

Mg 41.14600 41.35700 27.09400
C  40.88600 43.88600 29.63900
C  41.89100 39.22600 29.63800
C  42.00000 39.24800 24.86000
C  41.33300 44.09800 24.78400
N  41.44100 41.60200 29.43400
C  40.98200 42.57800 30.18500
C  40.90300 42.12500 31.70300
C  41.49000 40.67200 31.64600
C  41.56600 40.45000 30.11500
C  42.89600 40.56200 32.30100
C  39.42600 42.23200 32.34400
C  39.23700 42.25400 33.86300
H  38.34600 43.31400 34.52400
N  41.64000 39.40900 27.19300
C  41.95400 38.63700 28.33400
C  42.30000 37.27100 27.88100
C  42.33300 37.26000 26.47200
C  41.95700 38.67500 26.11500
C  42.49900 36.20000 28.85900
C  42.75800 36.17400 25.45600
O  42.66500 36.28700 24.25100
C  43.18900 34.80500 25.97300
N  41.64100 41.62400 25.13400
C  41.83900 40.49400 24.35600
C  41.98400 40.90300 22.83700
C  41.69100 42.43400 22.82100
C  41.61500 42.80600 24.36000
C  43.39200 40.57900 22.15300
C  40.36300 42.77500 22.03900
C  39.10200 42.05800 22.53800
N  41.05700 43.56000 27.08800
C  41.04000 44.49600 26.06300
C  40.82100 45.79800 26.60400
C  40.73300 45.62500 27.99200
C  40.96000 44.24600 28.24300
C  40.73800 47.00600 25.88900
C  40.71800 46.36300 29.23300
O  40.49800 47.52900 29.53100
C  40.73100 45.19900 30.38900
C  41.84000 45.48100 31.30600
O  43.06200 45.47600 31.04100
O  41.37000 45.80400 32.56100
C  42.32100 45.93000 33.67400
H  42.09800 38.40300 30.32500
H  42.20100 38.54000 24.05400
H  41.23600 44.83200 23.98200
H  41.59600 42.85000 32.13200
H  40.78000 39.95700 32.06100
H  43.21000 41.50200 32.75500
H  43.63100 40.15200 31.60800
H  42.72900 39.83000 33.09200
H  38.82500 41.37300 32.04400
H  38.95300 43.09100 31.86800
H  40.26000 42.29900 34.23900
H  38.94100 41.27600 34.24400
H  41.83500 35.37200 28.61100
H  42.52300 36.52100 29.90100
H  43.55700 35.96600 28.74200
H  44.12800 34.89600 26.51800
H  43.19800 34.06400 25.17300
H  42.34400 34.58700 26.62600
H  41.15200 40.36700 22.38200
H  42.48500 42.98000 22.31100
H  43.26300 40.31000 21.10400
H  44.04900 39.99400 22.79600
H  43.93800 41.49800 21.94300
H  40.46000 42.58800 20.97000
H  40.16500 43.82900 22.23100
H  39.36200 41.56300 23.47400
H  38.93100 41.37600 21.70500
H  38.30200 42.79700 22.50400
H  40.39300 47.82100 26.52400
H  40.00000 46.83600 25.10500
H  41.67100 47.40400 25.49100
H  39.90200 45.20600 31.09600
H  42.27300 46.99600 33.90000
H  43.35000 45.68600 33.41100
H  42.07300 45.31300 34.53700
Mg -4.54700 24.82800 26.19000
C  -2.79100 26.31900 28.86300
C  -5.90200 22.53800 28.59200
C  -6.02500 23.31200 23.76800
C  -2.49700 26.64700 24.00900
N  -4.39100 24.54100 28.44600
C  -3.68300 25.36300 29.33100
C  -4.14100 25.00100 30.78600
C  -4.73100 23.52200 30.54500
C  -5.04900 23.50900 29.08900
C  -3.62100 22.42200 30.84500
C  -5.21700 25.95000 31.23500
C  -5.13300 26.52100 32.58700
H  -4.66000 25.66400 33.69500
N  -5.92300 23.23800 26.17500
C  -6.38400 22.48700 27.25300
C  -7.35100 21.52800 26.72000
C  -7.41400 21.83900 25.31700
C  -6.39800 22.76800 25.01100
C  -8.01600 20.43200 27.54100
C  -8.42300 21.18200 24.27900
O  -8.34800 21.37000 23.06400
C  -9.48000 20.30000 24.67200
N  -4.25900 24.90100 24.15700
C  -5.06100 24.25900 23.33600
C  -4.70800 24.51800 21.85400
C  -3.65800 25.66500 21.91300
C  -3.48700 25.82800 23.43100
C  -4.28000 23.25100 21.09200
C  -4.09000 27.03900 21.29800
C  -5.06800 27.04300 20.08200
N  -3.03800 26.30700 26.37800
C  -2.28500 26.92100 25.39200
C  -1.52800 27.98800 25.99700
C  -1.66100 27.71000 27.38500
C  -2.52800 26.66400 27.56800
C  -0.66400 28.93800 25.29200
C  -1.14200 28.07800 28.72000
O  -0.37100 28.94900 29.03800
C  -1.95100 27.18500 29.73700
C  -1.04300 26.52100 30.78000
O  -0.13500 25.76000 30.53900
O  -1.49500 27.03800 32.04800
C  -0.81500 26.40400 33.13100
H  -6.33300 21.86100 29.33300
H  -6.49500 22.94800 22.85300
H  -1.80800 27.20700 23.37200
H  -3.31800 24.95900 31.50000
H  -5.62200 23.30500 31.13500
H  -3.94100 21.44100 30.49200
H  -3.43100 22.26500 31.90700
H  -2.77000 22.82400 30.29600
H  -6.24100 25.68500 30.97500
H  -5.17100 26.82600 30.58800
H  -6.11400 26.85700 32.92400
H  -4.51600 27.41700 32.64100
H  -7.42600 20.15300 28.41400
H  -8.07000 19.49400 26.99000
H  -9.05800 20.64000 27.78300
H  -10.18900 20.77900 25.34700
H  -9.09800 19.34200 25.02300
H  -10.01600 20.00800 23.76900
H  -5.61200 24.84600 21.34000
H  -2.69700 25.32100 21.52900
H  -5.09500 23.08100 20.38900
H  -4.27700 22.39500 21.76600
H  -3.35500 23.35500 20.52600
H  -3.28600 27.64900 20.88700
H  -4.53900 27.54200 22.15500
H  -6.08800 27.31400 20.35300
H  -5.08600 26.09400 19.54600
H  -4.77700 27.69900 19.26100
H  -0.13100 29.63500 25.93900
H  -1.14000 29.69500 24.66800
H  0.02300 28.34500 24.68900
H  -2.61600 27.88700 30.23900
H  -0.94800 27.04100 34.00600
H  0.26700 26.31400 33.03600
H  -1.08900 25.35000 33.16800

