158

Mg 24.86100 -5.45300 46.22000
C  27.28900 -3.53500 44.48400
C  22.57700 -4.30000 43.88500
C  23.01800 -8.14000 46.90100
C  27.43500 -6.62000 48.25500
N  24.87000 -3.95300 44.48400
C  26.02400 -3.36800 43.95100
C  25.59700 -2.53500 42.73600
C  24.06700 -2.39400 42.86600
C  23.84100 -3.58300 43.77400
C  23.60900 -1.03800 43.45000
C  26.16700 -3.14700 41.51500
C  26.51900 -2.03100 40.39900
H  26.06800 -2.34100 38.96100
N  23.01900 -6.04300 45.53600
C  22.19300 -5.46500 44.65900
C  20.99400 -6.24900 44.44600
C  21.01600 -7.25400 45.38600
C  22.38100 -7.20300 46.00700
C  19.90900 -5.90000 43.39600
C  19.94500 -8.35400 45.56200
O  18.83000 -8.23800 45.01900
C  20.12300 -9.50600 46.54400
N  25.12400 -7.08000 47.39900
C  24.25900 -8.14300 47.48300
C  24.58400 -9.06000 48.71700
C  26.09000 -8.73800 48.87400
C  26.17600 -7.35700 48.22700
C  23.83900 -8.59600 49.90400
C  26.98400 -9.74700 48.08500
C  27.70800 -10.80100 48.91300
N  27.03500 -5.06500 46.43800
C  27.89400 -5.64800 47.31200
C  29.24600 -5.10000 47.08900
C  29.04000 -4.26400 46.00200
C  27.71000 -4.36100 45.60500
C  30.45900 -5.22800 47.91200
C  29.77100 -3.30700 45.09500
O  30.96400 -3.13600 45.02400
C  28.64400 -2.84400 44.08900
C  28.53200 -1.38500 44.14000
O  28.37000 -0.77600 45.17700
O  28.71300 -0.75100 42.91700
C  28.66900 0.77300 42.95200
H  21.88800 -3.84800 43.16800
H  22.37700 -8.97200 47.19800
H  28.13200 -7.14200 48.91500
H  26.02500 -1.56300 42.98100
H  23.51100 -2.63600 41.96000
H  24.35600 -0.27000 43.65000
H  23.01400 -1.31600 44.32000
H  22.91400 -0.46500 42.83600
H  25.40100 -3.88600 41.27800
H  27.05300 -3.72100 41.78600
H  27.60300 -2.13200 40.44200
H  26.16000 -1.04900 40.70700
H  19.97900 -4.94500 42.87600
H  18.92100 -5.87600 43.85600
H  20.01900 -6.68400 42.64700
H  19.24600 -10.09800 46.80400
H  20.38800 -8.96300 47.45100
H  20.93300 -10.15300 46.20700
H  24.39900 -10.11300 48.50300
H  26.47000 -8.72000 49.89500
H  22.76900 -8.55400 49.70100
H  24.17100 -7.59300 50.17400
H  23.94200 -9.30200 50.72800
H  27.73400 -9.21500 47.50000
H  26.41800 -10.37800 47.40000
H  27.74400 -10.45300 49.94600
H  28.71800 -10.96500 48.53800
H  27.13900 -11.72900 48.86600
H  30.78100 -4.21600 48.15700
H  31.17800 -5.82400 47.35000
H  30.30400 -5.80800 48.82200
H  28.92300 -3.07500 43.06100
H  27.81600 1.03700 43.57700
H  28.51200 1.06300 41.91300
H  29.55400 1.26300 43.35800
Mg 27.33000 50.56500 26.69400
C  25.22900 51.84600 29.25400
C  29.33100 49.29400 29.01700
C  29.23300 49.46200 24.18500
C  24.96600 51.80100 24.33200
N  27.29600 50.62300 28.92100
C  26.33800 51.17800 29.78200
C  26.76100 50.88400 31.21600
C  28.19200 50.18500 31.09400
C  28.30700 50.04200 29.60000
C  29.39900 50.96100 31.67800
C  25.62900 50.13500 32.07700
C  25.00300 50.90600 33.32900
H  25.35500 50.53500 34.80900
N  29.07600 49.64100 26.60800
C  29.75000 49.17600 27.69900
C  31.00400 48.53700 27.29700
C  30.99000 48.43400 25.88200
C  29.74200 49.20600 25.48800
C  31.96200 48.01500 28.30400
C  31.98400 47.76200 24.95000
O  31.76700 47.75300 23.75200
C  33.16200 46.93200 25.46100
N  27.16000 50.70700 24.49000
C  28.02300 50.13500 23.74500
C  27.72800 50.16500 22.23300
C  26.29000 50.94600 22.28800
C  26.08500 51.12000 23.77600
C  28.63400 50.99300 21.24200
C  25.06600 50.17300 21.66000
C  24.35500 49.13800 22.60600
N  25.56200 51.74100 26.71600
C  24.70800 52.00500 25.68600
C  23.54800 52.75300 26.22700
C  23.72100 52.67300 27.67100
C  24.95200 52.01900 27.88600
C  22.44000 53.40400 25.48100
C  23.00800 52.94100 28.90600
O  21.93900 53.53800 29.16000
C  23.96500 52.33800 30.00200
C  24.25200 53.47300 30.89700
O  25.04900 54.33100 30.57600
O  23.59700 53.49000 32.06100
C  23.98000 54.46500 33.12700
H  29.98700 48.84400 29.76600
H  29.82100 49.10700 23.33700
H  24.22100 51.97000 23.55100
H  26.96100 51.80100 31.77000
H  28.26400 49.15200 31.43300
H  30.09700 51.38900 30.95900
H  29.91100 50.25300 32.33000
H  29.14900 51.79400 32.33600
H  26.16500 49.28200 32.49200
H  24.81200 49.69800 31.50400
H  23.94400 51.13800 33.21400
H  25.45400 51.89400 33.41300
H  31.96800 46.92600 28.25900
H  31.70300 48.16400 29.35300
H  32.92500 48.50700 28.16600
H  33.84000 47.50300 26.09600
H  33.77200 46.62900 24.60900
H  32.80400 46.00600 25.90900
H  27.70500 49.15900 21.81400
H  26.34700 51.86000 21.69600
H  28.92500 50.40800 20.37000
H  29.59300 51.16100 21.73200
H  28.22000 51.94300 20.90300
H  25.28300 49.58900 20.76600
H  24.35200 50.88100 21.24000
H  23.60200 49.68800 23.17100
H  25.09100 48.79800 23.33400
H  23.92200 48.46000 21.87100
H  22.16500 52.96100 24.52400
H  22.73900 54.44800 25.38300
H  21.53000 53.29100 26.07000
H  23.44800 51.51800 30.49900
H  24.29400 55.41600 32.69600
H  24.78700 54.15900 33.79100
H  23.19400 54.51500 33.88000

