158

Mg 29.85400 58.32900 40.88800
C  26.96900 56.54000 39.95500
C  31.68400 56.03800 38.91800
C  32.42500 60.40800 40.98400
C  27.73900 61.01800 42.04400
N  29.39300 56.43800 39.82400
C  28.14100 55.96300 39.44800
C  28.25100 54.77000 38.45100
C  29.75800 54.32000 38.76600
C  30.36200 55.66600 39.21200
C  29.96000 53.15100 39.70600
C  27.95800 55.18000 36.97100
C  27.06400 54.35700 36.10300
H  26.94200 54.56100 34.64600
N  31.85600 58.12700 40.28600
C  32.37700 57.18300 39.46700
C  33.77600 57.52500 39.14900
C  34.05400 58.80700 39.76500
C  32.71000 59.17600 40.38200
C  34.68200 56.48200 38.29900
C  35.30600 59.55000 39.65500
O  36.25700 59.09400 38.96200
C  35.60700 60.83100 40.41700
N  30.00500 60.33900 41.56000
C  31.26600 60.77600 41.66100
C  31.29200 62.22400 42.29800
C  29.73900 62.50100 42.49500
C  29.12900 61.25700 42.00000
C  32.09300 62.25000 43.60100
C  29.30600 63.82900 41.71100
C  28.39900 64.87200 42.46800
N  27.76300 58.71200 41.02400
C  27.08300 59.83600 41.56200
C  25.69000 59.53900 41.57200
C  25.58800 58.28200 40.95700
C  26.85500 57.82000 40.61000
C  24.59600 60.44000 42.07400
C  24.64100 57.25200 40.50000
O  23.44200 57.23500 40.52500
C  25.52100 56.07700 39.83500
C  25.30000 54.82300 40.65200
O  25.96200 54.57100 41.65900
O  24.45800 53.90300 40.07700
C  24.47000 52.51700 40.60700
H  32.11600 55.31000 38.22800
H  33.20600 61.17100 40.98700
H  27.13100 61.73700 42.59700
H  27.48800 54.04700 38.73800
H  30.22500 53.92600 37.86300
H  28.99300 52.86400 40.12100
H  30.57200 53.43700 40.56100
H  30.43000 52.26100 39.28700
H  28.92300 55.24900 36.47000
H  27.75100 56.24600 36.86900
H  26.07900 54.41000 36.56700
H  27.39700 53.33800 36.30400
H  34.84400 56.78300 37.26400
H  34.27300 55.47200 38.33100
H  35.64000 56.29200 38.78200
H  35.11500 61.68100 39.94400
H  36.69300 60.89800 40.35600
H  35.30200 60.77000 41.46200
H  31.73400 62.95300 41.61800
H  29.34100 62.48600 43.50900
H  32.63700 61.32400 43.78600
H  31.39700 62.38500 44.42800
H  32.77800 63.09600 43.66700
H  28.75000 63.57800 40.80800
H  30.16600 64.40900 41.37700
H  28.24100 64.63000 43.51900
H  27.51000 65.11400 41.88600
H  29.06400 65.73600 42.46000
H  24.90500 60.97500 42.97200
H  23.71600 59.82500 42.26200
H  24.53400 61.23100 41.32700
H  25.13600 55.92800 38.82600
H  25.46900 52.21000 40.91600
H  24.19400 51.82400 39.81200
H  23.71700 52.43000 41.38900
Mg -6.15300 24.73600 27.09600
C  -5.13900 26.35500 30.17700
C  -8.14700 22.75300 29.20100
C  -7.13700 23.08800 24.38400
C  -4.02400 26.82800 25.36800
N  -6.57300 24.53900 29.43400
C  -5.99400 25.27700 30.43500
C  -6.44000 24.83000 31.88000
C  -7.14100 23.49600 31.46300
C  -7.37700 23.61500 29.95500
C  -6.44900 22.12200 31.66700
C  -7.33800 26.00900 32.54700
C  -7.16400 26.12100 34.07600
H  -6.60400 24.92300 34.82200
N  -7.49400 23.22300 26.76700
C  -8.19100 22.60200 27.78000
C  -9.10400 21.60600 27.19800
C  -8.78700 21.57200 25.83100
C  -7.75500 22.67500 25.59900
C  -10.00500 20.70800 27.94700
C  -9.39000 20.73700 24.72800
O  -8.96300 20.78300 23.58000
C  -10.37800 19.64600 25.03600
N  -5.57200 24.91000 25.17900
C  -6.16700 24.11900 24.21400
C  -5.64000 24.51100 22.83300
C  -4.75000 25.80500 23.15000
C  -4.71600 25.83900 24.66400
C  -4.94100 23.38400 22.00200
C  -5.37500 27.06700 22.45800
C  -4.53700 28.18600 21.74900
N  -4.91300 26.22600 27.61900
C  -4.07800 26.93600 26.77600
C  -3.23800 27.80900 27.60400
C  -3.61200 27.62800 28.89900
C  -4.68700 26.67500 28.83800
C  -2.10900 28.72000 27.18700
C  -3.28300 27.99600 30.27500
O  -2.40100 28.72200 30.70600
C  -4.31500 27.23000 31.15100
C  -3.45400 26.44600 32.07000
O  -2.50700 25.81500 31.78600
O  -3.88500 26.64700 33.33100
C  -3.01700 26.30700 34.44500
H  -8.82500 22.15200 29.81000
H  -7.29300 22.51200 23.46900
H  -3.48000 27.55900 24.76600
H  -5.51200 24.64800 32.42400
H  -8.07500 23.56200 32.02100
H  -5.51100 22.30200 32.19200
H  -6.28900 21.50600 30.78300
H  -7.10800 21.59900 32.36100
H  -8.38500 25.92400 32.25500
H  -6.90400 26.95500 32.22600
H  -8.07300 26.33500 34.63700
H  -6.41000 26.89700 34.20600
H  -10.93900 20.83000 27.39900
H  -10.25400 21.13700 28.91800
H  -9.63200 19.68400 27.95500
H  -9.90300 18.90500 25.68000
H  -10.62400 19.12800 24.10900
H  -11.27200 20.21200 25.29500
H  -6.57300 24.80600 22.35400
H  -3.72800 25.73000 22.78000
H  -3.87700 23.54800 22.17700
H  -5.14500 23.39400 20.93200
H  -5.27400 22.40800 22.35500
H  -5.98900 27.63500 23.15600
H  -6.00800 26.75800 21.62500
H  -5.28600 28.77300 21.21800
H  -3.92000 27.67400 21.01000
H  -3.95800 28.73800 22.48900
H  -1.57300 28.27000 26.35200
H  -1.40400 28.75000 28.01900
H  -2.42200 29.69500 26.81600
H  -4.91100 27.98600 31.66400
H  -2.52100 25.33800 34.40700
H  -3.61800 26.38400 35.35200
H  -2.19900 27.02300 34.53400

