158

Mg 40.97200 7.99500 29.35600
C  42.68500 9.41900 32.12700
C  38.51600 6.87200 31.60100
C  39.60500 6.25300 26.83000
C  43.77300 8.72400 27.33600
N  40.63000 8.23300 31.61400
C  41.46800 8.77300 32.49500
C  40.94500 8.70800 33.97000
C  39.71200 7.70100 33.72400
C  39.60900 7.55200 32.25000
C  39.81400 6.35200 34.56600
C  40.60700 10.11300 34.54300
C  39.62100 10.17400 35.72400
H  40.18700 10.91800 36.90000
N  39.28100 6.68600 29.26100
C  38.41200 6.42100 30.27200
C  37.37200 5.64000 29.75500
C  37.63300 5.49100 28.39700
C  38.94500 6.11200 28.08600
C  36.26800 5.24400 30.57700
C  36.84000 4.83700 27.35600
O  37.21800 4.71900 26.19100
C  35.44900 4.30200 27.72800
N  41.67800 7.49800 27.37600
C  40.84900 6.77000 26.52800
C  41.50900 6.58600 25.16400
C  42.81600 7.49000 25.31500
C  42.75800 7.92600 26.77100
C  41.77800 5.08600 24.71300
C  42.80100 8.61600 24.30900
C  42.01000 9.84800 24.83200
N  42.79800 8.87800 29.60600
C  43.82500 9.12100 28.70300
C  44.81600 9.99000 29.33700
C  44.48800 10.04800 30.70500
C  43.20900 9.43800 30.78500
C  46.07200 10.53600 28.76300
C  44.94100 10.51100 32.04600
O  45.89900 11.14200 32.48500
C  43.74100 10.15900 32.98000
C  44.21100 9.29000 34.17500
O  44.72600 8.15900 34.10100
O  44.11100 10.00600 35.32000
C  44.49400 9.22300 36.41500
H  37.68800 6.61800 32.26600
H  39.26600 5.77100 25.91100
H  44.60900 9.00900 26.69500
H  41.70800 8.23400 34.58700
H  38.80300 8.22100 34.02800
H  40.39000 5.60300 34.02100
H  38.76500 6.06200 34.50800
H  40.11000 6.40000 35.61400
H  40.24500 10.60800 33.64300
H  41.51900 10.59000 34.90200
H  39.45400 9.13900 36.02400
H  38.71800 10.70000 35.41500
H  36.37500 4.18800 30.82700
H  35.32400 5.40100 30.05600
H  35.95600 5.86300 31.41900
H  35.47300 3.65700 28.60700
H  35.04000 3.68600 26.92800
H  34.69600 5.08700 27.78700
H  40.71600 6.82500 24.45400
H  43.73800 6.92000 25.20200
H  42.71400 4.70900 25.12500
H  41.89100 5.12100 23.63000
H  40.98600 4.38300 24.97000
H  42.27500 8.29000 23.41200
H  43.86200 8.81200 24.15000
H  41.46500 9.66900 25.75800
H  41.26600 10.18400 24.11100
H  42.73400 10.66300 24.84000
H  46.38000 11.48600 29.20000
H  45.82900 10.64800 27.70600
H  46.88800 9.82400 28.88300
H  43.44700 11.11800 33.40700
H  45.55900 9.00400 36.33500
H  43.75300 8.43000 36.51400
H  44.43900 9.70600 37.39000
Mg -0.64500 44.11800 26.80900
C  1.63000 44.11700 29.43900
C  -3.09100 42.92500 28.98100
C  -2.82500 43.74700 24.18300
C  1.86400 44.82000 24.61800
N  -0.68900 43.59500 28.98900
C  0.30000 43.88600 29.87600
C  -0.17900 43.57900 31.25400
C  -1.56400 42.89500 31.02400
C  -1.86100 43.12000 29.56900
C  -1.64400 41.33000 31.40200
C  -0.28300 44.90100 32.14000
C  0.00200 44.78300 33.60000
H  0.15700 43.47500 34.24700
N  -2.70100 43.52800 26.65000
C  -3.46800 43.02500 27.59500
C  -4.71600 42.57300 27.04100
C  -4.73400 42.92700 25.64300
C  -3.36300 43.44600 25.42500
C  -5.73100 41.78700 27.93800
C  -5.80700 42.68500 24.57500
O  -5.67700 42.93200 23.39900
C  -7.09900 42.16200 25.06000
N  -0.51500 44.36200 24.68200
C  -1.51100 44.24800 23.84300
C  -1.11700 44.54800 22.36600
C  0.23500 45.24400 22.62900
C  0.57200 44.78300 24.05900
C  -1.15500 43.21900 21.44600
C  0.19200 46.76800 22.67500
C  1.34700 47.41900 21.92600
N  1.47000 44.45300 26.96300
C  2.29600 44.68900 25.96200
C  3.64400 44.74000 26.54400
C  3.47900 44.57100 27.93400
C  2.12100 44.38200 28.08500
C  4.95800 44.86400 25.83800
C  4.12800 44.44200 29.22300
O  5.29600 44.56400 29.58900
C  2.95900 44.09200 30.23900
C  3.19800 42.73400 30.74800
O  3.16200 41.72100 30.06400
O  3.56400 42.75400 32.05800
C  3.76100 41.40400 32.63800
H  -3.80600 42.52600 29.70300
H  -3.50500 43.56100 23.35000
H  2.67200 45.03400 23.91500
H  0.54500 42.87200 31.66000
H  -2.30400 43.46100 31.59000
H  -0.83700 41.01600 32.06500
H  -1.57000 40.67400 30.53500
H  -2.49900 41.18900 32.06400
H  -1.28300 45.31500 32.01400
H  0.39500 45.67400 31.77900
H  -0.80000 45.37800 34.03700
H  0.94600 45.30900 33.74400
H  -6.78600 41.98300 27.74500
H  -5.64500 42.15600 28.96000
H  -5.60800 40.71000 28.04300
H  -7.63400 41.89100 24.15000
H  -7.62700 42.93000 25.62500
H  -7.02300 41.28300 25.70000
H  -1.71200 45.34000 21.91100
H  0.89500 44.75300 21.91400
H  -0.19000 42.92600 21.03300
H  -1.91600 43.45200 20.70100
H  -1.55300 42.37700 22.01200
H  0.16800 47.08700 23.71700
H  -0.72700 47.15500 22.23500
H  2.08500 46.66000 21.66800
H  1.85200 48.20100 22.49300
H  0.83700 47.89600 21.08800
H  5.00400 43.97700 25.20600
H  5.84300 44.87200 26.47600
H  4.90200 45.74700 25.20200
H  2.90500 44.78100 31.08200
H  2.92300 41.01000 33.21200
H  4.56100 41.32000 33.37300
H  4.12400 40.68700 31.90200

