158

Mg 9.90900 47.04400 26.41700
C  7.78300 47.42500 29.23200
C  12.43300 48.36800 28.16100
C  11.66200 46.85900 23.67000
C  6.87400 46.47500 24.48100
N  10.11100 47.84100 28.50800
C  9.14200 47.74100 29.50400
C  9.79000 48.25200 30.82900
C  11.06200 49.04000 30.37000
C  11.22000 48.37300 28.96100
C  10.94700 50.59600 30.28000
C  10.12100 47.05200 31.79700
C  9.45200 47.29900 33.21100
H  9.29500 46.04900 34.06600
N  11.78600 47.35500 25.99800
C  12.75300 47.80700 26.86200
C  14.07700 47.91300 26.25700
C  13.87400 47.55100 24.89500
C  12.38600 47.26200 24.78400
C  15.28200 48.19800 27.01000
C  14.87600 47.22800 23.87800
O  14.55200 47.15300 22.70400
C  16.40400 47.15600 24.17400
N  9.27200 46.75200 24.33800
C  10.25700 46.69600 23.43900
C  9.63500 46.79200 22.06400
C  8.15300 46.37400 22.24700
C  8.06600 46.53000 23.76700
C  9.80800 48.20500 21.42700
C  7.77500 44.99800 21.65600
C  8.68400 43.75800 21.97000
N  7.84700 46.94200 26.71300
C  6.74700 46.66300 25.83200
C  5.50800 46.53000 26.60100
C  5.84500 46.85200 27.94200
C  7.29000 47.10800 27.92500
C  4.08400 46.37300 25.97300
C  5.28100 47.10000 29.29400
O  4.13100 47.16800 29.74500
C  6.58900 47.31000 30.17600
C  6.68500 46.15900 31.13200
O  7.37800 45.14900 30.84000
O  6.00800 46.35000 32.34600
C  5.83500 45.05600 33.09900
H  13.25600 48.80700 28.72800
H  12.31300 46.86500 22.79300
H  5.99800 46.20600 23.88700
H  9.04100 48.90900 31.27100
H  11.96400 48.85200 30.95300
H  11.65800 51.02600 30.98600
H  9.93000 50.91100 30.51100
H  11.11100 51.03400 29.29600
H  11.20500 47.06300 31.91700
H  9.78400 46.10000 31.38800
H  8.51300 47.77000 32.92100
H  9.97100 48.01800 33.84600
H  15.14800 48.15800 28.09100
H  15.73900 49.17300 26.84300
H  16.05300 47.43400 26.90800
H  16.72900 47.93600 24.86400
H  16.93200 47.19300 23.22200
H  16.59100 46.12400 24.47000
H  10.19600 46.15700 21.37800
H  7.61200 47.23700 21.85800
H  10.79600 48.57200 21.70600
H  9.07400 48.94800 21.73900
H  9.86300 48.04600 20.35000
H  7.76300 45.00500 20.56600
H  6.80400 44.67400 22.02900
H  9.34400 43.93800 22.81900
H  9.22700 43.48100 21.06600
H  7.94700 43.06200 22.37000
H  3.59700 45.42300 26.19400
H  4.15900 46.52900 24.89700
H  3.44100 47.16700 26.35200
H  6.43200 48.16200 30.83600
H  5.63300 45.55000 34.04900
H  6.74200 44.47500 33.26700
H  4.95000 44.52000 32.75500
Mg -6.03100 25.57800 24.59100
C  -4.31800 26.44800 27.41400
C  -7.74000 23.13900 26.59100
C  -7.23800 24.00900 21.73700
C  -4.01500 27.49900 22.60700
N  -6.14100 24.89700 26.72700
C  -5.27600 25.46700 27.68100
C  -5.71900 25.09300 29.06200
C  -6.61100 23.82500 28.87500
C  -6.88400 23.95400 27.33000
C  -5.91600 22.45800 29.27200
C  -6.53200 26.28000 29.73900
C  -6.27600 26.55600 31.25000
H  -5.66900 25.45700 32.14200
N  -7.41600 23.86400 24.22300
C  -8.03200 23.06100 25.21000
C  -8.82100 22.06400 24.53100
C  -8.71500 22.28100 23.10200
C  -7.71900 23.35600 22.94100
C  -9.75300 21.08900 25.22600
C  -9.46400 21.64600 21.93400
O  -9.19200 21.86800 20.74700
C  -10.61300 20.60900 22.16800
N  -5.73200 25.69600 22.46600
C  -6.34200 25.05000 21.51800
C  -6.08100 25.66500 20.10700
C  -5.16700 26.85600 20.42700
C  -4.95500 26.71800 21.93800
C  -5.47900 24.63300 19.06700
C  -5.73900 28.34100 20.08200
C  -6.36200 28.47400 18.64400
N  -4.44000 26.79500 24.88900
C  -3.74800 27.54400 24.03200
C  -2.77100 28.30500 24.80100
C  -3.01600 27.98600 26.09400
C  -3.94900 26.95800 26.11800
C  -1.85900 29.38800 24.29400
C  -2.65300 28.28500 27.50900
O  -1.92200 29.13200 28.01200
C  -3.60800 27.32800 28.35300
C  -2.67700 26.57600 29.28400
O  -2.15500 25.48100 29.06500
O  -2.48500 27.36300 30.39900
C  -1.63400 26.91400 31.49700
H  -8.29600 22.42700 27.20400
H  -7.61100 23.69600 20.76000
H  -3.48400 28.15300 21.91200
H  -4.85000 24.79000 29.64600
H  -7.56800 23.90200 29.39100
H  -5.74600 21.75600 28.45500
H  -6.48100 21.95700 30.05800
H  -4.94800 22.74200 29.68600
H  -7.61800 26.18400 29.72600
H  -6.41600 27.16000 29.10600
H  -7.20600 26.88500 31.71400
H  -5.57700 27.38900 31.31600
H  -9.45700 21.07900 26.27500
H  -9.67700 20.08000 24.81900
H  -10.78800 21.42900 25.20700
H  -11.30800 20.59400 21.32900
H  -11.17300 21.01000 23.01300
H  -10.15800 19.62300 22.25700
H  -7.03300 26.09000 19.78800
H  -4.32800 26.83800 19.73200
H  -4.98600 23.77800 19.53000
H  -4.74200 25.17400 18.47400
H  -6.31800 24.35900 18.42700
H  -4.96400 29.10100 20.17600
H  -6.48400 28.58400 20.83900
H  -6.06700 29.38700 18.12700
H  -7.44400 28.58000 18.71600
H  -6.04200 27.64600 18.01200
H  -2.39100 30.33700 24.35800
H  -1.52200 29.20700 23.27300
H  -0.99600 29.26900 24.94900
H  -4.30500 27.88000 28.98300
H  -1.16600 25.94200 31.34500
H  -2.36400 26.78800 32.29700
H  -0.88600 27.69500 31.63400

