158

Mg 2.34600 -0.44300 43.23600
C  5.71100 0.30000 42.82300
C  1.53200 2.49400 41.67600
C  -0.86700 -1.45500 43.24200
C  3.32200 -3.65000 44.37200
N  3.61000 1.16300 42.31600
C  4.95300 1.23800 42.16500
C  5.40100 2.60800 41.64500
C  4.02200 3.33600 41.42300
C  2.90400 2.30700 41.90200
C  3.86800 4.77100 42.06800
C  6.26000 2.46300 40.40000
C  5.84400 1.36300 39.32000
H  5.59000 1.91900 37.93200
N  0.55200 0.39500 42.51000
C  0.46400 1.64300 41.98500
C  -1.00000 1.90600 41.69400
C  -1.72400 0.80400 42.11700
C  -0.70200 -0.15500 42.67600
C  -1.43100 3.23700 41.07700
C  -3.28700 0.75200 42.02400
O  -3.96900 1.70400 41.52900
C  -4.09100 -0.42100 42.47300
N  1.42300 -2.32700 43.59400
C  0.05100 -2.38500 43.69200
C  -0.41900 -3.82100 44.23800
C  0.89500 -4.62200 44.34000
C  1.94500 -3.44200 44.10600
C  -1.44400 -3.82100 45.43000
C  1.17600 -5.88800 43.42400
C  1.50500 -7.22300 44.15700
N  4.15100 -1.47600 43.70200
C  4.38600 -2.72400 44.15600
C  5.75000 -2.97000 44.33900
C  6.37800 -1.76000 43.86600
C  5.32600 -0.91100 43.48600
C  6.46700 -4.21500 44.77300
C  7.66500 -1.00600 43.65400
O  8.85000 -1.33300 43.80600
C  7.21000 0.32500 42.97600
C  7.80500 1.47100 43.76400
O  8.88600 2.01700 43.55500
O  6.94300 1.73700 44.79700
C  7.39600 2.87000 45.60000
H  1.36600 3.49400 41.27000
H  -1.89900 -1.71900 43.48000
H  3.66100 -4.64100 44.68100
H  5.80800 3.08000 42.53900
H  3.85000 3.49500 40.35800
H  2.91000 4.87400 42.57700
H  3.93500 5.49000 41.25200
H  4.73500 4.92000 42.71300
H  7.29500 2.22500 40.64400
H  6.26000 3.50000 40.06400
H  4.97000 0.80500 39.65400
H  6.68000 0.66300 39.33100
H  -1.34700 3.21800 39.99000
H  -0.72000 3.99300 41.41100
H  -2.47500 3.49500 41.25900
H  -4.01300 -0.53700 43.55400
H  -3.75700 -1.33300 41.97900
H  -5.07700 -0.34900 42.01400
H  -1.01000 -4.21300 43.41000
H  0.98300 -4.86700 45.39800
H  -2.42300 -4.10600 45.04700
H  -1.41300 -2.80800 45.83300
H  -1.09900 -4.60700 46.10100
H  2.02500 -5.55100 42.83100
H  0.32800 -6.11800 42.77800
H  0.70300 -7.95700 44.07000
H  1.69800 -6.97100 45.20000
H  2.50900 -7.49200 43.82900
H  6.53900 -4.94500 43.96700
H  6.00100 -4.71900 45.62000
H  7.47300 -3.90000 45.04700
H  7.67300 0.44400 41.99600
H  7.20600 3.77800 45.02800
H  8.43700 2.66800 45.85300
H  6.84500 2.97900 46.53500
Mg 35.84200 1.79900 29.59500
C  33.51100 2.75500 32.09300
C  38.22300 1.63800 32.02700
C  38.11100 1.16900 27.24900
C  33.38400 2.48500 27.22900
N  35.74800 2.05300 31.82400
C  34.70500 2.42500 32.63800
C  35.13300 2.58700 34.12600
C  36.70400 2.46700 33.98600
C  36.90600 2.01200 32.56300
C  37.49500 3.73600 34.42900
C  34.53100 1.41800 34.96800
C  34.30700 1.65800 36.49200
H  35.02400 2.86500 37.17900
N  37.88800 1.38700 29.66400
C  38.69700 1.29200 30.74400
C  40.06100 0.95300 30.32200
C  40.09800 0.85200 28.90500
C  38.66500 1.10900 28.51800
C  41.14200 0.92900 31.43200
C  41.28600 0.52300 27.98700
O  41.17000 0.56000 26.77100
C  42.65500 0.20300 28.48900
N  35.78500 1.90000 27.59500
C  36.81300 1.51300 26.76100
C  36.43700 1.49000 25.27600
C  34.86100 1.57500 25.31700
C  34.62200 2.11000 26.79800
C  37.01500 2.74800 24.59100
C  34.09000 0.24200 24.89700
C  33.84100 -0.72700 26.03900
N  33.88100 2.35500 29.61800
C  33.02200 2.63200 28.59200
C  31.76900 3.05100 29.06400
C  31.89000 3.10800 30.45500
C  33.18700 2.67500 30.71600
C  30.55400 3.33500 28.23400
C  31.19800 3.34400 31.71200
O  29.96700 3.46700 31.95500
C  32.25200 3.15700 32.82700
C  32.41100 4.42700 33.65500
O  33.13000 5.36800 33.36800
O  31.58800 4.33700 34.79700
C  31.63900 5.51800 35.60000
H  38.95600 1.52300 32.82800
H  38.76500 0.94500 26.40400
H  32.54400 2.57600 26.53700
H  34.92500 3.55900 34.57400
H  37.02700 1.60700 34.57400
H  36.89400 4.40900 35.04100
H  37.96900 4.29900 33.62400
H  38.28500 3.44100 35.11900
H  35.22400 0.57900 34.90300
H  33.63700 1.12500 34.41800
H  34.70900 0.73600 36.91200
H  33.23800 1.76500 36.67600
H  42.05900 0.43900 31.10500
H  40.74000 0.50200 32.35100
H  41.31800 1.97200 31.69500
H  42.94600 1.04300 29.12000
H  43.33900 0.21900 27.64100
H  42.66200 -0.78800 28.94300
H  36.76500 0.51100 24.92600
H  34.38600 2.25900 24.61400
H  37.39700 2.42900 23.62100
H  37.76600 3.14600 25.27300
H  36.20600 3.46100 24.43300
H  34.81000 -0.15500 24.18200
H  33.15700 0.48300 24.38800
H  34.78800 -1.25700 26.14000
H  33.09800 -1.46900 25.74800
H  33.65800 -0.25800 27.00600
H  30.23100 2.44200 27.70000
H  30.75700 4.17800 27.57300
H  29.79800 3.78400 28.87900
H  31.88700 2.30800 33.40600
H  32.61300 5.74000 36.03500
H  31.02200 5.40800 36.49200
H  31.46100 6.46000 35.08100

