158

Mg 37.03000 48.70100 25.72800
C  37.00700 46.72700 28.60500
C  36.12700 51.52600 27.57900
C  36.52800 50.42400 22.87500
C  37.69900 45.78200 23.88700
N  36.44200 49.05800 27.84100
C  36.69700 48.10600 28.81700
C  36.72600 48.79900 30.19800
C  36.18000 50.24600 29.83100
C  36.27700 50.26300 28.31200
C  34.72000 50.47800 30.27800
C  38.06600 48.83300 30.99900
C  38.05700 48.06100 32.34200
H  37.88300 48.95200 33.55300
N  36.59500 50.74700 25.35500
C  36.21600 51.70800 26.19500
C  36.03600 53.01200 25.50000
C  36.21600 52.76800 24.09300
C  36.37300 51.27100 24.07500
C  35.88200 54.32300 26.32800
C  36.14000 53.74700 22.98200
O  36.26100 53.43400 21.77000
C  35.89400 55.23400 23.22100
N  37.14000 48.22000 23.68400
C  36.90100 49.06900 22.67400
C  36.97400 48.37200 21.32000
C  37.65000 46.96400 21.64100
C  37.46300 46.93300 23.14100
C  35.58400 48.37100 20.65600
C  39.13200 47.10800 21.20400
C  39.62300 45.97900 20.30800
N  37.34700 46.70200 26.04600
C  37.64700 45.62600 25.23400
C  37.66700 44.39800 25.95900
C  37.61200 44.86500 27.30100
C  37.25100 46.20800 27.32100
C  37.85400 43.16100 25.20500
C  37.55000 44.36300 28.64800
O  37.67600 43.24900 29.09700
C  37.06800 45.54300 29.50700
C  35.73000 45.17700 30.14000
O  34.91300 44.41000 29.60000
O  35.58300 45.78300 31.36000
C  34.27100 45.52100 31.89500
H  35.90900 52.40000 28.19600
H  36.30500 50.90500 21.92000
H  37.81200 44.97300 23.16200
H  36.02000 48.29600 30.85900
H  36.80100 51.07400 30.17600
H  34.03600 49.66200 30.04700
H  34.20500 51.25600 29.71500
H  34.78400 50.69100 31.34500
H  38.40600 49.86800 31.05000
H  38.83800 48.34100 30.40800
H  38.95300 47.46200 32.50400
H  37.30600 47.27200 32.30000
H  36.47600 55.09100 25.83300
H  36.24200 54.20100 27.35000
H  34.82800 54.54100 26.50000
H  35.52200 55.63300 22.27800
H  36.84900 55.70000 23.46600
H  35.07700 55.37300 23.92800
H  37.67100 48.92500 20.69000
H  37.15500 46.12900 21.14300
H  34.85400 49.07300 21.05800
H  35.11800 47.39800 20.49700
H  35.56500 48.69800 19.61700
H  39.68100 46.99000 22.13800
H  39.41900 48.06800 20.77300
H  40.61800 45.60500 20.54600
H  39.65500 46.36700 19.28900
H  38.91300 45.15200 20.29800
H  37.35600 42.44600 25.85900
H  38.90500 42.91400 25.05300
H  37.30100 43.14600 24.26500
H  37.79700 45.66900 30.30700
H  34.35200 45.76000 32.95500
H  34.00500 44.46700 31.81200
H  33.51700 46.18000 31.46300
Mg 26.44200 50.39600 27.80600
C  24.20200 51.71000 30.18700
C  28.57300 49.52900 30.41700
C  28.58100 49.29300 25.52300
C  24.33400 51.65800 25.26400
N  26.41200 50.70300 30.06800
C  25.36900 51.17200 30.86200
C  25.71600 51.02700 32.40800
C  27.15800 50.40400 32.33500
C  27.40600 50.16200 30.82100
C  28.35500 51.19400 33.00000
C  24.67500 50.16000 33.17200
C  24.31700 50.59700 34.52200
H  25.40600 50.88000 35.51600
N  28.33400 49.52400 27.98400
C  29.04600 49.24300 29.10100
C  30.35600 48.70800 28.79400
C  30.34500 48.55800 27.36500
C  29.00200 49.09600 26.91400
C  31.27300 48.16200 29.88300
C  31.35900 47.95900 26.47600
O  31.05400 47.78700 25.31600
C  32.75400 47.54200 26.97800
N  26.52700 50.61400 25.73700
C  27.50300 49.99000 25.00200
C  27.13500 50.05300 23.41900
C  25.73000 50.60100 23.36800
C  25.49500 50.97000 24.85000
C  28.17400 50.89000 22.62100
C  24.72000 49.46400 22.89600
C  23.55300 49.99300 21.98500
N  24.59300 51.34800 27.68000
C  23.94500 51.85200 26.58600
C  22.73200 52.47200 27.01200
C  22.78400 52.42200 28.40300
C  23.99400 51.74700 28.79300
C  21.67400 53.00000 26.06300
C  22.09200 52.82100 29.67600
O  21.06900 53.49600 29.88100
C  22.98400 52.38900 30.81000
C  23.29100 53.51200 31.66900
O  23.92100 54.49200 31.29300
O  22.90500 53.19000 33.00100
C  23.11700 54.25700 33.96500
H  29.31900 49.23000 31.15700
H  29.32000 49.11100 24.74000
H  23.65000 52.07200 24.52000
H  25.89000 52.03800 32.77600
H  27.12000 49.45000 32.86100
H  28.81500 50.52600 33.72800
H  27.82900 52.05400 33.41500
H  28.97300 51.56800 32.18300
H  24.93400 49.11300 33.32600
H  23.78300 50.19700 32.54700
H  23.56800 49.92400 34.93800
H  23.81400 51.56400 34.54800
H  32.30200 48.44000 29.65900
H  31.18300 47.07700 29.81900
H  31.14600 48.64100 30.85400
H  32.68200 46.58500 27.49400
H  33.30300 48.30900 27.52500
H  33.38100 47.36800 26.10400
H  27.17500 49.03800 23.02300
H  25.72600 51.41200 22.64000
H  29.22000 50.87000 22.92800
H  28.02500 51.96600 22.70700
H  28.19400 50.52800 21.59300
H  24.20400 48.93000 23.69400
H  25.23600 48.69200 22.32400
H  23.82200 50.83400 21.34600
H  22.68200 50.12800 22.62600
H  23.21000 49.15300 21.38100
H  20.94300 53.56000 26.64600
H  21.22800 52.11200 25.61600
H  22.09500 53.49400 25.18700
H  22.44100 51.66800 31.42100
H  24.11000 54.21700 34.41200
H  22.34900 54.13400 34.72700
H  22.89100 55.19600 33.45800

