158

Mg 9.70200 47.77700 28.14700
C  7.91000 47.37800 31.20400
C  12.46700 48.42500 29.99400
C  11.21800 48.96900 25.34500
C  6.55900 48.02900 26.45100
N  10.14800 47.70600 30.38200
C  9.28600 47.55500 31.44100
C  10.04500 47.60400 32.76900
C  11.46500 48.06200 32.39800
C  11.38400 48.03000 30.81700
C  11.94400 49.42200 32.97900
C  9.86800 46.28100 33.59900
C  11.01600 45.92000 34.57200
H  10.69900 45.16900 35.91400
N  11.63000 48.24600 27.66000
C  12.61200 48.46000 28.57200
C  13.82400 48.68400 27.81100
C  13.52400 48.82000 26.45400
C  12.03200 48.70400 26.43100
C  15.16400 49.01100 28.51900
C  14.43700 49.21000 25.20200
O  14.08200 49.50700 24.05400
C  15.89000 49.21000 25.48000
N  8.99300 48.39200 26.08400
C  9.80400 48.75300 25.07400
C  9.03800 49.10200 23.75800
C  7.64000 48.75000 24.22600
C  7.66700 48.30900 25.66300
C  9.09300 50.52800 23.31800
C  6.87600 47.73700 23.32800
C  6.33200 48.32500 21.99100
N  7.63700 47.55100 28.62400
C  6.45800 47.68400 27.84700
C  5.30300 47.59100 28.68600
C  5.86000 47.35300 29.94900
C  7.23800 47.48500 29.93600
C  3.91600 47.78400 28.31300
C  5.51900 47.20500 31.37200
O  4.43900 47.13100 31.85200
C  6.80600 47.07100 32.16900
C  6.81900 45.65400 32.54200
O  7.18300 44.73200 31.88100
O  6.31700 45.58000 33.79800
C  6.23600 44.27700 34.40700
H  13.33700 48.51300 30.64800
H  11.62300 49.35000 24.40500
H  5.54900 48.16700 26.05900
H  9.49900 48.32600 33.37600
H  12.20700 47.30400 32.65200
H  11.23100 49.87500 33.66800
H  12.01800 50.23400 32.25600
H  12.86800 49.23100 33.52400
H  9.72700 45.51900 32.83300
H  8.95600 46.27900 34.19600
H  11.40500 46.89500 34.86500
H  11.70300 45.31200 33.98400
H  15.45500 50.01700 28.21700
H  15.96100 48.27900 28.39000
H  14.92800 49.06400 29.58200
H  16.26400 49.10500 24.46200
H  16.20600 48.33000 26.04100
H  15.95100 50.14300 26.04000
H  9.50100 48.44600 23.02100
H  7.00300 49.63500 24.23500
H  8.18600 50.89900 22.84000
H  9.87200 50.35800 22.57400
H  9.49400 51.18700 24.08800
H  5.98900 47.37000 23.84300
H  7.55800 46.93900 23.03200
H  6.83300 47.65200 21.29600
H  6.67900 49.35700 21.94500
H  5.25600 48.16300 21.91800
H  3.23600 47.50600 29.11800
H  3.77100 47.29600 27.34900
H  3.71100 48.83600 28.11400
H  6.78500 47.70900 33.05200
H  5.51000 43.75100 33.78700
H  5.79900 44.33100 35.40400
H  7.20300 43.77900 34.47000
Mg 0.11700 43.75700 26.84000
C  2.48000 43.45300 29.35100
C  -2.29100 42.59900 28.98100
C  -2.00700 43.46500 24.20400
C  2.78600 44.57900 24.58800
N  0.15200 43.12000 28.95500
C  1.17500 43.33600 29.83100
C  0.73000 43.04000 31.30000
C  -0.69800 42.38900 31.05800
C  -1.01000 42.66700 29.56600
C  -0.85200 40.92900 31.33600
C  0.73700 44.38000 32.19000
C  1.22200 44.25400 33.65100
H  0.64300 43.12400 34.46600
N  -1.87400 43.08300 26.58100
C  -2.67800 42.67100 27.62900
C  -3.98700 42.44600 27.11000
C  -3.93600 42.57600 25.66800
C  -2.54700 43.03500 25.39900
C  -5.13900 42.07500 27.97400
C  -5.01500 42.42400 24.67300
O  -4.80900 42.60400 23.50400
C  -6.41000 42.09600 25.08800
N  0.36400 43.91400 24.77700
C  -0.74200 43.91500 23.95800
C  -0.39600 44.29400 22.55700
C  1.10400 44.74100 22.60200
C  1.49800 44.42300 24.10900
C  -0.76400 43.19800 21.49500
C  1.34600 46.23000 22.21400
C  1.14800 47.23500 23.37200
N  2.20500 43.99600 26.90700
C  3.19000 44.26800 25.92000
C  4.52000 44.25200 26.50800
C  4.28400 43.91900 27.78900
C  2.86500 43.79300 28.00900
C  5.88900 44.43900 25.83600
C  4.93400 43.50400 29.05100
O  6.08600 43.23200 29.30800
C  3.81200 43.40500 30.10000
C  3.84200 42.13200 30.84000
O  3.48100 41.04100 30.45100
O  4.31000 42.36700 32.05200
C  4.39500 41.23900 33.01300
H  -3.03100 42.07600 29.59100
H  -2.63700 43.51300 23.31300
H  3.53700 44.90900 23.86800
H  1.41000 42.36700 31.82200
H  -1.48100 42.96100 31.55400
H  -1.41400 40.51300 30.50000
H  -1.49700 40.81600 32.20700
H  0.04300 40.30700 31.35100
H  -0.25700 44.82600 32.19800
H  1.41100 45.03200 31.63300
H  0.84000 45.16100 34.12000
H  2.30600 44.15100 33.60800
H  -4.85900 41.70400 28.96000
H  -5.63000 41.23200 27.48900
H  -5.81000 42.92800 28.07600
H  -6.43200 41.09400 25.51500
H  -7.08200 42.12300 24.23000
H  -6.76300 42.87000 25.77000
H  -1.00800 45.18800 22.43700
H  1.74400 44.09800 21.99700
H  0.21900 42.98200 21.07700
H  -1.55700 43.55300 20.83800
H  -0.99100 42.21100 21.90000
H  0.69900 46.53600 21.39100
H  2.38000 46.39400 21.90800
H  0.57000 48.09100 23.02700
H  2.11000 47.58500 23.74600
H  0.63400 46.80600 24.23200
H  5.71400 44.59600 24.77200
H  6.61500 43.63100 25.92900
H  6.32200 45.36800 26.20600
H  3.93800 44.25800 30.76600
H  3.67500 40.43300 32.86600
H  4.07900 41.61200 33.98800
H  5.37800 40.76700 33.01800

