158

Mg 45.24000 5.37700 48.21100
C  42.83500 7.90900 47.64900
C  42.60900 3.10000 48.12200
C  47.54100 2.90400 48.29000
C  47.74500 7.75400 48.02300
N  43.04900 5.44500 47.85200
C  42.35300 6.59900 47.57500
C  40.89500 6.27800 47.22500
C  40.73100 4.81100 47.60200
C  42.18600 4.39300 47.95200
C  39.76600 4.64600 48.83300
C  40.59200 6.68200 45.75700
C  39.19200 7.37100 45.68500
H  38.50500 6.91300 44.46900
N  45.07200 3.28400 48.19600
C  43.92000 2.51400 48.19000
C  44.31900 1.14100 48.16100
C  45.77800 1.08000 48.16500
C  46.21900 2.45600 48.22500
C  43.32000 -0.00800 48.22000
C  46.57300 -0.30100 48.10100
O  45.91900 -1.36100 47.98200
C  48.06400 -0.43800 48.26200
N  47.32300 5.35000 48.04400
C  48.01900 4.21400 48.19700
C  49.53600 4.47700 48.32500
C  49.64500 6.00000 48.27900
C  48.16600 6.43500 48.10100
C  50.41000 3.82500 49.49800
C  50.64100 6.50900 47.13400
C  52.11900 6.61700 47.55400
N  45.34000 7.43200 47.92800
C  46.42800 8.26600 47.89800
C  45.97200 9.68500 47.85700
C  44.60600 9.56600 47.80100
C  44.26400 8.19500 47.79700
C  46.70800 10.96600 47.87100
C  43.38500 10.24700 47.64000
O  43.12600 11.42800 47.50700
C  42.20500 9.19600 47.43300
C  41.30300 9.57000 48.58200
O  41.25100 9.03400 49.68900
O  40.31800 10.45700 48.02000
C  39.15200 10.69200 48.83500
H  41.87900 2.30100 47.97500
H  48.25700 2.08100 48.34400
H  48.47900 8.56100 48.08000
H  40.39300 7.05400 47.80400
H  40.34500 4.27900 46.73300
H  39.16500 5.54600 48.95700
H  40.43800 4.57300 49.68800
H  39.14400 3.76900 48.65000
H  40.74200 5.84000 45.08100
H  41.38400 7.31300 45.35400
H  39.27200 8.45200 45.57300
H  38.56600 7.10300 46.53600
H  43.71700 -0.80800 48.84400
H  43.39000 -0.48400 47.24200
H  42.29900 0.32700 48.40400
H  48.54000 0.31300 47.63100
H  48.25500 -1.48800 48.03900
H  48.38800 -0.23300 49.28300
H  49.92300 4.08800 47.38300
H  49.91000 6.36900 49.27000
H  49.77400 3.21100 50.13600
H  50.80700 4.58700 50.16900
H  51.21200 3.28700 48.99100
H  50.35800 7.54500 46.94500
H  50.54900 5.81900 46.29500
H  52.79300 6.39700 46.72700
H  52.26900 6.02600 48.45800
H  52.35000 7.64300 47.84200
H  46.94100 11.06200 48.93100
H  46.17600 11.83400 47.48000
H  47.61800 10.83300 47.28500
H  41.61000 9.27200 46.52300
H  39.15900 10.09900 49.75000
H  38.27200 10.44600 48.23900
H  39.10900 11.74400 49.11700
Mg 41.44200 8.90300 29.67300
C  43.41600 10.21300 32.39200
C  39.17300 7.71600 31.84700
C  39.78000 7.62000 27.03900
C  44.13200 9.68500 27.50900
N  41.41700 8.95000 31.92400
C  42.19700 9.61800 32.88200
C  41.57400 9.39500 34.32000
C  40.37000 8.48500 34.01800
C  40.30000 8.36800 32.51000
C  40.41400 7.08800 34.62300
C  41.40300 10.82800 35.00700
C  40.38700 10.86600 36.15200
H  40.78100 11.84500 37.28000
N  39.68600 7.82900 29.52300
C  38.88000 7.49100 30.50400
C  37.61000 6.94300 30.05200
C  37.74900 7.06800 28.64900
C  39.08700 7.50000 28.31600
C  36.61300 6.21500 30.97700
C  36.69900 6.84400 27.52300
O  36.97900 6.97700 26.29800
C  35.27800 6.52600 28.02900
N  42.00700 8.30500 27.62900
C  41.08000 7.97700 26.72500
C  41.50700 8.25200 25.30300
C  42.91400 8.91400 25.35600
C  43.07400 8.97200 26.93200
C  41.32800 6.95300 24.49200
C  43.05600 10.29600 24.79000
C  42.18200 11.39000 25.42400
N  43.40400 9.77600 29.85600
C  44.33600 10.02900 28.86900
C  45.38300 10.75100 29.46300
C  45.07800 10.87300 30.84400
C  43.83700 10.23400 31.03100
C  46.45000 11.34200 28.64000
C  45.45700 11.42700 32.20200
O  46.51600 11.92000 32.49000
C  44.39700 10.93000 33.24900
C  45.14500 10.05300 34.29700
O  45.78100 9.04000 33.95100
O  44.88100 10.56300 35.55600
C  45.38000 9.78600 36.73900
H  38.39500 7.48600 32.57800
H  39.17500 7.40700 26.15500
H  44.85400 10.05800 26.78000
H  42.28400 8.80800 34.90200
H  39.47100 8.89400 34.48000
H  39.52800 6.93400 35.23800
H  41.29900 6.82500 35.20400
H  40.33800 6.28900 33.88600
H  41.06100 11.46800 34.19400
H  42.33300 11.22900 35.41100
H  40.25800 9.89000 36.61900
H  39.39400 11.26000 35.93200
H  37.12300 6.10300 31.93400
H  36.25100 5.31800 30.47500
H  35.76400 6.87900 31.14400
H  35.37600 5.64500 28.66400
H  34.52400 6.35700 27.26000
H  34.99800 7.41000 28.60100
H  40.78200 8.96800 24.91400
H  43.79200 8.33200 25.07700
H  42.15200 6.87700 23.78100
H  40.41100 7.07600 23.91500
H  41.22000 6.10200 25.16400
H  43.02900 10.39700 23.70500
H  44.12800 10.48800 24.84100
H  42.84100 12.03500 26.00500
H  41.44200 10.99700 26.12200
H  41.70800 12.09900 24.74500
H  46.83600 12.17800 29.22300
H  46.02000 11.81700 27.75900
H  47.22900 10.60600 28.44200
H  43.94900 11.78000 33.76400
H  45.90500 8.87100 36.46600
H  44.52700 9.51700 37.36100
H  45.98500 10.43900 37.36800

