158

Mg -2.47400 16.98200 26.60800
C  -3.03200 14.73800 29.35100
C  -3.23700 19.64400 28.75800
C  -2.12000 19.04300 24.02500
C  -2.40400 14.26400 24.59000
N  -2.77500 17.23100 28.91700
C  -2.99500 16.09800 29.77900
C  -3.30500 16.62400 31.15300
C  -3.43800 18.23200 30.92900
C  -3.20200 18.37900 29.44100
C  -4.69200 19.07200 31.43300
C  -2.20400 16.06800 32.16300
C  -1.65600 16.88600 33.28200
H  -1.14800 16.23900 34.59300
N  -2.55900 19.03800 26.45400
C  -2.82000 19.96700 27.46600
C  -2.78900 21.25300 26.82900
C  -2.49300 21.11300 25.44300
C  -2.32600 19.68700 25.25600
C  -3.33100 22.40800 27.68500
C  -2.47300 22.20100 24.34700
O  -2.15800 22.04200 23.18000
C  -2.69300 23.65900 24.90900
N  -2.47500 16.71800 24.57000
C  -2.07600 17.74600 23.67600
C  -1.85900 17.21900 22.24400
C  -1.85300 15.68500 22.51000
C  -2.26100 15.51600 23.96900
C  -2.96300 17.69000 21.19900
C  -0.48500 15.03400 21.95100
C  -0.69300 14.10400 20.66900
N  -2.75000 14.92300 26.85500
C  -2.59200 13.93600 25.94000
C  -2.81400 12.63900 26.52700
C  -2.98900 12.89600 27.88600
C  -2.90500 14.29900 28.03200
C  -2.85300 11.31800 25.80500
C  -3.18100 12.27800 29.14800
O  -3.33500 11.11600 29.47700
C  -3.12800 13.45800 30.19100
C  -1.93700 13.20700 31.01400
O  -0.75800 13.22800 30.70700
O  -2.33100 12.89700 32.32700
C  -1.38900 12.53500 33.35900
H  -3.35100 20.49600 29.43100
H  -1.86700 19.67000 23.16800
H  -2.40500 13.42700 23.88900
H  -4.31000 16.24100 31.33400
H  -2.63000 18.70800 31.48400
H  -5.53800 18.41300 31.62800
H  -5.01600 19.83700 30.72700
H  -4.50200 19.61100 32.36100
H  -1.31600 15.60300 31.73600
H  -2.53000 15.19600 32.72900
H  -2.43800 17.56900 33.61300
H  -0.76900 17.34700 32.84700
H  -4.04600 22.98200 27.09600
H  -2.55400 23.12000 27.96400
H  -3.91800 22.12000 28.55700
H  -3.74100 23.71000 25.20700
H  -2.41700 24.31000 24.08000
H  -2.00400 23.87100 25.72600
H  -0.96500 17.80500 22.03000
H  -2.66400 15.15900 22.00700
H  -3.96900 17.33400 21.42400
H  -2.69600 17.37800 20.19000
H  -3.15800 18.76200 21.15900
H  -0.08900 14.43500 22.77100
H  0.25100 15.79800 21.69900
H  -1.71600 14.09100 20.29300
H  -0.53100 13.08900 21.03000
H  -0.04500 14.26100 19.80700
H  -1.84100 11.10100 25.46200
H  -3.53600 11.17100 24.96900
H  -3.12500 10.59600 26.57500
H  -3.92600 13.42000 30.93200
H  -1.51100 12.99900 34.33800
H  -0.38000 12.78800 33.03200
H  -1.53800 11.46000 33.46700
Mg 47.18100 17.12600 28.28000
C  45.33000 16.81500 31.26500
C  49.27100 19.50300 29.86300
C  48.28700 18.11100 25.32900
C  44.51500 15.47000 26.70000
N  47.18400 18.10600 30.26600
C  46.49400 17.63300 31.33300
C  47.08200 18.17900 32.62300
C  48.22400 19.15600 32.16400
C  48.27200 18.92800 30.64900
C  48.08100 20.66600 32.61300
C  47.48600 16.98400 33.53900
C  46.97900 17.01900 34.94400
H  46.73100 18.43800 35.66000
N  48.89600 18.34100 27.70900
C  49.53400 19.26800 28.44500
C  50.47800 19.82200 27.61000
C  50.36300 19.34000 26.29500
C  49.13700 18.55500 26.38200
C  51.35800 20.87500 27.98000
C  51.22200 19.55400 25.09700
O  50.91500 19.17200 23.94100
C  52.47000 20.43200 25.20600
N  46.53300 16.79300 26.32700
C  47.14400 17.38300 25.24500
C  46.41700 16.99600 23.98100
C  45.16400 16.22000 24.42700
C  45.40800 16.18900 25.93000
C  46.17200 18.27900 23.14800
C  44.92400 14.85100 23.79500
C  44.51500 14.82600 22.33600
N  45.40200 16.21100 28.82600
C  44.46200 15.55900 28.11000
C  43.40900 15.07700 28.99100
C  43.76200 15.47600 30.27500
C  44.96600 16.24400 30.15400
C  42.21500 14.12800 28.54900
C  43.38100 15.40600 31.67400
O  42.45600 14.83500 32.23100
C  44.38100 16.30700 32.36900
C  43.62800 17.53000 33.01800
O  43.27300 18.53400 32.46500
O  43.36500 17.26300 34.30400
C  42.67300 18.27800 35.08000
H  49.97200 20.13100 30.41700
H  48.72900 18.36300 24.36300
H  43.69300 15.02700 26.13400
H  46.31500 18.74500 33.15200
H  49.18900 18.86200 32.57400
H  48.07800 21.46300 31.87000
H  48.90800 20.88000 33.29000
H  47.15700 20.78800 33.17700
H  48.56800 16.93500 33.41700
H  47.14200 16.03000 33.13800
H  47.67400 16.47900 35.58600
H  46.01300 16.51400 34.92700
H  52.36700 20.48200 27.85500
H  51.47300 21.07900 29.04500
H  50.97500 21.76100 27.47300
H  53.27900 19.84400 25.63800
H  52.28400 21.33100 25.79500
H  52.65900 20.72600 24.17400
H  47.15200 16.40500 23.43300
H  44.26500 16.78300 24.17400
H  45.11900 18.39800 22.89400
H  46.64300 18.32100 22.16600
H  46.47700 19.19900 23.64700
H  43.94400 14.52600 24.14400
H  45.62100 14.09700 24.15700
H  44.48800 15.84100 21.94100
H  43.52700 14.36700 22.30400
H  45.21400 14.23000 21.74800
H  42.39800 13.20600 27.99700
H  41.46200 14.64700 27.95600
H  41.72000 13.83500 29.47600
H  44.75700 15.81700 33.26700
H  42.55500 18.03300 36.13600
H  41.66100 18.40100 34.69400
H  43.26100 19.19000 34.98300

