158

Mg 0.49100 7.68500 25.75600
C  1.36900 9.75700 28.35100
C  0.70000 4.92900 27.86700
C  -0.18900 5.69100 23.04500
C  0.61700 10.47000 23.53600
N  1.07200 7.36400 27.83800
C  1.20400 8.40900 28.75100
C  1.21300 7.77900 30.19400
C  1.30200 6.26300 29.98700
C  1.01100 6.18900 28.45500
C  2.56500 5.48900 30.50300
C  -0.13800 8.20700 31.06900
C  0.24100 8.78300 32.44300
H  1.47200 8.15100 33.20100
N  0.22300 5.61600 25.52700
C  0.33300 4.65800 26.55200
C  0.03700 3.34800 26.02000
C  -0.10400 3.53200 24.56300
C  -0.03600 4.97300 24.27700
C  -0.01600 2.12200 26.86200
C  -0.42800 2.50000 23.56000
O  -0.46100 2.62300 22.36200
C  -0.89500 1.21700 24.09900
N  0.44000 7.95900 23.56200
C  -0.05000 6.98400 22.74900
C  -0.26000 7.45900 21.31400
C  -0.20200 9.03500 21.51000
C  0.30300 9.19600 22.98100
C  0.90100 6.87800 20.42900
C  -1.57300 9.69600 21.33600
C  -1.58100 11.05800 20.78000
N  0.90700 9.72100 25.87100
C  0.83300 10.69200 24.91900
C  1.11500 11.93800 25.54100
C  1.36400 11.61700 26.88800
C  1.26100 10.26600 27.06300
C  1.35300 13.27100 24.93300
C  1.76400 12.09000 28.21900
O  2.09900 13.21100 28.56000
C  1.59600 10.95200 29.16300
C  2.76300 10.91900 30.05700
O  3.71700 10.21400 29.89000
O  2.37900 11.54700 31.24300
C  3.50600 11.79900 32.19600
H  0.63800 4.13000 28.61000
H  -0.49000 5.07700 22.19400
H  0.44300 11.37400 22.94900
H  2.07900 8.23200 30.67600
H  0.37800 5.78000 30.30600
H  2.27100 4.89500 31.36800
H  3.33100 6.17900 30.85900
H  3.10400 4.91300 29.75100
H  -0.78600 7.33900 31.18600
H  -0.63400 9.00000 30.50900
H  -0.55200 8.69000 33.18600
H  0.42200 9.85500 32.36000
H  0.44800 2.31800 27.82900
H  0.76900 1.45200 26.51000
H  -1.00600 1.69000 27.00600
H  -1.74100 1.39700 24.76200
H  -0.17200 0.70700 24.73600
H  -1.13100 0.56900 23.25500
H  -1.20400 7.19600 20.83700
H  0.46600 9.53000 20.80600
H  1.77000 6.84700 21.08600
H  0.98400 7.56300 19.58600
H  0.57200 5.87900 20.14300
H  -2.08400 9.76900 22.29700
H  -2.15200 9.09800 20.63200
H  -2.25100 11.07100 19.91900
H  -0.57600 11.31000 20.44200
H  -1.95300 11.83300 21.45000
H  0.34900 13.68900 24.86200
H  1.83300 13.37500 23.95900
H  1.79100 14.02900 25.58100
H  0.71000 11.04300 29.79200
H  3.47800 12.78600 32.65800
H  4.40200 11.69800 31.58400
H  3.68500 11.00700 32.92300
Mg 36.14100 1.81000 29.15600
C  33.96000 2.94500 31.71300
C  38.66500 1.81400 31.43900
C  38.37700 0.98600 26.65400
C  33.55600 1.99600 26.91600
N  36.23300 2.25700 31.33400
C  35.26800 2.67800 32.15900
C  35.83500 2.83700 33.53100
C  37.33100 2.86400 33.33800
C  37.45200 2.35300 31.90900
C  38.05100 4.18100 33.65900
C  35.25700 1.73600 34.51800
C  34.72900 2.32200 35.87400
H  35.48000 3.49800 36.58700
N  38.10000 1.30700 29.10100
C  38.96000 1.29600 30.19600
C  40.19300 0.65800 29.83100
C  40.18600 0.63200 28.44700
C  38.85200 0.97700 27.98200
C  41.26800 0.35300 30.86600
C  41.33800 0.28700 27.54700
O  41.23900 0.27900 26.31200
C  42.70400 -0.01300 28.05500
N  35.98800 1.55100 27.11300
C  37.03300 1.28300 26.25300
C  36.54700 1.32100 24.74900
C  34.94900 1.27600 24.87700
C  34.77000 1.60200 26.33900
C  36.94200 2.70300 24.19600
C  34.40800 -0.16300 24.48300
C  34.00500 -1.14000 25.53800
N  34.13800 2.37600 29.19600
C  33.18000 2.41100 28.19700
C  31.96400 2.86300 28.79300
C  32.20800 3.08400 30.13500
C  33.58100 2.83200 30.32600
C  30.56900 2.88100 28.21200
C  31.59800 3.56700 31.41100
O  30.45000 4.06000 31.59900
C  32.74800 3.45000 32.41400
C  32.95900 4.72300 33.08700
O  33.68600 5.63200 32.65700
O  32.14300 4.74200 34.22000
C  32.15600 6.01200 34.94500
H  39.50600 1.76400 32.13400
H  39.04900 0.70200 25.84200
H  32.83100 2.04100 26.10100
H  35.40400 3.73800 33.96900
H  37.72700 2.05900 33.95700
H  38.93000 3.98300 34.27200
H  37.37300 4.96200 34.00200
H  38.49300 4.58400 32.74800
H  35.99200 0.94900 34.68400
H  34.48100 1.18500 33.98600
H  34.68000 1.45800 36.53700
H  33.66600 2.53900 35.77100
H  41.63700 -0.65600 30.68200
H  40.94600 0.25800 31.90300
H  41.95300 1.20000 30.83700
H  43.36400 -0.09800 27.19100
H  42.76000 -0.99400 28.52600
H  43.02300 0.85200 28.63600
H  36.93400 0.56800 24.06100
H  34.45300 2.04700 24.28900
H  36.11900 3.34300 23.87700
H  37.60400 2.63400 23.33300
H  37.50800 3.16100 25.00800
H  34.96800 -0.66700 23.69600
H  33.49100 0.16400 23.99300
H  34.48400 -2.08500 25.28300
H  32.91800 -1.16400 25.46700
H  34.24700 -0.76800 26.53400
H  30.67900 2.57100 27.17300
H  30.10900 3.86400 28.10900
H  29.89000 2.22100 28.75200
H  32.40900 2.65300 33.07600
H  32.12800 6.72200 34.11800
H  33.06600 6.09100 35.54000
H  31.35500 6.26300 35.64000

