158

Mg 45.54500 4.54100 47.90600
C  43.82000 7.39200 46.95900
C  43.06200 2.58400 47.43100
C  47.83700 1.85800 48.07800
C  48.50800 6.64700 47.74000
N  43.73800 4.87400 47.03500
C  43.13100 6.11700 46.90000
C  41.65100 5.87500 46.41400
C  41.30300 4.38300 46.68900
C  42.74700 3.89900 47.03800
C  40.19200 4.03400 47.68900
C  41.36100 6.27400 44.92900
C  40.09500 7.10800 44.75400
H  39.13300 6.80200 43.62200
N  45.48800 2.53700 47.73800
C  44.30800 1.87900 47.63500
C  44.56400 0.43900 47.68200
C  45.87300 0.25300 48.02900
C  46.47300 1.59100 47.92800
C  43.47100 -0.54000 47.49200
C  46.53400 -1.11600 48.43500
O  45.86400 -2.18900 48.36600
C  47.96400 -1.15200 48.83900
N  47.76800 4.29800 47.97500
C  48.42300 3.10200 47.93300
C  49.91500 3.21200 47.94900
C  50.10400 4.71300 47.83000
C  48.69500 5.30100 47.77200
C  50.67300 2.54500 49.12700
C  51.01000 5.10900 46.62000
C  52.43700 5.65600 46.84200
N  46.09300 6.62400 47.70300
C  47.29300 7.35700 47.70700
C  47.01600 8.77000 47.51400
C  45.61000 8.83100 47.32500
C  45.15700 7.54900 47.34600
C  47.86500 9.94300 47.26500
C  44.50600 9.72900 46.89900
O  44.45500 10.89200 46.54400
C  43.26200 8.79300 46.73400
C  42.24500 9.05300 47.82200
O  42.40100 8.81600 49.01200
O  41.11200 9.48300 47.25100
C  39.93600 9.69900 48.12100
H  42.26500 1.84400 47.53000
H  48.57700 1.05600 48.03600
H  49.44900 7.18500 47.87200
H  41.13100 6.56800 47.07600
H  41.08800 3.85400 45.76000
H  39.77900 3.03800 47.53000
H  39.34000 4.70200 47.57300
H  40.54100 4.16400 48.71300
H  41.30100 5.37500 44.31500
H  42.12900 6.97100 44.59400
H  40.24400 8.18500 44.67600
H  39.50800 6.93000 45.65500
H  43.68300 -1.54900 47.84600
H  43.32300 -0.62300 46.41500
H  42.53800 -0.27300 47.98900
H  48.05500 -1.98900 49.53100
H  48.33200 -0.38000 49.51500
H  48.61100 -1.30800 47.97500
H  50.26900 2.65000 47.08400
H  50.59900 4.98900 48.76100
H  49.98100 2.39200 49.95500
H  51.56200 3.09700 49.43500
H  51.03000 1.52700 48.97600
H  50.47200 5.86000 46.04200
H  51.13000 4.32900 45.86800
H  53.13200 5.06400 46.24600
H  52.67800 5.72100 47.90300
H  52.45700 6.61500 46.32500
H  48.93300 9.74800 47.16900
H  47.75400 10.71200 48.02900
H  47.46400 10.36000 46.34100
H  42.79100 8.86200 45.75400
H  39.36200 8.78600 48.27800
H  39.17800 10.43900 47.86500
H  40.27400 9.92600 49.13200
Mg 29.91200 58.00300 39.92400
C  27.07100 56.05200 39.10900
C  31.91200 55.33200 38.79100
C  32.60500 60.03100 40.01500
C  27.77800 60.70000 40.68300
N  29.49100 55.96700 38.95200
C  28.21000 55.39100 38.85500
C  28.40400 53.88500 38.39500
C  29.99500 53.63700 38.59900
C  30.53900 55.06600 38.80600
C  30.34000 52.70500 39.79500
C  27.68400 53.71300 36.96300
C  28.22700 54.70600 35.98300
H  28.74200 54.34200 34.58000
N  31.96800 57.75200 39.48100
C  32.59300 56.54000 39.07000
C  33.97000 56.82400 38.97800
C  34.18100 58.08300 39.61900
C  32.90800 58.68400 39.78200
C  35.04800 55.70200 38.50700
C  35.51900 58.61100 40.05900
O  36.54800 58.01900 39.87300
C  35.65500 59.83300 40.88400
N  30.13300 60.09800 40.10500
C  31.34100 60.71200 40.24700
C  31.21900 62.29800 40.54500
C  29.70100 62.42700 40.79800
C  29.15600 61.02200 40.45700
C  32.21200 62.82100 41.64400
C  29.08500 63.65500 40.12500
C  28.48800 63.48600 38.73200
N  27.82700 58.32900 40.09000
C  27.11000 59.44700 40.45100
C  25.74300 59.14700 40.41600
C  25.68800 57.82000 39.85800
C  27.01900 57.36100 39.62900
C  24.56100 60.02400 40.75400
C  24.78500 56.77700 39.47300
O  23.59900 56.65300 39.41800
C  25.66200 55.61200 38.98700
C  25.33100 54.38200 39.84600
O  25.79100 54.19600 41.01600
O  24.31800 53.61200 39.27300
C  23.65200 52.53400 40.07500
H  32.51000 54.44800 38.56100
H  33.44800 60.71400 39.88800
H  27.08500 61.52600 40.86100
H  27.90000 53.25900 39.13200
H  30.35600 53.15100 37.69300
H  29.41000 52.25200 40.13700
H  30.69100 53.27500 40.65600
H  31.03100 51.96200 39.39600
H  26.63200 53.87400 37.19900
H  28.07900 52.77100 36.58300
H  29.08500 55.19000 36.45000
H  27.43900 55.44500 35.83400
H  35.81300 56.15100 37.87300
H  34.58800 54.91800 37.90400
H  35.37300 55.18200 39.40800
H  36.60600 59.83000 41.41600
H  34.91000 59.97800 41.66700
H  35.69500 60.64000 40.15200
H  31.44700 62.86300 39.64200
H  29.61300 62.54200 41.87800
H  31.72800 62.97000 42.61000
H  32.65000 63.76100 41.30700
H  33.02400 62.09900 41.72900
H  29.76000 64.51100 40.09300
H  28.30600 63.98300 40.81400
H  28.96900 64.27000 38.14700
H  27.46000 63.84800 38.74800
H  28.65700 62.58200 38.14500
H  24.91800 61.01000 41.05400
H  23.85900 59.64500 41.49700
H  23.94900 60.16300 39.86300
H  25.39200 55.47400 37.94000
H  23.60000 51.57500 39.56000
H  22.64100 52.85500 40.32800
H  24.17600 52.46900 41.02800

