158

Mg 39.63400 9.22500 30.09200
C  41.45800 10.45200 32.82600
C  37.21600 8.17500 32.28300
C  38.01700 7.86600 27.56000
C  42.25100 10.34200 27.93000
N  39.46400 9.20700 32.34200
C  40.23400 9.90500 33.21600
C  39.64600 9.86800 34.65900
C  38.30800 9.06600 34.43400
C  38.33700 8.78400 32.96700
C  38.18400 7.73400 35.28800
C  39.54400 11.34900 35.24300
C  40.35900 11.58700 36.51500
H  39.58000 12.15600 37.66300
N  37.98200 8.03300 29.97500
C  37.08800 7.66700 30.96600
C  35.95400 7.02800 30.43700
C  36.25200 6.74000 29.12100
C  37.48100 7.54600 28.83200
C  34.75300 6.68700 31.32000
C  35.49600 6.15100 27.98000
O  35.92400 5.85500 26.86300
C  34.10100 5.71300 28.35200
N  40.21100 9.01700 28.03800
C  39.27100 8.46400 27.13600
C  39.58200 8.88900 25.67900
C  40.94500 9.58100 25.85600
C  41.22500 9.64500 27.34900
C  39.72700 7.70300 24.70500
C  40.96800 11.01800 25.18300
C  39.84000 12.02400 25.52700
N  41.49900 10.20300 30.34200
C  42.46400 10.59200 29.35700
C  43.56800 11.22400 30.03200
C  43.22600 11.21800 31.41100
C  41.96300 10.52100 31.51500
C  44.84600 11.91900 29.50700
C  43.60700 11.67200 32.73100
O  44.58400 12.32500 33.09900
C  42.45000 11.17400 33.73600
C  43.11000 10.11900 34.63100
O  43.16800 8.92100 34.43300
O  43.76500 10.80200 35.65200
C  44.22900 10.07100 36.89000
H  36.37600 8.08500 32.97300
H  37.44500 7.52200 26.69600
H  43.17100 10.57700 27.39000
H  40.27500 9.22500 35.27500
H  37.40600 9.64600 34.63400
H  38.21400 6.89300 34.59500
H  37.21600 7.68500 35.78700
H  39.03400 7.54700 35.94300
H  38.50400 11.63600 35.39800
H  40.07200 11.98000 34.52800
H  41.03300 12.42000 36.31600
H  41.04100 10.77300 36.76000
H  33.91400 7.37900 31.23700
H  34.99900 6.63200 32.38000
H  34.38300 5.68300 31.11200
H  33.52800 6.38400 28.99200
H  34.32700 4.81700 28.93100
H  33.49800 5.47500 27.47600
H  38.80800 9.47200 25.18100
H  41.80700 9.02600 25.48400
H  40.07900 6.79300 25.19000
H  40.49000 7.84600 23.94000
H  38.78300 7.55000 24.18300
H  40.84100 10.74000 24.13600
H  41.98700 11.38300 25.30800
H  39.21500 12.16300 24.64500
H  40.34200 12.94700 25.81500
H  39.21000 11.78200 26.38300
H  45.14700 11.35300 28.62500
H  45.66200 11.82400 30.22300
H  44.64400 12.97800 29.34200
H  42.14200 11.90200 34.48600
H  44.90600 10.76100 37.39400
H  44.58300 9.09200 36.56900
H  43.32500 9.86800 37.46300
Mg 29.92900 57.74100 41.07500
C  27.09500 55.77300 40.14300
C  31.89000 55.26600 39.55200
C  32.46100 59.84700 41.38000
C  27.66300 60.34500 41.93100
N  29.57000 55.69400 40.05500
C  28.31200 55.09100 39.81400
C  28.45500 53.71400 39.21300
C  29.96800 53.63100 38.93300
C  30.52700 54.87200 39.60300
C  30.60400 52.21900 39.23200
C  27.53200 53.52900 37.90100
C  27.40900 54.79200 36.95200
H  27.73700 54.68300 35.47600
N  31.88300 57.52500 40.70200
C  32.50500 56.47600 40.07100
C  33.97300 56.75600 40.03300
C  34.14700 58.01000 40.59800
C  32.76500 58.55200 40.87900
C  34.91700 55.68800 39.60300
C  35.48700 58.68700 40.83100
O  36.51900 58.06800 40.57600
C  35.68800 60.13700 41.23800
N  30.03900 59.81800 41.56800
C  31.20600 60.40100 41.70700
C  31.04000 61.89700 41.82900
C  29.57300 62.05500 42.26100
C  29.02100 60.64300 41.87400
C  32.02100 62.70200 42.69800
C  28.88000 63.36700 41.63600
C  27.97600 64.22100 42.58800
N  27.82700 58.01600 41.07700
C  27.06100 59.12200 41.49900
C  25.66600 58.80900 41.25400
C  25.66500 57.45900 40.89000
C  26.98800 57.06000 40.72700
C  24.47900 59.71200 41.36700
C  24.76200 56.46600 40.46100
O  23.52100 56.45000 40.44400
C  25.64900 55.25900 39.94400
C  25.38200 54.15700 40.84600
O  25.73000 54.15500 42.03900
O  24.82000 53.08800 40.23300
C  24.57900 51.88100 41.07800
H  32.59800 54.57700 39.08600
H  33.30800 60.53600 41.34900
H  27.00700 61.20200 42.09700
H  28.19200 53.02000 40.01100
H  30.07000 53.71200 37.85100
H  30.19800 51.56600 38.45900
H  30.22800 51.80400 40.16800
H  31.68900 52.30100 39.18000
H  26.52000 53.29200 38.22700
H  27.87000 52.72400 37.24900
H  28.22300 55.42500 37.30400
H  26.49200 55.38200 36.93700
H  35.96900 55.97500 39.58500
H  34.66800 55.25800 38.63200
H  34.81800 54.87600 40.32300
H  35.36700 60.73600 40.38600
H  36.75200 60.37000 41.27800
H  35.17200 60.35600 42.17200
H  31.21600 62.31000 40.83600
H  29.67600 62.07800 43.34600
H  32.29100 63.65800 42.24900
H  32.97100 62.18100 42.81400
H  31.72600 62.86000 43.73500
H  28.21500 63.12200 40.80800
H  29.69200 63.97300 41.23400
H  27.02100 64.42800 42.10400
H  28.51200 65.14300 42.81000
H  27.70900 63.69500 43.50400
H  24.23500 60.13300 40.39200
H  24.66100 60.48300 42.11600
H  23.65700 59.05100 41.64200
H  25.46400 55.07700 38.88500
H  25.29200 51.07100 40.92300
H  23.58800 51.47000 40.88500
H  24.61900 52.01600 42.15900

