158

Mg 25.65000 -5.39900 46.77000
C  27.25700 -2.74700 44.87000
C  22.99400 -5.05800 44.63700
C  24.60400 -8.43700 47.95400
C  28.64400 -5.69800 48.64200
N  25.25400 -4.17100 44.71300
C  26.03000 -3.12800 44.24400
C  25.25000 -2.42800 43.12800
C  23.88600 -3.10800 43.03500
C  23.93000 -4.11600 44.23700
C  22.60500 -2.21100 43.16900
C  26.04100 -2.34600 41.83700
C  26.03000 -0.94000 41.17500
H  25.12200 -0.92500 39.89800
N  24.01700 -6.57500 46.39100
C  23.02800 -6.16700 45.59500
C  21.93700 -7.08800 45.71300
C  22.31000 -8.05100 46.65500
C  23.71300 -7.73800 47.09100
C  20.62500 -6.98400 45.02800
C  21.46400 -9.18000 47.29500
O  20.31100 -9.43000 46.85200
C  21.92300 -10.10800 48.41100
N  26.48200 -6.81400 48.14800
C  25.82900 -7.98800 48.48200
C  26.74200 -8.97300 49.22600
C  27.95600 -8.08400 49.52600
C  27.72400 -6.78500 48.73400
C  26.14300 -9.71900 50.42700
C  29.27700 -8.69900 49.12300
C  30.45600 -8.30200 49.98400
N  27.44400 -4.30500 46.96100
C  28.53300 -4.51700 47.76900
C  29.47700 -3.48100 47.65300
C  29.00800 -2.76700 46.49800
C  27.74500 -3.30600 46.09500
C  30.76300 -3.20400 48.49600
C  29.35500 -1.70200 45.55000
O  30.27900 -0.88400 45.56000
C  28.19800 -1.66300 44.43100
C  27.54000 -0.29300 44.38500
O  27.94500 0.59200 43.66300
O  26.62800 -0.18400 45.43200
C  26.01200 1.15700 45.53200
H  22.09500 -4.79100 44.07700
H  24.36700 -9.46300 48.24300
H  29.57800 -5.68800 49.20700
H  25.04500 -1.46600 43.59800
H  23.83600 -3.58500 42.05600
H  22.20300 -2.12100 42.16000
H  22.91000 -1.19700 43.42800
H  21.93000 -2.62900 43.91600
H  25.75100 -3.09900 41.10500
H  27.07600 -2.51000 42.13800
H  27.07500 -0.79200 40.90100
H  25.86100 -0.26700 42.01500
H  20.57800 -6.90800 43.94200
H  20.28200 -5.99900 45.34300
H  19.80100 -7.65200 45.28200
H  22.44800 -9.67000 49.26100
H  22.56300 -10.80800 47.87400
H  21.08100 -10.70000 48.76900
H  26.95200 -9.74100 48.48100
H  27.99500 -7.90700 50.60100
H  26.18500 -10.76600 50.12600
H  25.14400 -9.33800 50.63600
H  26.74700 -9.64000 51.33100
H  29.56300 -8.38800 48.11800
H  29.17500 -9.76900 49.30000
H  31.26900 -7.98000 49.33300
H  30.95400 -9.07500 50.56900
H  30.12500 -7.47900 50.61700
H  31.34100 -4.12300 48.59200
H  30.35500 -2.93000 49.46900
H  31.36300 -2.34700 48.18900
H  28.70900 -1.85700 43.48800
H  25.14400 1.12800 44.87300
H  26.70900 1.94200 45.24000
H  25.59600 1.41100 46.50700
Mg -11.83900 37.84800 42.03400
C  -9.57800 35.51900 41.05100
C  -9.94800 40.27600 40.55100
C  -14.36300 39.96000 42.60500
C  -14.09900 35.22700 42.79000
N  -10.10400 37.83300 40.75500
C  -9.26800 36.79200 40.55400
C  -7.88800 37.19000 39.94900
C  -7.98200 38.74500 40.05600
C  -9.47500 38.97900 40.50700
C  -6.90600 39.35900 40.95700
C  -7.79000 36.57900 38.50700
C  -6.53800 35.80500 38.04800
H  -5.62000 36.44100 36.94600
N  -12.09400 39.87200 41.74400
C  -11.21200 40.66400 41.09100
C  -11.72800 42.03000 41.21300
C  -12.94700 42.02200 41.82800
C  -13.21400 40.61100 42.07100
C  -10.87100 43.15000 40.88800
C  -13.84800 43.21800 42.27100
O  -13.50000 44.34900 41.99000
C  -15.12700 43.01800 43.05100
N  -13.93600 37.58300 42.47100
C  -14.72400 38.63700 42.74000
C  -16.17900 38.26000 43.14000
C  -16.12800 36.69300 43.15000
C  -14.67900 36.50500 42.68100
C  -16.59300 38.86400 44.52500
C  -17.06400 36.12500 42.09200
C  -16.78200 36.52200 40.52800
N  -11.83000 35.78500 42.00000
C  -12.76100 34.84600 42.49900
C  -12.08100 33.57900 42.64800
C  -10.86100 33.71900 41.99600
C  -10.76800 35.10600 41.69500
C  -12.71000 32.30200 43.13300
C  -9.72600 33.09000 41.37400
O  -9.53800 31.90600 41.23700
C  -8.77300 34.29400 40.90700
C  -7.57300 34.24200 41.81600
O  -7.45900 35.00300 42.74400
O  -6.74200 33.27400 41.38600
C  -5.46800 33.05900 42.21900
H  -9.16000 40.98300 40.28300
H  -15.16400 40.63900 42.90200
H  -14.87100 34.58000 43.21100
H  -7.09400 36.77900 40.57300
H  -7.83000 39.13900 39.05100
H  -6.40900 38.63400 41.60200
H  -7.40700 40.02900 41.65500
H  -6.25300 39.96100 40.32600
H  -8.02800 37.40100 37.83300
H  -8.60800 35.86100 38.45300
H  -6.77000 34.77100 37.79200
H  -5.88400 35.73400 38.91700
H  -10.87600 43.15000 39.79800
H  -9.89200 42.98600 41.33800
H  -11.16400 44.10500 41.32500
H  -15.85700 42.51900 42.41500
H  -15.63100 43.90800 43.42800
H  -14.84700 42.47900 43.95700
H  -16.88200 38.72000 42.44600
H  -16.36400 36.29700 44.13800
H  -15.85700 39.43000 45.09500
H  -16.79200 38.04000 45.21000
H  -17.46700 39.50600 44.41100
H  -18.09600 36.35100 42.36200
H  -16.91800 35.04700 42.17100
H  -16.11000 37.37600 40.44900
H  -17.73900 36.66300 40.02600
H  -16.31900 35.72800 39.94200
H  -12.56200 31.59500 42.31800
H  -13.77700 32.37400 43.34400
H  -12.03200 32.00200 43.93200
H  -8.48100 34.20700 39.86000
H  -5.55300 32.09500 42.72000
H  -5.22400 33.82200 42.95800
H  -4.63100 32.91600 41.53600

