158

Mg 9.30600 47.56800 26.50900
C  7.36600 47.49400 29.48400
C  11.91500 48.77800 28.24000
C  10.92200 47.29800 23.68500
C  6.27100 46.72300 24.82900
N  9.45900 48.35000 28.54800
C  8.66400 47.99100 29.65700
C  9.28200 48.47500 30.97200
C  10.62600 49.05800 30.55400
C  10.67600 48.74200 29.02100
C  10.79000 50.61200 30.77800
C  9.42500 47.40200 32.13100
C  10.17600 47.86400 33.41000
H  9.61300 47.53900 34.84300
N  11.17600 48.05700 26.00600
C  12.22300 48.44000 26.86800
C  13.42100 48.37300 26.19300
C  13.15500 47.89900 24.80900
C  11.64500 47.79000 24.79700
C  14.74100 48.70900 26.93200
C  14.13600 47.63500 23.73100
O  13.82400 47.53500 22.55700
C  15.57500 47.69900 24.00900
N  8.72600 47.13100 24.47500
C  9.63900 46.86800 23.57600
C  8.98900 46.49200 22.22000
C  7.54800 46.08300 22.67400
C  7.51000 46.68100 24.07500
C  9.03800 47.63700 21.17700
C  7.25400 44.54400 22.61800
C  7.83500 43.52300 23.62800
N  7.24400 47.25300 27.03500
C  6.12900 46.90600 26.20400
C  4.97300 46.76800 26.98400
C  5.41200 46.89100 28.29200
C  6.76100 47.29600 28.27600
C  3.59000 46.36600 26.50900
C  5.03000 46.72800 29.66700
O  3.91800 46.39100 30.11900
C  6.26700 47.19300 30.51500
C  6.55000 46.07500 31.40100
O  7.36800 45.17800 31.17600
O  5.80900 46.17400 32.56500
C  6.24800 45.24400 33.62500
H  12.77800 49.16800 28.78400
H  11.61300 47.10700 22.86100
H  5.44900 46.33300 24.22500
H  8.59800 49.23900 31.34200
H  11.44000 48.50800 31.02500
H  11.62500 50.94100 31.39600
H  9.90400 50.89300 31.34800
H  10.78900 51.13800 29.82300
H  9.89300 46.52600 31.68200
H  8.42800 47.15200 32.49600
H  10.38200 48.93200 33.33800
H  11.16200 47.40800 33.49400
H  14.68700 48.98600 27.98500
H  15.35400 49.49600 26.49300
H  15.37700 47.82500 26.88200
H  15.79600 46.93800 24.75800
H  15.90100 48.60000 24.52800
H  16.22300 47.53700 23.14800
H  9.58200 45.64200 21.88300
H  6.79300 46.56300 22.05200
H  9.54500 48.56300 21.45000
H  8.04000 47.92700 20.85100
H  9.48000 47.25800 20.25500
H  7.47200 44.07400 21.65900
H  6.16800 44.45500 22.62100
H  8.33300 44.08700 24.41600
H  8.34300 42.61900 23.29200
H  6.95100 43.13200 24.13000
H  3.59900 45.76300 25.60000
H  2.96600 47.25900 26.48700
H  3.25000 45.64700 27.25400
H  5.83400 48.06500 31.00400
H  7.17700 45.58000 34.08600
H  6.42200 44.20000 33.36800
H  5.47000 45.25500 34.38900
Mg -12.12000 16.99700 41.83600
C  -9.05700 15.35400 41.33900
C  -10.87500 19.81800 40.35400
C  -15.35000 18.13400 41.45700
C  -13.47900 14.01200 43.06500
N  -10.21100 17.49800 40.92100
C  -9.06800 16.70200 40.88800
C  -7.93300 17.45200 40.23500
C  -8.40300 18.92200 40.27200
C  -9.94900 18.74700 40.43500
C  -7.77900 19.81200 41.32800
C  -7.71500 16.84000 38.78700
C  -6.23700 16.90400 38.23500
H  -5.82500 17.78000 37.01200
N  -13.02100 18.84800 41.13400
C  -12.31500 19.83000 40.63500
C  -13.21300 20.91800 40.41800
C  -14.54100 20.50800 40.72600
C  -14.39600 19.08700 41.06400
C  -12.69000 22.29600 39.97700
C  -15.73900 21.46500 40.84100
O  -15.67900 22.64700 40.47200
C  -17.14500 20.97000 41.31500
N  -14.19900 16.14700 42.09900
C  -15.31600 16.90500 42.01700
C  -16.54400 16.15600 42.52900
C  -15.91600 14.91900 43.20800
C  -14.36600 15.00400 42.78500
C  -17.44100 16.96500 43.50100
C  -16.65700 13.58100 42.93800
C  -17.30500 12.70800 43.95700
N  -11.47100 15.09600 42.15100
C  -12.13300 13.96100 42.71500
C  -11.24900 12.85700 42.78000
C  -10.02900 13.35800 42.24700
C  -10.21300 14.70300 41.87400
C  -11.56900 11.58800 43.42000
C  -8.61500 13.06700 41.91300
O  -7.95500 12.02400 42.00400
C  -7.89200 14.33600 41.28200
C  -6.79000 14.76600 42.13200
O  -6.80300 14.76800 43.32000
O  -5.79200 15.20700 41.33000
C  -4.72800 15.91300 42.05700
H  -10.37000 20.73800 40.05000
H  -16.37400 18.51400 41.46900
H  -14.03000 13.19200 43.52900
H  -7.07000 17.23200 40.86300
H  -8.18100 19.40400 39.31900
H  -7.24200 20.59000 40.78600
H  -7.07500 19.25800 41.94800
H  -8.59000 20.29100 41.87800
H  -8.44900 17.35900 38.17200
H  -8.03400 15.80800 38.64400
H  -5.85200 15.90100 38.05100
H  -5.64300 17.20900 39.09600
H  -13.10600 23.17300 40.47300
H  -12.89600 22.38800 38.91100
H  -11.61000 22.39900 40.07600
H  -17.87000 21.77900 41.40300
H  -16.97600 20.51100 42.28900
H  -17.71600 20.31200 40.66000
H  -17.09900 15.84600 41.64400
H  -15.93800 14.99200 44.29500
H  -17.28900 18.04200 43.57200
H  -17.37900 16.57000 44.51500
H  -18.46800 16.81100 43.17100
H  -15.97600 12.90900 42.41500
H  -17.45600 13.67300 42.20200
H  -17.59500 13.37800 44.76500
H  -16.68800 11.94600 44.43400
H  -18.33400 12.37300 43.82500
H  -11.11600 10.89100 42.71500
H  -12.65700 11.57300 43.48500
H  -11.08100 11.45200 44.38500
H  -7.58600 14.14500 40.25400
H  -4.76600 16.96600 41.77800
H  -3.74900 15.44300 41.96000
H  -4.89500 15.96000 43.13300

