158

Mg -12.96000 16.04100 41.88500
C  -9.93900 14.41200 41.19500
C  -11.73100 18.88000 40.11300
C  -15.97300 17.33500 41.78500
C  -14.13500 12.89600 43.02900
N  -11.09900 16.56200 40.77400
C  -9.95800 15.76200 40.76200
C  -8.71700 16.51300 40.21900
C  -9.32400 17.94100 39.98400
C  -10.82300 17.81900 40.28800
C  -8.68000 19.04800 40.84900
C  -8.25000 15.85700 38.84800
C  -6.70000 15.87500 38.72300
H  -6.21400 16.51800 37.40900
N  -13.77300 17.91600 41.14500
C  -13.08600 18.92400 40.47300
C  -14.03000 20.00300 40.20800
C  -15.23600 19.64600 40.78300
C  -15.06800 18.25900 41.30100
C  -13.51200 21.27600 39.50800
C  -16.47400 20.42700 40.77300
O  -16.44600 21.51200 40.12500
C  -17.79900 19.90800 41.29200
N  -14.76900 15.17900 42.20300
C  -15.88600 15.95000 42.17500
C  -17.14900 15.16800 42.50200
C  -16.61100 13.81200 43.00400
C  -15.04400 13.94300 42.76900
C  -18.16300 15.86100 43.49300
C  -17.26100 12.57400 42.33300
C  -18.35400 11.89200 43.19700
N  -12.25300 14.00900 42.21200
C  -12.82100 12.90300 42.68400
C  -11.85100 11.78200 42.67700
C  -10.70400 12.30700 42.14700
C  -11.02200 13.63100 41.81200
C  -12.11000 10.36600 43.08700
C  -9.36900 12.10600 41.73400
O  -8.63200 11.08900 41.80900
C  -8.79200 13.44100 41.20200
C  -7.59400 13.99500 41.88600
O  -7.46900 14.50600 43.00800
O  -6.47900 13.59900 41.11200
C  -5.18600 13.84000 41.81900
H  -11.31400 19.75400 39.60900
H  -17.04300 17.54600 41.73900
H  -14.62500 12.03300 43.48200
H  -7.95900 16.37200 40.99100
H  -9.34800 18.21000 38.92800
H  -9.19500 19.16500 41.80200
H  -8.64600 19.94100 40.22500
H  -7.75800 18.59300 41.21200
H  -8.64700 16.30200 37.93500
H  -8.53400 14.80400 38.84200
H  -6.32500 14.85200 38.75300
H  -6.24400 16.46300 39.52000
H  -13.42400 21.08800 38.43800
H  -12.48600 21.48200 39.81200
H  -13.99800 22.23900 39.66800
H  -18.29500 19.20200 40.62700
H  -18.44800 20.78400 41.29400
H  -17.76900 19.58400 42.33200
H  -17.68400 15.02600 41.56300
H  -16.64300 13.72600 44.09000
H  -17.49000 16.62900 43.87600
H  -18.44400 15.29500 44.38100
H  -18.97700 16.33300 42.94200
H  -16.52300 11.92600 41.86000
H  -17.89600 12.91500 41.51600
H  -18.41500 10.80400 43.17100
H  -19.36200 11.91100 42.78300
H  -18.33800 12.31900 44.20000
H  -11.14600 9.88200 43.24000
H  -12.59100 9.98100 42.18800
H  -12.87100 10.21800 43.85400
H  -8.48300 13.08100 40.22000
H  -4.91000 14.88600 41.68300
H  -4.48800 13.08300 41.46000
H  -5.17800 13.72900 42.90300
Mg -5.83400 24.71500 26.32000
C  -4.89900 26.44000 29.23000
C  -7.66400 22.64400 28.30900
C  -6.53800 22.78300 23.59900
C  -3.49300 26.49400 24.43900
N  -6.17900 24.54900 28.49100
C  -5.67400 25.37800 29.47400
C  -6.37200 25.13200 30.82800
C  -7.13200 23.81200 30.52500
C  -6.99600 23.63500 29.03000
C  -6.60600 22.54700 31.31600
C  -7.26200 26.36000 31.27200
C  -7.04500 26.69800 32.83000
H  -6.55100 25.66800 33.80900
N  -7.09000 23.12100 25.98800
C  -7.79300 22.38400 26.96800
C  -8.67500 21.36900 26.34400
C  -8.25600 21.39700 24.92800
C  -7.27200 22.46100 24.74900
C  -9.53800 20.55300 27.14000
C  -8.68200 20.45600 23.83800
O  -8.22900 20.40300 22.72200
C  -9.74400 19.47900 24.12700
N  -5.05700 24.64400 24.32500
C  -5.50700 23.67000 23.43800
C  -4.71200 23.76900 22.10500
C  -3.99500 25.16900 22.27100
C  -4.15600 25.47400 23.73100
C  -3.93700 22.53900 21.84000
C  -4.62800 26.38500 21.39900
C  -3.65100 27.02900 20.40300
N  -4.46700 26.11100 26.73000
C  -3.63200 26.87900 25.81100
C  -3.00700 27.97000 26.49000
C  -3.51700 27.82500 27.79800
C  -4.36800 26.68400 27.94000
C  -2.08000 29.05800 25.90000
C  -3.45300 28.39900 29.13200
O  -2.93200 29.40300 29.50600
C  -4.33200 27.53800 30.10900
C  -3.35900 26.88500 31.07700
O  -2.48000 26.01400 30.85000
O  -3.65000 27.49400 32.32300
C  -2.75300 27.20600 33.42400
H  -8.26300 22.01600 28.97200
H  -6.81500 22.31200 22.65300
H  -2.94100 27.13000 23.74400
H  -5.48900 25.09000 31.46600
H  -8.17900 23.99700 30.76200
H  -6.55400 21.68900 30.64600
H  -7.24300 22.45200 32.19500
H  -5.57900 22.76400 31.61100
H  -8.29700 26.06100 31.10400
H  -7.00200 27.21500 30.64800
H  -7.95600 27.17800 33.18700
H  -6.34700 27.53100 32.91900
H  -10.57800 20.64600 26.82600
H  -9.58800 20.90200 28.17200
H  -9.40700 19.47200 27.07500
H  -10.00500 19.08800 23.14400
H  -10.52600 20.04700 24.63100
H  -9.49900 18.71700 24.86700
H  -5.34800 23.95600 21.24000
H  -2.94700 25.14900 21.97100
H  -2.85800 22.65900 21.93500
H  -4.17400 22.25900 20.81400
H  -4.09600 21.73400 22.55900
H  -4.84900 27.25100 22.02200
H  -5.53800 26.06000 20.89500
H  -4.23000 27.33200 19.53000
H  -2.83800 26.35000 20.14600
H  -3.17500 27.92800 20.79500
H  -2.51800 29.58300 25.05200
H  -1.10200 28.64400 25.65400
H  -1.78900 29.78300 26.66000
H  -5.07500 28.13400 30.63900
H  -3.27400 26.70300 34.23800
H  -2.38900 28.15300 33.82200
H  -1.89500 26.58100 33.17600

