158

Mg 35.37000 0.40700 29.63900
C  33.42200 1.35300 32.33400
C  38.02700 0.01100 31.88300
C  37.40300 0.21200 27.05700
C  32.72500 0.94800 27.46200
N  35.68200 0.72700 31.90200
C  34.70800 1.07400 32.80400
C  35.21000 0.95800 34.25200
C  36.83700 0.81400 34.10700
C  36.84700 0.49500 32.54700
C  37.71300 2.00800 34.56400
C  34.38600 -0.18600 35.05700
C  33.82300 0.26100 36.48500
H  34.54600 1.40400 37.19800
N  37.41900 -0.04400 29.50300
C  38.32700 -0.22000 30.49900
C  39.59200 -0.64400 29.89200
C  39.41100 -0.50800 28.49800
C  38.05200 -0.02400 28.31400
C  40.80900 -0.92300 30.72500
C  40.41700 -0.76400 27.35700
O  40.20700 -0.70000 26.18100
C  41.90700 -0.96600 27.72900
N  35.08000 0.41900 27.59500
C  36.06000 0.40800 26.69100
C  35.60000 0.40200 25.22000
C  34.02500 0.47400 25.35900
C  33.90500 0.55900 26.88700
C  36.17500 1.59200 24.37800
C  33.29400 -0.74000 24.66000
C  33.18600 -1.96600 25.54700
N  33.48800 0.96500 29.78500
C  32.46800 0.99100 28.88400
C  31.21200 1.36400 29.47700
C  31.55700 1.59800 30.82500
C  32.87000 1.27400 30.99400
C  29.91400 1.59000 28.72500
C  31.05600 1.93200 32.08300
O  29.89000 2.20600 32.40000
C  32.19400 1.71000 33.14400
C  32.39100 2.93300 33.94100
O  33.27000 3.74600 33.77300
O  31.39200 3.08400 34.93000
C  31.40900 4.33300 35.66500
H  38.86800 -0.02700 32.57900
H  37.90100 0.11600 26.08900
H  31.86100 1.11400 26.81600
H  34.93100 1.90700 34.71100
H  37.21500 -0.08800 34.58900
H  37.10300 2.69100 35.15400
H  37.92000 2.57300 33.65500
H  38.55400 1.83400 35.23600
H  35.08400 -0.98100 35.32100
H  33.61100 -0.72000 34.50700
H  33.98600 -0.48500 37.26300
H  32.77100 0.53500 36.41100
H  41.39300 -1.73300 30.28800
H  40.58400 -1.11600 31.77400
H  41.27300 0.06100 30.66600
H  41.99700 -0.30300 28.59000
H  42.64500 -0.65000 26.99200
H  42.22000 -1.99800 27.89200
H  35.81800 -0.60400 24.86100
H  33.59100 1.40800 25.00100
H  37.02400 1.97400 24.94500
H  35.46800 2.37100 24.09400
H  36.55100 1.19300 23.43600
H  33.90400 -0.92200 23.77400
H  32.35300 -0.35500 24.26800
H  33.48800 -2.76400 24.86900
H  32.13300 -2.22500 25.66600
H  33.84500 -2.11300 26.40300
H  29.59000 0.67500 28.23000
H  30.12000 2.31200 27.93400
H  29.15900 1.94200 29.42800
H  31.88800 0.92600 33.83700
H  30.70700 4.26700 36.49600
H  31.00600 5.14700 35.06200
H  32.39400 4.65700 36.00000
Mg 46.46200 15.66700 27.82400
C  44.48200 15.48300 30.76200
C  48.39900 18.09600 29.40600
C  48.32000 15.98600 25.07100
C  44.18200 13.65500 26.21700
N  46.37500 16.75100 29.80700
C  45.60800 16.33000 30.88100
C  46.04100 17.07700 32.14800
C  47.03600 18.17300 31.65300
C  47.31000 17.66800 30.19900
C  46.58900 19.63000 31.63100
C  46.66100 16.07400 33.19500
C  46.50800 16.63300 34.60900
H  47.66200 16.41800 35.53300
N  48.20000 16.76500 27.36700
C  48.80700 17.73300 28.12800
C  49.93800 18.27800 27.37800
C  49.96200 17.68800 26.13900
C  48.80400 16.75400 26.15500
C  50.71200 19.46000 27.87000
C  51.00500 17.79900 25.01100
O  50.95100 17.24500 23.93400
C  52.28500 18.62900 25.27800
N  46.25900 15.01500 25.89200
C  47.20800 15.20500 24.93600
C  46.80600 14.49500 23.63300
C  45.78900 13.49200 24.10900
C  45.31000 14.10000 25.50200
C  46.34100 15.45800 22.44600
C  46.26500 12.04200 24.22200
C  47.28200 11.71100 25.28900
N  44.66400 14.84100 28.29100
C  43.81400 14.02100 27.52300
C  42.70600 13.51300 28.30700
C  42.96100 14.02700 29.62200
C  44.15800 14.89300 29.51200
C  41.56700 12.59500 28.00700
C  42.45700 14.09200 30.94000
O  41.42700 13.59000 31.50500
C  43.45800 14.91900 31.75500
C  42.74000 15.94300 32.58800
O  42.28700 16.98500 32.10700
O  42.81100 15.56600 33.91700
C  42.22300 16.52800 34.87300
H  49.02700 18.78000 29.98000
H  48.69100 16.13000 24.05400
H  43.63300 12.82400 25.76800
H  45.20100 17.60200 32.60200
H  48.01400 18.09200 32.12600
H  47.44300 20.25000 31.90400
H  45.74700 19.79500 32.30300
H  46.30200 19.97300 30.63700
H  47.72400 16.00400 32.96200
H  46.26600 15.06200 33.29000
H  45.56200 16.35000 35.07000
H  46.56700 17.71100 34.46300
H  51.72400 19.15300 28.13400
H  50.18600 19.95800 28.68500
H  50.89000 20.25000 27.14000
H  52.00600 19.68200 25.25500
H  52.87500 18.45700 24.37800
H  52.96700 18.26700 26.04700
H  47.68500 13.96000 23.27600
H  44.94600 13.58300 23.42500
H  46.85000 15.31300 21.49300
H  46.63100 16.48400 22.67200
H  45.27200 15.43000 22.23300
H  46.60600 11.63800 23.26800
H  45.41800 11.36900 24.35000
H  48.21700 11.48900 24.77400
H  46.98200 10.83500 25.86500
H  47.52500 12.51300 25.98600
H  40.71400 13.17700 27.65800
H  41.22100 12.04800 28.88400
H  41.87300 11.92300 27.20400
H  43.89000 14.17400 32.42300
H  41.23100 16.91200 34.63300
H  42.88700 17.34300 35.16300
H  41.94500 15.87300 35.69800

