158

Mg 0.28500 44.37000 27.33000
C  2.62300 43.68200 29.67400
C  -2.22000 43.34300 29.50500
C  -2.16800 44.85200 24.86700
C  2.73600 44.84000 24.84500
N  0.23100 43.58900 29.20200
C  1.28700 43.63100 30.10900
C  0.86600 43.65700 31.61000
C  -0.57200 43.08400 31.44900
C  -0.89600 43.37100 29.99500
C  -0.80100 41.56300 31.94900
C  0.96800 45.07100 32.25800
C  1.34800 45.17600 33.77100
H  1.20200 43.88400 34.63100
N  -1.89400 44.16700 27.17000
C  -2.69700 43.69600 28.20100
C  -4.07800 43.59700 27.74500
C  -4.07100 44.07900 26.39000
C  -2.67700 44.43400 26.09200
C  -5.23000 43.05900 28.61900
C  -5.22800 44.33700 25.48100
O  -5.16800 45.05400 24.50300
C  -6.61700 43.74100 25.75300
N  0.32200 44.92600 25.17800
C  -0.83400 45.06000 24.48200
C  -0.48800 45.27400 22.97500
C  1.03600 45.36800 22.89800
C  1.42500 45.03000 24.36100
C  -1.14100 44.17800 22.07200
C  1.42200 46.71700 22.27800
C  1.33600 48.03700 23.09300
N  2.29100 44.31900 27.22000
C  3.22300 44.50300 26.17700
C  4.48100 44.24200 26.78200
C  4.28800 43.99400 28.14900
C  2.93700 43.94000 28.36400
C  5.73600 44.21100 25.99500
C  5.00500 43.91700 29.39700
O  6.20400 43.83300 29.64600
C  3.85800 43.79600 30.48700
C  4.04700 42.62500 31.32800
O  3.55800 41.53600 31.22200
O  4.88100 42.99700 32.35300
C  5.19600 41.95400 33.36800
H  -2.94000 42.90000 30.19600
H  -2.93500 44.93400 24.09400
H  3.49500 45.17000 24.13400
H  1.46000 42.97700 32.22100
H  -1.26500 43.74500 31.97000
H  0.13700 41.10100 32.25400
H  -1.30200 40.91400 31.23000
H  -1.51000 41.58300 32.77600
H  -0.01500 45.50700 32.07700
H  1.87300 45.43300 31.77100
H  0.85700 46.04900 34.20100
H  2.41100 45.41600 33.75000
H  -5.90600 42.29700 28.23200
H  -5.84700 43.87800 28.98900
H  -4.85000 42.57500 29.51900
H  -6.60600 42.66700 25.56400
H  -7.34500 44.32000 25.18600
H  -6.87300 43.83700 26.80900
H  -0.94000 46.21100 22.65200
H  1.43900 44.65800 22.17600
H  -1.52500 43.40100 22.73200
H  -0.39100 43.72300 21.42400
H  -1.91200 44.71200 21.51700
H  0.90100 46.87200 21.33300
H  2.48800 46.61000 22.07700
H  0.78000 48.87300 22.66900
H  2.37800 48.31500 23.24800
H  0.99800 47.71300 24.07700
H  6.42700 43.77000 26.71300
H  5.84000 45.26000 25.71500
H  5.61600 43.46800 25.20700
H  3.89900 44.70400 31.08900
H  5.93500 41.30300 32.90100
H  4.34100 41.40700 33.76600
H  5.59800 42.33000 34.30900
Mg -6.09700 25.44500 25.85600
C  -4.41600 26.87400 28.60600
C  -7.19600 22.99400 28.00900
C  -6.82100 23.48500 23.16300
C  -4.25100 27.65200 23.80200
N  -5.77300 25.03500 28.09000
C  -5.28800 25.89000 29.02600
C  -5.62100 25.50900 30.43700
C  -6.27300 24.06800 30.18800
C  -6.41200 24.00800 28.63900
C  -5.41700 22.85300 30.81500
C  -6.67500 26.44800 31.09900
C  -6.64900 26.72000 32.62500
H  -5.84400 25.78400 33.53700
N  -6.95200 23.58900 25.65200
C  -7.46000 22.79300 26.65000
C  -8.21000 21.69500 26.10000
C  -8.03700 21.75200 24.69400
C  -7.20800 22.98200 24.48100
C  -8.94000 20.63200 26.90400
C  -8.44800 20.80500 23.59300
O  -8.19500 21.01200 22.44900
C  -9.26200 19.46000 23.86800
N  -5.52400 25.49600 23.74600
C  -6.04100 24.64800 22.84000
C  -5.58700 24.98000 21.45300
C  -4.99100 26.45500 21.60300
C  -4.88500 26.54800 23.14400
C  -4.55300 23.89500 20.87100
C  -5.81500 27.66500 21.01300
C  -5.01200 28.50700 19.92400
N  -4.67500 27.00300 26.10700
C  -4.04200 27.80000 25.17300
C  -3.27600 28.83600 25.83600
C  -3.42700 28.53300 27.16400
C  -4.17700 27.37700 27.28800
C  -2.43500 29.97000 25.20300
C  -2.92200 28.95600 28.54000
O  -2.17700 29.82700 28.92100
C  -3.58500 27.82800 29.47900
C  -2.44700 27.06000 30.01800
O  -1.64300 26.42100 29.39000
O  -2.38200 27.07100 31.41700
C  -1.27600 26.47400 32.18300
H  -7.53700 22.20100 28.67800
H  -6.95200 22.89300 22.25500
H  -3.78200 28.33200 23.08700
H  -4.69500 25.42500 31.00600
H  -7.30400 24.06900 30.54000
H  -4.78100 22.26000 30.15800
H  -6.18600 22.21300 31.24800
H  -4.87000 23.33300 31.62700
H  -7.71900 26.31600 30.81300
H  -6.50000 27.42800 30.65500
H  -7.65800 26.89500 32.99700
H  -6.18700 27.69700 32.76800
H  -8.26700 19.79400 27.08900
H  -9.84600 20.22100 26.45800
H  -9.21900 21.09900 27.84900
H  -8.69400 18.80600 24.53000
H  -9.37600 18.76900 23.03200
H  -10.21000 19.65700 24.36800
H  -6.38200 25.07300 20.71400
H  -3.97600 26.49800 21.20600
H  -4.22400 23.46400 21.81700
H  -3.73400 24.29700 20.27500
H  -5.05500 23.14000 20.26700
H  -6.12100 28.22700 21.89500
H  -6.60700 27.22600 20.40600
H  -5.66400 29.24800 19.46100
H  -4.40900 27.85400 19.29300
H  -4.28900 29.11800 20.46500
H  -1.96500 29.55800 24.31000
H  -1.85200 30.62400 25.85000
H  -3.24400 30.60100 24.83300
H  -4.22800 28.17900 30.28600
H  -0.99900 25.51400 31.74500
H  -1.76800 26.23500 33.12600
H  -0.46600 27.14500 32.46400

