158

Mg 31.22800 58.09200 40.43400
C  28.51200 56.12100 39.40300
C  33.28200 55.57600 39.34000
C  33.87300 60.10400 40.85400
C  28.99100 60.80400 40.60000
N  30.86700 56.08300 39.49100
C  29.70200 55.48300 39.12300
C  29.89800 54.25800 38.30500
C  31.40300 53.90200 38.59000
C  31.88800 55.26600 39.19900
C  31.57000 52.72300 39.55500
C  29.57700 54.58400 36.75900
C  28.45600 53.78900 35.99700
H  27.47000 54.58000 35.14500
N  33.31700 57.83400 40.32200
C  33.89300 56.77500 39.79800
C  35.35600 56.94100 39.86000
C  35.60000 58.23200 40.32000
C  34.26600 58.78300 40.62000
C  36.34600 55.88500 39.52200
C  36.97400 58.84800 40.58600
O  37.95300 58.24500 40.26500
C  37.11800 60.22600 41.06100
N  31.32200 60.12600 40.69400
C  32.57000 60.74500 40.93000
C  32.46500 62.26900 40.95800
C  30.89400 62.41400 41.07000
C  30.34900 61.05200 40.75900
C  33.18700 63.12900 42.00400
C  30.23400 63.45800 40.08300
C  29.22300 64.44300 40.82500
N  29.13500 58.42500 40.14300
C  28.35900 59.55900 40.28000
C  26.96800 59.28100 40.06500
C  26.96900 57.89800 39.76400
C  28.32200 57.43300 39.83500
C  25.77300 60.22800 40.14000
C  26.07900 56.76500 39.40100
O  24.91400 56.73000 39.22500
C  27.10300 55.55900 39.08300
C  26.65600 54.33100 39.78900
O  26.66100 54.20500 41.03800
O  26.27900 53.40200 38.91600
C  25.64200 52.24100 39.42500
H  33.79700 54.62100 39.21800
H  34.74700 60.73400 41.03300
H  28.23300 61.58500 40.69300
H  29.16600 53.52300 38.63800
H  31.95900 53.56400 37.71600
H  31.95400 52.95200 40.54900
H  32.21800 51.98200 39.08800
H  30.63800 52.15900 39.60100
H  30.55100 54.49800 36.27900
H  29.26100 55.62400 36.67400
H  27.99600 53.24300 36.82100
H  28.89100 53.00900 35.37200
H  37.02300 55.71800 40.35900
H  36.98900 56.11400 38.67200
H  35.85000 54.93100 39.34600
H  36.56900 60.30100 41.99900
H  36.77200 60.83700 40.22700
H  38.16600 60.50100 41.17800
H  32.75600 62.52300 39.93800
H  30.54900 62.70000 42.06400
H  33.51600 63.95400 41.37300
H  34.05200 62.54400 42.31600
H  32.64900 63.40000 42.91300
H  29.70500 63.14200 39.18400
H  30.96900 64.13000 39.64000
H  28.89200 64.05900 41.79000
H  28.29600 64.47300 40.25200
H  29.71900 65.38300 41.06800
H  25.00500 59.85700 39.46100
H  26.01500 61.24300 39.82400
H  25.39600 60.09700 41.15500
H  27.10900 55.42800 38.00100
H  24.69700 52.39000 39.94800
H  26.25300 51.70600 40.15200
H  25.44700 51.56000 38.59700
Mg -10.41600 40.21000 42.42500
C  -9.45400 36.98400 41.51100
C  -7.60600 41.34700 40.56700
C  -11.58000 43.35700 42.47100
C  -13.50100 38.94500 43.30400
N  -8.85700 39.26200 40.92200
C  -8.59500 37.89900 40.95100
C  -7.28700 37.57100 40.18400
C  -6.53300 39.00900 40.19200
C  -7.75900 39.92600 40.61300
C  -5.29300 39.20400 41.15100
C  -7.59000 37.04100 38.76800
C  -6.82800 35.84000 38.15000
H  -5.75400 36.13300 37.13900
N  -9.61500 42.06400 41.74800
C  -8.48100 42.29400 41.02300
C  -8.24500 43.77700 41.02000
C  -9.35000 44.40400 41.66900
C  -10.23900 43.27600 41.97800
C  -7.10900 44.40200 40.26800
C  -9.53300 45.93100 41.84500
O  -8.81700 46.80400 41.35100
C  -10.62400 46.41900 42.63100
N  -12.34400 41.06900 42.83500
C  -12.58100 42.33000 42.86600
C  -14.09000 42.55500 43.16500
C  -14.53400 41.16500 43.73200
C  -13.41400 40.32400 43.20800
C  -14.49600 43.80600 44.09800
C  -16.01200 40.76500 43.32600
C  -16.90000 40.27200 44.48500
N  -11.32200 38.29500 42.53900
C  -12.55000 37.93400 42.97800
C  -12.65100 36.50600 42.97600
C  -11.53800 36.04600 42.35800
C  -10.70200 37.22600 42.13900
C  -13.78100 35.64300 43.49900
C  -10.76400 34.93200 41.78400
O  -11.06100 33.73500 41.72700
C  -9.38400 35.49100 41.21800
C  -8.25900 34.78300 41.91100
O  -7.77400 35.09800 42.98400
O  -7.84000 33.72400 41.20100
C  -6.77600 32.86300 41.71600
H  -6.73500 41.66900 39.99200
H  -12.10300 44.31500 42.47300
H  -14.45800 38.46700 43.52500
H  -6.57700 36.93200 40.71000
H  -6.23300 39.25600 39.17300
H  -4.58300 38.45200 40.80300
H  -5.61300 38.96700 42.16500
H  -5.02800 40.25900 41.08000
H  -7.45200 37.88600 38.09300
H  -8.65600 36.81800 38.72100
H  -7.54300 35.19300 37.64100
H  -6.35200 35.36200 39.00600
H  -7.25600 44.48700 39.19100
H  -6.19800 43.81200 40.37000
H  -6.85200 45.37200 40.69400
H  -10.72800 45.80500 43.52500
H  -11.55900 46.32700 42.07800
H  -10.45000 47.45000 42.93800
H  -14.52200 42.59500 42.16500
H  -14.33900 41.12300 44.80400
H  -13.64400 44.47300 44.23200
H  -14.72300 43.55400 45.13400
H  -15.31700 44.29600 43.57600
H  -15.98600 40.03200 42.52000
H  -16.59100 41.63900 43.02700
H  -16.29400 40.01600 45.35400
H  -17.36400 39.35000 44.13400
H  -17.67100 41.02600 44.64900
H  -14.20600 35.96400 44.45000
H  -13.42900 34.61400 43.56800
H  -14.57300 35.69100 42.75200
H  -9.49400 35.20900 40.17100
H  -7.09800 32.15100 42.47600
H  -6.03500 33.46200 42.24600
H  -6.20400 32.42900 40.89700

