158

Mg 26.24900 -0.64300 29.59700
C  28.00500 -0.85100 32.57000
C  23.38400 -0.53900 31.32100
C  24.54500 -0.60800 26.61700
C  29.11700 -1.40400 27.85200
N  25.72700 -0.74000 31.66900
C  26.64200 -0.64400 32.72100
C  25.86700 -0.36600 34.07400
C  24.40200 -0.47100 33.64800
C  24.48800 -0.62800 32.11900
C  23.45200 -1.57200 34.36500
C  26.29100 1.05500 34.66900
C  27.04200 1.12000 35.97800
H  26.55800 2.01800 37.11300
N  24.18800 -0.62900 29.05000
C  23.17300 -0.55100 29.93600
C  21.93100 -0.54000 29.18000
C  22.28500 -0.45800 27.85000
C  23.71500 -0.64500 27.75900
C  20.59700 -0.66700 29.87800
C  21.35000 -0.36400 26.68200
O  21.83400 -0.32700 25.52800
C  19.86200 -0.12600 26.86500
N  26.69400 -1.26700 27.52100
C  25.89800 -0.89600 26.50700
C  26.65000 -0.71000 25.13700
C  27.99100 -1.31100 25.51500
C  27.94600 -1.26700 27.06300
C  26.00200 -1.50700 23.97600
C  29.22900 -0.67600 24.88000
C  29.61300 0.72400 25.33400
N  28.20000 -1.06300 30.06100
C  29.30600 -1.27100 29.25400
C  30.48400 -1.48200 30.05900
C  30.07800 -1.25700 31.34800
C  28.65700 -1.07000 31.32100
C  31.81100 -1.97800 29.56700
C  30.46700 -1.16900 32.75400
O  31.58600 -1.37000 33.21800
C  29.16400 -0.79700 33.66100
C  29.11800 -1.85100 34.70900
O  28.87500 -3.07700 34.57600
O  29.38400 -1.27100 35.92100
C  29.58400 -2.21800 37.03500
H  22.47200 -0.21800 31.82900
H  24.16500 -0.48000 25.60100
H  30.01500 -1.70300 27.30600
H  26.12600 -1.21300 34.70900
H  23.85600 0.46200 33.78700
H  22.82600 -1.99600 33.58000
H  22.72200 -1.11200 35.03200
H  24.00800 -2.39600 34.81000
H  25.46200 1.76000 34.73700
H  26.97300 1.35300 33.87200
H  28.07700 1.38100 35.76000
H  26.95000 0.08200 36.29600
H  19.97700 -1.37900 29.33300
H  20.16300 0.32900 29.96700
H  20.63200 -1.05100 30.89800
H  19.23700 0.01800 25.98400
H  19.82800 0.68800 27.58800
H  19.43800 -0.91100 27.49100
H  26.76500 0.36400 24.99200
H  27.99700 -2.39100 25.36800
H  25.35200 -0.80800 23.45100
H  25.32700 -2.30100 24.29600
H  26.72600 -1.87000 23.24700
H  29.02600 -0.55500 23.81600
H  30.14800 -1.25800 24.94900
H  30.59500 0.54500 25.77100
H  28.89900 1.02600 26.10000
H  29.62000 1.44300 24.51400
H  31.84000 -2.11700 28.48700
H  31.89500 -2.97800 29.99300
H  32.58100 -1.35400 30.02100
H  29.23400 0.20000 34.09800
H  29.73600 -3.24800 36.71300
H  28.71100 -2.19800 37.68700
H  30.42900 -1.77000 37.55800
Mg -5.68700 25.87600 26.06300
C  -3.84100 27.08400 28.68700
C  -6.97100 23.44000 28.26700
C  -7.20900 24.57900 23.43900
C  -3.56700 27.61500 23.82100
N  -5.39800 25.32300 28.14800
C  -4.79900 26.15500 29.03100
C  -5.16900 25.77300 30.52200
C  -5.88600 24.39000 30.35600
C  -6.05000 24.36100 28.85100
C  -5.19100 23.16600 31.01300
C  -5.92300 26.88700 31.21600
C  -5.75600 27.04600 32.74300
H  -5.28900 25.88500 33.51600
N  -6.89500 24.22300 25.91200
C  -7.39500 23.40100 26.89400
C  -8.40900 22.60300 26.29200
C  -8.54300 23.01200 24.93000
C  -7.45700 23.95300 24.72300
C  -9.21700 21.51700 27.20100
C  -9.50800 22.44500 23.95300
O  -9.49300 22.84700 22.78200
C  -10.56400 21.39100 24.24700
N  -5.27300 25.91500 23.88400
C  -6.22900 25.44100 23.07700
C  -6.10000 26.03600 21.66400
C  -4.69900 26.76700 21.72800
C  -4.51700 26.82600 23.24400
C  -6.31700 24.90600 20.59400
C  -4.84200 28.14400 20.99800
C  -5.19500 28.07700 19.52000
N  -4.11900 27.10800 26.14200
C  -3.33100 27.81800 25.16600
C  -2.49200 28.79500 25.80500
C  -2.70400 28.59600 27.19800
C  -3.62900 27.50200 27.32000
C  -1.73500 29.84000 25.15100
C  -2.35200 29.05600 28.52700
O  -1.63400 30.04100 28.85300
C  -3.02700 28.09600 29.57300
C  -2.04900 27.40700 30.39000
O  -1.34900 26.44300 30.08500
O  -2.10900 27.83100 31.72300
C  -1.21900 27.07200 32.61400
H  -7.43700 22.70500 28.92600
H  -7.83500 24.35000 22.57400
H  -2.95300 28.22200 23.15300
H  -4.18500 25.53000 30.92400
H  -6.91500 24.34900 30.71200
H  -5.55300 23.00700 32.02900
H  -4.11500 23.33200 30.96600
H  -5.43100 22.34500 30.33700
H  -6.99100 26.87200 30.99600
H  -5.53200 27.81000 30.78700
H  -6.74300 27.18800 33.18400
H  -5.25400 27.98400 32.98100
H  -8.67400 21.11200 28.05500
H  -9.43100 20.64800 26.57900
H  -10.18100 21.89100 27.54400
H  -10.06100 20.50000 24.62300
H  -11.01100 21.21000 23.26900
H  -11.29500 21.84800 24.91200
H  -6.95100 26.69700 21.49700
H  -3.83900 26.30000 21.24600
H  -7.23000 25.11800 20.03600
H  -6.38900 23.90000 21.00800
H  -5.48200 24.98700 19.89900
H  -3.87400 28.64500 21.02900
H  -5.60400 28.77700 21.45300
H  -4.90700 27.10700 19.11200
H  -4.81400 29.00000 19.08400
H  -6.27500 28.20600 19.45800
H  -0.71600 29.59400 25.44800
H  -2.04200 30.82700 25.49600
H  -1.84900 29.86800 24.06800
H  -3.60100 28.75300 30.22600
H  -0.91600 27.72000 33.43700
H  -0.22100 27.00000 32.18200
H  -1.50900 26.05000 32.85900

