158

Mg 36.69400 49.86400 24.79500
C  36.90700 47.80300 27.63600
C  35.60600 52.35800 26.86900
C  36.13800 51.73900 22.09100
C  37.82100 47.33800 22.81900
N  36.06000 49.98600 27.02000
C  36.34600 49.07300 27.98500
C  35.99300 49.66300 29.42200
C  35.72300 51.13800 29.07300
C  35.75600 51.16200 27.59300
C  34.33600 51.60700 29.61600
C  37.04800 49.45800 30.51700
C  37.04400 50.42200 31.71200
H  35.67500 50.46500 32.49400
N  36.05100 51.82700 24.51600
C  35.65200 52.65600 25.52000
C  35.24200 53.91000 24.86500
C  35.46600 53.81000 23.47700
C  35.92900 52.43200 23.33000
C  34.73300 55.03400 25.77800
C  35.18800 54.85600 22.35900
O  35.20100 54.51700 21.16800
C  34.94300 56.28300 22.75300
N  37.01000 49.61100 22.71200
C  36.63100 50.50500 21.77300
C  36.96000 50.03700 20.35600
C  37.57000 48.62500 20.62900
C  37.53400 48.52000 22.15800
C  35.68100 50.07700 19.51400
C  38.92500 48.28100 19.90400
C  40.20700 48.12900 20.80900
N  37.28500 47.93000 25.11800
C  37.71500 46.97300 24.19100
C  38.07500 45.72100 24.93400
C  37.76900 46.03700 26.26100
C  37.26600 47.38400 26.31500
C  38.36500 44.50400 24.31600
C  37.65100 45.38400 27.54400
O  37.89200 44.30900 27.99000
C  37.07500 46.53600 28.47100
C  35.77600 46.17000 29.05200
O  34.69900 46.20500 28.48300
O  36.04100 45.88900 30.36800
C  34.86100 45.80200 31.29300
H  35.21400 53.16600 27.49100
H  35.87700 52.33100 21.21200
H  38.30100 46.64600 22.12300
H  35.04500 49.16600 29.62800
H  36.45100 51.85800 29.44900
H  34.53000 52.35200 30.38800
H  33.87400 50.82600 30.22100
H  33.68200 51.94700 28.81400
H  37.96400 49.52400 29.92900
H  37.03000 48.45800 30.95100
H  37.12800 51.45800 31.38500
H  37.83800 50.19500 32.42300
H  33.97800 54.66700 26.47300
H  34.26000 55.86400 25.25200
H  35.49900 55.59300 26.31400
H  33.90800 56.38400 23.07900
H  35.17100 57.02700 21.99100
H  35.61000 56.51300 23.58400
H  37.72700 50.68700 19.93600
H  36.89100 47.83400 20.31300
H  36.02400 49.99300 18.48300
H  34.94500 50.82300 19.81300
H  35.15800 49.12400 19.59800
H  39.20400 49.03200 19.16500
H  38.75800 47.29300 19.47300
H  40.76700 47.25800 20.46700
H  39.97400 48.10900 21.87400
H  40.83700 48.99500 20.60700
H  37.71100 43.73200 24.72200
H  39.41900 44.22400 24.30700
H  38.21400 44.55600 23.23800
H  37.77500 46.75500 29.27800
H  33.86100 45.63300 30.89300
H  34.69200 46.71800 31.85900
H  35.14400 45.04500 32.02400
Mg 27.80000 51.74500 26.01300
C  26.02700 52.70300 28.98100
C  30.35700 50.68800 28.35600
C  29.69400 50.89500 23.41500
C  25.35900 53.17800 24.04100
N  28.14700 51.73100 28.43600
C  27.23100 52.12700 29.35800
C  27.69000 51.95300 30.79800
C  29.15400 51.40400 30.57000
C  29.28200 51.22500 29.06400
C  30.30800 52.21300 31.27100
C  26.72600 51.10400 31.69800
C  26.36800 51.72100 33.09800
H  27.21500 51.25900 34.30900
N  29.73900 50.94000 25.88100
C  30.58700 50.48500 26.94200
C  31.67500 49.73800 26.37200
C  31.62400 49.91000 24.96600
C  30.30200 50.61200 24.72900
C  32.66200 49.08600 27.28100
C  32.70200 49.49100 23.99600
O  32.56400 49.72900 22.85400
C  33.96000 48.83900 24.45800
N  27.66400 52.10200 24.01700
C  28.47300 51.55400 23.10400
C  28.00000 51.83600 21.72600
C  26.58600 52.47600 21.82200
C  26.49400 52.53300 23.40100
C  28.99200 52.77000 21.01200
C  25.42400 51.68800 21.14500
C  25.14600 50.20800 21.51900
N  26.04700 52.78600 26.35800
C  25.20800 53.41700 25.45500
C  24.14000 54.05200 26.12500
C  24.33100 53.78300 27.48200
C  25.55200 52.99600 27.61900
C  23.00100 54.76800 25.49400
C  23.81000 53.92400 28.82900
O  22.87000 54.46700 29.33000
C  24.91300 53.15400 29.85600
C  25.25200 54.35700 30.76100
O  26.10100 55.20700 30.60000
O  24.58900 54.29400 31.88800
C  24.75200 55.31800 32.92300
H  31.24500 50.43600 28.93900
H  30.22600 50.54300 22.52900
H  24.65500 53.63500 23.34300
H  27.69500 52.95100 31.23600
H  29.17700 50.34800 30.83800
H  30.82600 52.69100 30.44000
H  30.90400 51.45200 31.77400
H  29.88300 52.98400 31.91400
H  27.10400 50.10800 31.92700
H  25.74800 50.99400 31.23000
H  25.33000 51.42600 33.25100
H  26.45400 52.80700 33.13200
H  32.17600 48.80000 28.21400
H  33.44600 49.84000 27.35700
H  33.02200 48.16900 26.81500
H  34.71000 48.92300 23.67100
H  33.80700 47.79600 24.73600
H  34.24100 49.56700 25.21900
H  28.08300 50.88100 21.20700
H  26.51700 53.51400 21.49600
H  28.51700 53.64600 20.57100
H  29.45500 52.27600 20.15800
H  29.75500 53.18800 21.66900
H  25.48600 51.73200 20.05800
H  24.44400 52.15800 21.23000
H  24.07600 50.06800 21.67700
H  25.76100 49.84300 22.34100
H  25.41100 49.50100 20.73200
H  23.34800 55.35300 24.64200
H  22.71300 55.43400 26.30700
H  22.27900 54.00400 25.20500
H  24.34400 52.44400 30.45600
H  23.82900 55.41400 33.49500
H  25.01600 56.27400 32.47100
H  25.45700 54.97800 33.68300

