158

Mg -1.56900 17.69100 27.11600
C  -1.93700 15.41200 29.80900
C  -1.59300 20.24300 29.32800
C  -1.54800 19.64200 24.47200
C  -2.03600 14.86900 24.96400
N  -1.90100 17.84600 29.31700
C  -1.90000 16.81600 30.24000
C  -2.09600 17.37400 31.73000
C  -2.21100 18.92700 31.49000
C  -1.91500 19.03300 29.97500
C  -3.65700 19.43400 31.86500
C  -0.85200 17.00700 32.63700
C  -0.81600 17.75000 33.95100
H  -0.28000 16.93900 35.17600
N  -1.49300 19.62500 26.97000
C  -1.40300 20.56500 27.98200
C  -1.29400 21.85100 27.41300
C  -1.22000 21.69900 25.99600
C  -1.44800 20.25700 25.73300
C  -1.26000 23.14200 28.26300
C  -0.96500 22.82200 25.01400
O  -0.94400 22.56200 23.77500
C  -0.69600 24.28500 25.40200
N  -1.77900 17.29100 25.01000
C  -1.69900 18.26400 24.11300
C  -1.83800 17.72900 22.69800
C  -1.54100 16.21900 22.86400
C  -1.78900 16.09600 24.38100
C  -3.25700 18.01600 22.14600
C  -0.16000 15.66100 22.50300
C  1.05700 16.38900 23.01400
N  -1.88800 15.59100 27.26100
C  -2.18700 14.60500 26.33200
C  -2.41000 13.31300 26.96100
C  -2.29700 13.59500 28.33200
C  -1.93500 14.98400 28.46800
C  -2.74300 12.04900 26.32700
C  -2.32600 12.97600 29.59900
O  -2.53100 11.84400 29.98700
C  -2.10300 14.10600 30.68400
C  -0.87500 13.74100 31.47800
O  0.28100 14.04900 31.18700
O  -1.19500 13.07900 32.60100
C  -0.03200 12.85100 33.45400
H  -1.57700 21.07600 30.03500
H  -1.50700 20.30900 23.60900
H  -2.08400 14.17400 24.12300
H  -2.98700 16.91200 32.15600
H  -1.60100 19.45400 32.22400
H  -4.25700 18.78400 32.50100
H  -4.18900 19.59100 30.92600
H  -3.52100 20.37900 32.39100
H  0.02600 17.17900 32.01400
H  -0.86100 15.94800 32.89200
H  -1.77700 18.19800 34.20000
H  -0.10800 18.57800 33.91700
H  -2.20900 23.65900 28.11800
H  -0.39900 23.77500 28.04500
H  -1.16800 22.94500 29.33100
H  0.29400 24.38700 25.84600
H  -1.43600 24.77100 26.03800
H  -0.65700 24.84300 24.46700
H  -1.03000 18.19100 22.13000
H  -2.24800 15.69500 22.22100
H  -3.62300 18.89100 22.68400
H  -3.95900 17.19200 22.27400
H  -3.12400 18.21400 21.08300
H  -0.00900 15.58400 21.42600
H  -0.17000 14.62300 22.83700
H  1.59400 16.55400 22.08000
H  1.56800 15.80700 23.78000
H  0.77100 17.29600 23.54700
H  -2.99100 12.23500 25.28200
H  -3.54800 11.63300 26.93300
H  -1.87100 11.39600 26.35600
H  -2.96600 14.17500 31.34700
H  0.07700 13.72900 34.09100
H  0.95500 12.60800 33.06200
H  -0.43400 12.03800 34.05900
Mg 36.74900 49.32400 24.93100
C  36.62500 47.29800 27.75600
C  34.94700 51.68600 26.68000
C  36.19100 50.87900 22.01300
C  38.03600 46.49500 23.12400
N  35.79800 49.39300 26.88700
C  36.13400 48.61000 27.98700
C  35.65600 49.15300 29.38200
C  34.88500 50.40500 28.86600
C  35.19100 50.50400 27.36900
C  33.43700 50.52100 29.29700
C  36.81100 49.33300 30.40400
C  36.39100 48.88500 31.86000
H  34.88700 48.85900 32.24500
N  35.88900 51.20000 24.45600
C  35.16300 52.00000 25.27700
C  34.80300 53.14200 24.52800
C  35.21000 52.94000 23.10500
C  35.84800 51.66800 23.19000
C  34.04100 54.22400 25.12500
C  35.13800 53.85100 21.93800
O  35.40600 53.53500 20.78900
C  34.61600 55.27700 22.04600
N  37.13900 48.85100 22.94300
C  36.70900 49.64100 21.89300
C  37.18900 49.02500 20.52800
C  38.08200 47.80300 20.99500
C  37.73300 47.65600 22.44000
C  35.97800 48.53100 19.65800
C  39.56700 47.88200 20.68500
C  40.34600 48.99400 21.38400
N  37.32100 47.33100 25.34500
C  37.83400 46.30800 24.53000
C  38.00500 45.07700 25.32400
C  37.55400 45.46100 26.61500
C  37.14200 46.81100 26.56700
C  38.36200 43.74000 24.77500
C  37.26300 44.96600 27.90500
O  37.33200 43.83300 28.35600
C  36.68200 46.17900 28.76900
C  35.34600 45.75300 29.19700
O  34.43600 45.62500 28.46500
O  35.33100 45.38400 30.50500
C  34.26400 44.45500 30.93100
H  34.34900 52.37200 27.28400
H  35.96700 51.32600 21.04200
H  38.44700 45.60500 22.64200
H  34.91600 48.42900 29.72500
H  35.40400 51.21200 29.38300
H  32.84100 50.97300 28.50400
H  33.42500 51.17700 30.16800
H  32.93600 49.64800 29.71600
H  37.09200 50.38600 30.42100
H  37.66100 48.75400 30.04200
H  36.90600 49.51400 32.58700
H  36.78900 47.88600 32.03500
H  33.86400 54.24800 26.20000
H  33.10800 54.31500 24.56800
H  34.65400 55.11500 24.98300
H  34.60100 55.86900 21.13000
H  35.33900 55.87800 22.59700
H  33.60700 55.39500 22.43900
H  37.77800 49.77900 20.00800
H  37.73000 46.90500 20.48700
H  36.06200 47.53400 19.22500
H  35.93600 49.28000 18.86700
H  35.12900 48.58900 20.33900
H  39.71900 47.97200 19.60900
H  40.00500 46.96000 21.06600
H  40.00800 49.17000 22.40500
H  40.06700 49.89900 20.84500
H  41.42600 48.86600 21.30700
H  37.91900 43.68200 23.78100
H  37.81800 42.93800 25.27300
H  39.43000 43.53100 24.70100
H  37.39200 46.41600 29.56200
H  33.52000 45.08800 31.41500
H  34.55300 43.92100 31.83500
H  33.90800 43.73500 30.19400

