158

Mg -2.44800 17.24600 27.43700
C  -2.65700 15.14800 30.14700
C  -3.14000 19.94900 29.47400
C  -2.13000 19.28300 24.80000
C  -2.32800 14.56800 25.25000
N  -2.91200 17.47600 29.54300
C  -2.85200 16.48900 30.47800
C  -3.21900 17.02400 31.87900
C  -3.30300 18.54400 31.62800
C  -3.17700 18.69500 30.11600
C  -4.51200 19.14800 32.33000
C  -2.25200 16.47500 33.03800
C  -2.02600 17.41700 34.18400
H  -1.39300 16.77000 35.41900
N  -2.62300 19.27800 27.12900
C  -2.90200 20.24700 28.07300
C  -2.83300 21.60300 27.47200
C  -2.28800 21.35900 26.20000
C  -2.29400 19.91100 26.01900
C  -2.95000 22.84900 28.23900
C  -1.66000 22.38800 25.25600
O  -1.05000 21.93300 24.33700
C  -1.63600 23.89000 25.64100
N  -2.40700 16.93100 25.33500
C  -2.18300 17.95800 24.45100
C  -2.08500 17.51300 22.99400
C  -1.88000 15.98100 23.16700
C  -2.14300 15.80400 24.68800
C  -3.28200 17.84600 21.96600
C  -0.46300 15.46900 22.59400
C  0.82200 16.12700 23.15000
N  -2.36900 15.28400 27.63200
C  -2.36700 14.31300 26.61200
C  -2.51600 13.08700 27.28000
C  -2.59500 13.32600 28.65300
C  -2.52400 14.67500 28.84400
C  -2.63600 11.81700 26.50500
C  -2.60400 12.56900 29.85700
O  -2.49000 11.32300 30.12700
C  -2.66900 13.79700 30.96200
C  -1.39600 13.71000 31.74900
O  -0.34700 14.32200 31.54800
O  -1.57900 12.97500 32.91600
C  -0.62900 13.12600 33.92800
H  -3.24100 20.83900 30.09800
H  -1.90400 19.76700 23.84800
H  -2.36200 13.60500 24.73500
H  -4.18200 16.62800 32.19900
H  -2.45200 19.02400 32.11100
H  -4.23500 19.97000 32.99000
H  -5.21700 18.50000 32.85000
H  -5.06700 19.54300 31.47900
H  -1.26900 16.40000 32.57200
H  -2.52300 15.55600 33.55700
H  -3.03700 17.74500 34.42800
H  -1.36100 18.20700 33.83700
H  -2.07700 23.47900 28.41200
H  -3.40900 22.60000 29.19600
H  -3.66000 23.40300 27.62500
H  -0.99400 24.07600 26.50200
H  -2.70900 24.03200 25.77500
H  -1.17900 24.39600 24.79100
H  -1.19500 17.94100 22.53400
H  -2.67200 15.36100 22.74700
H  -4.22900 18.20600 22.36900
H  -3.53200 16.88700 21.51000
H  -2.89600 18.55500 21.23400
H  -0.48600 15.82200 21.56300
H  -0.33100 14.39000 22.52100
H  1.53400 15.37300 23.48400
H  0.52600 16.71400 24.01900
H  1.41700 16.74300 22.47600
H  -1.95000 11.71900 25.66300
H  -3.54600 11.70200 25.91800
H  -2.54300 10.95100 27.16000
H  -3.59100 13.65300 31.52500
H  -0.07000 12.19200 33.99000
H  -1.06600 13.42200 34.88100
H  0.07900 13.94600 33.80600
Mg 47.78700 25.80100 29.18200
C  48.67000 28.06300 31.77400
C  46.53000 23.69700 31.37200
C  47.37100 23.50400 26.63000
C  49.24300 27.89700 26.89500
N  47.70700 25.81800 31.35500
C  47.95500 26.94900 32.24900
C  47.35300 26.69500 33.65000
C  46.85600 25.20300 33.51300
C  46.95900 24.88900 31.96000
C  47.84400 24.23000 34.24600
C  46.13800 27.70300 33.85500
C  46.41300 28.71300 34.93500
H  45.51400 28.82100 36.20400
N  46.94300 23.87700 29.02500
C  46.49500 23.21700 30.05400
C  45.88100 21.99600 29.61200
C  46.31000 21.81000 28.28000
C  46.84500 23.10200 27.86900
C  45.19400 20.98700 30.50600
C  46.23000 20.62100 27.29300
O  46.70000 20.68800 26.14800
C  45.62000 19.27600 27.65600
N  48.30400 25.65800 27.03700
C  48.01300 24.67500 26.23400
C  48.39600 25.02400 24.75100
C  48.95300 26.41100 24.92900
C  48.85600 26.67000 26.38300
C  49.33100 24.06500 23.98600
C  48.19200 27.61200 24.25000
C  48.95600 28.79800 23.62200
N  48.73300 27.61300 29.26000
C  49.35700 28.33300 28.20600
C  49.99600 29.53000 28.70100
C  49.67900 29.48200 30.08400
C  49.01000 28.26700 30.36800
C  50.69600 30.69300 27.96700
C  49.70500 30.20800 31.31700
O  50.15800 31.32500 31.53400
C  49.01300 29.36500 32.42100
C  50.02800 29.17800 33.54000
O  51.00600 28.47900 33.54500
O  49.69400 30.00600 34.59700
C  50.31600 29.75600 35.89700
H  46.14500 23.02700 32.14300
H  47.19200 22.89900 25.73800
H  49.71500 28.62800 26.23600
H  48.13900 26.76400 34.40100
H  45.83400 25.14200 33.88700
H  47.41100 23.88500 35.18500
H  48.80000 24.70800 34.46000
H  48.14100 23.33500 33.69900
H  45.18700 27.25700 34.14700
H  45.91400 28.24100 32.93400
H  46.42800 29.71700 34.51000
H  47.43000 28.57600 35.30300
H  45.95800 20.22400 30.65200
H  44.38400 20.52100 29.94400
H  44.89000 21.33400 31.49300
H  45.65900 19.07200 28.72600
H  46.19200 18.50200 27.14500
H  44.55200 19.32300 27.44100
H  47.44600 25.22700 24.25800
H  50.01000 26.55900 24.70900
H  49.76600 23.43100 24.75800
H  50.09300 24.55400 23.37900
H  48.81100 23.52200 23.19700
H  47.52000 28.07000 24.97500
H  47.55100 27.23000 23.45600
H  48.50000 29.74700 23.90400
H  48.90300 28.82800 22.53400
H  50.00100 28.80300 23.93300
H  51.14300 31.33700 28.72500
H  49.94700 31.25000 27.40400
H  51.44200 30.37000 27.24100
H  48.20400 29.92000 32.89600
H  49.50600 29.47100 36.56900
H  50.77600 30.62600 36.36300
H  50.97200 28.88700 35.94100

