158

Mg 26.05100 0.23900 29.53500
C  28.08900 -0.24100 32.32700
C  23.39300 0.89000 31.52500
C  24.16200 0.31300 26.77000
C  28.84000 -0.77500 27.57300
N  25.84700 0.32400 31.78200
C  26.77000 0.00900 32.73900
C  26.12100 0.11200 34.09900
C  24.62300 0.35200 33.78900
C  24.60100 0.67400 32.27800
C  23.62300 -0.66400 34.32700
C  26.82600 1.20700 34.99100
C  26.00100 1.70700 36.26800
H  26.78400 2.06600 37.52700
N  24.04600 0.63800 29.13400
C  23.07800 0.91500 30.13200
C  21.85600 1.25100 29.44100
C  22.05600 1.15000 28.06300
C  23.46900 0.67300 27.91500
C  20.62300 1.58200 30.21400
C  21.17000 1.49700 26.91100
O  21.43200 1.19700 25.71400
C  19.85900 2.09200 27.23800
N  26.40400 -0.46100 27.42800
C  25.42300 -0.19500 26.48900
C  26.03000 -0.39300 25.07400
C  27.56300 -0.66200 25.31700
C  27.62000 -0.58200 26.82600
C  25.31200 -1.48500 24.25700
C  28.50200 0.38100 24.56400
C  29.74600 -0.18300 23.89400
N  28.03500 -0.30800 29.82300
C  29.02900 -0.70900 28.96900
C  30.32500 -0.83700 29.63500
C  29.94800 -0.74200 30.97600
C  28.62100 -0.36900 31.01100
C  31.64700 -1.06000 29.05100
C  30.45200 -0.85400 32.29800
O  31.55000 -1.05300 32.81300
C  29.26300 -0.45000 33.28800
C  28.97600 -1.57600 34.29500
O  28.26100 -2.54500 34.12200
O  29.61400 -1.32800 35.43100
C  29.58300 -2.46800 36.31700
H  22.59600 0.87200 32.27100
H  23.49300 0.29100 25.90700
H  29.70600 -1.12400 27.00700
H  26.17100 -0.88300 34.54100
H  24.21700 1.25400 34.24700
H  24.12100 -1.23600 35.11000
H  23.49200 -1.32200 33.46800
H  22.66100 -0.30100 34.69000
H  27.10300 1.97400 34.26700
H  27.73900 0.75000 35.37200
H  25.13400 1.08400 36.48800
H  25.57500 2.65700 35.94500
H  19.88200 0.83100 29.94100
H  20.20600 2.53600 29.89000
H  20.69800 1.50600 31.29900
H  19.30900 1.18400 27.48700
H  19.46900 2.60600 26.35900
H  19.95200 2.92800 27.93200
H  25.84500 0.57700 24.61100
H  27.87600 -1.67600 25.06700
H  24.65600 -2.04200 24.92600
H  26.07100 -2.11600 23.79500
H  24.75500 -1.11500 23.39600
H  28.72600 1.05600 25.39000
H  28.03800 0.97300 23.77500
H  30.52600 0.34100 24.44600
H  29.70600 0.04300 22.82800
H  29.84900 -1.25600 24.05400
H  31.82100 -2.12100 28.87200
H  32.39800 -0.56400 29.66400
H  31.64300 -0.45000 28.14800
H  29.57200 0.48500 33.75500
H  30.43100 -2.20500 36.94900
H  29.82100 -3.45300 35.91600
H  28.66000 -2.39800 36.89200
Mg -9.83300 16.84800 40.96700
C  -6.29900 16.61000 41.07000
C  -9.42900 20.22800 40.21600
C  -13.05800 16.97100 39.94200
C  -10.03800 13.49800 41.40200
N  -8.10500 18.21400 40.53300
C  -6.81500 17.85000 40.65300
C  -5.90600 19.02100 40.28800
C  -6.90600 20.23100 40.53800
C  -8.25700 19.50800 40.50100
C  -6.56200 21.15300 41.83200
C  -5.37500 19.06600 38.81500
C  -3.76700 18.85600 38.62000
H  -3.37300 17.57600 37.98700
N  -11.12900 18.44000 40.23500
C  -10.75600 19.69200 39.97600
C  -11.85500 20.44900 39.55200
C  -12.95800 19.55400 39.53900
C  -12.43400 18.26600 39.93700
C  -11.76300 21.95000 39.29500
C  -14.32200 19.92500 38.97200
O  -14.67100 21.06200 38.77300
C  -15.39500 18.90100 38.73000
N  -11.26800 15.31400 40.27500
C  -12.51900 15.69200 40.16700
C  -13.52900 14.59200 40.58400
C  -12.51900 13.38500 40.87400
C  -11.23500 14.11700 40.89800
C  -14.44000 14.93300 41.77600
C  -12.37200 12.21600 39.87200
C  -12.92600 10.89800 40.30000
N  -8.50600 15.30000 41.16000
C  -8.71600 13.94000 41.36700
C  -7.46900 13.28400 41.65100
C  -6.50600 14.28100 41.53300
C  -7.16100 15.51000 41.26200
C  -7.35300 11.84000 42.03500
C  -5.07500 14.54100 41.69100
O  -4.22300 13.80200 42.08900
C  -4.91500 16.17300 41.41700
C  -4.54100 16.74000 42.75900
O  -5.25600 17.02100 43.69500
O  -3.18300 16.75600 42.70700
C  -2.54800 17.20500 43.82500
H  -9.14300 21.28100 40.25500
H  -14.14500 17.03600 40.02700
H  -10.13000 12.46300 41.73900
H  -5.04500 19.11900 40.94800
H  -6.92300 20.91100 39.68700
H  -6.64900 22.22900 41.68000
H  -5.55300 20.98100 42.20700
H  -7.31700 20.93100 42.58700
H  -5.50400 20.05000 38.36300
H  -5.90800 18.32600 38.21800
H  -3.25200 18.88400 39.58000
H  -3.28400 19.67500 38.08700
H  -12.11500 22.53100 40.14800
H  -12.36400 22.21000 38.42400
H  -10.70700 22.21500 39.23200
H  -16.26700 19.35200 38.25700
H  -15.71200 18.50700 39.69600
H  -15.03100 18.06300 38.13500
H  -14.12900 14.36900 39.70200
H  -12.57800 13.06400 41.91400
H  -14.22000 14.48400 42.74400
H  -15.43800 14.56300 41.54100
H  -14.40900 16.01700 41.88800
H  -11.33600 11.93600 39.68300
H  -12.86400 12.40100 38.91800
H  -13.01800 10.84700 41.38500
H  -12.17700 10.13100 40.10300
H  -13.83600 10.59000 39.78500
H  -8.35400 11.41200 42.07800
H  -6.72200 11.63300 42.89900
H  -6.91000 11.41500 41.13400
H  -4.31100 16.37500 40.53200
H  -2.96300 16.67700 44.68300
H  -2.83100 18.24700 43.97000
H  -1.46400 17.11800 43.74300

