158

Mg 48.92900 34.19100 27.02800
C  46.43800 33.00900 29.27900
C  49.42900 36.88200 28.98000
C  50.80200 35.47300 24.61100
C  47.96800 31.50500 24.92900
N  48.01900 34.83500 28.89100
C  47.14400 34.15900 29.71500
C  47.07400 34.81800 31.04400
C  47.76200 36.21900 30.73400
C  48.46200 35.98300 29.43400
C  46.85800 37.50300 30.63400
C  47.81500 33.91700 32.05400
C  47.48900 33.99300 33.54200
H  46.50900 34.94400 34.15600
N  50.11500 35.98200 26.82900
C  50.22200 36.92600 27.79900
C  51.19400 37.93900 27.42600
C  51.65000 37.53900 26.09000
C  50.82400 36.28700 25.74200
C  51.59500 39.11200 28.28100
C  52.80100 38.19000 25.17400
O  53.14100 37.65400 24.10700
C  53.58800 39.37800 25.72600
N  49.07400 33.65100 24.95000
C  50.13200 34.30800 24.28700
C  50.43000 33.63900 22.97600
C  49.68400 32.20100 23.15400
C  48.86800 32.42800 24.45600
C  49.72600 34.32700 21.69000
C  50.64600 30.94500 23.31100
C  52.14400 31.10400 22.99500
N  47.49500 32.55200 27.04200
C  47.18200 31.59100 26.12500
C  46.14900 30.67900 26.62800
C  45.79100 31.26400 27.80500
C  46.61000 32.35800 28.04300
C  45.53300 29.50500 25.86000
C  44.88200 31.13000 28.84900
O  44.01300 30.30900 29.06200
C  45.18300 32.30100 29.88400
C  45.48700 31.65200 31.14000
O  46.28600 30.74000 31.35100
O  44.60600 32.15100 31.99100
C  44.58200 31.53400 33.31000
H  49.62400 37.71300 29.66200
H  51.28700 35.92700 23.74400
H  47.75400 30.63200 24.30800
H  46.02700 34.77400 31.34500
H  48.48700 36.49400 31.50000
H  47.14700 38.20700 31.41500
H  45.87300 37.08700 30.84500
H  46.78700 37.98300 29.65800
H  48.87200 34.16700 31.95900
H  47.63300 32.86100 31.85400
H  48.40900 34.15400 34.10300
H  47.11000 33.00200 33.79200
H  50.87400 39.28500 29.08000
H  51.64200 40.08400 27.78900
H  52.56000 39.02700 28.78000
H  52.95000 40.25400 25.85000
H  54.24600 39.82200 24.97900
H  54.18800 39.22300 26.62300
H  51.50400 33.72900 22.81800
H  48.96400 32.01300 22.35700
H  49.96300 33.74400 20.80000
H  50.21200 35.29900 21.61300
H  48.65000 34.39100 21.85600
H  50.17600 30.06600 22.87000
H  50.68900 30.71400 24.37600
H  52.74900 31.65100 23.71900
H  52.16400 31.46400 21.96700
H  52.48400 30.07300 23.09600
H  44.88400 28.92800 26.51900
H  46.39700 28.92000 25.54600
H  44.95000 29.88700 25.02200
H  44.42200 33.08100 29.91000
H  45.58000 31.59000 33.74300
H  44.33600 30.47400 33.24300
H  43.92600 32.07800 33.98900
Mg -10.60900 17.38400 41.90600
C  -7.10400 17.37600 42.14500
C  -10.54600 20.67700 40.96400
C  -14.01700 17.25300 41.36100
C  -10.57100 13.95100 42.14300
N  -8.97600 18.88800 41.63300
C  -7.68600 18.62000 41.72800
C  -6.84300 19.84100 41.14400
C  -7.93100 20.99400 41.21400
C  -9.28800 20.15900 41.22600
C  -7.70600 21.91000 42.57400
C  -6.35600 19.50200 39.64800
C  -4.81800 19.50900 39.40600
H  -4.37500 18.32500 38.52300
N  -12.09000 18.84100 41.34200
C  -11.82400 20.12800 41.11100
C  -13.08800 20.92100 41.07800
C  -14.13200 19.95500 41.23000
C  -13.53900 18.60000 41.28300
C  -13.19900 22.40100 40.67200
C  -15.65000 20.22500 41.29100
O  -16.01800 21.39500 41.19900
C  -16.59500 19.17900 41.48300
N  -11.94400 15.76800 41.51200
C  -13.34200 16.01400 41.38800
C  -14.12000 14.71400 41.44900
C  -12.96400 13.62400 41.34600
C  -11.76500 14.50500 41.78100
C  -15.04100 14.64800 42.73400
C  -12.83300 12.96000 39.87000
C  -12.66300 11.42300 39.75200
N  -9.15300 15.96700 42.28000
C  -9.37200 14.57900 42.36800
C  -8.09500 13.95300 42.68200
C  -7.15400 15.02000 42.53100
C  -7.90500 16.22300 42.29200
C  -7.76400 12.51600 42.93000
C  -5.75000 15.43600 42.54900
O  -4.79500 14.70200 42.72700
C  -5.67500 16.91500 42.28000
C  -4.88500 17.60800 43.40800
O  -4.93600 17.30800 44.60800
O  -4.13700 18.65600 42.89400
C  -3.57300 19.55800 43.87900
H  -10.59500 21.73700 40.70600
H  -15.09100 17.07700 41.26500
H  -10.50400 12.86100 42.13700
H  -6.05500 20.00500 41.87800
H  -7.90700 21.65000 40.34400
H  -8.61800 21.68000 43.12400
H  -7.60700 22.94100 42.23400
H  -6.81300 21.63500 43.13700
H  -6.79100 20.28300 39.02500
H  -6.75500 18.57300 39.24100
H  -4.27500 19.51400 40.35100
H  -4.63600 20.37600 38.77100
H  -14.00500 22.93600 41.17600
H  -13.37700 22.42500 39.59700
H  -12.33300 23.00800 40.93600
H  -16.71300 18.61300 40.55900
H  -17.53600 19.72500 41.55000
H  -16.38700 18.49500 42.30600
H  -14.74200 14.70200 40.55400
H  -13.05200 12.91200 42.16700
H  -14.68300 13.93900 43.48000
H  -16.05900 14.40600 42.42800
H  -15.15400 15.64500 43.15800
H  -12.03500 13.39000 39.26500
H  -13.75300 13.17000 39.32500
H  -12.20800 11.14900 40.70400
H  -11.79700 11.23500 39.11700
H  -13.58200 10.87900 39.53600
H  -7.76600 12.33000 44.00400
H  -6.77000 12.37400 42.50500
H  -8.51100 11.87000 42.46800
H  -5.16000 17.08900 41.33600
H  -2.59900 19.19400 44.20700
H  -4.20900 19.58100 44.76400
H  -3.38700 20.48900 43.34500

