158

Mg 9.13800 3.75400 27.45800
C  10.47400 2.21600 30.35300
C  7.56700 5.99600 29.39700
C  7.72800 4.95700 24.79400
C  10.46300 1.08100 25.51900
N  8.89800 3.90300 29.62600
C  9.62600 3.29800 30.61900
C  9.38800 3.93800 32.00200
C  8.20000 4.94900 31.68100
C  8.29200 5.02200 30.12900
C  6.83400 4.51300 32.14600
C  10.66400 4.48900 32.60100
C  11.07500 3.98000 34.02100
H  11.34800 5.05800 35.06100
N  7.92300 5.40700 27.10600
C  7.42500 6.23600 28.11700
C  6.49800 7.21200 27.49200
C  6.60300 6.98700 26.07100
C  7.38700 5.74200 25.93900
C  5.67400 8.26800 28.27200
C  6.07400 7.69200 24.81500
O  6.44900 7.44100 23.66800
C  5.09700 8.78600 24.98800
N  9.17900 3.10300 25.42200
C  8.42700 3.80200 24.51800
C  8.47100 3.24800 23.08500
C  9.37100 1.95600 23.33100
C  9.71300 2.07700 24.86600
C  7.13900 3.06500 22.34200
C  10.61000 1.71600 22.38100
C  10.49100 0.40100 21.68700
N  10.33900 2.06300 27.78100
C  10.82800 1.06200 26.91200
C  11.62900 0.11800 27.62400
C  11.59200 0.57000 29.00800
C  10.75700 1.69100 29.05700
C  12.31400 -0.99000 26.98600
C  11.93500 0.28200 30.31900
O  12.56800 -0.67700 30.75100
C  11.29500 1.35800 31.28400
C  10.34600 0.64800 32.28500
O  9.44700 -0.12700 32.02900
O  10.66900 1.07300 33.57200
C  9.95100 0.39100 34.64600
H  7.01200 6.65500 30.06700
H  7.30800 5.34400 23.86400
H  10.90500 0.30900 24.88600
H  9.02400 3.16400 32.67900
H  8.28700 5.94800 32.10700
H  6.18100 4.80000 31.32100
H  6.55500 5.12900 33.00100
H  6.79200 3.48100 32.49500
H  10.61800 5.56700 32.75400
H  11.47700 4.30500 31.89900
H  11.97700 3.48400 33.66300
H  10.24800 3.45200 34.49600
H  5.82600 8.40600 29.34300
H  4.64000 8.08600 27.98100
H  5.84600 9.25400 27.84200
H  5.70100 9.65700 25.24500
H  4.53900 8.60100 25.90500
H  4.41900 8.91700 24.14400
H  8.99800 4.04100 22.55400
H  8.71800 1.08600 23.38000
H  6.96900 3.78100 21.53800
H  6.25500 3.26100 22.94800
H  7.15100 2.04500 21.95700
H  11.57900 1.67900 22.87900
H  10.63400 2.64800 21.81700
H  9.57000 -0.17400 21.78400
H  11.34000 -0.20400 22.00700
H  10.58100 0.72500 20.65100
H  12.33400 -1.68800 27.82400
H  13.30500 -0.72500 26.61800
H  11.69200 -1.43100 26.20800
H  11.96300 2.04100 31.80900
H  10.68900 -0.04600 35.31800
H  9.33200 -0.45400 34.34500
H  9.35600 1.16700 35.12700
Mg 30.17800 57.59600 39.89700
C  27.17100 55.97000 39.07400
C  31.95300 54.71300 39.11700
C  33.12300 59.46700 40.08200
C  28.41500 60.63300 40.41000
N  29.57900 55.64400 39.06000
C  28.31500 55.12200 38.81600
C  28.42200 53.70100 38.11900
C  29.76300 53.29400 38.76400
C  30.54300 54.63100 39.01400
C  29.62800 52.35400 40.03600
C  28.51000 53.86900 36.52200
C  27.32800 53.07700 35.87100
H  26.95600 53.44300 34.42400
N  32.30200 57.17400 39.71900
C  32.75100 55.88700 39.39500
C  34.25600 55.95600 39.40100
C  34.57300 57.26800 39.80500
C  33.32000 58.02100 39.94400
C  35.15100 54.77900 39.07300
C  36.03600 57.73800 40.08100
O  36.99600 56.96000 39.99200
C  36.32800 59.07800 40.68900
N  30.64300 59.74300 40.55200
C  31.94100 60.18300 40.35000
C  31.96900 61.66900 40.53200
C  30.49300 62.09300 40.77000
C  29.77900 60.73900 40.66300
C  32.89700 62.08100 41.69800
C  30.04200 63.24600 39.81800
C  29.38200 64.54200 40.40800
N  28.15300 58.20100 39.87200
C  27.61600 59.47000 40.11000
C  26.12500 59.33500 39.99100
C  25.94500 58.02600 39.53500
C  27.17300 57.36100 39.46900
C  25.01100 60.37200 40.12700
C  24.93900 56.96700 39.19800
O  23.67900 57.01800 39.13200
C  25.68600 55.59400 38.88800
C  25.22700 54.41200 39.71700
O  25.66200 54.02700 40.79600
O  24.12800 53.79200 39.04600
C  23.39300 52.83200 39.91900
H  32.48900 53.76200 39.15200
H  34.05200 60.03900 40.03600
H  27.91300 61.58900 40.56700
H  27.66100 52.96400 38.37600
H  30.29800 52.67800 38.04100
H  30.24200 51.48700 39.79100
H  28.56000 52.14500 39.98900
H  29.97600 52.81400 40.96000
H  29.52200 53.64400 36.18600
H  28.29700 54.90500 36.25700
H  26.40700 53.20800 36.43900
H  27.64100 52.03300 35.90700
H  35.88500 54.95700 38.28800
H  34.54400 53.87500 39.02900
H  35.76800 54.77200 39.97100
H  35.99500 59.86700 40.01500
H  37.41600 59.13700 40.70300
H  35.81500 58.98000 41.64600
H  32.33000 62.05800 39.58100
H  30.29500 62.32200 41.81600
H  33.32600 61.20500 42.18500
H  32.39400 62.61500 42.50500
H  33.73100 62.67500 41.32400
H  29.44700 62.83000 39.00600
H  30.88300 63.63400 39.24400
H  29.58300 64.55800 41.47900
H  28.32300 64.36100 40.22400
H  29.68500 65.41700 39.83300
H  24.06600 59.89200 40.38200
H  25.11000 60.96200 39.21600
H  25.37500 60.97200 40.96000
H  25.50600 55.39500 37.83100
H  22.36100 53.08300 39.67500
H  23.55700 52.95300 40.98900
H  23.40600 51.79200 39.59500

