158

Mg 17.43300 52.48600 25.55600
C  19.35300 51.40400 28.30500
C  15.09500 53.48500 27.74800
C  15.71900 53.42100 23.01200
C  19.86300 51.04500 23.41800
N  17.32900 52.53700 27.81200
C  18.27100 52.14400 28.70300
C  17.79800 52.35900 30.09500
C  16.31800 52.83300 29.96200
C  16.20700 52.87200 28.42600
C  15.28500 52.03400 30.65400
C  18.67400 53.24700 31.00600
C  18.40900 53.26400 32.53500
H  17.28300 52.30300 33.11300
N  15.62400 53.36500 25.42300
C  14.77000 53.75000 26.44600
C  13.48800 54.33900 25.86800
C  13.70700 54.33700 24.48200
C  15.05700 53.70800 24.19100
C  12.26900 54.74700 26.65900
C  12.78800 54.84300 23.26600
O  13.06700 54.88300 22.03700
C  11.57200 55.67000 23.70700
N  17.84800 52.38400 23.49100
C  16.95000 52.87400 22.60600
C  17.44200 52.72200 21.12300
C  18.86500 52.08000 21.25900
C  18.94300 51.91600 22.87900
C  16.46200 51.94700 20.17500
C  20.03500 52.96100 20.77600
C  21.29000 52.34100 20.27900
N  19.19200 51.33400 25.75500
C  19.97700 50.75200 24.82500
C  20.94200 49.88100 25.49300
C  20.77600 50.15900 26.86200
C  19.66800 51.07700 26.93800
C  22.06900 49.13700 25.00800
C  21.25200 49.87100 28.18400
O  22.29700 49.28800 28.52400
C  20.37300 50.66400 29.20300
C  19.79400 49.60000 30.02600
O  18.95800 48.80000 29.68800
O  20.35700 49.73500 31.26700
C  19.70100 48.95000 32.28500
H  14.28800 53.81000 28.40800
H  15.17100 53.74000 22.12300
H  20.58600 50.59800 22.73200
H  17.69600 51.39500 30.59300
H  16.18500 53.85000 30.33100
H  14.66500 51.52100 29.91900
H  14.78200 52.68600 31.36900
H  15.66500 51.28200 31.34500
H  18.49700 54.22600 30.56000
H  19.70100 52.88200 31.01100
H  18.10500 54.27400 32.81100
H  19.31800 52.91300 33.02400
H  11.99400 55.78400 26.46100
H  12.38400 54.69000 27.74100
H  11.40700 54.09900 26.49800
H  11.00400 56.01300 22.84300
H  11.90100 56.51500 24.31200
H  10.88800 55.00600 24.23500
H  17.48000 53.77200 20.83200
H  18.93800 51.06100 20.88000
H  16.11700 52.69300 19.45900
H  15.55000 51.62900 20.68100
H  17.10300 51.26100 19.62200
H  20.29500 53.50800 21.68200
H  19.71500 53.65600 20.00000
H  21.39700 52.46100 19.20000
H  21.26500 51.29500 20.58200
H  22.12800 52.80700 20.79600
H  21.85800 48.94500 23.95600
H  22.05900 48.19400 25.55300
H  22.99700 49.69200 25.14300
H  21.07100 51.29000 29.75900
H  19.97600 49.41400 33.23100
H  20.06700 47.92300 32.25100
H  18.63900 48.99200 32.04400
Mg -2.08100 35.18900 26.59800
C  -3.99000 33.44400 28.95000
C  -1.48000 37.53200 29.07300
C  -0.23500 36.84600 24.33700
C  -3.21200 33.04000 24.23700
N  -2.71600 35.41800 28.79600
C  -3.26800 34.43500 29.54900
C  -2.99700 34.76100 31.04800
C  -2.53300 36.21700 31.08400
C  -2.21500 36.40700 29.56100
C  -3.66400 37.12100 31.71700
C  -2.11100 33.64100 31.69500
C  -2.74300 32.80500 32.79200
H  -2.02300 32.79200 34.15200
N  -1.04300 36.98000 26.64600
C  -0.85300 37.77300 27.80600
C  0.17700 38.78700 27.46000
C  0.37300 38.75400 26.08400
C  -0.28000 37.49300 25.60100
C  0.85800 39.62900 28.53300
C  1.24600 39.67000 25.22500
O  1.54200 39.48500 24.06000
C  1.67200 40.91900 25.71100
N  -1.85300 35.08300 24.49700
C  -0.92800 35.77000 23.82700
C  -0.74000 35.22000 22.39000
C  -1.70400 33.94600 22.39500
C  -2.35200 34.00400 23.79400
C  -1.01800 36.21400 21.27200
C  -1.04500 32.56800 22.13200
C  -0.33800 31.88200 23.33000
N  -3.54700 33.66600 26.48500
C  -3.88300 32.87200 25.44300
C  -4.88900 31.82500 25.87600
C  -4.95700 32.04700 27.26400
C  -4.09400 33.15600 27.57700
C  -5.59300 30.82600 25.07400
C  -5.49100 31.63000 28.49800
O  -6.19900 30.66800 28.73300
C  -4.90700 32.45900 29.68500
C  -5.96900 33.15700 30.43300
O  -6.72100 33.93500 29.92500
O  -6.13400 32.56600 31.68200
C  -7.25200 32.99600 32.48400
H  -1.24000 38.26400 29.84800
H  0.38900 37.37600 23.61500
H  -3.43100 32.30300 23.46100
H  -3.95200 34.64300 31.55900
H  -1.59700 36.34100 31.62900
H  -3.31800 37.70100 32.57300
H  -4.43000 36.45600 32.11500
H  -4.07100 37.74100 30.91800
H  -1.29800 34.09100 32.26500
H  -1.70600 32.95600 30.95000
H  -2.70100 31.79900 32.37400
H  -3.78900 33.06700 32.94800
H  1.94500 39.61100 28.45800
H  0.57200 39.32500 29.54000
H  0.49700 40.65700 28.53500
H  0.92900 41.51100 26.24500
H  2.11400 41.52200 24.91800
H  2.51700 40.74700 26.37700
H  0.29400 34.88000 22.33000
H  -2.50100 34.06000 21.66000
H  -1.84300 35.77700 20.71000
H  -0.02500 36.35300 20.84500
H  -1.31300 37.22000 21.57100
H  -0.23400 32.70400 21.41500
H  -1.72800 31.87700 21.63800
H  -0.92000 30.97600 23.49900
H  -0.34500 32.42900 24.27200
H  0.73500 31.73200 23.20600
H  -5.28500 30.77300 24.03000
H  -6.64200 31.11500 25.14400
H  -5.42600 29.81800 25.45400
H  -4.30200 31.83600 30.34300
H  -7.89100 33.74500 32.01500
H  -6.85000 33.38100 33.42100
H  -7.84400 32.11900 32.74400

