158

Mg 17.14900 -2.60800 28.34000
C  16.07900 -0.16400 30.87700
C  18.51800 -4.34200 30.76000
C  18.35800 -4.37300 25.89200
C  15.61000 -0.26800 25.90800
N  17.15100 -2.34300 30.64000
C  16.67400 -1.33000 31.40000
C  17.08200 -1.58900 32.84700
C  18.08100 -2.78600 32.76800
C  17.90300 -3.22800 31.31000
C  19.57400 -2.30900 33.19000
C  15.83800 -1.91200 33.73700
C  15.87100 -1.66900 35.31000
H  17.09300 -0.99500 36.00600
N  18.17800 -4.21800 28.28700
C  18.66600 -4.84200 29.40100
C  19.43900 -5.95700 29.04200
C  19.40700 -5.99600 27.61900
C  18.66500 -4.79600 27.19900
C  20.06400 -6.95500 30.05600
C  20.04400 -7.05300 26.70900
O  19.96800 -6.98000 25.48800
C  20.78400 -8.26000 27.19500
N  16.95400 -2.39600 26.20000
C  17.60000 -3.32100 25.46400
C  17.21000 -3.15100 24.01700
C  16.37400 -1.82400 23.96200
C  16.30800 -1.45300 25.41900
C  18.35100 -3.08900 22.98200
C  15.00900 -1.91100 23.26100
C  14.93100 -1.13900 21.98500
N  16.17000 -0.63600 28.32600
C  15.53600 0.06900 27.25200
C  14.69500 1.18200 27.81900
C  15.07500 1.20500 29.20800
C  15.90200 0.04900 29.49800
C  13.82600 2.10100 27.09600
C  14.75400 1.83300 30.44700
O  13.97200 2.79500 30.67500
C  15.48700 1.00800 31.64900
C  16.61500 1.78300 32.30200
O  17.73700 2.01700 31.90700
O  16.12500 2.39400 33.39200
C  17.03800 3.16800 34.18700
H  18.95400 -4.87700 31.60700
H  18.63300 -5.06900 25.09700
H  14.98400 0.29600 25.21400
H  17.48000 -0.67900 33.29800
H  17.88000 -3.60400 33.46100
H  19.71100 -1.29600 32.81100
H  20.31600 -2.98200 32.76200
H  19.46700 -2.24900 34.27300
H  15.56600 -2.96000 33.61600
H  15.01100 -1.33900 33.31800
H  15.74400 -2.63500 35.79700
H  15.04600 -1.00800 35.57600
H  19.64000 -7.92800 29.80700
H  19.85800 -6.78000 31.11200
H  21.15000 -7.00900 29.97900
H  20.23800 -9.09100 27.64200
H  21.58200 -7.94500 27.86600
H  21.20800 -8.73900 26.31200
H  16.64300 -4.04200 23.74500
H  16.95900 -1.01400 23.52700
H  18.37100 -4.15700 22.76200
H  19.32800 -2.93000 23.43800
H  18.15700 -2.47400 22.10300
H  14.20500 -1.51700 23.88300
H  14.83600 -2.95900 23.02000
H  15.77800 -0.52600 21.67600
H  14.04500 -0.50900 22.06200
H  14.73800 -1.89100 21.21900
H  13.16100 2.55600 27.83100
H  13.20000 1.55900 26.38800
H  14.41700 2.83000 26.54300
H  14.83300 0.68600 32.46000
H  17.22800 4.13100 33.71400
H  17.99900 2.65700 34.23300
H  16.53800 3.46500 35.10800
Mg -0.41400 43.23400 25.24200
C  1.95900 42.81600 27.93500
C  -2.90200 42.11900 27.31100
C  -2.29900 43.08600 22.59700
C  2.47100 43.78500 23.22500
N  -0.41900 42.69500 27.30700
C  0.60300 42.66300 28.26300
C  0.08800 42.47900 29.72000
C  -1.38200 42.09300 29.46300
C  -1.60900 42.26300 27.89600
C  -1.96800 40.66800 29.93600
C  0.46900 43.68600 30.66600
C  0.59100 43.50600 32.19600
H  0.36800 42.03800 32.77800
N  -2.44900 42.84600 24.99700
C  -3.31600 42.32300 25.94200
C  -4.57900 42.04100 25.36000
C  -4.44000 42.29300 23.92900
C  -3.02700 42.73500 23.76600
C  -5.76100 41.66300 26.17100
C  -5.44200 42.23200 22.82700
O  -5.19600 42.62500 21.67200
C  -6.85000 41.75500 23.00900
N  0.08800 43.53100 23.25000
C  -0.90000 43.31400 22.34600
C  -0.40300 43.77000 20.89600
C  1.07600 44.03900 21.14300
C  1.27100 43.72900 22.60600
C  -0.73900 42.83800 19.75100
C  1.49900 45.41600 20.68200
C  1.04300 46.58600 21.56200
N  1.78800 43.20100 25.45300
C  2.80300 43.52700 24.54700
C  4.12500 43.37000 25.09800
C  3.87100 43.12500 26.44400
C  2.43000 43.07400 26.62000
C  5.46000 43.54600 24.48800
C  4.50200 42.91600 27.74500
O  5.69400 42.85200 28.05800
C  3.24500 42.85600 28.80800
C  3.42600 41.61000 29.62600
O  2.88700 40.49100 29.53300
O  4.34000 41.85300 30.58300
C  4.47100 40.81300 31.60600
H  -3.78100 41.84900 27.90100
H  -2.83400 43.14900 21.64700
H  3.32800 43.97600 22.57600
H  0.65900 41.65900 30.15600
H  -1.96500 42.83700 30.00400
H  -1.23000 40.13000 30.53100
H  -2.24600 40.03600 29.09200
H  -2.75300 40.89600 30.65700
H  -0.16900 44.52600 30.39400
H  1.47200 43.96000 30.33700
H  -0.21800 44.14400 32.55300
H  1.57900 43.68300 32.62100
H  -6.24900 40.78400 25.75000
H  -6.40100 42.50900 26.42400
H  -5.40700 41.19700 27.09100
H  -7.17200 41.50700 21.99800
H  -7.33000 42.63400 23.44100
H  -6.90400 40.89800 23.68000
H  -0.90200 44.71500 20.68300
H  1.69200 43.32200 20.60100
H  -1.64100 43.24800 19.29500
H  -0.89700 41.85900 20.20300
H  0.06000 42.97800 19.02300
H  1.04000 45.44900 19.69400
H  2.58500 45.47800 20.62200
H  0.57500 46.27100 22.49400
H  0.32700 47.24700 21.07300
H  1.91300 47.23100 21.68600
H  5.72700 44.53400 24.11400
H  5.56300 42.94100 23.58700
H  6.20100 43.14900 25.18300
H  3.26900 43.70700 29.48800
H  4.95600 39.95100 31.14800
H  3.45900 40.50200 31.86400
H  4.97900 41.05700 32.53900

