158

Mg 46.86400 24.59900 28.45100
C  47.87100 26.76700 31.10100
C  46.00300 22.25600 30.78700
C  46.13000 22.57800 25.87600
C  48.22200 26.85600 26.18000
N  46.92400 24.53500 30.77600
C  47.21500 25.57200 31.57900
C  46.75800 25.27800 32.99900
C  46.25400 23.76300 32.93200
C  46.44900 23.41700 31.41900
C  46.91800 22.77200 33.89000
C  45.81600 26.34600 33.65500
C  45.97300 26.89100 35.13100
H  46.27600 25.89900 36.27000
N  46.09000 22.72700 28.32200
C  45.86900 21.90100 29.42000
C  45.48100 20.59800 28.90600
C  45.32600 20.73200 27.45500
C  45.87900 22.08200 27.13200
C  45.27200 19.41500 29.79300
C  44.89800 19.61600 26.49900
O  44.98100 19.71800 25.28500
C  44.24300 18.46500 27.04700
N  47.14900 24.77100 26.29000
C  46.78300 23.73200 25.43200
C  47.18900 24.02500 23.97800
C  47.56000 25.56800 24.10100
C  47.72800 25.76400 25.60000
C  48.39700 23.22700 23.51300
C  46.43400 26.43400 23.54600
C  45.04200 26.17500 24.05600
N  47.86400 26.42300 28.49400
C  48.37400 27.21500 27.49900
C  48.97100 28.39500 28.06300
C  48.78300 28.31600 29.46400
C  48.14600 27.04500 29.68700
C  49.52800 29.50900 27.21400
C  48.86800 29.01600 30.69200
O  49.36000 30.07000 30.96100
C  48.23700 28.03600 31.78700
C  49.37800 27.84400 32.76400
O  50.37300 27.20500 32.68700
O  49.11400 28.58400 33.85300
C  49.77600 28.41900 35.14600
H  45.64400 21.48300 31.46800
H  45.87600 21.93300 25.03300
H  48.73100 27.43800 25.40900
H  47.70900 25.34200 33.52800
H  45.19300 23.87600 33.15500
H  46.06000 22.51000 34.50900
H  47.81000 23.01300 34.46700
H  47.09700 21.82700 33.37600
H  44.79900 25.99200 33.48100
H  45.92600 27.19000 32.97400
H  44.98700 27.32700 35.28500
H  46.71900 27.67100 34.97700
H  45.81700 18.62900 29.27000
H  44.24200 19.16800 30.05200
H  45.88800 19.47200 30.69000
H  43.65400 18.75900 27.91600
H  45.01100 17.73700 27.30700
H  43.59700 17.92700 26.35300
H  46.27300 23.91700 23.39800
H  48.49200 25.80500 23.58700
H  48.12200 22.17500 23.58600
H  49.20600 23.56900 24.15800
H  48.56100 23.41800 22.45200
H  46.43000 26.43700 22.45600
H  46.64200 27.44300 23.90200
H  45.02500 25.33400 24.74900
H  44.29600 25.95300 23.29400
H  44.50900 27.00000 24.53100
H  49.81100 29.25800 26.19200
H  50.47700 29.77400 27.68000
H  48.97100 30.44600 27.19100
H  47.52100 28.67200 32.30900
H  50.80900 28.10100 35.00800
H  49.29800 27.60600 35.69400
H  49.71500 29.36400 35.68600
Mg 26.68000 50.14000 26.97000
C  24.74500 51.29100 29.61300
C  29.10700 49.10600 29.16400
C  28.78300 49.29200 24.31100
C  24.35400 51.34600 24.71700
N  26.87100 50.28700 29.16800
C  25.99000 50.78000 30.04000
C  26.43000 50.44000 31.52700
C  27.88900 49.96800 31.33400
C  27.99500 49.77800 29.79700
C  29.01700 50.82900 31.86000
C  25.46500 49.38800 32.18500
C  24.54200 50.10000 33.22400
H  24.40700 49.63400 34.74600
N  28.55100 49.17900 26.76100
C  29.43100 48.83000 27.79000
C  30.71300 48.33700 27.28700
C  30.70400 48.46100 25.87500
C  29.24400 49.02000 25.58900
C  31.74700 47.72900 28.11000
C  31.78800 48.18300 24.94800
O  31.59400 48.08700 23.70200
C  33.16400 48.04600 25.49000
N  26.59000 50.32100 24.77600
C  27.52100 49.83500 23.93000
C  27.02200 49.85700 22.42600
C  25.51600 50.38800 22.59200
C  25.42300 50.60000 24.12000
C  27.91800 50.60900 21.44600
C  24.40100 49.36000 22.14000
C  24.17900 48.08700 22.97600
N  24.93300 51.17900 27.09400
C  24.10100 51.64000 26.11600
C  22.93600 52.20300 26.71800
C  23.11100 52.06100 28.14000
C  24.35500 51.40200 28.30000
C  21.85200 52.78800 25.98700
C  22.53800 52.40100 29.42000
O  21.54800 53.04400 29.68100
C  23.57300 51.86400 30.44900
C  23.86000 52.94300 31.38600
O  24.86000 53.63800 31.34400
O  22.86300 53.17800 32.28300
C  23.23100 54.29500 33.24000
H  29.94600 48.94200 29.84300
H  29.38100 48.94300 23.46700
H  23.62000 51.63100 23.96000
H  26.43000 51.35200 32.12300
H  28.01200 48.98900 31.79600
H  29.82000 50.09200 31.88400
H  29.01700 51.28900 32.84800
H  29.11400 51.62500 31.12100
H  26.11900 48.62000 32.59800
H  24.86100 48.86700 31.44200
H  23.56900 49.92400 32.76600
H  24.64100 51.18500 33.26800
H  31.32000 47.53000 29.09300
H  32.49400 48.51700 28.21100
H  32.33200 46.90000 27.71200
H  33.25100 48.77500 26.29500
H  33.85900 48.08000 24.65000
H  33.13200 47.02200 25.86200
H  26.95100 48.83600 22.05100
H  25.47600 51.33200 22.04800
H  27.39400 51.39100 20.89700
H  28.33500 49.82800 20.81000
H  28.77100 50.97900 22.01500
H  24.63200 49.00900 21.13400
H  23.46600 49.90600 22.01200
H  23.16600 48.17100 23.37000
H  24.74500 47.93500 23.89500
H  24.28000 47.17400 22.38900
H  21.80200 52.45100 24.95200
H  22.02400 53.85900 26.09900
H  20.98300 52.48700 26.57200
H  23.02300 51.14800 31.05900
H  23.51300 55.16800 32.65200
H  24.13300 54.03800 33.79500
H  22.30700 54.54100 33.76400

