158

Mg 35.37400 2.49400 29.51800
C  33.13100 3.80500 31.85500
C  37.78900 2.36200 32.00800
C  37.66900 1.60400 27.14100
C  32.90700 2.76400 27.00400
N  35.50400 3.10000 31.66000
C  34.44000 3.47500 32.42500
C  34.83300 3.38800 33.93300
C  36.33200 3.10500 33.89200
C  36.57400 2.87000 32.43700
C  37.41200 4.12000 34.54200
C  34.02300 2.35200 34.65900
C  33.51400 2.70300 36.08900
H  34.28900 3.80100 36.88700
N  37.47200 2.14900 29.55200
C  38.22200 1.98300 30.72500
C  39.50200 1.41900 30.33000
C  39.47600 1.28700 28.90400
C  38.19100 1.74600 28.50900
C  40.59100 1.18700 31.33100
C  40.63400 0.90200 27.91100
O  40.48800 0.99500 26.68900
C  41.97400 0.36500 28.41800
N  35.30700 2.26400 27.40000
C  36.35600 1.91800 26.67500
C  35.94800 1.72600 25.20300
C  34.40800 1.69800 25.21400
C  34.13700 2.36700 26.64100
C  36.52500 2.90400 24.40500
C  33.69500 0.26800 24.96200
C  32.59900 0.15900 23.81700
N  33.45800 3.23800 29.41100
C  32.53500 3.21700 28.31500
C  31.24700 3.76000 28.79200
C  31.49400 3.98200 30.20200
C  32.79100 3.71100 30.48100
C  29.98700 3.93500 28.02200
C  30.79300 4.39600 31.39800
O  29.65900 4.88300 31.52000
C  31.82400 4.22700 32.51100
C  31.86700 5.54400 33.20600
O  32.55600 6.48700 32.85200
O  31.08000 5.54300 34.34000
C  31.50800 6.43000 35.36100
H  38.54400 2.23400 32.78600
H  38.29500 1.32100 26.29200
H  32.27600 2.78900 26.11300
H  34.66700 4.37800 34.35700
H  36.62300 2.13000 34.28500
H  36.76600 4.88700 34.96900
H  38.15200 4.62600 33.92200
H  37.94700 3.63900 35.36000
H  34.57000 1.43100 34.85800
H  33.23200 2.06600 33.96600
H  33.45900 1.81600 36.72000
H  32.53100 3.16300 35.98600
H  40.42000 1.54000 32.34800
H  41.53300 1.66700 31.06900
H  40.94400 0.15600 31.32300
H  42.52700 1.23600 28.77200
H  42.53000 -0.14900 27.63400
H  41.69700 -0.35900 29.18400
H  36.40900 0.83400 24.77800
H  34.07500 2.34600 24.40300
H  35.79000 3.40300 23.77400
H  37.37500 2.62200 23.78400
H  36.90400 3.65300 25.10100
H  33.23900 -0.09100 25.88500
H  34.52300 -0.37600 24.66700
H  32.27300 1.10200 23.37700
H  31.75100 -0.34100 24.28600
H  32.93400 -0.48600 23.00500
H  29.85000 4.87200 27.48200
H  29.18300 3.94100 28.75800
H  29.81800 3.01300 27.46700
H  31.33100 3.56300 33.22200
H  30.80600 7.25900 35.26600
H  32.52900 6.79300 35.24300
H  31.41500 6.00300 36.35900
Mg 29.36800 57.53100 40.56500
C  27.07700 55.31900 39.30600
C  31.91300 55.68500 39.47300
C  31.43100 60.26900 40.97400
C  26.61800 59.74600 41.07800
N  29.45200 55.76200 39.54900
C  28.41000 54.98400 39.14600
C  28.83300 53.56100 38.73500
C  30.37300 53.63600 38.97400
C  30.63400 55.10700 39.37400
C  30.89200 52.57600 40.05700
C  28.47800 53.18800 37.23500
C  28.71300 54.37600 36.23200
H  27.73300 54.77200 35.21400
N  31.35900 57.95700 40.37400
C  32.27800 57.01400 39.90900
C  33.62800 57.62300 39.81000
C  33.49600 58.94800 40.18600
C  32.04600 59.15600 40.53500
C  34.73200 56.84400 39.16800
C  34.65100 59.96300 40.22000
O  35.80800 59.62800 39.99800
C  34.41200 61.47100 40.39200
N  29.02900 59.74000 40.76800
C  30.10900 60.52400 41.19900
C  29.63000 61.84900 41.74300
C  28.07800 61.74600 41.49100
C  27.83600 60.31000 41.16200
C  29.90700 62.13700 43.28100
C  27.59200 62.68500 40.33700
C  27.00200 63.99700 40.87700
N  27.25800 57.54800 40.41300
C  26.28000 58.46500 40.60900
C  24.94900 57.93100 40.30700
C  25.22700 56.66100 39.83200
C  26.64600 56.47600 39.77100
C  23.62200 58.62300 40.48700
C  24.59000 55.44000 39.20500
O  23.42100 55.14900 38.97600
C  25.78800 54.52300 38.77700
C  25.46500 53.19700 39.44900
O  25.50700 52.90300 40.64100
O  25.02700 52.35700 38.46000
C  24.70000 50.99600 38.82800
H  32.73700 55.13000 39.02000
H  31.99900 61.16900 41.21900
H  25.73400 60.36000 41.26100
H  28.27500 52.90100 39.39900
H  30.86400 53.47600 38.01400
H  31.49800 53.15600 40.75300
H  31.42800 51.80900 39.49900
H  29.99800 52.12600 40.48700
H  27.50800 52.71700 37.07400
H  29.24600 52.45400 36.98700
H  29.55500 53.89900 35.73000
H  29.03500 55.29100 36.72900
H  35.54500 56.85700 39.89400
H  35.13800 57.15300 38.20500
H  34.43800 55.80000 39.05800
H  34.18100 61.86700 41.38000
H  33.61100 61.65600 39.67600
H  35.18000 62.03500 39.86300
H  30.09700 62.60800 41.11500
H  27.41700 61.86700 42.35000
H  30.94200 62.47800 43.26000
H  29.64200 61.31300 43.94400
H  29.40500 63.04300 43.62100
H  26.78800 62.18100 39.80000
H  28.36900 62.82800 39.58600
H  25.91300 63.96200 40.86700
H  27.27100 64.87000 40.28200
H  27.38000 64.27700 41.86000
H  23.56000 59.40600 39.73200
H  23.64700 59.11000 41.46200
H  22.84400 57.91200 40.20900
H  25.94800 54.41100 37.70400
H  23.67000 51.01900 39.18500
H  25.37900 50.54900 39.55400
H  24.69100 50.45700 37.88000

