158

Mg 17.06200 -2.72000 29.01500
C  15.93200 -0.50200 31.54700
C  18.75600 -4.45500 31.29300
C  18.33400 -4.50300 26.44300
C  15.53600 -0.60400 26.66100
N  17.39900 -2.45100 31.21100
C  16.77200 -1.50400 32.04600
C  17.14300 -1.76800 33.55100
C  18.21000 -2.99300 33.45100
C  18.08100 -3.38800 31.93600
C  19.72300 -2.72100 33.82000
C  15.92400 -2.07800 34.43400
C  16.06700 -1.67000 35.90400
H  17.47200 -1.21800 36.45200
N  18.25800 -4.33100 28.93000
C  18.82400 -4.97600 29.96400
C  19.40100 -6.17700 29.43600
C  19.22600 -6.23100 28.04700
C  18.58200 -4.94400 27.75300
C  19.94400 -7.26800 30.33200
C  19.48500 -7.37400 27.12600
O  19.27700 -7.30900 25.92700
C  19.99300 -8.65400 27.63700
N  16.99700 -2.53400 26.83700
C  17.53500 -3.47100 26.01000
C  17.27000 -3.21800 24.55800
C  16.53200 -1.79100 24.60800
C  16.20800 -1.73000 26.12300
C  18.55600 -3.25600 23.69000
C  15.27600 -1.54700 23.66600
C  15.72500 -1.32300 22.15800
N  15.90200 -0.96500 29.01500
C  15.26200 -0.23200 28.00500
C  14.64000 0.96500 28.59800
C  14.87600 0.76100 29.91900
C  15.68400 -0.31300 30.18000
C  13.93500 2.10300 27.82300
C  14.58100 1.49500 31.14700
O  14.04800 2.57500 31.33700
C  15.13500 0.52500 32.22500
C  16.04500 1.45600 33.05400
O  17.20600 1.78700 32.80400
O  15.42200 1.80900 34.24400
C  16.13700 2.62800 35.15100
H  19.17000 -5.05900 32.10300
H  18.83000 -5.09200 25.67000
H  15.05600 0.08200 25.95900
H  17.68500 -0.89600 33.91700
H  17.82800 -3.84600 34.01200
H  19.86400 -1.74700 34.28900
H  20.37600 -2.81200 32.95200
H  19.95900 -3.44300 34.60200
H  15.72800 -3.15000 34.44500
H  15.03000 -1.52800 34.14100
H  15.80000 -2.56100 36.47300
H  15.30500 -0.91500 36.09400
H  19.13200 -7.98000 30.47600
H  20.20600 -6.90600 31.32700
H  20.90800 -7.64200 29.98700
H  19.35000 -9.11800 28.38600
H  20.99400 -8.49000 28.03600
H  20.03500 -9.29900 26.76000
H  16.51900 -3.96100 24.29200
H  17.22600 -0.98500 24.37000
H  19.40300 -2.80400 24.20600
H  18.27000 -2.52300 22.93600
H  18.76700 -4.23900 23.26900
H  14.66200 -0.69600 23.95800
H  14.65200 -2.44000 23.64200
H  15.14600 -0.47400 21.79400
H  15.50500 -2.20700 21.55900
H  16.78500 -1.07500 22.09900
H  12.87600 1.93800 28.01900
H  14.13400 1.97000 26.76000
H  14.27800 3.06700 28.19900
H  14.41800 0.20400 32.98100
H  17.20700 2.61300 34.94500
H  15.98400 2.30600 36.18100
H  15.86000 3.67500 35.02500
Mg 0.08700 43.10000 25.90800
C  2.17100 42.57500 28.59200
C  -2.60200 42.05200 28.01900
C  -1.98900 43.33300 23.22800
C  2.79600 43.91400 23.94400
N  -0.16800 42.37400 28.10400
C  0.85600 42.48100 29.02200
C  0.28200 42.37400 30.50600
C  -1.19100 41.91900 30.17700
C  -1.33100 42.19100 28.68900
C  -1.55500 40.45000 30.56400
C  0.53900 43.75600 31.33800
C  0.65300 43.70200 32.85800
H  0.58300 42.35500 33.55500
N  -2.06900 42.79200 25.71900
C  -2.94400 42.41500 26.68600
C  -4.29500 42.50000 26.10100
C  -4.14600 42.79100 24.69100
C  -2.68600 42.98200 24.49600
C  -5.55800 42.22600 26.99700
C  -5.15900 42.89100 23.61500
O  -4.84700 43.09500 22.47900
C  -6.62800 42.86900 23.82300
N  0.39900 43.39700 23.82300
C  -0.63000 43.57000 22.90800
C  -0.08700 44.11500 21.56100
C  1.38700 44.52800 22.00100
C  1.56600 43.88300 23.33000
C  -0.15200 43.06000 20.44700
C  1.55000 46.05800 22.01400
C  0.60400 46.78100 22.90900
N  2.04100 43.16200 26.15100
C  3.06200 43.46200 25.24000
C  4.37600 43.28800 25.87000
C  4.05300 42.92600 27.18500
C  2.61500 42.92100 27.28700
C  5.70400 43.46300 25.27200
C  4.65800 42.52200 28.52800
O  5.81800 42.19900 28.83300
C  3.43000 42.37900 29.53200
C  3.59100 41.04500 30.19900
O  3.07300 40.00300 29.86800
O  4.43600 41.17800 31.25200
C  4.59700 39.98600 32.13200
H  -3.42100 41.81700 28.70200
H  -2.60600 43.63300 22.37800
H  3.63500 44.25600 23.33500
H  0.76200 41.53600 31.01200
H  -1.95200 42.51500 30.68000
H  -1.29800 40.38000 31.62100
H  -0.94800 39.80300 29.93000
H  -2.60900 40.23600 30.38800
H  -0.33900 44.39600 31.24400
H  1.45700 44.19100 30.94300
H  -0.12200 44.34300 33.27800
H  1.63300 44.15800 32.99900
H  -6.41800 41.97600 26.37600
H  -5.76700 43.12900 27.57000
H  -5.16600 41.39000 27.57700
H  -6.96800 43.78400 24.30800
H  -6.96400 42.06200 24.47400
H  -7.28300 42.73200 22.96300
H  -0.66700 45.01300 21.34800
H  2.15600 44.06800 21.38000
H  -0.52100 43.50200 19.52100
H  -0.73200 42.16000 20.64700
H  0.84700 42.85200 20.06300
H  1.57600 46.48400 21.01000
H  2.50000 46.22200 22.52300
H  1.03000 47.24200 23.80100
H  -0.22000 46.11900 23.17300
H  0.17000 47.58600 22.31800
H  6.44600 42.87900 25.81600
H  6.11300 44.46700 25.15800
H  5.41600 43.03000 24.31400
H  3.40500 43.05100 30.39000
H  3.79200 40.02600 32.86600
H  5.51600 40.10200 32.70800
H  4.54000 39.08000 31.52800

