158

Mg 6.01900 53.60000 40.70300
C  4.87400 50.26600 40.39100
C  9.14400 52.66100 39.60700
C  6.84800 56.79700 40.70800
C  2.66700 54.47700 41.11600
N  6.88600 51.70800 40.10300
C  6.23700 50.48700 40.05900
C  7.27400 49.45000 39.71700
C  8.66300 50.19300 39.94200
C  8.18600 51.62300 39.81800
C  9.47700 49.75200 41.21000
C  7.18400 48.82900 38.29100
C  7.00100 49.74600 37.10100
H  6.14200 49.17600 35.96600
N  7.79100 54.65700 40.21500
C  8.94300 54.05700 39.77100
C  9.89100 55.14000 39.49500
C  9.36100 56.34900 40.03300
C  7.95000 55.97100 40.34100
C  11.25300 54.81500 38.97600
C  10.08900 57.70100 40.20700
O  11.24200 57.81600 39.83300
C  9.50400 58.76400 41.08300
N  4.94100 55.34500 40.68900
C  5.53600 56.49900 40.88200
C  4.51700 57.61700 40.94300
C  3.13600 56.94600 41.06900
C  3.63200 55.47400 40.99300
C  4.75100 58.64800 42.06700
C  2.03200 57.28700 40.01700
C  0.65800 57.59800 40.61600
N  4.14800 52.62700 40.75300
C  2.86000 53.07600 40.96400
C  1.93300 52.01300 41.18500
C  2.72400 50.86100 40.92300
C  4.02500 51.31900 40.67100
C  0.47400 52.07600 41.51600
C  2.68100 49.40800 40.83800
O  1.79400 48.67800 41.22900
C  4.08300 48.98100 40.46100
C  3.95400 48.17400 39.28900
O  3.51400 48.54700 38.21500
O  4.20100 46.86500 39.57300
C  3.84300 45.90500 38.48000
H  10.11500 52.26700 39.29800
H  7.04800 57.84700 40.48600
H  1.65700 54.71000 41.46100
H  7.14600 48.72900 40.52500
H  9.33500 50.11200 39.08700
H  9.39500 50.53500 41.96500
H  10.52500 49.64000 40.93200
H  9.15200 48.79800 41.62500
H  6.48800 47.99500 38.37700
H  8.10600 48.28400 38.08900
H  8.06600 49.86700 36.90100
H  6.66400 50.73200 37.42100
H  11.16200 54.13000 38.13400
H  11.87000 54.48700 39.81300
H  11.69200 55.74000 38.60300
H  10.13900 59.39000 41.71100
H  8.76400 58.27400 41.71400
H  8.96800 59.27100 40.28100
H  4.59200 58.07600 39.95800
H  2.80200 57.23100 42.06700
H  3.79200 59.13500 42.24300
H  5.41900 59.47800 41.83600
H  5.14000 58.18000 42.97200
H  2.03600 56.54700 39.21600
H  2.24800 58.27300 39.60500
H  0.44100 58.65500 40.46100
H  0.66000 57.34000 41.67500
H  -0.08600 57.01300 40.07600
H  0.60100 52.17500 42.59500
H  -0.13200 51.22100 41.21600
H  0.02800 52.98500 41.11300
H  4.52400 48.39000 41.26300
H  2.80400 45.98500 38.16000
H  4.27700 44.97100 38.83500
H  4.56300 46.17200 37.70600
Mg -5.62300 25.30600 26.22300
C  -4.14200 26.88200 29.04100
C  -7.45400 23.48700 28.32300
C  -6.48600 23.55600 23.52100
C  -3.33700 27.20500 24.27300
N  -5.60500 25.11700 28.49700
C  -5.06200 25.97400 29.39200
C  -5.53600 25.53000 30.82700
C  -6.31700 24.23500 30.55300
C  -6.61300 24.35200 29.01900
C  -5.68200 23.01600 31.05300
C  -6.34400 26.61500 31.50800
C  -5.88200 26.99000 32.92600
H  -5.19100 26.05900 33.90400
N  -6.86200 23.77000 25.90400
C  -7.67100 23.20100 26.97500
C  -8.69500 22.47100 26.27600
C  -8.38200 22.36000 24.86000
C  -7.20600 23.26100 24.69800
C  -9.81000 21.83100 27.00700
C  -8.95500 21.52000 23.66200
O  -8.54400 21.57900 22.52500
C  -10.11500 20.60000 23.91100
N  -4.88600 25.30600 24.29700
C  -5.51900 24.56500 23.33700
C  -4.88000 24.66800 21.95900
C  -4.03100 25.98900 22.14200
C  -4.08000 26.25900 23.63700
C  -4.09700 23.44000 21.54200
C  -4.56800 27.13900 21.30600
C  -3.61900 27.59900 20.09700
N  -4.06800 26.72300 26.45600
C  -3.26900 27.45300 25.62900
C  -2.41500 28.41200 26.32700
C  -2.74200 28.19300 27.67700
C  -3.78000 27.20600 27.70000
C  -1.40600 29.31600 25.70700
C  -2.45400 28.65100 29.07100
O  -1.65400 29.47000 29.56100
C  -3.34400 27.72800 30.06900
C  -2.37100 26.83200 30.72100
O  -1.89600 25.72900 30.33900
O  -1.99000 27.43700 31.93500
C  -1.05400 26.74500 32.78000
H  -8.07700 22.97800 29.06200
H  -6.81500 23.04400 22.61300
H  -2.65700 27.78500 23.64600
H  -4.65500 25.37400 31.45100
H  -7.32100 24.21300 30.97500
H  -6.28300 22.58000 31.85100
H  -4.68500 23.18200 31.45900
H  -5.62900 22.20500 30.32700
H  -7.38000 26.29900 31.63800
H  -6.31200 27.44100 30.79700
H  -6.81500 27.34500 33.36400
H  -5.29500 27.90900 32.92100
H  -10.05600 22.46900 27.85600
H  -9.58000 20.77800 27.17000
H  -10.70900 21.89300 26.39500
H  -10.35400 20.15700 22.94400
H  -10.94900 21.23800 24.20300
H  -9.84000 19.89600 24.69600
H  -5.65500 24.80800 21.20600
H  -2.98000 25.80400 21.92500
H  -3.06400 23.52800 21.20500
H  -4.53600 22.99300 20.65000
H  -4.08600 22.64000 22.28200
H  -4.61800 27.99400 21.98000
H  -5.58900 26.88800 21.01900
H  -3.15600 28.53700 20.40300
H  -4.23600 27.65500 19.20000
H  -2.88000 26.80800 19.97100
H  -1.86000 30.20400 25.26800
H  -0.81700 28.71400 25.01500
H  -0.69700 29.63300 26.47300
H  -3.97000 28.31100 30.74500
H  -0.16500 26.35800 32.28400
H  -1.51300 25.85200 33.20300
H  -0.64400 27.39600 33.55200

