158

Mg 40.53100 8.03500 29.17600
C  42.45100 9.43000 31.73800
C  38.34500 6.79400 31.54900
C  38.95600 6.50300 26.70500
C  43.37300 8.50300 26.93500
N  40.47400 7.99000 31.39600
C  41.27000 8.77700 32.18100
C  40.81100 8.76400 33.66000
C  39.58600 7.75200 33.56300
C  39.44700 7.47800 32.10500
C  39.60600 6.43200 34.32100
C  40.44300 10.17700 34.09800
C  39.74300 10.22200 35.50400
H  40.25800 11.10500 36.59600
N  38.88000 6.86100 29.08300
C  38.08200 6.50100 30.20800
C  36.96100 5.69500 29.62500
C  37.13200 5.67200 28.20100
C  38.33900 6.38400 27.91100
C  35.81300 5.13500 30.53000
C  36.12600 5.17400 27.20400
O  36.24800 5.37800 25.99800
C  34.79100 4.60100 27.63400
N  41.09400 7.56300 27.11800
C  40.21400 7.02800 26.29500
C  40.74100 6.72600 24.89400
C  42.13800 7.32300 24.98700
C  42.23700 7.85000 26.41800
C  40.78000 5.20800 24.56100
C  42.40800 8.32800 23.93300
C  41.91500 9.75100 24.20300
N  42.48600 8.89300 29.20300
C  43.48700 9.03400 28.23600
C  44.62200 9.63200 28.81800
C  44.30600 9.84100 30.21400
C  42.97500 9.36200 30.38600
C  45.99800 9.91200 28.17500
C  44.77500 10.34800 31.47100
O  45.86000 10.89700 31.72400
C  43.54600 10.17500 32.51200
C  43.98300 9.39700 33.66900
O  44.47300 8.26300 33.58900
O  43.95300 10.10100 34.83300
C  44.23300 9.36100 36.08900
H  37.70600 6.43200 32.35600
H  38.43100 5.97100 25.90900
H  44.21200 8.52300 26.23600
H  41.56300 8.36300 34.33900
H  38.72500 8.36400 33.83000
H  40.43900 6.37600 35.02200
H  39.56500 5.51800 33.72900
H  38.66800 6.49800 34.87300
H  39.83600 10.61300 33.30400
H  41.28500 10.85400 34.25100
H  39.63400 9.18600 35.82700
H  38.67100 10.40300 35.42300
H  36.09200 5.28400 31.57300
H  35.84100 4.09400 30.20700
H  34.86400 5.63900 30.34800
H  34.08700 5.27200 28.12500
H  35.13600 3.79700 28.28400
H  34.25900 4.16100 26.79100
H  40.13200 7.27200 24.17400
H  43.02100 6.69000 25.06900
H  40.28900 4.53000 25.25900
H  41.80300 4.89700 24.35200
H  40.38700 4.95600 23.57600
H  41.91400 8.00500 23.01700
H  43.48100 8.34300 23.74200
H  42.77000 10.41300 24.34000
H  41.30800 9.82000 25.10600
H  41.37300 10.20200 23.37100
H  46.38400 8.94800 27.84200
H  46.80600 10.11600 28.87800
H  45.94800 10.68500 27.40800
H  43.23100 11.16200 32.85100
H  43.55800 8.51100 36.18200
H  43.91800 10.09400 36.83200
H  45.25500 9.05200 36.30700
Mg 16.02400 52.54300 25.50300
C  18.05200 51.52000 28.37600
C  13.46300 52.95600 27.66300
C  14.16600 53.28900 22.81700
C  18.72300 51.45900 23.48400
N  15.78700 52.11200 27.72000
C  16.73300 51.89000 28.70400
C  16.21100 52.30000 30.13700
C  14.68400 52.36900 29.88000
C  14.62700 52.53800 28.30200
C  13.91600 51.15600 30.49800
C  16.91100 53.62700 30.64600
C  16.76700 53.89800 32.17900
H  16.19000 52.78700 33.04400
N  14.08500 53.10500 25.27900
C  13.17700 53.19700 26.25200
C  11.89800 53.63900 25.77300
C  12.04500 53.73500 24.39300
C  13.47700 53.38400 24.07200
C  10.68900 53.92100 26.56700
C  11.02800 54.23800 23.31700
O  11.42500 54.39800 22.18700
C  9.49500 54.52700 23.60000
N  16.35500 52.32900 23.43900
C  15.42900 52.77800 22.52700
C  16.03100 52.74800 21.09800
C  17.42800 52.09000 21.35200
C  17.52000 51.91400 22.85500
C  15.16700 52.27300 19.93000
C  18.57100 52.83300 20.64500
C  19.29700 53.85200 21.51300
N  17.99600 51.67600 25.78500
C  19.04600 51.33600 24.86100
C  20.08500 50.79500 25.58300
C  19.77000 50.84100 26.90600
C  18.53300 51.44100 27.00400
C  21.43600 50.39400 25.03500
C  20.31400 50.60500 28.17400
O  21.45100 50.19700 28.43800
C  19.21400 50.96000 29.20600
C  18.83500 49.74600 30.07700
O  18.39500 48.65200 29.69500
O  19.14600 50.00000 31.40700
C  18.65100 49.03800 32.43200
H  12.68400 53.06100 28.42100
H  13.59600 53.50200 21.91000
H  19.52100 51.03500 22.87000
H  16.51200 51.44800 30.74600
H  14.31000 53.29100 30.32600
H  13.25500 51.57800 31.25500
H  14.63300 50.55400 31.05600
H  13.36600 50.64600 29.70700
H  16.40500 54.45000 30.14200
H  17.91900 53.71400 30.24000
H  16.07300 54.73700 32.20600
H  17.67000 54.17300 32.72400
H  9.99400 53.08400 26.49000
H  10.28800 54.87500 26.22600
H  10.99500 54.08400 27.60100
H  9.09200 53.74200 24.23900
H  8.89300 54.71700 22.71100
H  9.37000 55.44000 24.18300
H  16.23300 53.81300 20.97900
H  17.31400 51.09000 20.93500
H  14.84800 51.27000 20.21500
H  15.86600 52.29100 19.09400
H  14.31500 52.89300 19.65300
H  18.26200 53.30300 19.71100
H  19.28600 52.04700 20.40100
H  19.26100 54.82200 21.01700
H  20.32800 53.54100 21.68000
H  19.00300 54.15400 22.51800
H  21.58200 49.31500 24.99600
H  22.20300 50.93400 25.59000
H  21.46800 50.64000 23.97300
H  19.56300 51.79200 29.81800
H  17.67600 48.63000 32.16600
H  18.75300 49.47800 33.42500
H  19.34600 48.20100 32.49400

