158

Mg 0.68700 43.45300 25.75000
C  2.92300 43.30000 28.52900
C  -1.93600 43.01000 27.95700
C  -1.33800 43.36300 23.12200
C  3.47700 43.66800 23.71100
N  0.55100 43.19200 28.02300
C  1.60900 43.17700 28.86000
C  1.05800 43.05600 30.27200
C  -0.49100 42.74100 30.07000
C  -0.66200 42.99100 28.62000
C  -0.90600 41.36200 30.65600
C  1.36500 44.35900 31.14700
C  1.89900 44.28600 32.54300
H  1.62400 42.96200 33.26600
N  -1.34800 43.16200 25.59200
C  -2.24700 42.95100 26.58900
C  -3.62800 42.92300 26.08700
C  -3.51100 42.96400 24.64300
C  -2.02600 43.22200 24.36100
C  -4.82400 42.80000 27.01500
C  -4.54500 42.90100 23.56500
O  -4.26600 42.90800 22.38600
C  -5.97100 42.92500 23.92500
N  1.01000 43.42100 23.76200
C  -0.00900 43.54100 22.87900
C  0.53500 43.97400 21.52300
C  2.07600 44.29400 21.77300
C  2.20600 43.74000 23.17500
C  0.27400 43.02800 20.32000
C  2.48500 45.77000 21.67700
C  3.70000 46.10000 20.78500
N  2.75900 43.55800 26.03700
C  3.75800 43.64800 25.08300
C  5.10900 43.69300 25.71300
C  4.79000 43.61000 27.13700
C  3.35700 43.41900 27.25100
C  6.46000 43.72700 24.95400
C  5.41600 43.47700 28.41300
O  6.60000 43.49700 28.74200
C  4.24500 43.38800 29.39500
C  4.44700 42.26700 30.34500
O  4.03800 41.13400 30.32200
O  5.37000 42.72200 31.27000
C  5.79700 41.79600 32.34400
H  -2.72900 42.88700 28.69800
H  -1.93500 43.56500 22.23000
H  4.34000 43.91700 23.08900
H  1.49100 42.15600 30.70800
H  -1.14400 43.50400 30.49400
H  -0.29700 41.05100 31.50500
H  -0.97700 40.62600 29.85500
H  -1.92000 41.48600 31.03600
H  0.46000 44.96500 31.18700
H  2.10400 44.95300 30.61000
H  1.39800 45.09700 33.07300
H  2.90900 44.65600 32.71800
H  -5.76200 42.50200 26.54600
H  -5.10300 43.82600 27.25200
H  -4.64300 42.23500 27.93000
H  -6.57300 43.03200 23.02300
H  -6.23700 43.55900 24.77100
H  -6.17000 41.94000 24.34600
H  -0.00100 44.92200 21.46300
H  2.75000 43.72500 21.13300
H  1.18000 43.05700 19.71400
H  -0.58900 43.39800 19.76600
H  -0.00900 42.04400 20.69200
H  2.58400 46.06200 22.72300
H  1.61700 46.28500 21.26600
H  4.49600 46.25800 21.51300
H  3.45500 47.02100 20.25700
H  3.90200 45.26300 20.11600
H  6.81500 42.69800 25.00900
H  7.22400 44.31800 25.45900
H  6.33600 44.04900 23.92000
H  4.34800 44.34000 29.91400
H  5.36500 42.14000 33.28300
H  6.83600 42.12300 32.32800
H  5.61900 40.77400 32.00900
Mg -5.06100 25.14300 26.33100
C  -4.07700 26.62500 29.29100
C  -7.24000 23.08100 28.06300
C  -6.24500 24.08400 23.39700
C  -2.90600 27.34600 24.51400
N  -5.55400 24.86200 28.46300
C  -5.03600 25.63000 29.46200
C  -5.65400 25.15000 30.81600
C  -6.39700 23.83500 30.43900
C  -6.36900 23.86600 28.89100
C  -5.75600 22.52700 31.05700
C  -6.43000 26.26400 31.51800
C  -6.08700 26.60800 32.96900
H  -5.76400 25.38400 33.94200
N  -6.45300 23.72700 25.83500
C  -7.31500 23.07500 26.65500
C  -8.27200 22.36300 25.88200
C  -8.02100 22.56500 24.53800
C  -6.94400 23.52900 24.52000
C  -9.35700 21.43400 26.45900
C  -8.57900 21.89500 23.28200
O  -8.18800 22.21900 22.14400
C  -9.69000 20.87000 23.35400
N  -4.37600 25.42200 24.20200
C  -5.19100 24.99700 23.26000
C  -4.62400 25.40400 21.92700
C  -3.64500 26.58500 22.21300
C  -3.61500 26.41600 23.70000
C  -3.84500 24.17700 21.28800
C  -4.23000 28.09700 21.84600
C  -3.31700 28.84700 20.87800
N  -3.70700 26.59200 26.77100
C  -2.91300 27.39900 25.94600
C  -2.16500 28.36400 26.78200
C  -2.58200 27.96800 28.10600
C  -3.51500 26.95000 28.01400
C  -1.16800 29.35900 26.33000
C  -2.44800 28.32500 29.56300
O  -1.74400 29.19800 30.08100
C  -3.37800 27.42100 30.31700
C  -2.53600 26.56200 31.14400
O  -1.85900 25.60900 30.77000
O  -2.56200 27.01100 32.46800
C  -1.79900 26.32800 33.42600
H  -8.03300 22.57100 28.61500
H  -6.59200 23.83800 22.39100
H  -2.31600 28.06400 23.94200
H  -4.80300 24.90900 31.45300
H  -7.44700 23.85100 30.73100
H  -5.04500 22.72100 31.86100
H  -5.18200 22.03200 30.27300
H  -6.57500 21.87900 31.36700
H  -7.48700 25.99800 31.53100
H  -6.28100 27.17700 30.94200
H  -6.95700 27.08400 33.42000
H  -5.26800 27.30900 33.12900
H  -10.27100 21.33400 25.87300
H  -9.75700 21.65100 27.45000
H  -9.01900 20.39900 26.50400
H  -10.61700 21.28900 23.74600
H  -9.36900 20.10300 24.05900
H  -9.80300 20.56700 22.31300
H  -5.46600 25.73600 21.31900
H  -2.74300 26.39000 21.63400
H  -4.47200 23.30600 21.47900
H  -2.90900 23.97500 21.81100
H  -3.72500 24.41100 20.23100
H  -4.37200 28.69500 22.74600
H  -5.18000 27.95700 21.32900
H  -3.08300 29.76300 21.42000
H  -3.85400 29.07700 19.95800
H  -2.39300 28.29200 20.71800
H  -0.25100 28.94200 25.91500
H  -0.87500 29.94200 27.20300
H  -1.64500 30.06500 25.64900
H  -4.04600 27.92800 31.01300
H  -0.80500 26.69400 33.16600
H  -1.85200 25.24900 33.28700
H  -1.86600 26.48200 34.50300

