158

Mg 24.26400 -4.82800 45.38900
C  26.29800 -2.38600 43.88200
C  21.72300 -3.82800 43.30600
C  22.45700 -7.47400 46.46300
C  27.12300 -5.86200 47.11600
N  24.07300 -3.29000 43.88700
C  24.99200 -2.44300 43.36600
C  24.52700 -1.75700 42.09300
C  22.98200 -1.90400 42.11500
C  22.91400 -3.05500 43.21000
C  22.14500 -0.68800 42.53800
C  25.14900 -2.30700 40.80300
C  25.69300 -1.21600 39.86800
H  25.22200 -1.25100 38.39900
N  22.31100 -5.48800 44.97000
C  21.40300 -4.92800 44.05400
C  20.22100 -5.76000 44.02100
C  20.40800 -6.82800 44.93600
C  21.78300 -6.61600 45.53400
C  19.01300 -5.28100 43.31500
C  19.34600 -7.88000 45.31500
O  18.17800 -7.85300 44.88900
C  19.53500 -9.01900 46.21600
N  24.84500 -6.49900 46.48000
C  23.82000 -7.39200 46.84400
C  24.45500 -8.42800 47.86400
C  25.93700 -7.96400 48.08200
C  26.00200 -6.65200 47.23600
C  23.60900 -8.42800 49.15600
C  27.07000 -8.95800 47.72500
C  27.87600 -9.35600 48.94900
N  26.40200 -4.29700 45.43900
C  27.32500 -4.76900 46.23000
C  28.57900 -4.05300 45.92500
C  28.28800 -3.08500 44.97800
C  26.89200 -3.26500 44.77800
C  29.93200 -4.25100 46.55900
C  28.69100 -1.96600 44.20100
O  29.79500 -1.42100 44.06200
C  27.40400 -1.41200 43.42700
C  27.21400 0.07700 43.74800
O  26.34000 0.50000 44.48700
O  28.01600 0.80900 42.88200
C  27.69800 2.24500 42.55400
H  20.93100 -3.46900 42.64500
H  22.03600 -8.42900 46.78400
H  28.00500 -6.24600 47.63400
H  24.71200 -0.68400 42.14900
H  22.61100 -2.25700 41.15200
H  22.78800 0.17100 42.73000
H  21.50000 -0.85500 43.40100
H  21.43800 -0.22900 41.84600
H  24.39800 -2.77200 40.16500
H  25.85500 -3.11400 41.00000
H  26.78200 -1.17600 39.87900
H  25.47000 -0.17200 40.08900
H  18.86300 -5.81200 42.37400
H  19.01600 -4.22300 43.05400
H  18.21600 -5.40700 44.04700
H  20.38000 -9.64600 45.93100
H  18.64900 -9.65100 46.26900
H  19.65800 -8.77300 47.27000
H  24.36700 -9.41700 47.41300
H  25.97500 -7.62200 49.11600
H  22.73900 -7.77200 49.12900
H  24.16300 -8.01200 49.99800
H  23.27400 -9.36300 49.60600
H  27.72400 -8.55600 46.95100
H  26.49700 -9.80100 47.33800
H  27.31300 -10.00900 49.61600
H  28.15100 -8.49900 49.56400
H  28.76300 -9.87800 48.59300
H  30.31200 -5.22400 46.24800
H  29.91700 -4.29700 47.64800
H  30.71200 -3.55400 46.25200
H  27.63700 -1.38600 42.36300
H  27.82100 2.73400 43.52000
H  26.78700 2.56600 42.04800
H  28.56300 2.55200 41.96500
Mg 35.31100 48.39700 24.59500
C  35.45900 46.74600 27.73000
C  33.93300 51.15700 26.09600
C  34.73200 49.71200 21.52900
C  36.13600 45.23500 23.15700
N  34.61900 48.73400 26.76000
C  35.00100 48.04400 27.87000
C  34.70000 48.93300 29.15700
C  34.11300 50.27800 28.52900
C  34.21000 50.04600 26.99000
C  32.67200 50.59100 28.96500
C  35.85200 49.14400 30.21400
C  35.54900 48.66500 31.60000
H  34.10900 48.57500 32.10800
N  34.58100 50.16100 23.92900
C  34.13700 51.19000 24.64600
C  33.90500 52.33800 23.89000
C  33.98700 51.87400 22.49900
C  34.41600 50.52800 22.58800
C  33.49600 53.62100 24.39500
C  33.61900 52.64000 21.21400
O  33.70000 52.09200 20.10200
C  33.24900 53.99000 21.20300
N  35.33800 47.53600 22.69800
C  35.23900 48.33100 21.58900
C  35.53400 47.56400 20.34800
C  36.02700 46.13700 20.80100
C  35.81000 46.27600 22.32300
C  34.48000 47.56700 19.27100
C  37.49600 45.78500 20.51300
C  38.46800 46.80200 21.21900
N  35.73600 46.40300 25.22700
C  36.08600 45.32300 24.54000
C  36.43500 44.24500 25.44300
C  36.19100 44.76200 26.71400
C  35.80300 46.09000 26.53300
C  36.85600 42.93800 25.01600
C  36.28400 44.41300 28.07200
O  36.50400 43.37800 28.65500
C  35.81200 45.80900 28.80500
C  34.64400 45.42900 29.71100
O  33.45700 45.18300 29.41700
O  35.14800 45.18800 30.94000
C  34.34700 44.58100 31.98300
H  33.67300 52.07400 26.62800
H  34.56100 50.13300 20.53600
H  36.35900 44.34000 22.57300
H  33.95500 48.29400 29.63000
H  34.71800 51.16600 28.71500
H  32.19700 49.78000 29.51600
H  32.11500 50.77800 28.04700
H  32.64500 51.46200 29.62000
H  36.14300 50.19300 30.27300
H  36.71200 48.65400 29.75700
H  36.10700 49.27600 32.31000
H  36.10600 47.73600 31.71700
H  33.64600 54.48000 23.74100
H  34.04000 53.85300 25.31000
H  32.43700 53.66000 24.65100
H  34.12800 54.59100 21.43800
H  32.48900 54.26200 21.93600
H  32.85000 54.33200 20.24800
H  36.38100 48.15600 20.00100
H  35.29300 45.43100 20.41400
H  34.58600 46.61400 18.75300
H  34.60100 48.45400 18.64900
H  33.52100 47.58400 19.78800
H  37.69300 45.86200 19.44300
H  37.77200 44.75300 20.72700
H  39.12900 47.33500 20.53500
H  39.28300 46.44400 21.84900
H  37.93100 47.54800 21.80600
H  37.91600 42.68500 25.00400
H  36.31200 42.58500 24.13900
H  36.51600 42.41600 25.91000
H  36.65300 46.21900 29.36400
H  34.15300 43.54100 31.72100
H  33.40900 45.09600 32.18600
H  34.89400 44.55900 32.92600

