158

Mg 8.91900 47.70900 27.90700
C  6.95000 47.20000 30.82400
C  11.67500 47.71900 29.90100
C  10.69600 48.47100 25.10700
C  5.95400 47.80700 25.92400
N  9.26300 47.44300 30.13700
C  8.33900 47.28300 31.10600
C  8.93000 47.20400 32.49800
C  10.46000 47.44200 32.25600
C  10.50400 47.45700 30.67300
C  11.09100 48.61900 33.05300
C  8.49400 45.95600 33.37000
C  9.51600 45.33700 34.38400
H  8.95500 44.78600 35.72400
N  10.84900 48.02200 27.54800
C  11.86800 48.00300 28.52700
C  13.14100 48.20700 27.83300
C  12.88300 48.55300 26.43200
C  11.40800 48.35800 26.30500
C  14.51300 48.03900 28.52600
C  13.86600 48.82300 25.25400
O  13.44700 49.25300 24.16300
C  15.19500 48.62600 25.43000
N  8.37600 47.83400 25.69800
C  9.33400 48.33600 24.85100
C  8.67400 48.70400 23.45500
C  7.15000 48.18700 23.67800
C  7.15600 47.97100 25.16600
C  8.58500 50.24100 23.19600
C  6.73000 46.99800 22.75300
C  5.77300 47.28900 21.53600
N  6.92500 47.67100 28.23600
C  5.82200 47.67000 27.36000
C  4.60300 47.52100 28.04400
C  4.99200 47.44400 29.40100
C  6.44600 47.39300 29.51300
C  3.32100 47.41300 27.28000
C  4.51600 47.24700 30.71700
O  3.34600 47.29000 31.10100
C  5.72100 47.00400 31.73200
C  5.60800 45.67600 32.23700
O  5.87300 44.61200 31.65800
O  5.12700 45.70300 33.48600
C  4.99500 44.34000 34.13100
H  12.54800 47.75900 30.55700
H  11.21300 48.66700 24.16600
H  5.09300 47.68800 25.26300
H  8.51600 48.06600 33.02000
H  11.02800 46.60900 32.67000
H  11.40800 49.37500 32.33500
H  11.93000 48.18900 33.60000
H  10.43000 49.15000 33.73900
H  8.11800 45.28300 32.60000
H  7.62800 46.19800 33.98700
H  10.25400 46.13500 34.45900
H  10.01700 44.56700 33.79700
H  14.90100 47.07500 28.19500
H  14.53900 47.99300 29.61400
H  15.16300 48.86900 28.25200
H  15.56200 49.30900 26.19600
H  15.77300 48.72900 24.51100
H  15.29500 47.59600 25.77300
H  9.13900 48.13600 22.65000
H  6.36400 48.87600 23.36700
H  7.68300 50.49800 22.64000
H  9.44600 50.57200 22.61500
H  8.64600 50.74400 24.16100
H  6.13100 46.33100 23.37400
H  7.64600 46.47300 22.48400
H  4.75700 46.91400 21.66100
H  6.23900 46.76100 20.70500
H  5.64100 48.34000 21.27800
H  2.39700 47.66200 27.80200
H  3.23300 46.40500 26.87600
H  3.27200 48.06500 26.40800
H  5.72000 47.62000 32.63100
H  5.91300 43.85500 34.46500
H  4.41900 43.63500 33.53100
H  4.43700 44.44200 35.06200
Mg -10.54100 17.27800 42.69600
C  -7.08600 16.64700 42.53000
C  -9.95800 20.40100 41.39200
C  -13.78600 17.83900 42.65200
C  -11.14000 13.82000 43.09600
N  -8.71600 18.26200 41.90800
C  -7.40800 17.91600 42.19500
C  -6.32300 19.05100 41.91000
C  -7.35500 20.30900 41.72900
C  -8.75800 19.66500 41.63600
C  -7.20700 21.54100 42.66100
C  -5.34200 18.85900 40.70400
C  -5.77500 18.10100 39.43700
H  -5.54400 18.86600 38.11100
N  -11.69900 18.92500 42.04500
C  -11.29700 20.11000 41.56000
C  -12.39700 20.97400 41.39200
C  -13.59100 20.24300 41.69200
C  -13.08200 18.96200 42.13500
C  -12.18900 22.38700 40.96900
C  -15.01300 20.78800 41.56200
O  -15.18600 21.96100 41.22100
C  -16.12100 19.96400 42.04200
N  -12.24900 15.99200 42.61900
C  -13.47100 16.55100 42.92500
C  -14.48000 15.50400 43.43600
C  -13.71900 14.15000 43.12900
C  -12.24300 14.65800 42.93100
C  -14.93000 15.73400 44.92200
C  -14.21800 13.40400 41.89200
C  -15.19600 12.22500 42.25900
N  -9.38000 15.55000 42.91400
C  -9.73000 14.22600 43.03900
C  -8.49600 13.42600 43.36200
C  -7.42800 14.32300 43.11700
C  -8.02200 15.59900 42.82700
C  -8.46400 11.96400 43.76200
C  -5.99100 14.53600 43.14600
O  -5.02200 13.76100 43.34000
C  -5.73300 16.02100 42.65400
C  -4.80300 16.65200 43.75200
O  -3.61100 17.00700 43.53100
O  -5.47500 16.74900 44.88200
C  -4.74300 17.48000 45.96100
H  -9.66100 21.43100 41.18800
H  -14.85400 17.81500 42.88100
H  -11.29800 12.77400 43.36800
H  -5.68400 19.14300 42.78800
H  -7.25100 20.78600 40.75500
H  -8.19000 21.82400 43.03800
H  -6.83400 22.38900 42.08700
H  -6.53400 21.38800 43.50400
H  -4.37400 18.52800 41.08000
H  -5.20600 19.90300 40.42100
H  -6.78000 17.68800 39.52900
H  -5.16700 17.21200 39.27300
H  -13.04900 23.00300 41.23000
H  -12.09400 22.39900 39.88300
H  -11.38300 22.96100 41.42400
H  -15.97200 18.94000 41.69900
H  -16.96000 20.37100 41.47700
H  -16.21700 20.16100 43.10900
H  -15.36700 15.58700 42.80700
H  -13.68600 13.60100 44.07000
H  -15.93200 16.16100 44.88600
H  -14.24200 16.44500 45.37900
H  -15.00600 14.75800 45.40100
H  -13.38500 12.97500 41.33500
H  -14.75600 14.10000 41.24800
H  -14.79200 11.28300 41.88700
H  -16.16000 12.44100 41.79800
H  -15.21900 12.03300 43.33200
H  -7.63900 11.94200 44.47400
H  -8.28100 11.32800 42.89600
H  -9.33400 11.57000 44.28700
H  -5.25800 15.95100 41.67500
H  -3.77600 17.96300 45.81500
H  -4.51100 16.79300 46.77400
H  -5.44000 18.17400 46.43200

