158

Mg -10.94300 15.62300 42.67400
C  -7.67400 16.71200 42.89300
C  -11.97300 18.77300 42.10600
C  -13.96100 14.37900 42.58500
C  -9.65500 12.28300 42.72900
N  -9.87300 17.45800 42.47100
C  -8.55400 17.70700 42.65600
C  -8.19900 19.05000 42.25900
C  -9.59700 19.83200 42.35700
C  -10.56300 18.62800 42.31100
C  -9.75300 20.62900 43.66500
C  -7.51400 19.12500 40.85500
C  -6.20000 19.99300 40.66100
H  -5.18000 19.43000 39.73300
N  -12.78700 16.49000 42.38400
C  -13.06600 17.80300 42.23100
C  -14.50500 17.98400 42.11500
C  -15.08400 16.73100 42.23100
C  -13.93500 15.79500 42.41300
C  -15.12100 19.31500 41.91600
C  -16.55600 16.33200 42.14600
O  -17.36900 17.22500 42.18100
C  -17.03900 14.93200 41.70000
N  -11.67900 13.65500 42.58400
C  -12.97500 13.44000 42.69600
C  -13.35900 12.01100 42.97000
C  -12.01000 11.33700 42.70500
C  -11.07100 12.51700 42.55800
C  -13.90500 11.79000 44.40400
C  -12.08500 10.26500 41.58300
C  -12.15500 8.76200 42.02700
N  -9.07400 14.60500 42.86400
C  -8.69800 13.29200 42.83000
C  -7.30600 13.18600 43.17100
C  -6.79400 14.48600 43.10100
C  -7.93500 15.31900 42.98200
C  -6.43200 11.90200 43.28800
C  -5.63600 15.43600 43.15900
O  -4.45200 15.18200 43.36400
C  -6.14800 16.92500 43.09800
C  -5.73400 17.49300 44.37200
O  -6.21800 17.29500 45.48700
O  -4.73700 18.44600 44.27900
C  -4.42100 19.35400 45.38800
H  -12.27000 19.79900 41.88200
H  -14.94000 13.89800 42.64100
H  -9.28700 11.25500 42.72500
H  -7.47800 19.48400 42.95200
H  -9.74200 20.43200 41.45900
H  -10.70100 20.50700 44.18800
H  -9.75400 21.67700 43.36500
H  -8.90300 20.44100 44.32000
H  -8.17100 19.56500 40.10500
H  -7.39800 18.10200 40.49700
H  -5.77600 20.11100 41.65800
H  -6.41600 21.03900 40.44500
H  -15.46000 19.40300 40.88400
H  -14.35200 20.07600 42.04900
H  -15.93400 19.47300 42.62500
H  -18.03000 15.05700 41.26300
H  -17.26100 14.17300 42.45000
H  -16.38200 14.42400 40.99300
H  -14.15100 11.54300 42.38500
H  -11.63100 10.82500 43.58900
H  -14.95100 11.48400 44.38800
H  -13.85600 12.78300 44.85200
H  -13.31300 11.08500 44.98800
H  -11.16900 10.37200 41.00200
H  -12.85500 10.62400 40.90100
H  -11.51200 8.03100 41.53600
H  -13.20200 8.49600 41.87600
H  -12.12200 8.60400 43.10500
H  -5.38400 12.16700 43.42500
H  -6.68000 11.55600 42.28400
H  -6.68200 11.20100 44.08400
H  -5.75300 17.45000 42.22800
H  -5.16100 19.30400 46.18600
H  -4.35000 20.38700 45.04700
H  -3.53900 19.01100 45.92900
Mg -5.28400 25.41700 25.83300
C  -3.80800 26.93300 28.62000
C  -6.88600 23.22700 28.12500
C  -6.60600 23.74800 23.25900
C  -3.49700 27.44100 23.78100
N  -5.50100 25.22400 28.08400
C  -4.70900 25.92700 28.97900
C  -5.01000 25.45100 30.42000
C  -5.84000 24.16300 30.23800
C  -6.16100 24.25400 28.73000
C  -5.10600 22.88400 30.60100
C  -5.71100 26.59800 31.22300
C  -6.50100 26.36000 32.53100
H  -6.19200 25.09600 33.34100
N  -6.59700 23.70700 25.70600
C  -7.14300 22.93400 26.76600
C  -7.99900 21.95000 26.19500
C  -8.01400 22.12500 24.76900
C  -7.11100 23.23900 24.49500
C  -8.61300 20.88600 27.06600
C  -8.82700 21.34000 23.75600
O  -8.84800 21.68600 22.59000
C  -9.52100 20.02700 24.17200
N  -5.04100 25.61900 23.75900
C  -5.68600 24.80100 22.88900
C  -5.41900 25.21800 21.47300
C  -4.42300 26.36600 21.63600
C  -4.31100 26.52500 23.14100
C  -4.77900 24.03500 20.66000
C  -4.92200 27.63500 20.96500
C  -4.32900 27.83900 19.58900
N  -3.86700 26.85400 26.06200
C  -3.24500 27.60700 25.14100
C  -2.36400 28.64500 25.76800
C  -2.50200 28.37300 27.09500
C  -3.43300 27.33100 27.25600
C  -1.59400 29.70000 24.98900
C  -2.09500 28.74700 28.42100
O  -1.33000 29.64000 28.74700
C  -2.77000 27.79500 29.43700
C  -1.82000 27.01800 30.33000
O  -1.12200 26.08400 29.91100
O  -1.94400 27.48000 31.59100
C  -1.23800 26.72000 32.60200
H  -7.37600 22.61600 28.88600
H  -7.12700 23.23700 22.44600
H  -2.84100 28.05900 23.16400
H  -4.05200 25.19600 30.87200
H  -6.77800 24.34900 30.76100
H  -5.86600 22.21200 30.99900
H  -4.28000 22.95200 31.30900
H  -4.62700 22.46100 29.71700
H  -6.37300 27.15400 30.55900
H  -4.91600 27.29500 31.48900
H  -7.56900 26.38400 32.31700
H  -6.46100 27.18500 33.24200
H  -8.53300 19.88900 26.63200
H  -9.67800 21.09500 27.17100
H  -8.18200 20.75400 28.05800
H  -8.89900 19.35700 24.76500
H  -9.76000 19.50900 23.24400
H  -10.47000 20.24500 24.66200
H  -6.35700 25.54500 21.02400
H  -3.44700 26.12900 21.21200
H  -5.53900 23.46000 20.13100
H  -4.11900 23.45700 21.30700
H  -4.11000 24.42200 19.89100
H  -4.77600 28.38000 21.74700
H  -5.98500 27.46700 20.78900
H  -3.63900 27.04600 19.30400
H  -3.64300 28.68500 19.56000
H  -5.03400 28.03200 18.77900
H  -2.05300 29.92100 24.02500
H  -0.53000 29.46300 25.00600
H  -1.66700 30.58800 25.61700
H  -3.30800 28.45900 30.11300
H  -0.18700 26.74500 32.31400
H  -1.53200 25.67100 32.63100
H  -1.15800 27.30000 33.52100

