158

Mg 16.81200 52.07100 26.83800
C  19.00500 50.73200 29.18800
C  14.56900 52.67000 29.37700
C  14.65300 53.10500 24.57200
C  18.95100 50.81300 24.33700
N  16.75300 51.63600 28.98100
C  17.87400 51.30500 29.77600
C  17.58100 51.43000 31.25200
C  16.07500 51.67500 31.31700
C  15.75800 52.03300 29.80900
C  15.28100 50.45300 31.79100
C  18.41000 52.67700 31.85300
C  19.01800 52.34000 33.19200
H  18.11300 51.75400 34.19700
N  14.94300 53.00200 26.95600
C  14.16800 53.07100 28.07500
C  12.94100 53.75400 27.74900
C  12.88600 53.88600 26.34500
C  14.20100 53.35300 25.87100
C  11.85500 54.18800 28.76600
C  11.72900 54.39300 25.44600
O  11.60500 54.17600 24.23400
C  10.54200 55.21500 25.99700
N  16.90700 52.06900 24.72100
C  15.85100 52.59100 24.05300
C  16.18700 52.66500 22.51900
C  17.54800 51.87600 22.39700
C  17.86300 51.58000 23.89000
C  15.15100 52.09100 21.48700
C  18.75100 52.51700 21.66000
C  19.46200 53.69100 22.37100
N  18.58800 50.98100 26.73200
C  19.25400 50.46100 25.68200
C  20.45100 49.71800 26.13200
C  20.36700 49.77200 27.50500
C  19.19600 50.51600 27.82500
C  21.58600 49.15400 25.31100
C  21.07800 49.43800 28.75900
O  22.10300 48.81700 28.91100
C  20.23300 50.11100 29.84000
C  19.90600 49.12700 30.91400
O  19.11500 48.19700 30.76300
O  20.64700 49.30700 32.01500
C  20.33800 48.43100 33.10800
H  13.77700 52.75200 30.12500
H  13.93200 53.46600 23.83400
H  19.71300 50.52300 23.61000
H  17.84200 50.48000 31.71700
H  15.79700 52.55800 31.89200
H  15.87700 49.81400 32.44300
H  14.93000 49.76100 31.02500
H  14.42100 50.78100 32.37500
H  17.82800 53.59700 31.80400
H  19.18300 52.89900 31.11800
H  19.38000 53.28200 33.60400
H  19.84500 51.63400 33.11500
H  11.59800 55.21100 28.49200
H  12.19700 54.19300 29.80100
H  11.14100 53.40900 28.49900
H  9.90200 54.68500 26.70200
H  9.88400 55.45500 25.16200
H  11.06700 56.08200 26.39900
H  16.26800 53.73400 22.32300
H  17.34900 50.86700 22.03500
H  14.45900 52.87200 21.17400
H  14.47400 51.36000 21.92900
H  15.60300 51.66000 20.59300
H  18.48400 52.84600 20.65500
H  19.41600 51.65700 21.58200
H  20.44500 53.42300 22.75900
H  18.82000 54.08200 23.16000
H  19.47500 54.49600 21.63600
H  21.27100 48.42000 24.57000
H  22.38200 48.70500 25.90500
H  21.89200 50.06800 24.80300
H  20.81100 50.92500 30.27800
H  20.88500 47.50900 32.91400
H  19.30500 48.11800 33.26100
H  20.58200 48.92000 34.05200
Mg -2.23900 34.35100 26.63200
C  -3.75400 32.53700 29.24700
C  -0.93700 36.54700 28.99800
C  -1.28900 36.38300 24.16800
C  -4.11300 32.49900 24.43100
N  -2.51100 34.55100 28.83500
C  -3.11000 33.70800 29.71000
C  -2.80500 34.20000 31.13800
C  -2.15700 35.58200 30.99100
C  -1.82200 35.57200 29.50200
C  -3.02900 36.81700 31.40900
C  -1.92200 33.22800 32.02300
C  -2.29100 32.86000 33.49600
H  -1.19700 32.94200 34.51900
N  -1.02900 36.15100 26.55400
C  -0.54300 36.83100 27.67500
C  0.35800 37.83800 27.15400
C  0.28900 37.78000 25.71300
C  -0.67900 36.72000 25.38100
C  1.17400 38.71300 28.04800
C  1.06100 38.53000 24.70900
O  0.86800 38.38900 23.50200
C  2.04200 39.56600 25.17000
N  -2.80500 34.56600 24.61800
C  -2.24000 35.45600 23.79000
C  -2.70900 35.34800 22.30900
C  -3.50200 33.99200 22.37000
C  -3.53200 33.67500 23.88000
C  -3.48600 36.64500 21.78400
C  -2.89200 32.84400 21.49900
C  -1.42400 32.54000 21.69800
N  -3.53800 32.81800 26.79200
C  -4.22300 32.09700 25.75300
C  -5.02800 31.02200 26.30000
C  -4.83700 31.08000 27.68000
C  -3.86400 32.17300 27.89500
C  -6.04200 30.17100 25.50800
C  -5.25900 30.53600 28.96000
O  -5.97500 29.57700 29.19800
C  -4.52700 31.45900 30.09500
C  -5.62600 32.02800 30.90200
O  -6.37200 32.92000 30.57100
O  -5.55700 31.43900 32.14600
C  -6.60400 31.80400 33.12500
H  -0.46900 37.14100 29.78600
H  -0.96900 37.00500 23.32900
H  -4.67100 31.81700 23.78600
H  -3.78700 34.23600 31.61000
H  -1.20800 35.66500 31.52200
H  -3.20400 37.52400 30.59800
H  -2.60100 37.31800 32.27700
H  -3.99200 36.61100 31.87800
H  -0.91900 33.65300 32.03500
H  -1.76800 32.33200 31.42200
H  -2.71100 31.85800 33.40900
H  -3.14100 33.44000 33.85300
H  0.79600 39.67000 27.68800
H  2.19700 38.40300 27.83200
H  0.91200 38.59600 29.09900
H  1.51700 40.41800 25.60300
H  2.47800 40.09700 24.32400
H  2.76100 39.09400 25.84000
H  -1.77100 35.16700 21.78300
H  -4.49300 34.25600 22.00200
H  -4.26100 36.28900 21.10500
H  -2.78600 37.15900 21.12500
H  -3.79300 37.20300 22.66800
H  -3.08700 33.13000 20.46600
H  -3.49100 31.96500 21.73800
H  -0.99700 33.14300 20.89600
H  -1.25800 31.46300 21.66000
H  -1.16800 33.07900 22.61000
H  -6.92800 30.08400 26.13700
H  -5.63500 29.21100 25.19000
H  -6.25900 30.84300 24.67700
H  -3.90400 30.81700 30.71800
H  -7.37300 32.44000 32.68700
H  -6.07500 32.34600 33.90900
H  -6.96900 30.84800 33.50000

