158

Mg -12.34700 16.73100 41.60200
C  -9.41700 14.79200 41.34200
C  -10.82300 19.25800 39.96700
C  -15.32000 18.15300 41.22900
C  -13.93900 13.62300 42.63700
N  -10.44600 16.94000 40.53300
C  -9.38800 16.08400 40.73400
C  -8.10400 16.66500 40.00400
C  -8.54000 18.11200 39.68400
C  -10.02000 18.11500 40.19100
C  -7.65800 19.27600 40.26100
C  -7.62500 15.84900 38.79500
C  -6.13700 16.16100 38.34600
H  -6.03000 16.55700 36.87500
N  -13.00200 18.58000 40.91900
C  -12.21500 19.49100 40.24500
C  -12.93400 20.66000 39.93100
C  -14.27400 20.37400 40.31500
C  -14.21800 19.01700 40.87400
C  -12.38100 21.97000 39.41200
C  -15.48300 21.29100 40.14200
O  -15.39200 22.45700 39.78600
C  -16.81200 20.81900 40.60100
N  -14.26800 15.91600 41.92100
C  -15.33700 16.81200 41.76200
C  -16.70300 16.11700 41.87500
C  -16.26500 14.72500 42.22900
C  -14.72700 14.72900 42.24500
C  -17.52900 16.87900 43.00400
C  -16.90100 13.59100 41.38100
C  -17.99500 12.80600 42.11500
N  -11.80300 14.63000 42.04300
C  -12.52200 13.54900 42.43600
C  -11.69500 12.39800 42.57600
C  -10.40000 12.84100 42.19800
C  -10.51200 14.23300 41.88500
C  -12.13100 10.99400 43.12200
C  -9.06600 12.46100 42.02400
O  -8.55000 11.41500 42.23600
C  -8.31800 13.65000 41.42900
C  -7.12900 14.03200 42.23400
O  -7.13900 14.42100 43.42300
O  -5.92700 13.85800 41.46900
C  -4.70200 14.30700 42.17800
H  -10.31200 20.12300 39.53800
H  -16.32700 18.44400 40.92300
H  -14.43800 12.66500 42.79800
H  -7.20600 16.64400 40.62200
H  -8.70000 18.29500 38.62100
H  -6.74400 18.87100 40.69500
H  -8.06800 19.77500 41.13800
H  -7.36800 20.03200 39.53100
H  -8.11900 16.11100 37.85900
H  -7.79500 14.78400 38.94800
H  -5.53900 15.26500 38.51000
H  -5.65400 16.82500 39.06400
H  -13.08800 22.49600 38.77100
H  -11.49000 21.68300 38.85500
H  -12.12700 22.67600 40.20200
H  -16.62000 20.54000 41.63700
H  -17.10100 19.96300 39.99200
H  -17.71900 21.41300 40.70800
H  -17.17900 16.16400 40.89600
H  -16.47800 14.56400 43.28600
H  -17.82600 16.21300 43.81400
H  -18.42900 17.11100 42.43300
H  -17.07800 17.74700 43.48300
H  -16.06000 12.91400 41.22900
H  -17.31400 13.89400 40.41800
H  -17.67300 11.82100 42.45400
H  -18.95300 12.74400 41.59800
H  -18.38600 13.27700 43.01600
H  -11.74500 10.28000 42.39400
H  -13.21500 10.97300 43.22900
H  -11.61600 10.78100 44.05900
H  -7.98400 13.22600 40.48200
H  -4.31700 13.46700 42.75600
H  -4.78800 15.23500 42.74200
H  -3.98000 14.47700 41.38000
Mg -6.21200 24.79000 25.53300
C  -4.96300 26.49300 28.28300
C  -8.25900 23.04900 27.43100
C  -7.30400 23.36400 22.75100
C  -3.92700 26.61100 23.58900
N  -6.45700 24.74400 27.67000
C  -5.91200 25.54200 28.65000
C  -6.29500 25.11000 30.05200
C  -7.12500 23.78600 29.73800
C  -7.36100 23.85900 28.18200
C  -6.39600 22.43700 30.18800
C  -7.00200 26.23500 30.81700
C  -6.43600 26.54400 32.21700
H  -5.86900 25.42200 33.08100
N  -7.65100 23.53900 25.15300
C  -8.48200 22.96400 26.10700
C  -9.58600 22.20200 25.39200
C  -9.15700 22.18900 24.05800
C  -7.94900 23.03500 23.94700
C  -10.68700 21.49500 26.09100
C  -9.93300 21.44900 22.88800
O  -9.60700 21.59100 21.69700
C  -10.97000 20.39600 23.19300
N  -5.74100 25.05100 23.44400
C  -6.28900 24.29800 22.42900
C  -5.69700 24.49300 21.09100
C  -4.69800 25.75700 21.37200
C  -4.72700 25.74800 22.88400
C  -4.98800 23.24700 20.51200
C  -5.17400 27.00600 20.60100
C  -4.39100 27.46300 19.38200
N  -4.79200 26.25200 25.82400
C  -3.96400 26.90900 24.93500
C  -3.13100 27.91400 25.65800
C  -3.52900 27.77200 26.96700
C  -4.54000 26.77600 26.99900
C  -2.30800 28.94000 25.00000
C  -3.28500 28.22200 28.28300
O  -2.55400 29.07700 28.73800
C  -4.06300 27.32000 29.16700
C  -3.18700 26.42500 29.90000
O  -2.77700 25.30800 29.58700
O  -2.92800 26.93300 31.15000
C  -1.82900 26.30300 31.99100
H  -9.03300 22.50600 27.97800
H  -7.58900 22.81600 21.85100
H  -3.10200 26.93900 22.95200
H  -5.39000 24.77000 30.55700
H  -8.04400 23.75200 30.32300
H  -5.34600 22.57300 30.44800
H  -6.40400 21.79100 29.30900
H  -6.95100 21.93200 30.97900
H  -8.06400 25.99300 30.87600
H  -6.98000 27.13000 30.19600
H  -7.33800 26.99300 32.63400
H  -5.71200 27.34900 32.33800
H  -11.59600 21.79400 25.57000
H  -10.68000 21.79300 27.14000
H  -10.57500 20.41500 25.99100
H  -10.71200 19.66600 23.96100
H  -11.00000 19.77700 22.29700
H  -11.99400 20.75900 23.28300
H  -6.55900 24.74900 20.47500
H  -3.69700 25.48400 21.03700
H  -4.81000 22.46400 21.24900
H  -4.02900 23.58200 20.11700
H  -5.63500 22.85700 19.72700
H  -5.22400 27.82400 21.32000
H  -6.18800 26.89900 20.21500
H  -4.93900 27.70700 18.47100
H  -3.77700 26.70300 18.90100
H  -3.65000 28.24100 19.56700
H  -1.64100 29.33700 25.76400
H  -2.93600 29.72800 24.58500
H  -1.66700 28.46600 24.25700
H  -4.65600 27.86100 29.90500
H  -0.85200 26.16300 31.52900
H  -2.26400 25.39200 32.40300
H  -1.55300 27.05000 32.73500

