158

Mg 47.82000 45.32400 42.74500
C  44.50400 44.25800 42.72500
C  48.71900 41.85400 42.60000
C  50.92600 46.13200 41.90700
C  46.73200 48.64500 42.60100
N  46.78300 43.33700 42.73200
C  45.43200 43.18000 42.71900
C  45.09700 41.68500 42.76500
C  46.41300 40.87800 42.91400
C  47.36100 42.07100 42.76500
C  46.58800 40.07400 44.30000
C  44.13300 41.04100 41.68400
C  44.74000 41.13900 40.19900
H  43.76900 41.00300 38.94400
N  49.60500 44.20200 42.39400
C  49.77200 42.80500 42.38400
C  51.23500 42.49100 42.24300
C  51.83600 43.71700 42.00100
C  50.85500 44.74900 42.08200
C  51.76900 41.10500 42.05400
C  53.29000 43.88700 41.62000
O  54.00200 42.89200 41.49900
C  53.91000 45.18900 41.41600
N  48.61800 47.03800 42.34000
C  49.97000 47.19000 42.05200
C  50.39100 48.66100 41.97900
C  49.20700 49.39500 42.52700
C  48.08500 48.30400 42.47500
C  51.68100 49.12900 42.67800
C  48.87000 50.68500 41.71600
C  48.55200 51.92200 42.54600
N  46.04000 46.26000 42.91100
C  45.68500 47.66800 42.65900
C  44.29700 47.79800 42.56800
C  43.74800 46.46500 42.69600
C  44.85700 45.59900 42.83600
C  43.49200 49.00400 42.16900
C  42.53400 45.71200 42.70900
O  41.34100 46.03800 42.61400
C  42.95900 44.18900 42.85200
C  42.37500 43.67900 44.15100
O  41.40500 42.90300 44.27200
O  42.89300 44.48400 45.12900
C  42.35200 44.43700 46.43600
H  49.03500 40.81300 42.69400
H  51.86500 46.60600 41.61400
H  46.44400 49.69400 42.69600
H  44.58300 41.61000 43.72400
H  46.66700 40.11600 42.17600
H  45.57400 40.01700 44.69400
H  47.15300 40.74700 44.94500
H  47.11700 39.12200 44.34000
H  43.08500 41.30700 41.82600
H  44.03900 39.98900 41.95500
H  45.37200 40.25300 40.26400
H  45.30300 42.05900 40.04700
H  52.24400 40.97400 41.08100
H  51.02100 40.34800 42.28800
H  52.63000 40.95800 42.70500
H  53.67800 45.64500 40.45300
H  54.98700 45.03800 41.48800
H  53.52700 45.80000 42.23400
H  50.49500 48.69900 40.89500
H  49.40500 49.65600 43.56700
H  51.63500 50.20200 42.86600
H  52.58900 48.86000 42.13700
H  51.76000 48.59700 43.62600
H  48.10900 50.40000 40.99000
H  49.71500 50.94300 41.07600
H  47.52800 52.27200 42.41800
H  49.10000 52.77900 42.15600
H  48.84900 51.73900 43.57900
H  42.61200 48.72700 41.58800
H  44.11900 49.69700 41.60800
H  43.25800 49.53800 43.08900
H  42.44500 43.67700 42.03900
H  41.52000 43.73700 46.51900
H  41.98600 45.38200 46.83600
H  43.21000 44.12700 47.03200
Mg -0.22900 43.07400 26.02800
C  2.07900 42.64700 28.66500
C  -2.68800 41.79300 27.96500
C  -2.21100 43.25400 23.33500
C  2.50100 43.98500 23.92800
N  -0.26500 42.28600 27.94800
C  0.72100 42.37800 28.92500
C  0.27300 42.14400 30.36600
C  -1.16900 41.36100 30.09000
C  -1.40300 41.81700 28.56900
C  -1.22200 39.86200 30.30600
C  0.23800 43.37300 31.29900
C  0.60100 43.15200 32.79900
H  0.29800 41.69600 33.46300
N  -2.21400 42.60200 25.71500
C  -3.07700 42.09500 26.56900
C  -4.39500 41.97600 25.95900
C  -4.33600 42.63400 24.67300
C  -2.84400 42.75600 24.45400
C  -5.55900 41.37700 26.63200
C  -5.41400 42.84000 23.59400
O  -5.15800 43.13300 22.41300
C  -6.84600 42.70400 23.96300
N  0.10500 43.47700 23.96900
C  -0.90500 43.57900 23.04300
C  -0.40000 44.20700 21.69400
C  1.04000 44.57600 22.04400
C  1.28600 43.89600 23.35500
C  -0.66500 43.23900 20.57800
C  1.28400 46.14000 22.13100
C  0.76600 46.93100 23.30400
N  1.90100 43.23900 26.18900
C  2.83700 43.64800 25.25300
C  4.12400 43.58700 25.92800
C  3.88900 43.31600 27.24000
C  2.52000 43.08500 27.34600
C  5.43800 43.80000 25.21200
C  4.51300 43.03400 28.54200
O  5.68000 42.99400 28.84800
C  3.27200 42.84800 29.53000
C  3.72500 41.63300 30.39400
O  3.88800 40.47700 30.03000
O  4.11500 41.98100 31.66000
C  4.68300 40.91500 32.52400
H  -3.45900 41.43300 28.64900
H  -2.86400 43.58800 22.52600
H  3.33700 44.21300 23.26400
H  1.00800 41.51300 30.86600
H  -1.97700 41.83400 30.64700
H  -2.19800 39.68100 30.75500
H  -0.34500 39.55300 30.87400
H  -1.34000 39.24800 29.41300
H  -0.78800 43.73800 31.34500
H  0.72000 44.27500 30.92300
H  0.06300 43.85000 33.44200
H  1.67400 43.33400 32.85900
H  -6.24800 42.20700 26.79300
H  -5.14200 40.87000 27.50100
H  -6.01400 40.55100 26.08500
H  -6.98500 43.14200 24.95200
H  -7.07100 41.63700 23.96100
H  -7.49300 43.17200 23.22100
H  -0.99300 45.10100 21.50100
H  1.81800 44.19400 21.38300
H  -1.00500 42.26100 20.91800
H  0.25000 43.00700 20.03300
H  -1.55700 43.50200 20.01000
H  0.98200 46.57100 21.17600
H  2.36300 46.21800 22.26400
H  0.07000 47.62900 22.83800
H  1.49500 47.59100 23.77300
H  0.35100 46.33200 24.11400
H  5.44100 43.32000 24.23300
H  6.20300 43.32200 25.82300
H  5.64700 44.85900 25.06300
H  3.17800 43.65500 30.25600
H  5.70100 40.68500 32.21100
H  4.03700 40.04200 32.61200
H  4.82000 41.22100 33.56100

