158

Mg 35.43400 3.16000 29.29400
C  33.24900 4.22900 31.69300
C  38.01900 3.28700 31.58900
C  37.77200 2.74600 26.81100
C  32.91100 3.37700 26.92500
N  35.57200 3.67100 31.35400
C  34.50200 3.98300 32.18500
C  34.93200 4.20800 33.65000
C  36.50700 4.24800 33.50300
C  36.77300 3.65600 32.05800
C  37.09800 5.67100 33.81600
C  34.42500 2.99200 34.43300
C  33.89600 3.41800 35.81400
H  34.74700 4.46000 36.67700
N  37.60700 2.92200 29.23300
C  38.42600 2.94200 30.29400
C  39.77700 2.70000 29.88200
C  39.75600 2.50100 28.48700
C  38.34500 2.74800 28.10800
C  40.88000 2.65900 30.87000
C  40.97300 2.26700 27.51900
O  40.71800 2.03900 26.32400
C  42.36500 2.43000 27.84400
N  35.36500 3.07000 27.15500
C  36.49300 3.05200 26.34400
C  35.97000 3.15900 24.86800
C  34.42500 2.87900 24.92700
C  34.17200 3.12400 26.41300
C  36.21400 4.51700 24.13100
C  34.03900 1.43800 24.48700
C  33.27400 1.22200 23.10100
N  33.49900 3.68400 29.20800
C  32.56600 3.83100 28.22800
C  31.31300 4.37800 28.74800
C  31.63400 4.49000 30.11200
C  32.88700 4.04700 30.33900
C  30.02000 4.65800 28.10300
C  31.00300 4.91700 31.41400
O  29.91200 5.40100 31.62500
C  32.12000 4.70100 32.50400
C  32.33200 5.96400 33.23500
O  32.85600 7.00800 32.80200
O  31.77100 5.85600 34.48700
C  32.06600 7.10100 35.30700
H  38.80900 3.39400 32.33500
H  38.49200 2.63700 25.99800
H  32.16800 3.44700 26.12800
H  34.58900 5.14700 34.08400
H  37.10100 3.55100 34.09400
H  38.08700 5.70800 33.36100
H  37.09900 5.88500 34.88400
H  36.37900 6.29200 33.28000
H  35.24700 2.27600 34.46400
H  33.57700 2.65500 33.83800
H  34.00700 2.50900 36.40600
H  32.82400 3.61400 35.80900
H  41.82700 2.56300 30.33800
H  40.67900 1.74400 31.42700
H  40.82900 3.51800 31.53900
H  42.96900 2.16900 26.97500
H  42.65200 1.69500 28.59700
H  42.59400 3.45000 28.15400
H  36.47500 2.41600 24.25200
H  33.84100 3.64100 24.41000
H  36.80100 4.35900 23.22700
H  36.76900 5.14100 24.83200
H  35.30900 5.01600 23.78600
H  33.44300 0.93500 25.24700
H  34.92400 0.81900 24.34400
H  33.89100 0.60200 22.45000
H  33.02600 2.12100 22.53700
H  32.37300 0.69400 23.41400
H  30.12500 4.78100 27.02500
H  29.48600 5.52700 28.48700
H  29.34800 3.82000 28.28800
H  31.80200 3.84800 33.10300
H  31.28600 7.85400 35.19700
H  33.10500 7.41000 35.18900
H  32.03300 6.76800 36.34500
Mg -1.94100 34.28600 25.78000
C  -3.65000 32.58700 28.30100
C  -0.70200 36.36800 28.11300
C  -0.36400 35.62300 23.33700
C  -3.52700 32.01300 23.41700
N  -2.29600 34.56400 28.00200
C  -2.90000 33.64100 28.84600
C  -2.83700 34.04800 30.24000
C  -2.00900 35.36100 30.09900
C  -1.53200 35.41400 28.67500
C  -2.77700 36.68900 30.46400
C  -2.26400 32.91600 31.18300
C  -1.49300 33.26500 32.48700
H  -1.79900 32.37500 33.67800
N  -0.72000 35.85400 25.71300
C  -0.25800 36.58900 26.76400
C  0.68000 37.61400 26.24400
C  0.81600 37.35700 24.86300
C  -0.16400 36.28000 24.59400
C  1.38500 38.63900 27.08700
C  1.75000 37.99900 23.75000
O  1.77200 37.72700 22.56100
C  2.65200 39.06700 24.06400
N  -2.04900 33.89400 23.62500
C  -1.20400 34.59700 22.81000
C  -0.98300 33.90200 21.43300
C  -1.86600 32.69500 21.59500
C  -2.51900 32.89800 22.95200
C  -1.24100 34.81600 20.23300
C  -1.16600 31.29600 21.39900
C  0.06700 31.14000 22.30100
N  -3.38200 32.79600 25.75200
C  -3.90600 31.91900 24.72800
C  -4.84500 30.97400 25.35800
C  -4.76800 31.24900 26.73100
C  -3.84600 32.34900 26.92200
C  -5.66400 29.96200 24.71100
C  -5.35800 30.77900 27.97100
O  -6.17100 29.89200 28.18700
C  -4.62500 31.65900 29.05300
C  -5.60600 32.36700 29.86700
O  -6.34000 33.17000 29.44400
O  -5.63200 31.84600 31.11400
C  -6.29500 32.56700 32.18300
H  -0.17400 37.08700 28.74200
H  0.38100 35.93300 22.60100
H  -3.88000 31.14500 22.85700
H  -3.80900 34.36300 30.61900
H  -1.21400 35.33900 30.84500
H  -2.47900 37.01700 31.46000
H  -3.84200 36.47300 30.54200
H  -2.71900 37.41500 29.65300
H  -1.42800 32.40000 30.71100
H  -3.11700 32.29000 31.44500
H  -1.82700 34.27700 32.71600
H  -0.40900 33.18600 32.40800
H  1.26000 39.59600 26.57800
H  2.41000 38.29300 27.21600
H  1.01100 38.64100 28.11000
H  2.17700 39.81200 24.70300
H  3.09100 39.37400 23.11500
H  3.31200 38.50200 24.72200
H  0.04600 33.56400 21.30700
H  -2.64200 32.76000 20.83200
H  -0.31600 35.04500 19.70500
H  -1.63900 35.73900 20.65400
H  -1.95100 34.47700 19.47900
H  -0.80500 31.08700 20.39200
H  -1.92800 30.54800 21.61800
H  -0.07900 31.74200 23.19800
H  1.03400 31.37600 21.85600
H  0.12000 30.10900 22.65100
H  -5.34600 28.97300 25.03900
H  -5.55600 30.09700 23.63500
H  -6.68700 30.22300 24.98000
H  -4.20700 30.83800 29.63500
H  -5.68400 33.44000 32.41200
H  -6.25500 32.00000 33.11300
H  -7.34400 32.78600 31.98000

