158

Mg 17.49500 -1.04300 26.89500
C  16.57200 0.82000 29.77000
C  19.69900 -2.91700 29.04400
C  18.92300 -2.44100 24.20500
C  15.52100 0.86400 24.99400
N  18.13000 -0.97600 29.16100
C  17.54500 -0.17600 30.11500
C  17.91900 -0.61600 31.53700
C  19.04300 -1.75100 31.22800
C  18.95000 -1.92400 29.71500
C  20.42500 -1.32100 31.79400
C  16.70000 -1.12800 32.32800
C  16.30900 -0.42300 33.69200
H  17.39100 0.22700 34.50700
N  19.10000 -2.41200 26.62600
C  19.81900 -3.05900 27.63900
C  20.73200 -3.99400 26.98300
C  20.39400 -4.04100 25.59700
C  19.46400 -2.89500 25.38000
C  21.66900 -4.91000 27.63000
C  20.85700 -5.04800 24.46000
O  20.22000 -5.09000 23.41400
C  22.07400 -6.01600 24.62500
N  17.20000 -0.97500 24.93700
C  17.87500 -1.60600 23.99100
C  17.30600 -1.33500 22.59600
C  16.16600 -0.32700 22.90700
C  16.25100 -0.12900 24.39200
C  18.34900 -0.97900 21.42900
C  14.72400 -0.81100 22.45300
C  13.83000 -1.64100 23.35000
N  16.35800 0.57700 27.22500
C  15.58600 1.28100 26.31500
C  14.85500 2.32900 26.98100
C  15.23400 2.14100 28.36700
C  16.13700 1.06800 28.41700
C  14.00700 3.47900 26.31400
C  14.97100 2.61800 29.66200
O  14.25700 3.53400 30.06600
C  15.86300 1.82400 30.71100
C  16.69800 2.87300 31.40500
O  17.87000 3.19800 31.21000
O  15.87900 3.35400 32.44900
C  16.44700 4.37600 33.35500
H  20.33800 -3.55100 29.66300
H  19.25500 -2.98900 23.32100
H  14.86400 1.25200 24.21200
H  18.40700 0.24400 31.99700
H  18.81100 -2.75200 31.59000
H  20.53500 -2.01700 32.62600
H  20.46100 -0.27000 32.08300
H  21.14500 -1.52300 31.00200
H  16.79100 -2.19100 32.55300
H  15.81500 -0.94400 31.71900
H  15.73500 -1.09300 34.33300
H  15.60600 0.39800 33.55200
H  21.39600 -5.86600 27.18300
H  21.61000 -4.95100 28.71700
H  22.69600 -4.69000 27.34000
H  22.49000 -6.17200 23.63000
H  21.85200 -6.93500 25.16700
H  22.83600 -5.45700 25.16900
H  16.81700 -2.25200 22.26800
H  16.24700 0.65600 22.44400
H  19.35800 -0.80500 21.80100
H  17.93400 -0.21700 20.77000
H  18.52000 -1.81800 20.75500
H  14.94300 -1.45400 21.60000
H  14.30500 0.13500 22.11000
H  12.99300 -0.97700 23.56600
H  14.31200 -1.96100 24.27400
H  13.34900 -2.48100 22.85000
H  14.53800 3.91700 25.46900
H  13.82700 4.17000 27.13700
H  13.05300 3.00400 26.08200
H  15.36000 1.27700 31.50900
H  16.42100 4.24600 34.43700
H  15.72400 5.17400 33.18500
H  17.42200 4.73300 33.02300
Mg -12.50200 38.90200 42.55800
C  -10.91500 35.87600 41.34500
C  -9.93600 40.68000 41.00200
C  -14.26100 41.65000 43.13600
C  -15.27400 36.85800 43.35200
N  -10.66300 38.35600 41.32500
C  -10.19400 37.07800 41.04100
C  -8.84900 37.14900 40.21800
C  -8.41400 38.62900 40.37900
C  -9.71400 39.29500 40.95900
C  -7.19400 38.84200 41.27700
C  -9.01500 36.65100 38.75200
C  -7.79600 35.88100 38.11600
H  -6.82600 36.64000 37.27200
N  -12.08500 40.90900 42.20300
C  -10.99700 41.45100 41.51200
C  -11.22500 42.87400 41.40800
C  -12.45900 43.17000 42.01600
C  -13.00500 41.90500 42.54900
C  -10.24400 43.79900 40.72400
C  -13.06200 44.52800 41.98000
O  -12.46600 45.46200 41.38800
C  -14.38000 44.79000 42.57500
N  -14.38000 39.16900 43.31400
C  -14.85600 40.46500 43.48800
C  -16.36600 40.45700 44.00600
C  -16.73900 38.91900 43.98200
C  -15.42200 38.27500 43.50200
C  -16.52100 41.30200 45.29600
C  -18.04500 38.73000 43.09600
C  -19.03300 37.53700 43.56400
N  -12.97300 36.75200 42.51900
C  -14.15600 36.13800 42.83300
C  -13.97100 34.68100 42.69700
C  -12.75100 34.53700 42.03100
C  -12.20600 35.83600 41.90800
C  -14.93500 33.58300 42.94900
C  -11.77900 33.61000 41.52300
O  -11.74900 32.41100 41.47100
C  -10.54800 34.48000 40.95000
C  -9.24900 34.15800 41.62200
O  -8.82500 34.59700 42.64400
O  -8.61700 33.28100 40.74800
C  -7.29100 32.76700 41.12300
H  -9.18900 41.28500 40.48400
H  -14.89600 42.53200 43.24000
H  -16.17000 36.31500 43.65800
H  -8.07700 36.49200 40.62000
H  -7.94800 39.00200 39.46700
H  -7.44800 39.42700 42.16200
H  -6.52500 39.50300 40.72500
H  -6.73900 37.86300 41.42800
H  -9.30100 37.49100 38.11900
H  -9.88800 36.00400 38.66400
H  -8.25900 35.16200 37.44000
H  -7.24200 35.47900 38.96400
H  -10.64900 44.36800 39.88600
H  -9.40300 43.20900 40.36100
H  -9.79300 44.44400 41.47900
H  -15.14900 44.18700 42.09300
H  -14.61000 45.85100 42.48500
H  -14.30000 44.43100 43.60200
H  -16.94900 41.05100 43.30200
H  -16.94200 38.63900 45.01600
H  -17.11400 40.74900 46.02400
H  -16.86500 42.31400 45.08500
H  -15.56400 41.54400 45.75900
H  -17.86000 38.53900 42.04000
H  -18.65600 39.63200 43.04600
H  -18.67300 36.62200 43.09500
H  -20.06900 37.84400 43.42200
H  -18.93000 37.36200 44.63500
H  -14.38500 32.72000 43.32400
H  -15.69900 33.32900 42.21500
H  -15.51800 33.83300 43.83500
H  -10.39600 34.39700 39.87400
H  -7.36300 32.16600 42.02900
H  -6.66100 33.63200 41.32600
H  -6.82700 32.08900 40.40500

