158

Mg 9.11900 4.39500 27.50700
C  10.02000 2.59800 30.35600
C  7.16500 6.40000 29.35200
C  8.43400 6.24000 24.75400
C  10.51400 1.98700 25.51100
N  8.58100 4.36400 29.60200
C  9.20500 3.66600 30.65500
C  8.88000 4.32700 32.04900
C  7.83500 5.47300 31.67300
C  7.77400 5.37100 30.09400
C  6.48200 5.45400 32.46700
C  10.13200 4.60900 32.94400
C  9.65700 5.27200 34.22100
H  10.08200 4.62800 35.55100
N  7.98800 6.16600 27.11200
C  7.20700 6.82100 28.04900
C  6.36900 7.82100 27.41500
C  6.93400 7.87600 26.11700
C  7.86800 6.71900 25.92900
C  5.37700 8.68700 28.13300
C  6.69500 8.94300 25.00800
O  7.25500 8.87500 23.88200
C  5.67500 10.03000 25.17500
N  9.43800 4.13900 25.46600
C  9.15900 5.04300 24.48400
C  9.44800 4.51000 23.06700
C  9.99100 3.08300 23.34100
C  9.93200 3.03500 24.87200
C  8.20800 4.65400 22.11800
C  11.30300 2.72500 22.63300
C  11.30500 1.41100 21.87500
N  10.06500 2.57800 27.77000
C  10.66700 1.72000 26.88500
C  11.35400 0.60700 27.59100
C  11.15600 1.00000 28.98100
C  10.32300 2.08900 29.01500
C  12.06700 -0.56600 27.07800
C  11.51900 0.66600 30.32000
O  12.18700 -0.31100 30.63900
C  10.82100 1.67600 31.24500
C  9.96900 0.96100 32.20300
O  8.84400 0.59700 32.00800
O  10.57300 0.82100 33.40600
C  9.84200 0.22900 34.51500
H  6.58700 7.00900 30.05100
H  8.12600 6.71600 23.82000
H  11.00600 1.22800 24.89900
H  8.37800 3.59600 32.68200
H  8.24700 6.46900 31.83500
H  5.65600 5.42100 31.75600
H  6.24000 6.36800 33.00800
H  6.45700 4.64900 33.20100
H  10.75400 5.23900 32.30900
H  10.70500 3.70500 33.15100
H  8.56800 5.30400 34.21200
H  10.13100 6.25300 34.18300
H  5.59800 9.74000 27.95400
H  5.46700 8.58000 29.21400
H  4.35100 8.39700 27.90600
H  5.74500 10.74700 24.35700
H  6.04300 10.54300 26.06300
H  4.73500 9.50400 25.33900
H  10.24400 5.11700 22.63500
H  9.23500 2.36600 23.02100
H  7.99000 3.65400 21.74200
H  8.47300 5.25300 21.24700
H  7.39700 5.09300 22.70000
H  12.18600 2.76000 23.27200
H  11.51500 3.52500 21.92400
H  10.31600 1.02000 21.63500
H  11.78800 0.76200 22.60500
H  11.78000 1.43300 20.89500
H  11.40000 -1.08500 26.38900
H  12.38000 -1.17700 27.92500
H  12.96000 -0.25100 26.53800
H  11.62100 2.10500 31.84900
H  9.07600 0.95800 34.78000
H  10.40200 -0.07600 35.39900
H  9.30600 -0.65200 34.16100
Mg 0.13900 43.73100 25.51100
C  2.39300 43.79300 28.16900
C  -2.27300 42.75100 27.77500
C  -1.88200 42.99800 22.95900
C  2.85300 44.12700 23.32400
N  0.09300 43.29000 27.78700
C  1.13900 43.52500 28.62600
C  0.64600 43.57500 30.11300
C  -0.79800 42.97500 29.99200
C  -1.06200 43.03000 28.44800
C  -0.95500 41.60100 30.55400
C  0.74000 45.07900 30.58900
C  0.62000 45.18000 32.16600
H  0.47800 43.97500 33.14800
N  -1.85800 43.16200 25.42500
C  -2.64700 42.80500 26.44900
C  -4.04200 42.62500 25.99500
C  -3.92700 42.65500 24.62700
C  -2.48900 42.95800 24.24200
C  -5.25000 42.47200 26.86200
C  -5.06900 42.54000 23.56000
O  -4.84000 42.62400 22.31600
C  -6.54200 42.41600 23.94700
N  0.49000 43.40600 23.41500
C  -0.50500 43.17800 22.56600
C  -0.10600 43.34500 21.07600
C  1.38200 43.84600 21.21200
C  1.60800 43.87700 22.73000
C  -0.35800 41.98000 20.23900
C  1.68200 45.20100 20.38600
C  2.21800 45.05500 18.90300
N  2.21500 44.03400 25.64900
C  3.22700 44.18100 24.69900
C  4.56700 44.18700 25.34700
C  4.29300 44.10600 26.73800
C  2.84400 43.94000 26.83500
C  5.92400 44.29300 24.71000
C  4.88000 43.99400 28.05200
O  6.02300 43.77100 28.41600
C  3.65200 44.01600 29.03600
C  3.85400 42.85600 30.02000
O  3.77100 41.62600 29.77400
O  4.18200 43.41400 31.23600
C  4.42700 42.44600 32.30300
H  -3.01400 42.40700 28.50000
H  -2.54800 42.97700 22.09400
H  3.69300 44.15600 22.62700
H  1.27800 42.92900 30.72200
H  -1.47700 43.61200 30.55900
H  -1.33300 40.94900 29.76700
H  -1.60400 41.71400 31.42200
H  -0.01100 41.18300 30.90500
H  -0.13500 45.56900 30.16000
H  1.65700 45.57300 30.27000
H  -0.14200 45.95900 32.17200
H  1.53200 45.51100 32.66400
H  -5.85500 41.68700 26.41000
H  -5.89500 43.34900 26.81400
H  -5.06700 42.20100 27.90200
H  -6.86000 43.27100 24.54400
H  -6.46600 41.45700 24.45900
H  -7.02600 42.29100 22.97900
H  -0.64800 44.18300 20.63600
H  1.97200 43.06200 20.73600
H  -1.09200 42.14700 19.45000
H  -0.85700 41.23600 20.85900
H  0.62100 41.57400 19.98400
H  2.28900 45.92600 20.92800
H  0.68500 45.63800 20.33200
H  1.28800 45.23200 18.36300
H  2.55900 44.04400 18.68100
H  3.05600 45.70600 18.65300
H  6.59300 44.76900 25.42600
H  5.89400 44.89400 23.80100
H  6.26700 43.29000 24.45700
H  3.79700 44.98100 29.52200
H  5.43100 42.02500 32.24400
H  3.67900 41.66800 32.15400
H  4.28000 42.93100 33.26900

