158

Mg 34.71400 2.97600 29.65900
C  32.63900 3.97700 32.17900
C  37.43300 2.98700 31.91700
C  36.95300 2.38900 27.13300
C  32.19900 3.33700 27.33300
N  34.98800 3.27800 31.85400
C  33.98100 3.79500 32.63500
C  34.38900 3.85500 34.13300
C  35.94400 3.77300 33.92500
C  36.20700 3.32600 32.49100
C  36.69800 5.08400 34.28900
C  33.78900 2.75600 35.08600
C  33.57700 3.12400 36.58000
H  34.66300 4.05500 37.12600
N  36.81600 2.49400 29.55900
C  37.73600 2.62200 30.55700
C  39.00200 2.30200 30.03800
C  38.94800 2.09400 28.71000
C  37.51300 2.40400 28.36100
C  40.25700 2.43100 30.88600
C  39.95700 1.56900 27.70200
O  39.75800 1.49900 26.45700
C  41.28900 1.04600 28.10600
N  34.64100 2.87600 27.53200
C  35.67300 2.50900 26.72000
C  35.31200 2.51500 25.32000
C  33.71600 2.40200 25.45900
C  33.44500 2.82900 26.91000
C  35.96000 3.76200 24.53400
C  33.14100 0.96400 25.16000
C  32.09300 0.92600 24.06600
N  32.83500 3.53900 29.68800
C  31.87800 3.62600 28.65700
C  30.62100 4.01800 29.22900
C  30.84300 4.20900 30.56400
C  32.25500 3.87200 30.79600
C  29.35300 4.21200 28.47000
C  30.26100 4.52500 31.86100
O  29.10200 4.69600 32.18600
C  31.36400 4.44400 32.90000
C  31.50000 5.54000 33.75800
O  32.01200 6.58100 33.40300
O  31.29500 5.29300 35.05500
C  31.54500 6.31600 36.05600
H  38.27300 2.92300 32.61200
H  37.71400 2.32500 26.35200
H  31.40100 3.47400 26.59900
H  34.23300 4.88700 34.44800
H  36.37800 2.89500 34.40200
H  36.05900 5.73800 34.88200
H  36.93900 5.59200 33.35600
H  37.63500 4.83700 34.78700
H  34.45600 1.89800 35.16300
H  32.80800 2.42000 34.75000
H  33.71100 2.21500 37.16600
H  32.56900 3.51100 36.72700
H  40.04200 2.80900 31.88500
H  40.86900 3.13300 30.31900
H  40.62200 1.40400 30.89200
H  41.19500 0.14200 28.70700
H  41.75900 1.80000 28.73800
H  41.77300 0.91400 27.13800
H  35.83100 1.66500 24.87700
H  33.23900 3.08600 24.75600
H  35.35700 4.42900 23.91800
H  36.75700 3.42200 23.87200
H  36.34600 4.46700 25.27000
H  32.59700 0.68200 26.06200
H  33.94300 0.25100 24.97100
H  32.40100 0.16600 23.34800
H  31.78500 1.82800 23.53700
H  31.23900 0.53800 24.62300
H  29.60700 4.87200 27.64100
H  28.58700 4.68400 29.08500
H  29.02400 3.20500 28.21600
H  31.02000 3.59100 33.48400
H  31.07600 5.91800 36.95600
H  30.98000 7.23800 35.92100
H  32.58400 6.64500 36.09300
Mg 36.74900 49.32400 24.93100
C  36.62500 47.29800 27.75600
C  34.94700 51.68600 26.68000
C  36.19100 50.87900 22.01300
C  38.03600 46.49500 23.12400
N  35.79800 49.39300 26.88700
C  36.13400 48.61000 27.98700
C  35.65600 49.15300 29.38200
C  34.88500 50.40500 28.86600
C  35.19100 50.50400 27.36900
C  33.43700 50.52100 29.29700
C  36.81100 49.33300 30.40400
C  36.39100 48.88500 31.86000
H  34.88700 48.85900 32.24500
N  35.88900 51.20000 24.45600
C  35.16300 52.00000 25.27700
C  34.80300 53.14200 24.52800
C  35.21000 52.94000 23.10500
C  35.84800 51.66800 23.19000
C  34.04100 54.22400 25.12500
C  35.13800 53.85100 21.93800
O  35.40600 53.53500 20.78900
C  34.61600 55.27700 22.04600
N  37.13900 48.85100 22.94300
C  36.70900 49.64100 21.89300
C  37.18900 49.02500 20.52800
C  38.08200 47.80300 20.99500
C  37.73300 47.65600 22.44000
C  35.97800 48.53100 19.65800
C  39.56700 47.88200 20.68500
C  40.34600 48.99400 21.38400
N  37.32100 47.33100 25.34500
C  37.83400 46.30800 24.53000
C  38.00500 45.07700 25.32400
C  37.55400 45.46100 26.61500
C  37.14200 46.81100 26.56700
C  38.36200 43.74000 24.77500
C  37.26300 44.96600 27.90500
O  37.33200 43.83300 28.35600
C  36.68200 46.17900 28.76900
C  35.34600 45.75300 29.19700
O  34.43600 45.62500 28.46500
O  35.33100 45.38400 30.50500
C  34.26400 44.45500 30.93100
H  34.34900 52.37200 27.28400
H  35.96700 51.32600 21.04200
H  38.44700 45.60500 22.64200
H  34.91600 48.42900 29.72500
H  35.40400 51.21200 29.38300
H  32.84100 50.97300 28.50400
H  33.42500 51.17700 30.16800
H  32.93600 49.64800 29.71600
H  37.09200 50.38600 30.42100
H  37.66100 48.75400 30.04200
H  36.90600 49.51400 32.58700
H  36.78900 47.88600 32.03500
H  33.86400 54.24800 26.20000
H  33.10800 54.31500 24.56800
H  34.65400 55.11500 24.98300
H  34.60100 55.86900 21.13000
H  35.33900 55.87800 22.59700
H  33.60700 55.39500 22.43900
H  37.77800 49.77900 20.00800
H  37.73000 46.90500 20.48700
H  36.06200 47.53400 19.22500
H  35.93600 49.28000 18.86700
H  35.12900 48.58900 20.33900
H  39.71900 47.97200 19.60900
H  40.00500 46.96000 21.06600
H  40.00800 49.17000 22.40500
H  40.06700 49.89900 20.84500
H  41.42600 48.86600 21.30700
H  37.91900 43.68200 23.78100
H  37.81800 42.93800 25.27300
H  39.43000 43.53100 24.70100
H  37.39200 46.41600 29.56200
H  33.52000 45.08800 31.41500
H  34.55300 43.92100 31.83500
H  33.90800 43.73500 30.19400

