158

Mg 24.39500 -4.98900 46.42700
C  26.64700 -2.57100 44.99700
C  21.93600 -3.76200 44.45300
C  22.67700 -7.65200 47.24400
C  27.21600 -6.17700 48.41500
N  24.37800 -3.32600 44.91200
C  25.31400 -2.46300 44.50200
C  24.78900 -1.61400 43.38500
C  23.27800 -1.79400 43.53300
C  23.19300 -3.08600 44.39100
C  22.41400 -0.54200 44.07900
C  25.36400 -2.03900 42.04100
C  26.26000 -1.12100 41.23400
H  26.19400 -1.29900 39.71800
N  22.49200 -5.60200 45.85000
C  21.55100 -4.99600 45.09000
C  20.37500 -5.69700 45.03300
C  20.52400 -6.79900 45.92300
C  21.91100 -6.73300 46.34700
C  19.20400 -5.13700 44.29800
C  19.41300 -7.75500 46.20100
O  18.42800 -7.80600 45.52600
C  19.61300 -8.77900 47.23900
N  24.96800 -6.76900 47.63700
C  23.97800 -7.65600 47.80500
C  24.39700 -8.71400 48.71900
C  25.84300 -8.26800 49.26300
C  26.07900 -7.00100 48.41600
C  23.41400 -9.33300 49.79000
C  27.02600 -9.33400 49.20800
C  27.68600 -9.69800 50.58500
N  26.50300 -4.50600 46.62400
C  27.48100 -5.06800 47.51200
C  28.72000 -4.33600 47.30900
C  28.44900 -3.36700 46.37500
C  27.10100 -3.50900 45.92500
C  29.98700 -4.60200 47.90100
C  28.93900 -2.17600 45.66400
O  30.09400 -1.68200 45.64200
C  27.87400 -1.75000 44.64300
C  27.59500 -0.28900 44.76200
O  26.76100 0.28600 45.43900
O  28.46400 0.42200 44.04700
C  28.34300 1.86100 43.91800
H  21.23900 -3.26000 43.77900
H  22.19000 -8.60300 47.47100
H  28.01300 -6.38400 49.13100
H  25.01900 -0.58400 43.65700
H  22.81500 -2.07200 42.58600
H  21.89400 -0.80200 45.00100
H  21.69100 -0.25300 43.31600
H  22.90800 0.41000 44.27100
H  24.54200 -2.30200 41.37500
H  25.96500 -2.92200 42.25700
H  27.30800 -1.14400 41.53100
H  25.90900 -0.11300 41.45700
H  18.60400 -5.90300 43.80600
H  19.53000 -4.55400 43.43700
H  18.51200 -4.57200 44.92300
H  18.71000 -9.21100 47.66900
H  20.11900 -8.23600 48.03700
H  20.28000 -9.47800 46.73400
H  24.63100 -9.51400 48.01700
H  25.87800 -7.94400 50.30400
H  23.29500 -10.38100 49.51300
H  22.44600 -8.86300 49.96300
H  23.88200 -9.58100 50.74200
H  27.77700 -8.95500 48.51400
H  26.75400 -10.25200 48.68700
H  27.92400 -10.75900 50.65900
H  26.92500 -9.46600 51.33000
H  28.62900 -9.16900 50.72600
H  30.39300 -3.72800 48.41100
H  30.79000 -4.58700 47.16400
H  30.07100 -5.52000 48.48300
H  28.31600 -1.75900 43.64600
H  28.96900 2.19500 43.09100
H  28.70300 2.43200 44.77400
H  27.28800 2.10400 43.79300
Mg 45.00200 4.43300 47.89300
C  42.73800 7.11400 47.17400
C  42.34500 2.41100 47.68100
C  47.15400 1.86700 47.52900
C  47.66700 6.72600 47.55000
N  42.73300 4.78000 47.59000
C  42.05000 5.90200 47.28000
C  40.60300 5.60800 46.86000
C  40.44600 4.17400 47.41800
C  41.96300 3.71800 47.65700
C  39.64400 4.08300 48.80400
C  40.33700 5.79200 45.30800
C  39.40200 6.97000 44.91800
H  39.77700 7.83000 43.69800
N  44.77200 2.39600 47.61000
C  43.57100 1.72400 47.58000
C  43.74700 0.32100 47.36100
C  45.16000 0.13000 47.28400
C  45.77200 1.50400 47.48800
C  42.60700 -0.78100 47.28100
C  45.94800 -1.20900 47.20900
O  45.27100 -2.26200 47.21800
C  47.41000 -1.34300 47.17400
N  47.16600 4.29000 47.68400
C  47.84800 3.09300 47.70100
C  49.33000 3.35000 47.50000
C  49.43000 4.87900 47.57700
C  47.99600 5.37500 47.52700
C  50.23900 2.63000 48.45400
C  50.33900 5.59600 46.51100
C  51.86700 5.16800 46.64600
N  45.21700 6.50500 47.63000
C  46.36100 7.26700 47.43900
C  46.03000 8.59800 47.20500
C  44.63200 8.62400 47.21000
C  44.17300 7.29800 47.35500
C  47.03300 9.71900 47.03500
C  43.49400 9.47100 47.08200
O  43.39800 10.67700 47.12000
C  42.19600 8.50500 47.03500
C  41.39600 8.90000 48.31300
O  41.54300 8.42700 49.44600
O  40.62000 9.87800 47.99200
C  39.98800 10.52500 49.16600
H  41.46600 1.76800 47.59800
H  47.81500 1.02600 47.30600
H  48.54600 7.37200 47.52400
H  39.88300 6.25200 47.36500
H  39.90400 3.53900 46.71700
H  40.12100 3.69900 49.70600
H  38.80600 3.41500 48.60500
H  39.18700 5.03200 49.08400
H  39.72900 4.91400 45.09300
H  41.23500 5.82100 44.68900
H  39.24300 7.60900 45.78700
H  38.38700 6.62600 44.71900
H  42.57200 -1.21500 46.28100
H  41.59700 -0.40200 47.44000
H  42.78200 -1.48000 48.09900
H  47.83400 -0.72500 46.38300
H  47.74900 -2.32900 46.85500
H  47.76500 -1.27500 48.20200
H  49.52400 2.97800 46.49400
H  49.78300 5.20100 48.55600
H  49.70200 1.92000 49.08200
H  50.71600 3.25800 49.20700
H  50.95400 2.10600 47.82000
H  50.15900 6.66500 46.39400
H  49.83500 5.35500 45.57500
H  52.14600 4.54900 45.79400
H  51.96100 4.55500 47.54200
H  52.41600 6.10600 46.72900
H  47.55300 9.74300 46.07700
H  47.75700 9.70700 47.85000
H  46.41700 10.61700 47.08200
H  41.62000 8.58100 46.11200
H  39.90200 9.89700 50.05200
H  38.98900 10.90000 48.94100
H  40.64900 11.35500 49.41400

