158

Mg 23.53400 -5.76100 44.82400
C  25.81400 -3.41000 43.71000
C  21.14600 -4.28300 42.80400
C  21.76600 -8.56400 44.89900
C  26.29800 -7.56300 46.07400
N  23.53800 -4.13500 43.42500
C  24.53900 -3.25500 43.19500
C  24.14700 -2.10900 42.29000
C  22.56100 -2.23800 42.28100
C  22.35700 -3.58500 42.93700
C  21.70300 -1.10700 42.93900
C  24.69000 -2.06200 40.84000
C  25.11900 -0.67100 40.37000
H  24.88400 -0.34400 38.86300
N  21.59900 -6.24300 44.14800
C  20.87600 -5.59100 43.28700
C  19.76100 -6.30500 42.98000
C  19.91100 -7.53400 43.46900
C  21.12400 -7.50600 44.28100
C  18.69600 -5.80800 41.99100
C  19.04300 -8.79100 43.13800
O  18.13100 -8.70500 42.35300
C  19.22500 -10.13200 43.84200
N  24.02800 -7.75300 45.54200
C  23.00100 -8.71900 45.53700
C  23.51200 -10.09600 45.90500
C  24.97300 -9.72200 46.50100
C  25.10400 -8.27300 46.07300
C  22.56100 -10.79300 46.97900
C  26.14800 -10.51800 45.82300
C  26.26700 -12.00900 46.27700
N  25.65200 -5.42000 45.18000
C  26.60400 -6.29100 45.57900
C  27.98000 -5.65300 45.47400
C  27.70300 -4.51000 44.75600
C  26.28900 -4.47700 44.55200
C  29.34800 -6.22700 45.72900
C  28.21800 -3.27400 44.16400
O  29.37600 -2.81100 44.17900
C  27.08000 -2.63400 43.35000
C  27.07400 -1.18700 43.60600
O  26.50100 -0.60500 44.46200
O  27.97600 -0.56200 42.70600
C  28.15600 0.85400 42.84600
H  20.29900 -3.82300 42.29000
H  21.23200 -9.50700 45.03300
H  27.17400 -8.02400 46.53500
H  24.34900 -1.22100 42.88700
H  22.22500 -2.48100 41.27300
H  22.30800 -0.23400 43.18400
H  21.29400 -1.59300 43.82500
H  20.87200 -0.85300 42.28200
H  24.02800 -2.45500 40.06900
H  25.52900 -2.75800 40.85400
H  26.20400 -0.61000 40.45500
H  24.83100 0.14200 41.03700
H  18.82800 -5.95100 40.91900
H  18.55700 -4.72800 42.04300
H  17.73300 -6.29300 42.15600
H  18.48400 -10.91000 43.66000
H  19.10800 -9.82800 44.88200
H  20.23400 -10.50500 43.66300
H  23.70300 -10.85000 45.14100
H  24.90600 -9.80800 47.58500
H  22.26400 -11.82700 46.80100
H  21.61000 -10.26800 47.06300
H  23.07100 -10.93200 47.93200
H  27.10300 -10.15800 46.20500
H  26.08900 -10.49600 44.73500
H  27.22100 -12.42300 45.94800
H  25.36000 -12.53400 45.97600
H  26.17700 -12.06500 47.36200
H  29.67200 -6.64300 44.77400
H  29.23500 -6.99900 46.48900
H  30.00100 -5.41900 46.05900
H  27.34800 -2.74000 42.29900
H  28.00000 1.26600 41.84900
H  29.16600 1.03100 43.21600
H  27.53100 1.46100 43.50100
Mg -1.74500 34.23100 26.95700
C  -3.68300 32.77500 29.43000
C  -0.63700 36.53500 29.11500
C  -0.16300 35.74200 24.34000
C  -3.22100 32.07400 24.65000
N  -2.20700 34.65400 28.99900
C  -2.89600 33.81600 29.87500
C  -2.70400 34.40600 31.33500
C  -1.83000 35.67500 31.08300
C  -1.54900 35.63200 29.63900
C  -2.27600 37.00900 31.66600
C  -2.06400 33.33200 32.25800
C  -3.00800 32.73400 33.39100
H  -2.27400 32.48800 34.70200
N  -0.46100 35.85700 26.72300
C  -0.09800 36.65800 27.82100
C  0.77800 37.71800 27.26100
C  0.85900 37.50900 25.85500
C  0.05500 36.32600 25.54500
C  1.33300 38.81100 28.15600
C  1.48500 38.44200 24.85400
O  1.46200 38.24800 23.65600
C  2.35500 39.53700 25.29000
N  -1.73400 34.05700 24.72800
C  -0.96400 34.75600 23.91100
C  -1.02600 34.15400 22.46700
C  -1.96500 32.90200 22.61900
C  -2.26700 32.94200 24.10900
C  -1.49000 35.10700 21.23000
C  -1.41000 31.54300 22.14600
C  -0.79300 30.60000 23.14700
N  -3.29400 32.91200 26.92500
C  -3.76200 32.08200 25.93000
C  -4.80600 31.24200 26.43300
C  -4.74900 31.44400 27.87100
C  -3.83700 32.44700 28.06700
C  -5.67900 30.29000 25.67400
C  -5.42100 31.09300 29.11600
O  -6.39300 30.37400 29.28800
C  -4.60200 31.83600 30.25500
C  -5.56300 32.54800 31.19300
O  -6.26400 33.45400 30.85100
O  -5.80600 31.86000 32.35300
C  -6.85900 32.42600 33.23400
H  -0.26500 37.21600 29.88300
H  0.41900 36.09000 23.48400
H  -3.61700 31.32700 23.95900
H  -3.68500 34.68500 31.72000
H  -0.83500 35.55400 31.51200
H  -2.56800 37.81900 30.99800
H  -1.48700 37.38700 32.31700
H  -3.17400 37.01000 32.28400
H  -1.21100 33.79000 32.75900
H  -1.59600 32.50800 31.72100
H  -3.49900 31.79400 33.13800
H  -3.77500 33.50300 33.47900
H  2.42100 38.73500 28.14500
H  1.11300 38.57000 29.19600
H  0.88000 39.79700 28.05800
H  2.66300 40.04400 24.37600
H  3.15300 39.08100 25.87600
H  1.68200 40.18800 25.84900
H  0.02400 33.89400 22.33600
H  -2.89300 33.05200 22.06800
H  -1.79800 36.05400 21.67400
H  -2.24400 34.66700 20.57800
H  -0.59600 35.29100 20.63400
H  -0.74400 31.68000 21.29400
H  -2.34800 31.14000 21.76500
H  -0.06600 29.97800 22.62500
H  -1.60900 30.01500 23.57000
H  -0.31700 31.24300 23.88700
H  -5.35200 30.39200 24.63900
H  -6.72500 30.35500 25.97400
H  -5.30700 29.28200 25.86200
H  -4.06400 31.07500 30.82200
H  -7.85000 32.40000 32.78200
H  -6.79400 33.48700 33.47300
H  -6.78100 31.81200 34.13100

