158

Mg 57.21400 23.31500 45.16700
C  55.34100 25.96600 44.20600
C  54.98500 21.09400 43.66300
C  59.60000 20.74500 45.47400
C  59.74900 25.53200 46.22800
N  55.49400 23.52100 43.97000
C  54.85600 24.74100 43.71200
C  53.47700 24.51500 43.05600
C  53.21800 22.97500 43.34100
C  54.66300 22.48000 43.68500
C  52.16800 22.55500 44.38000
C  53.66700 24.91400 41.60800
C  52.65800 25.85500 40.98300
H  51.64600 25.36200 39.94200
N  57.28600 21.21700 44.71300
C  56.21500 20.55000 44.09000
C  56.58200 19.22600 44.04500
C  57.79600 19.06800 44.70400
C  58.28900 20.36000 45.03500
C  55.52900 18.20500 43.47700
C  58.42200 17.66500 44.95800
O  57.97400 16.73600 44.30400
C  59.66000 17.47500 45.81800
N  59.37300 23.13800 45.58900
C  60.07600 22.03800 45.78800
C  61.47500 22.19100 46.34900
C  61.59600 23.77500 46.33200
C  60.13800 24.20700 46.04700
C  61.68700 21.47800 47.65300
C  62.57100 24.37000 45.23400
C  64.08300 24.28500 45.60700
N  57.43900 25.34400 45.34800
C  58.47600 26.15200 45.83700
C  58.02500 27.50300 45.93900
C  56.78100 27.51100 45.27200
C  56.55100 26.16900 44.89700
C  58.72700 28.72200 46.61200
C  55.65700 28.31100 44.89300
O  55.52000 29.51800 45.04700
C  54.76000 27.34900 44.07100
C  54.63400 27.95500 42.73800
O  55.46400 27.89400 41.88800
O  53.42500 28.65700 42.61500
C  53.22800 29.33300 41.31300
H  54.15800 20.49400 43.27700
H  60.34000 19.97700 45.70900
H  60.46500 26.29200 46.54800
H  52.61800 25.03700 43.47700
H  52.91600 22.52000 42.39700
H  51.49200 21.80300 43.97300
H  51.57900 23.40500 44.72600
H  52.69200 22.16700 45.25400
H  53.65300 24.06700 40.92300
H  54.68200 25.27900 41.45200
H  53.32000 26.61300 40.56500
H  52.05400 26.40900 41.70100
H  55.45000 18.43600 42.41500
H  54.54600 18.33300 43.93200
H  55.76700 17.14200 43.46400
H  60.57100 17.76500 45.29500
H  59.77100 16.42800 46.09800
H  59.45500 18.09300 46.69200
H  61.99400 21.60700 45.58900
H  61.91500 24.18200 47.29200
H  62.74100 21.20100 47.69300
H  61.00100 20.63300 47.69800
H  61.47500 22.13900 48.49300
H  62.37600 25.40900 44.96700
H  62.45200 23.86700 44.27500
H  64.58400 23.34300 45.38500
H  64.14900 24.48300 46.67700
H  64.63900 25.02600 45.03300
H  59.78800 28.50600 46.73400
H  58.31400 28.78000 47.62000
H  58.61500 29.66000 46.06700
H  53.77600 27.36300 44.54000
H  54.20300 29.53600 40.87100
H  52.64400 30.25100 41.37800
H  52.63000 28.73900 40.62200
Mg 0.29400 43.85700 26.16500
C  2.73500 43.35500 28.72800
C  -2.17300 43.53400 28.43500
C  -1.71100 43.15300 23.60000
C  3.11100 43.79300 23.92000
N  0.36800 43.43600 28.29600
C  1.41600 43.40300 29.17300
C  0.91900 43.50100 30.66300
C  -0.62300 43.38200 30.56800
C  -0.88600 43.47500 28.97700
C  -1.32400 42.15200 31.18800
C  1.29600 44.83700 31.37000
C  1.51400 44.97800 32.86100
H  1.12600 43.70600 33.67300
N  -1.71400 43.51300 26.03000
C  -2.57400 43.43900 27.06400
C  -3.84600 43.27900 26.56600
C  -3.70900 43.07000 25.14100
C  -2.35300 43.17800 24.88600
C  -5.08300 43.27700 27.33700
C  -4.86900 42.75400 24.11100
O  -4.58900 42.72100 22.89100
C  -6.24000 42.39900 24.59600
N  0.67300 43.29200 24.03800
C  -0.39600 43.34300 23.22700
C  -0.13200 43.52800 21.73900
C  1.39000 44.06300 21.89200
C  1.81200 43.71000 23.34000
C  -0.35800 42.38700 20.67600
C  1.66600 45.56300 21.61300
C  2.95000 45.85700 20.80700
N  2.43200 43.66500 26.24900
C  3.37500 43.69500 25.32200
C  4.67200 43.61000 25.83000
C  4.53000 43.50500 27.16700
C  3.07600 43.54900 27.37100
C  5.95100 43.73800 25.06200
C  5.17700 43.37000 28.52700
O  6.34900 43.23000 28.82800
C  4.00000 43.41600 29.51200
C  4.11100 42.47200 30.68000
O  3.83700 41.31800 30.68400
O  4.69200 43.15500 31.72800
C  5.20200 42.26800 32.75500
H  -3.03500 43.55200 29.10600
H  -2.37900 43.08100 22.73900
H  3.91000 43.94900 23.19300
H  1.23500 42.72800 31.36400
H  -1.08600 44.20300 31.11500
H  -1.76200 42.48400 32.12900
H  -0.57300 41.48000 31.60200
H  -1.99500 41.68200 30.47000
H  0.45000 45.48100 31.12900
H  2.20200 45.24700 30.92300
H  1.01800 45.87900 33.22200
H  2.58400 45.11200 33.01800
H  -5.89900 43.83100 26.87400
H  -4.87600 43.89400 28.21200
H  -5.32100 42.23200 27.53500
H  -6.20300 41.55900 25.29000
H  -6.91100 42.20200 23.76000
H  -6.56200 43.32100 25.08200
H  -0.75400 44.36700 21.42700
H  1.96300 43.41800 21.22600
H  0.22700 42.65100 19.79500
H  -1.42300 42.41300 20.44600
H  -0.10200 41.47100 21.21000
H  1.83800 46.04200 22.57700
H  0.76300 45.99400 21.18100
H  2.55700 46.07500 19.81400
H  3.59700 44.98000 20.83100
H  3.33400 46.68500 21.40200
H  5.85600 44.28600 24.12500
H  6.42500 42.85700 24.63000
H  6.69700 44.20800 25.70200
H  4.17500 44.42000 29.90100
H  4.34900 41.84200 33.28500
H  5.97000 42.70500 33.39400
H  5.74600 41.39000 32.40500

