158

Mg 49.04600 45.92900 43.04100
C  45.61600 46.23000 42.00100
C  49.00300 42.76600 41.72600
C  52.35300 46.05400 43.08500
C  48.90800 49.40200 43.62500
N  47.49000 44.68900 41.93400
C  46.17600 44.99100 41.66600
C  45.51900 43.73300 41.13500
C  46.51700 42.62000 41.35500
C  47.74800 43.37400 41.78300
C  46.14500 41.45400 42.32600
C  44.88300 43.80400 39.66000
C  45.94100 44.00700 38.48100
H  45.93300 42.98600 37.41800
N  50.52400 44.53500 42.67600
C  50.26500 43.30100 42.09600
C  51.56200 42.61300 42.10100
C  52.51800 43.44600 42.64900
C  51.81900 44.74000 42.85600
C  51.73400 41.21300 41.85600
C  54.04600 43.19700 42.73200
O  54.41800 42.14200 42.24400
C  54.97800 44.24100 43.28500
N  50.42600 47.60600 43.07700
C  51.73600 47.31500 43.18000
C  52.56500 48.66000 43.28000
C  51.42200 49.73100 43.67400
C  50.16200 48.89800 43.51600
C  53.86700 48.66800 44.14100
C  51.46200 51.06600 42.92700
C  52.40400 51.99600 43.54700
N  47.53500 47.49600 43.11700
C  47.63400 48.83500 43.39100
C  46.29500 49.50300 43.27400
C  45.48000 48.44500 42.69100
C  46.30200 47.27600 42.68200
C  45.91500 50.99000 43.34100
C  44.21100 48.19500 42.16900
O  43.32400 48.96100 41.88100
C  44.19800 46.74300 41.66300
C  43.09500 45.90900 42.18200
O  42.11200 45.49800 41.50800
O  43.22300 45.59400 43.50400
C  42.00300 44.92800 44.04400
H  49.04600 41.70600 41.46800
H  53.43500 46.12900 43.21900
H  48.90500 50.46500 43.87700
H  44.60500 43.58200 41.71000
H  46.85500 42.06300 40.48200
H  45.26900 41.64300 42.94600
H  46.83400 41.29100 43.15600
H  45.90800 40.54700 41.77100
H  44.05200 44.50800 39.71500
H  44.32200 42.88500 39.49100
H  46.90200 43.81800 38.95900
H  46.02900 45.02500 38.10100
H  52.44200 41.12400 41.03300
H  50.82500 40.67400 41.58800
H  52.17700 40.72600 42.72500
H  55.16300 45.01900 42.54400
H  55.90800 43.70200 43.46600
H  54.54500 44.67300 44.18600
H  52.84500 48.83900 42.24200
H  51.44300 49.96800 44.73800
H  53.82300 47.84900 44.85900
H  54.07200 49.56400 44.72700
H  54.70400 48.44500 43.48000
H  50.49600 51.57000 42.89800
H  51.75900 50.93200 41.88700
H  52.90800 51.50700 44.38000
H  51.90200 52.88600 43.92500
H  53.11300 52.35900 42.80200
H  44.94400 51.19200 42.88900
H  46.65100 51.61000 42.82900
H  45.85900 51.27200 44.39300
H  44.00100 46.78400 40.59200
H  42.18100 44.84900 45.11700
H  41.83100 43.93700 43.62300
H  41.05900 45.47200 44.07600
Mg 9.92600 47.28700 26.69400
C  8.00600 47.27700 29.55700
C  12.62500 48.38900 28.41600
C  11.64700 47.30300 23.75600
C  7.04900 46.42100 24.88800
N  10.23500 47.67600 28.80100
C  9.33200 47.57100 29.83600
C  9.99400 47.87400 31.16400
C  11.33900 48.68100 30.68700
C  11.39900 48.26000 29.21900
C  11.23700 50.23000 30.75100
C  10.24600 46.57500 32.08800
C  9.68800 46.78100 33.50700
H  9.67700 45.50000 34.37900
N  11.92500 47.56900 26.17900
C  12.90700 48.07800 27.03000
C  14.14800 48.18500 26.35000
C  13.87800 47.64400 25.01900
C  12.43800 47.55600 24.90500
C  15.40500 48.77300 26.97000
C  14.87100 47.36900 23.88100
O  14.53200 47.03400 22.76400
C  16.30800 47.50500 24.04400
N  9.46500 46.84800 24.62700
C  10.31800 46.96000 23.52700
C  9.72700 46.41000 22.23700
C  8.33700 45.98800 22.70600
C  8.22800 46.47100 24.12700
C  9.73100 47.49400 21.10200
C  8.15000 44.42600 22.64200
C  9.34700 43.56500 23.10400
N  7.86200 47.01500 27.10500
C  6.87300 46.67500 26.29000
C  5.63900 46.55300 27.05200
C  6.03800 46.83500 28.38500
C  7.39200 47.08100 28.32600
C  4.27100 46.18500 26.51100
C  5.64000 47.03200 29.72500
O  4.53000 47.02200 30.20600
C  6.92700 47.15500 30.59400
C  6.93000 45.88100 31.40300
O  7.49400 44.82400 31.12000
O  6.16000 46.15100 32.48500
C  5.85500 44.91500 33.25400
H  13.47200 48.78000 28.98400
H  12.12500 47.37600 22.77700
H  6.14700 45.94900 24.49400
H  9.42400 48.58700 31.76000
H  12.22700 48.39700 31.25000
H  11.52700 50.70400 29.81400
H  12.01300 50.47800 31.47500
H  10.27500 50.66800 31.01500
H  11.33400 46.50400 32.10500
H  9.69200 45.71600 31.71100
H  8.70400 47.22100 33.34800
H  10.33200 47.50900 34.00000
H  15.94100 49.21100 26.12800
H  15.96500 47.95300 27.41900
H  15.27400 49.50000 27.77100
H  16.69400 47.04800 24.95500
H  16.50000 48.54800 23.79200
H  16.76500 46.91300 23.25100
H  10.36600 45.56900 21.96800
H  7.55600 46.50000 22.14300
H  10.26800 47.12500 20.22900
H  10.21000 48.36600 21.54800
H  8.73800 47.82100 20.79100
H  7.81800 44.10800 21.65400
H  7.24200 44.15000 23.17900
H  10.01500 43.22300 22.31400
H  8.99900 42.69700 23.66500
H  9.88900 44.16900 23.83300
H  3.79700 47.03900 26.02900
H  3.65100 46.22400 27.40700
H  4.28500 45.26100 25.93200
H  6.89700 48.04900 31.21700
H  5.95900 44.00700 32.66000
H  4.83200 44.93400 33.63000
H  6.49800 44.69700 34.10700

