158

Mg 1.97200 -1.13500 44.85400
C  5.45700 -0.45500 44.05800
C  1.22300 1.48600 42.63200
C  -1.21400 -1.95500 45.15600
C  3.08200 -4.03100 46.41800
N  3.24600 0.37700 43.55000
C  4.60600 0.39500 43.34900
C  5.00500 1.73700 42.54700
C  3.60700 2.28600 42.07900
C  2.57900 1.26000 42.74100
C  3.23800 3.70600 42.55500
C  5.86600 1.45200 41.28100
C  6.94400 2.50400 40.98300
H  6.47700 3.62800 40.12200
N  0.14700 -0.26800 44.09700
C  0.07300 0.81900 43.25200
C  -1.29100 1.09400 43.08900
C  -2.10100 0.18400 43.82200
C  -1.10000 -0.72100 44.44800
C  -1.79400 2.30400 42.27500
C  -3.60200 0.21700 44.01100
O  -4.33700 1.02500 43.39400
C  -4.26500 -0.63100 45.04600
N  1.01800 -2.81300 45.45900
C  -0.27500 -2.87900 45.59400
C  -0.66500 -4.22600 46.25200
C  0.68800 -4.82200 46.71500
C  1.68500 -3.80400 46.19400
C  -1.77400 -4.07600 47.40100
C  0.86600 -6.28700 46.29000
C  1.12700 -7.34400 47.37200
N  3.80600 -2.07300 45.23900
C  4.07900 -3.22200 45.96200
C  5.53300 -3.41400 46.04100
C  6.07100 -2.34300 45.35300
C  4.99700 -1.58200 44.79300
C  6.30000 -4.44200 46.81100
C  7.40300 -1.82700 44.88500
O  8.57200 -2.15900 45.07400
C  6.96900 -0.55200 44.05400
C  7.54300 0.60800 44.90100
O  7.12600 0.94500 45.97300
O  8.58500 1.27500 44.23300
C  9.18800 2.49300 44.87200
H  1.02600 2.38500 42.04400
H  -2.26400 -2.22900 45.27800
H  3.45800 -4.89300 46.97400
H  5.60000 2.37800 43.19700
H  3.50800 2.28800 40.99300
H  4.04600 4.23600 43.05900
H  2.32000 3.71100 43.14200
H  3.05500 4.39400 41.73000
H  5.26400 1.26400 40.39200
H  6.31800 0.46700 41.40100
H  7.61900 1.88500 40.39200
H  7.39300 2.85100 41.91300
H  -1.37100 1.99900 41.31700
H  -1.32300 3.22000 42.63000
H  -2.86400 2.50600 42.23200
H  -5.29300 -0.29000 45.17000
H  -3.68800 -0.56400 45.96800
H  -4.34300 -1.65300 44.67700
H  -0.99700 -4.87900 45.44500
H  0.80500 -4.87800 47.79800
H  -2.03600 -3.02000 47.46200
H  -1.53100 -4.53500 48.36000
H  -2.62500 -4.69100 47.11000
H  1.67800 -6.28400 45.56200
H  -0.04000 -6.70200 45.84800
H  0.18900 -7.82500 47.65000
H  1.76000 -6.96600 48.17400
H  1.83500 -8.08300 46.99600
H  6.09600 -5.42100 46.37700
H  6.02500 -4.42300 47.86600
H  7.37500 -4.36400 46.64700
H  7.42800 -0.64000 43.06900
H  9.02600 3.36400 44.23600
H  10.25200 2.26400 44.92900
H  8.83300 2.61300 45.89500
Mg 0.57600 44.36300 26.32000
C  2.83400 44.27100 29.06300
C  -1.94900 43.70400 28.68700
C  -1.44500 43.80000 23.84000
C  3.35700 44.55100 24.21000
N  0.50000 44.01200 28.69200
C  1.52000 44.20500 29.56300
C  1.05500 44.05500 30.96100
C  -0.43900 43.57700 30.79200
C  -0.70800 43.78300 29.30300
C  -0.63400 42.07800 31.30400
C  1.23100 45.43300 31.72700
C  1.60400 45.41800 33.24300
H  1.06000 44.23000 34.04400
N  -1.48500 44.08800 26.23700
C  -2.32200 43.77100 27.34500
C  -3.63600 43.89200 26.88300
C  -3.60800 43.74900 25.41800
C  -2.16800 43.87600 25.11100
C  -4.86400 44.12000 27.82300
C  -4.75400 43.60000 24.42700
O  -4.59100 43.50300 23.25200
C  -6.18100 43.50700 25.03300
N  0.94900 43.96600 24.33500
C  -0.06500 43.86900 23.51500
C  0.47500 43.90500 22.05100
C  1.79700 44.68600 22.19200
C  2.07900 44.39000 23.67900
C  0.51400 42.51600 21.38600
C  1.70500 46.16300 21.91400
C  2.40000 46.60900 20.60000
N  2.63600 44.38700 26.50800
C  3.66300 44.49400 25.57200
C  4.94800 44.63800 26.16000
C  4.63900 44.48800 27.52800
C  3.24600 44.35800 27.70800
C  6.26300 44.67300 25.47200
C  5.29500 44.48600 28.81000
O  6.47200 44.51400 29.09300
C  4.14000 44.25300 29.85000
C  4.33900 43.01400 30.70800
O  4.47800 41.90200 30.22200
O  4.22000 43.28200 32.02000
C  4.32900 42.14300 32.98600
H  -2.65600 43.39900 29.46100
H  -2.10200 43.74100 22.97000
H  4.17400 44.92700 23.59100
H  1.54600 43.24100 31.49600
H  -1.16100 44.09900 31.42000
H  0.26900 41.47500 31.40400
H  -1.22600 41.50900 30.58700
H  -1.21400 42.22700 32.21500
H  0.32000 46.00000 31.53400
H  1.94300 45.99500 31.12300
H  1.12700 46.33300 33.59300
H  2.68300 45.55000 33.32600
H  -5.47900 43.22900 27.95500
H  -5.49300 44.89400 27.38500
H  -4.61200 44.60500 28.76700
H  -6.24100 42.93600 25.96000
H  -6.73500 42.82100 24.39200
H  -6.68700 44.47200 25.04700
H  -0.26600 44.47500 21.48900
H  2.52800 44.15600 21.58200
H  -0.11500 41.81400 21.93300
H  1.47900 42.02200 21.49500
H  0.23800 42.66200 20.34100
H  2.06100 46.74600 22.76300
H  0.72400 46.58300 21.69300
H  3.15800 47.35800 20.83100
H  1.69900 47.16900 19.98100
H  2.98600 45.88800 20.03100
H  6.13600 45.52100 24.79900
H  6.55200 43.73600 24.99600
H  7.01500 44.96500 26.20500
H  4.05100 45.10600 30.52300
H  5.25300 41.59000 32.81600
H  3.48900 41.46300 32.83800
H  4.41200 42.54900 33.99300

