158

Mg -1.88100 17.67900 26.90200
C  -2.36200 15.26400 29.33500
C  -2.26900 20.02500 29.37000
C  -1.74400 20.03700 24.43200
C  -1.99000 15.20000 24.43500
N  -2.21600 17.55300 29.19600
C  -2.24700 16.45900 29.98700
C  -2.44000 16.87100 31.43000
C  -2.60000 18.41000 31.31600
C  -2.34500 18.71100 29.86000
C  -4.08600 18.87600 31.75100
C  -1.30800 16.32900 32.38800
C  -0.91900 17.04300 33.63800
H  -0.75600 16.17000 34.76600
N  -1.88400 19.67600 26.91700
C  -2.07800 20.46100 28.00300
C  -1.91400 21.84500 27.63700
C  -1.75700 21.88500 26.23200
C  -1.79400 20.49000 25.81400
C  -2.04200 23.08500 28.60700
C  -1.55300 23.03600 25.22800
O  -1.50900 22.96100 24.00700
C  -1.47600 24.38100 25.79700
N  -2.04900 17.58500 24.72400
C  -1.79900 18.70800 23.92200
C  -1.50400 18.30400 22.45800
C  -1.73700 16.77100 22.45200
C  -1.89100 16.49200 23.97800
C  -2.31600 19.10300 21.37600
C  -0.46900 15.89200 21.85500
C  0.87500 15.96000 22.59800
N  -2.13400 15.67300 26.81600
C  -2.18000 14.80100 25.79600
C  -2.34900 13.48400 26.23100
C  -2.47800 13.65000 27.61800
C  -2.30100 14.97600 27.92500
C  -2.45500 12.16200 25.43900
C  -2.63800 12.88800 28.93100
O  -2.88100 11.68200 29.12500
C  -2.66300 13.89100 30.04400
C  -1.70300 13.40600 31.09300
O  -0.48800 13.48800 30.98300
O  -2.38700 12.81700 32.16200
C  -1.59600 12.06600 33.09100
H  -2.27500 20.77800 30.16100
H  -1.70300 20.77000 23.62300
H  -1.84600 14.36200 23.74900
H  -3.34500 16.37800 31.78500
H  -1.81400 18.94900 31.84500
H  -4.75000 18.02700 31.91100
H  -4.61200 19.40900 30.96000
H  -4.05900 19.48200 32.65700
H  -0.35000 16.29600 31.86900
H  -1.76300 15.36800 32.62500
H  -1.58000 17.84400 33.96900
H  0.06900 17.46900 33.46200
H  -2.50300 24.02000 28.28700
H  -1.01900 23.38700 28.83200
H  -2.55100 22.78800 29.52400
H  -2.43700 24.66300 26.22600
H  -1.17500 25.02700 24.97100
H  -0.73400 24.54500 26.57800
H  -0.46600 18.63500 22.41800
H  -2.60200 16.62300 21.80600
H  -2.88200 19.83800 21.94900
H  -3.05500 18.47300 20.88200
H  -1.56700 19.60800 20.76700
H  -0.26000 16.14600 20.81600
H  -0.68500 14.82500 21.78600
H  0.65300 16.07800 23.65900
H  1.45300 16.79500 22.20200
H  1.49100 15.07000 22.47100
H  -1.80500 11.48600 25.99500
H  -2.05900 12.15800 24.42400
H  -3.41200 11.64500 25.36200
H  -3.66800 13.96900 30.45800
H  -2.18700 11.23000 33.46400
H  -1.24800 12.82400 33.79200
H  -0.69300 11.66300 32.63200
Mg 24.53200 -5.53000 45.08900
C  26.55100 -3.05500 43.71500
C  22.09300 -4.64000 42.76600
C  22.88700 -8.45000 45.64100
C  27.32300 -6.85500 46.71800
N  24.37800 -3.97800 43.48700
C  25.29200 -3.07500 43.05700
C  24.77900 -2.20100 41.99300
C  23.27300 -2.54000 42.01100
C  23.25600 -3.84400 42.75800
C  22.34400 -1.41600 42.57100
C  25.42800 -2.52100 40.61900
C  25.85300 -1.29300 39.82800
H  26.10600 -1.47600 38.28800
N  22.72400 -6.34000 44.38000
C  21.84400 -5.79100 43.50000
C  20.65600 -6.61100 43.44000
C  20.92100 -7.82600 44.20400
C  22.23400 -7.57900 44.77500
C  19.48700 -6.24900 42.47100
C  20.06200 -8.97100 44.26800
O  18.92300 -8.88000 43.77600
C  20.38800 -10.24100 45.01400
N  25.04200 -7.37900 46.06500
C  24.12400 -8.39500 46.19200
C  24.74700 -9.57800 46.89400
C  26.18300 -9.17900 47.20900
C  26.21600 -7.72900 46.60900
C  23.88100 -10.26100 47.93200
C  27.29400 -10.06000 46.76000
C  28.09600 -10.77400 47.84500
N  26.58400 -4.99100 45.28500
C  27.55200 -5.62100 46.05800
C  28.74800 -4.75900 45.95300
C  28.40600 -3.78500 44.99700
C  27.04800 -3.96700 44.64400
C  30.04900 -5.06100 46.52900
C  28.95700 -2.70900 44.15000
O  30.09200 -2.28000 44.13900
C  27.75900 -2.12700 43.33200
C  27.49100 -0.70500 43.79100
O  27.46900 -0.24300 44.95600
O  27.47300 0.17400 42.69300
C  27.25000 1.56200 42.92900
H  21.28700 -4.22600 42.15600
H  22.41100 -9.38300 45.95100
H  28.05900 -7.26900 47.41000
H  25.01600 -1.15600 42.19200
H  22.95500 -2.83700 41.01200
H  22.90900 -0.56000 42.94000
H  21.70200 -1.68900 43.40900
H  21.67500 -0.94700 41.85000
H  24.83600 -3.19000 39.99500
H  26.33800 -3.02200 40.95000
H  26.74300 -0.89800 40.31800
H  25.02100 -0.58800 39.83100
H  19.66200 -6.55800 41.44100
H  19.46500 -5.16100 42.40800
H  18.56100 -6.72500 42.79300
H  21.32500 -10.69500 44.69100
H  19.59200 -10.95400 44.79800
H  20.35900 -10.08900 46.09300
H  24.85400 -10.33600 46.11900
H  26.23200 -9.13200 48.29700
H  23.44800 -11.19500 47.57300
H  23.24100 -9.48300 48.34800
H  24.51900 -10.56700 48.76100
H  27.99000 -9.57500 46.07600
H  26.91500 -10.83500 46.09400
H  27.61900 -11.74000 48.01100
H  28.21800 -10.32300 48.82900
H  29.07000 -10.95700 47.39000
H  30.63600 -5.75500 45.92800
H  29.87300 -5.46300 47.52700
H  30.61800 -4.13300 46.47300
H  28.08800 -2.25600 42.30100
H  27.99700 1.95700 43.61800
H  26.23200 1.59500 43.31700
H  27.38200 2.16600 42.03200

