158

Mg 25.09300 0.87000 29.97000
C  27.18200 0.60400 32.77700
C  22.43800 1.36600 32.20900
C  22.88900 0.52800 27.35500
C  27.66000 -0.33500 27.94800
N  24.85600 1.05100 32.19200
C  25.86200 0.89600 33.10300
C  25.40700 1.23500 34.55200
C  23.83800 1.36200 34.33100
C  23.68900 1.27900 32.80800
C  22.98100 0.28400 35.10600
C  26.10200 2.53400 35.09300
C  26.58300 2.33300 36.54000
H  26.02800 3.20100 37.67800
N  22.98100 0.94600 29.81800
C  22.10300 1.23300 30.87400
C  20.76500 1.31300 30.36800
C  20.90200 0.92400 28.97900
C  22.29100 0.75600 28.65700
C  19.55100 1.59800 31.13700
C  19.74500 0.70700 28.00800
O  19.94000 0.19800 26.90000
C  18.38100 0.94900 28.39300
N  25.24900 0.16900 27.98000
C  24.19200 0.23300 27.06400
C  24.71100 0.04400 25.60100
C  26.24200 0.00200 25.76400
C  26.43900 -0.01900 27.31800
C  24.05100 -1.20900 24.88300
C  27.03100 1.20500 25.13000
C  27.45600 2.46700 25.95800
N  27.08200 0.39500 30.18200
C  27.96300 -0.09200 29.33000
C  29.24800 -0.33200 30.01000
C  28.97800 -0.11600 31.33400
C  27.65300 0.28000 31.43600
C  30.58300 -0.71700 29.29900
C  29.52100 -0.19000 32.63600
O  30.61900 -0.49700 33.05100
C  28.46500 0.40100 33.60700
C  28.26500 -0.55200 34.72800
O  27.61600 -1.58700 34.73900
O  28.97600 -0.12400 35.78000
C  28.67000 -0.80400 37.02800
H  21.60800 1.63100 32.86700
H  22.23600 0.64300 26.48700
H  28.44100 -0.59200 27.22900
H  25.58900 0.42500 35.25900
H  23.42800 2.33800 34.59400
H  22.94400 -0.71000 34.66000
H  21.95200 0.64400 35.11500
H  23.30200 0.04500 36.12000
H  25.39600 3.34800 34.92300
H  27.02300 2.71200 34.53800
H  27.67200 2.29200 36.57600
H  26.27100 1.33100 36.83300
H  19.67100 1.81400 32.19900
H  19.06000 0.62500 31.16700
H  18.94000 2.39700 30.71800
H  17.73500 0.62600 27.57700
H  18.24500 1.98900 28.68800
H  18.15000 0.28100 29.22300
H  24.44800 0.89300 24.97000
H  26.65000 -0.93000 25.37400
H  23.09700 -1.07200 24.37400
H  23.81600 -1.94800 25.64900
H  24.79700 -1.59000 24.18600
H  26.42200 1.67700 24.35900
H  27.91100 0.84700 24.59700
H  28.53500 2.61000 26.02300
H  27.16300 2.30100 26.99500
H  26.87300 3.30400 25.57600
H  30.78300 -0.12900 28.40400
H  30.30500 -1.73600 29.03100
H  31.49300 -0.70300 29.90000
H  28.86900 1.33000 34.00900
H  27.63100 -0.55700 37.24500
H  29.35200 -0.44100 37.79700
H  28.78800 -1.88400 36.93500
Mg -4.06800 25.60500 25.93300
C  -2.73700 26.90000 28.91700
C  -6.18600 23.68500 27.76100
C  -4.70000 24.01200 23.18100
C  -1.42200 27.28800 24.22800
N  -4.42100 25.40100 28.11600
C  -3.81900 26.05300 29.09200
C  -4.60800 25.83000 30.39500
C  -5.45800 24.58300 30.08600
C  -5.40500 24.54000 28.55200
C  -4.98900 23.28300 30.72200
C  -5.54100 27.07500 30.64400
C  -5.97000 27.23600 32.15900
H  -5.53900 26.19400 33.21600
N  -5.37800 24.15100 25.48300
C  -6.21900 23.54300 26.34100
C  -7.08600 22.58800 25.63400
C  -6.74100 22.73200 24.22100
C  -5.55800 23.67200 24.24100
C  -8.19700 21.78800 26.22000
C  -7.26700 22.11000 22.90700
O  -6.97300 22.55800 21.83000
C  -8.50200 21.26900 23.03700
N  -3.19300 25.57800 23.96000
C  -3.61100 24.78000 23.04600
C  -2.84400 24.90000 21.75000
C  -1.87000 26.19400 22.02800
C  -2.15800 26.40300 23.51300
C  -2.17000 23.57700 21.24100
C  -2.26800 27.44100 21.10500
C  -1.17500 28.29300 20.51700
N  -2.50300 26.91800 26.39100
C  -1.59400 27.59500 25.58700
C  -0.75200 28.55600 26.36800
C  -1.19400 28.22700 27.69700
C  -2.22800 27.26100 27.65400
C  0.31100 29.47100 25.84800
C  -1.00300 28.59600 29.08700
O  -0.17000 29.34200 29.59700
C  -1.96000 27.73900 29.95800
C  -1.11600 26.87700 30.91800
O  -0.52000 25.83100 30.63400
O  -1.50600 27.24700 32.22600
C  -1.13600 26.28500 33.23200
H  -6.84200 23.00100 28.30400
H  -4.81300 23.42700 22.26600
H  -0.66600 27.93500 23.78000
H  -3.88700 25.66700 31.19500
H  -6.48400 24.77900 30.39700
H  -4.60100 23.47300 31.72300
H  -4.27300 22.82000 30.04200
H  -5.83400 22.60900 30.86000
H  -6.34800 27.02200 29.91300
H  -5.01700 28.01700 30.48400
H  -7.05600 27.30400 32.23100
H  -5.50400 28.20700 32.32900
H  -9.12200 22.21700 25.83400
H  -8.03400 21.80300 27.29700
H  -8.02900 20.73600 25.99000
H  -8.62200 20.75500 22.08300
H  -9.31000 21.96300 23.27200
H  -8.38900 20.48800 23.78900
H  -3.61200 25.10900 21.00500
H  -0.82900 25.88800 21.92700
H  -2.56100 23.32500 20.25500
H  -2.36800 22.85800 22.03700
H  -1.12100 23.78100 21.02900
H  -2.84600 28.22600 21.59200
H  -2.87500 27.08700 20.27200
H  -0.17300 27.90500 20.70100
H  -1.17200 29.28300 20.97400
H  -1.38900 28.35800 19.45000
H  0.72700 30.22300 26.51800
H  -0.10000 30.00700 24.99200
H  1.06100 28.73900 25.54800
H  -2.52800 28.45500 30.55200
H  -1.68900 25.35000 33.13600
H  -1.32100 26.65800 34.23900
H  -0.06300 26.09600 33.22000

