158

Mg 43.43700 3.31900 47.16800
C  41.49200 6.46900 47.00700
C  40.42400 1.67800 46.93800
C  45.17700 0.56400 46.55800
C  46.19000 5.45700 46.37200
N  41.19900 4.04400 46.70800
C  40.68000 5.31600 46.91700
C  39.17000 5.25300 47.19200
C  38.97900 3.70000 47.43500
C  40.26900 3.07200 46.92300
C  38.54300 3.25000 48.85800
C  38.41800 5.93200 46.03900
C  38.79700 5.47700 44.65200
H  39.71400 6.36300 43.71500
N  42.91200 1.35200 46.99900
C  41.63600 0.85700 46.89200
C  41.72500 -0.61400 46.77900
C  43.05400 -0.98200 46.76900
C  43.80600 0.31300 46.73600
C  40.44200 -1.47600 46.64100
C  43.56200 -2.43000 46.71700
O  42.86400 -3.40200 46.88200
C  45.04200 -2.71300 46.66000
N  45.46600 3.05400 46.52900
C  45.95500 1.76400 46.45500
C  47.48800 1.80900 46.24600
C  47.72400 3.38200 46.01900
C  46.33800 4.04400 46.26600
C  48.27500 1.10700 47.41100
C  48.21500 3.61800 44.56300
C  49.67600 3.77300 44.15400
N  43.84600 5.46600 46.99700
C  45.05800 6.15200 46.66900
C  44.79500 7.50800 46.67800
C  43.48300 7.65800 46.86200
C  42.92700 6.44000 46.95100
C  45.91800 8.52200 46.37800
C  42.42000 8.75300 47.11500
O  42.38100 9.96300 47.23000
C  41.16800 7.92300 47.06400
C  40.36800 8.16600 48.31700
O  40.56800 7.64700 49.46100
O  39.49300 9.15400 48.08900
C  38.58500 9.65800 49.16800
H  39.39500 1.32100 47.02100
H  45.76300 -0.35500 46.49700
H  47.05200 5.92100 45.88800
H  39.00400 5.79400 48.12300
H  38.18100 3.39800 46.75700
H  37.62900 2.68300 48.68400
H  38.34700 4.12300 49.48000
H  39.32000 2.61600 49.28400
H  38.63000 6.99900 46.11400
H  37.35800 5.69100 46.12100
H  37.82900 5.38700 44.16000
H  39.25200 4.48900 44.71900
H  40.27800 -2.22700 47.41400
H  40.55700 -2.12800 45.77500
H  39.55600 -0.86000 46.48900
H  45.52600 -2.08400 47.40700
H  45.42100 -2.43100 45.67800
H  45.19200 -3.75300 46.94800
H  47.75800 1.21400 45.37400
H  48.41500 3.74200 46.78100
H  48.93500 1.78900 47.94700
H  48.69200 0.12300 47.19500
H  47.59200 0.93200 48.24200
H  47.78700 4.51800 44.11900
H  47.77000 2.79900 43.99800
H  50.15500 3.49200 45.09200
H  50.05000 4.76800 43.91500
H  49.92700 3.13900 43.30400
H  46.57500 8.79900 47.20200
H  45.45300 9.44900 46.04400
H  46.55600 8.17100 45.56700
H  40.57900 8.31200 46.23300
H  38.22700 8.93300 49.89800
H  37.69300 9.95300 48.61600
H  39.01800 10.55800 49.60600
Mg 49.08100 35.17900 27.45300
C  47.33900 33.61300 30.01200
C  49.78000 37.77700 29.88800
C  50.14700 36.97100 25.06300
C  48.03500 32.68600 25.23700
N  48.51500 35.68500 29.66100
C  47.96000 34.75000 30.49800
C  47.90000 35.19400 31.98900
C  48.55300 36.62000 31.89700
C  48.96900 36.77400 30.40800
C  47.55100 37.70400 32.28500
C  48.93200 34.32200 32.77900
C  48.61100 34.09600 34.29100
H  47.57700 35.00300 35.03300
N  49.99700 37.03400 27.48200
C  50.27500 37.92800 28.53800
C  51.07600 38.99300 28.02200
C  51.09300 38.75600 26.62400
C  50.37100 37.55300 26.35200
C  51.71000 40.03400 28.92700
C  51.71400 39.65200 25.56300
O  51.71700 39.27100 24.35600
C  52.37600 40.91800 26.01900
N  48.94200 34.92600 25.39200
C  49.53500 35.83100 24.59700
C  49.40800 35.36500 23.16900
C  48.83400 33.87100 23.27000
C  48.65300 33.85700 24.73900
C  48.64500 36.27700 22.30200
C  49.83300 32.74000 22.71300
C  49.18300 31.59400 21.78200
N  47.99500 33.44900 27.54600
C  47.64400 32.58800 26.57100
C  46.87600 31.53500 27.08700
C  46.60200 31.99800 28.39100
C  47.41100 33.12300 28.68500
C  46.39100 30.30300 26.40900
C  45.79700 31.71100 29.58700
O  44.93100 30.88000 29.84300
C  46.27400 32.68300 30.65300
C  46.70100 31.89400 31.85500
O  47.59000 31.10500 31.94300
O  45.77400 32.13100 32.83300
C  45.83900 31.28800 34.02000
H  50.03200 38.55100 30.61600
H  50.52900 37.44900 24.15800
H  47.68900 31.88000 24.58600
H  46.85100 35.20600 32.28500
H  49.49600 36.82600 32.40400
H  46.89600 37.29600 33.05400
H  47.06700 38.15000 31.41600
H  48.17100 38.53900 32.61000
H  49.92900 34.76100 32.81500
H  48.90200 33.35100 32.28500
H  49.53200 34.01900 34.86900
H  48.40400 33.02600 34.30800
H  52.79400 39.93000 28.87200
H  51.44900 39.86600 29.97200
H  51.42700 41.05900 28.68600
H  51.61300 41.49400 26.54300
H  52.85700 41.58100 25.29900
H  53.08700 40.50000 26.73200
H  50.42400 35.25500 22.78900
H  47.85500 33.78100 22.79800
H  47.62500 35.89100 22.28300
H  49.08600 36.37500 21.31000
H  48.62900 37.22800 22.83400
H  50.23400 32.24300 23.59600
H  50.71400 33.15200 22.22000
H  49.77500 31.54200 20.86900
H  48.15100 31.80900 21.50300
H  49.26700 30.67100 22.35600
H  45.62300 29.90900 27.07400
H  47.11700 29.50000 26.53400
H  46.21700 30.44300 25.34200
H  45.45500 33.39900 30.72400
H  45.26500 30.37500 33.86500
H  45.60300 31.81800 34.94300
H  46.83400 30.90900 34.25200

