158

Mg 8.69900 3.40400 27.90600
C  10.17600 1.81200 30.63700
C  6.74800 5.17600 29.98100
C  7.11600 4.73100 25.15900
C  10.39400 1.06100 25.84200
N  8.61600 3.53400 30.09800
C  9.33500 2.87900 31.00000
C  9.17900 3.47900 32.37100
C  7.91300 4.38700 32.19300
C  7.72800 4.36800 30.64400
C  6.64900 4.02000 33.06700
C  10.41700 4.27100 32.84500
C  11.03500 3.90200 34.21500
H  10.46900 4.74100 35.48500
N  7.19400 4.75100 27.63500
C  6.47100 5.37400 28.59800
C  5.63400 6.35200 28.01300
C  5.71700 6.24400 26.55800
C  6.71400 5.22100 26.42100
C  4.59600 7.17900 28.77000
C  4.94200 7.00400 25.43800
O  5.15700 6.87800 24.24600
C  3.97500 8.04700 25.81200
N  8.81300 2.98700 25.87900
C  8.08400 3.74000 24.90700
C  8.46900 3.26100 23.50500
C  9.42600 2.03000 23.80600
C  9.56700 2.02400 25.26200
C  7.24000 2.98000 22.53500
C  10.95100 2.28000 23.09900
C  11.70400 0.93400 22.63800
N  9.90900 1.72100 28.18300
C  10.41800 0.82400 27.23700
C  11.21200 -0.21700 27.84800
C  11.13200 0.12400 29.23300
C  10.29200 1.26600 29.33500
C  11.94300 -1.34500 27.17200
C  11.72000 -0.16100 30.52000
O  12.53600 -1.02800 30.85000
C  10.96400 0.84500 31.51100
C  10.10100 0.14600 32.43000
O  9.15000 -0.60600 32.21800
O  10.49500 0.41600 33.73400
C  9.63300 -0.15300 34.81200
H  6.19100 5.82500 30.66000
H  6.67100 5.17900 24.26800
H  10.85600 0.41200 25.09500
H  8.90500 2.67600 33.05600
H  8.14900 5.42900 32.41000
H  5.78500 3.94800 32.40700
H  6.38600 4.76000 33.82300
H  6.83400 3.07700 33.58200
H  10.01800 5.27300 33.00500
H  11.16900 4.38100 32.06300
H  12.11400 4.05300 34.18100
H  10.85000 2.83800 34.36400
H  4.57800 6.81000 29.79500
H  3.59900 6.94500 28.39800
H  4.67900 8.25600 28.62000
H  4.44200 8.80600 26.43900
H  3.19100 7.52900 26.36500
H  3.62400 8.64500 24.97100
H  9.01900 4.05300 22.99600
H  9.05900 1.13900 23.29600
H  6.26200 3.27300 22.91600
H  7.25500 1.93200 22.23600
H  7.32100 3.61300 21.65100
H  11.66700 2.81900 23.72100
H  10.96300 2.80000 22.14100
H  12.07700 0.82800 21.62000
H  11.09700 0.04100 22.79100
H  12.49800 0.73500 23.35800
H  12.82700 -0.89100 26.72400
H  11.28000 -1.72700 26.39600
H  12.32400 -2.14000 27.81200
H  11.62400 1.51500 32.06200
H  9.96800 0.32900 35.73100
H  9.54100 -1.23900 34.85100
H  8.61500 0.16500 34.58900
Mg 43.14300 4.27000 46.98300
C  41.23700 7.25300 46.65500
C  40.26900 2.50300 46.77100
C  45.01600 1.67800 46.27800
C  46.03200 6.30300 46.70400
N  40.99100 4.77800 46.62500
C  40.43200 6.07200 46.66600
C  38.88000 5.95800 46.78800
C  38.62000 4.43300 47.01100
C  40.05800 3.82400 46.91100
C  37.92000 3.98200 48.37200
C  38.02100 6.56500 45.69200
C  38.45800 6.20200 44.25600
H  39.43400 7.16700 43.58900
N  42.67200 2.34900 46.65700
C  41.47000 1.75100 46.59800
C  41.58500 0.33100 46.34300
C  43.03100 0.07800 46.14900
C  43.64000 1.39000 46.40500
C  40.36900 -0.56700 46.17100
C  43.51400 -1.26900 45.82200
O  42.72400 -2.14500 45.63300
C  44.86700 -1.49700 45.61700
N  45.20500 4.03300 46.47200
C  45.73300 2.83400 46.39900
C  47.25200 2.83700 46.30600
C  47.54400 4.35800 46.25900
C  46.19500 4.95300 46.48700
C  48.01100 2.00500 47.38700
C  48.37000 4.83000 45.00000
C  49.91100 4.95300 45.02000
N  43.58500 6.30700 46.83200
C  44.78500 6.96200 46.81500
C  44.54400 8.33600 46.87500
C  43.14800 8.51400 46.77200
C  42.60100 7.22400 46.75300
C  45.53600 9.34700 46.90500
C  42.07400 9.54700 46.86500
O  42.12400 10.76500 46.99700
C  40.69700 8.69200 46.60000
C  39.83400 9.00200 47.73500
O  40.05700 8.70500 48.88900
O  38.64800 9.58800 47.29800
C  37.55100 9.79300 48.22700
H  39.36000 1.90700 46.87100
H  45.59600 0.75300 46.26100
H  46.96800 6.84200 46.53900
H  38.57300 6.53800 47.65800
H  38.06400 3.91300 46.23100
H  37.36500 3.04400 48.35700
H  37.28800 4.77300 48.77600
H  38.74300 3.75400 49.05000
H  38.07200 7.65000 45.78600
H  36.94000 6.46600 45.78700
H  37.51500 6.04300 43.73300
H  38.94000 5.23600 44.10800
H  40.39300 -1.52600 46.68900
H  40.18500 -0.75200 45.11200
H  39.38800 -0.13100 46.36100
H  45.33100 -1.22300 46.56500
H  45.13100 -0.77500 44.84400
H  45.20700 -2.50100 45.36400
H  47.55200 2.45900 45.32900
H  48.26100 4.48100 47.07000
H  48.91900 2.48500 47.75200
H  48.30600 1.06100 46.92800
H  47.32300 1.79400 48.20500
H  47.91900 5.81300 44.86500
H  48.02600 4.19600 44.18300
H  50.38300 4.25200 44.33200
H  50.23900 4.69300 46.02600
H  50.09300 5.99000 44.73800
H  46.09400 9.47300 47.83300
H  45.21700 10.33200 46.56700
H  46.30200 9.05400 46.18600
H  40.32100 8.95200 45.61000
H  37.87400 9.29200 49.13900
H  36.59200 9.41000 47.87900
H  37.42400 10.84700 48.47500

