158

Mg 25.26500 -0.76700 28.99700
C  27.20400 -0.46800 31.89800
C  22.31200 -0.28600 30.97400
C  23.29100 -1.01800 26.38500
C  28.09000 -1.64200 27.35600
N  24.87900 -0.50100 31.22300
C  25.86400 -0.29500 32.19600
C  25.11000 -0.03300 33.56500
C  23.58800 -0.22500 33.21500
C  23.53400 -0.42400 31.71100
C  22.84300 -1.39200 34.03800
C  25.49600 1.47200 34.15700
C  26.40200 1.39400 35.48500
H  26.18300 2.35800 36.57200
N  23.07100 -0.68300 28.67600
C  22.08000 -0.37200 29.62000
C  20.81700 -0.24100 28.94200
C  21.09700 -0.51000 27.59200
C  22.52600 -0.77400 27.43100
C  19.55500 0.05700 29.68900
C  20.07100 -0.59200 26.42500
O  20.40500 -0.89300 25.32400
C  18.67200 -0.32400 26.64900
N  25.56100 -1.62900 27.23600
C  24.64200 -1.34500 26.24900
C  25.20900 -1.41200 24.80500
C  26.75300 -1.57800 25.14600
C  26.81600 -1.67000 26.71100
C  24.55900 -2.52400 23.88600
C  27.58300 -0.44000 24.51400
C  27.51900 0.99200 25.08600
N  27.22500 -0.97200 29.47400
C  28.29800 -1.40200 28.69800
C  29.56600 -1.33200 29.40400
C  29.20500 -0.97300 30.72300
C  27.77100 -0.78600 30.64300
C  30.88000 -1.60400 28.79700
C  29.69300 -0.63000 32.06400
O  30.79000 -0.54200 32.52100
C  28.38700 -0.35900 32.89700
C  28.46100 -1.28700 34.07000
O  28.24200 -2.49200 34.04200
O  28.80100 -0.46000 35.15000
C  28.74600 -1.16700 36.43500
H  21.48100 0.01400 31.61600
H  22.86300 -0.86200 25.39200
H  28.93100 -1.76500 26.67000
H  25.54200 -0.78800 34.22100
H  22.90700 0.55800 33.54700
H  23.43700 -1.85000 34.82900
H  22.45000 -2.15800 33.36900
H  22.10700 -0.91000 34.68100
H  24.60700 1.98900 34.51700
H  25.93200 2.05900 33.35000
H  27.42500 1.43000 35.11300
H  26.20000 0.41900 35.92800
H  19.58100 -0.25600 30.73300
H  18.62100 -0.41300 29.38100
H  19.45200 1.13800 29.78500
H  18.26200 -1.04000 27.36100
H  18.09300 -0.25900 25.72800
H  18.72500 0.71700 26.96800
H  25.00800 -0.44300 24.34700
H  27.04500 -2.54300 24.73300
H  25.34800 -3.02400 23.32300
H  23.79700 -2.02400 23.28900
H  23.96000 -3.20100 24.49300
H  27.14300 -0.29200 23.52800
H  28.61200 -0.76900 24.37300
H  26.87800 1.05700 25.96600
H  26.99600 1.64300 24.38600
H  28.47800 1.47300 25.27800
H  31.28400 -0.76100 28.23600
H  30.86300 -2.41100 28.06500
H  31.50500 -1.91600 29.63500
H  28.47000 0.67900 33.21700
H  27.81300 -0.79900 36.86100
H  29.64500 -0.93600 37.00600
H  28.67500 -2.24900 36.32300
Mg 46.80900 15.00300 27.46900
C  44.87600 15.27900 30.39400
C  49.04600 17.30900 28.89500
C  48.39500 15.28300 24.56400
C  44.34200 13.37300 25.98100
N  46.94100 16.20800 29.41000
C  46.11400 16.00800 30.47000
C  46.71200 16.70700 31.65000
C  47.74900 17.66400 31.07000
C  47.86200 17.19100 29.64900
C  47.58400 19.22700 31.18200
C  47.25900 15.74200 32.74300
C  47.01600 16.06600 34.24400
H  48.14400 15.89000 35.23600
N  48.57000 15.95700 26.86100
C  49.40000 16.76600 27.65500
C  50.61800 17.05900 26.95900
C  50.45500 16.52100 25.67100
C  49.12100 15.84500 25.64100
C  51.82300 17.70500 27.58500
C  51.43900 16.50000 24.48100
O  51.06100 16.09900 23.38500
C  52.89300 16.88000 24.72000
N  46.33200 14.55000 25.55900
C  47.22900 14.66700 24.52000
C  46.70300 13.97100 23.22800
C  45.47800 13.19200 23.75800
C  45.37200 13.74500 25.21200
C  46.34800 15.00200 22.13700
C  45.48000 11.62500 23.58000
C  46.18600 10.70000 24.57200
N  44.95500 14.53600 28.06700
C  44.02400 13.79600 27.28300
C  42.91200 13.49800 28.12600
C  43.18100 14.12200 29.32900
C  44.47300 14.65200 29.28000
C  41.70400 12.69200 27.66800
C  42.63400 14.33400 30.71300
O  41.61500 14.06200 31.31900
C  43.78900 15.11200 31.45000
C  43.27600 16.36700 32.16400
O  42.67200 17.24500 31.58500
O  43.65200 16.23800 33.44400
C  43.32200 17.37900 34.34200
H  49.78500 17.98000 29.33700
H  48.84500 15.24100 23.57000
H  43.59200 12.75100 25.48900
H  45.99300 17.32200 32.19100
H  48.72300 17.46200 31.51600
H  47.33400 19.66900 30.21700
H  48.47000 19.55400 31.72700
H  46.69600 19.36000 31.80000
H  48.32700 15.60000 32.57800
H  46.83400 14.75700 32.54900
H  46.19700 15.45400 34.62300
H  46.60300 17.07200 34.32100
H  51.64000 17.88000 28.64500
H  51.95400 18.66700 27.08800
H  52.79900 17.22000 27.60400
H  53.34300 16.84400 23.72700
H  53.44300 16.21600 25.38700
H  53.00300 17.89400 25.10300
H  47.49500 13.27900 22.94400
H  44.53100 13.57500 23.37800
H  45.68800 14.55200 21.39600
H  47.28700 15.24200 21.63700
H  45.98800 15.84300 22.72900
H  45.87800 11.39000 22.59300
H  44.42800 11.34600 23.51900
H  46.81800 9.99300 24.03500
H  45.35100 10.19000 25.05300
H  46.68800 11.32500 25.31100
H  42.16800 11.87000 27.12300
H  41.00900 13.20900 27.00700
H  41.24100 12.25200 28.55100
H  44.05400 14.34000 32.17100
H  44.29500 17.64400 34.75700
H  42.62400 17.06000 35.11600
H  42.85300 18.26900 33.92400

