158

Mg 47.20100 25.55700 28.73500
C  48.16900 27.63100 31.43600
C  46.12700 23.26900 30.95200
C  46.77800 23.53500 26.08900
C  48.70900 27.95000 26.52200
N  47.09300 25.56000 30.88800
C  47.50400 26.47800 31.82500
C  47.15400 26.03300 33.24800
C  46.55200 24.61200 33.08200
C  46.58200 24.45900 31.56100
C  47.16900 23.52300 33.90700
C  46.25200 27.12900 34.00700
C  46.84700 27.74400 35.21100
H  45.76900 28.27700 36.19200
N  46.43100 23.71300 28.53300
C  45.97900 22.95200 29.58900
C  45.40000 21.78600 29.00200
C  45.57100 21.80800 27.57300
C  46.26700 23.06600 27.33800
C  44.98000 20.57900 29.86200
C  45.18000 20.76600 26.56700
O  45.55400 20.90000 25.40300
C  44.35600 19.60300 26.90500
N  47.90500 25.59100 26.62800
C  47.52200 24.62800 25.71400
C  47.82900 25.08600 24.26300
C  48.10500 26.61500 24.45200
C  48.31600 26.72400 25.97400
C  49.04900 24.28300 23.77000
C  46.93000 27.47000 23.95100
C  45.57800 27.36900 24.64400
N  48.33000 27.34800 28.89100
C  48.86400 28.16600 27.94100
C  49.47300 29.35200 28.42700
C  49.22100 29.13900 29.83900
C  48.55300 27.90500 30.07600
C  50.25200 30.43000 27.73400
C  49.49400 29.79100 31.14700
O  50.06100 30.82500 31.39500
C  48.93200 28.71500 32.21900
C  49.96200 28.31500 33.20200
O  50.66000 27.33800 33.11500
O  49.83100 29.07700 34.29200
C  50.64500 28.67100 35.47700
H  45.71900 22.53000 31.64400
H  46.34800 23.02300 25.22600
H  49.08300 28.67000 25.79100
H  48.12000 25.99800 33.75200
H  45.46700 24.67900 33.16900
H  47.84400 23.80400 34.71600
H  47.70300 22.79600 33.29600
H  46.38500 22.93200 34.38000
H  45.32200 26.62700 34.27300
H  46.00200 27.92900 33.31100
H  47.33900 28.69100 34.98900
H  47.45900 27.01600 35.74400
H  43.90400 20.44700 29.98000
H  45.35600 20.57400 30.88500
H  45.41600 19.72600 29.34200
H  44.93700 18.83900 27.42300
H  43.90100 19.30000 25.96200
H  43.61000 19.95000 27.61900
H  46.89100 24.83500 23.76700
H  48.96700 27.04500 23.94300
H  49.32200 23.38000 24.31700
H  49.86600 24.96600 23.53800
H  48.75100 23.89300 22.79600
H  46.64000 27.08000 22.97500
H  47.28400 28.50100 23.92700
H  45.79300 26.85300 25.58000
H  44.88700 26.76000 24.06000
H  45.12100 28.34100 24.83200
H  50.45400 30.09900 26.71500
H  51.15500 30.63000 28.31200
H  49.48400 31.20200 27.69400
H  48.18900 29.22000 32.83600
H  50.13300 27.87500 36.01800
H  50.65100 29.57300 36.09000
H  51.68800 28.38400 35.34700
Mg -11.12800 38.83700 41.72800
C  -9.62400 35.77800 40.86100
C  -8.42300 40.49400 40.35500
C  -12.80200 41.64900 42.07100
C  -13.81000 36.97900 43.05800
N  -9.35400 38.12700 40.57200
C  -8.91900 36.85000 40.39600
C  -7.56800 36.85400 39.64400
C  -7.04600 38.31600 39.86600
C  -8.31000 39.04100 40.27500
C  -5.87000 38.44000 40.91000
C  -7.88900 36.45500 38.17500
C  -7.42300 35.14100 37.74600
H  -6.42300 35.26700 36.57300
N  -10.58900 40.81300 41.34900
C  -9.46200 41.30800 40.72200
C  -9.57600 42.76200 40.72000
C  -10.84600 43.08900 41.20100
C  -11.49600 41.84800 41.54700
C  -8.39700 43.61100 40.28700
C  -11.40600 44.57700 41.33400
O  -10.70900 45.51700 40.94400
C  -12.72100 44.90500 41.95900
N  -13.01800 39.26000 42.40100
C  -13.52900 40.47400 42.44500
C  -14.89600 40.63300 43.16400
C  -15.21100 39.06500 43.27800
C  -13.95200 38.38800 42.87400
C  -14.90400 41.42400 44.49500
C  -16.48100 38.45700 42.63100
C  -17.37000 37.41700 43.36200
N  -11.66000 36.79900 41.87000
C  -12.72600 36.16400 42.55200
C  -12.49600 34.75800 42.73600
C  -11.35800 34.53300 41.95900
C  -10.85600 35.80700 41.55600
C  -13.33300 33.76500 43.50200
C  -10.51100 33.54100 41.51400
O  -10.57300 32.35200 41.67900
C  -9.35300 34.29000 40.73400
C  -8.02000 33.77100 41.20900
O  -7.53700 32.74900 40.86000
O  -7.57000 34.51800 42.23800
C  -6.39800 34.15300 43.05800
H  -7.55200 40.99200 39.92300
H  -13.37500 42.56000 42.25600
H  -14.59200 36.47200 43.62700
H  -6.91400 36.08200 40.04800
H  -6.72200 38.77100 38.93000
H  -4.97600 38.41800 40.28700
H  -5.81700 37.50700 41.47200
H  -5.92200 39.39600 41.43000
H  -7.61700 37.17200 37.40000
H  -8.97000 36.35100 38.08600
H  -8.27400 34.53800 37.43000
H  -6.89900 34.53100 38.48200
H  -7.44300 43.12300 40.48500
H  -8.46200 44.55300 40.83200
H  -8.37000 43.74100 39.20500
H  -13.60400 44.44700 41.51300
H  -12.70700 45.98300 41.79600
H  -12.67000 44.54900 42.98800
H  -15.58700 41.14300 42.49300
H  -15.33600 38.87500 44.34400
H  -15.14900 42.47400 44.33700
H  -13.91100 41.30700 44.93000
H  -15.63900 41.04900 45.20700
H  -16.13400 37.96100 41.72400
H  -17.11700 39.32600 42.46100
H  -18.39300 37.78800 43.30500
H  -17.03800 37.36000 44.39900
H  -17.18300 36.41800 42.96800
H  -13.78400 34.12600 44.42600
H  -12.72700 32.87100 43.65200
H  -14.17400 33.48800 42.86600
H  -9.32300 34.07800 39.66500
H  -5.64000 34.81200 42.63500
H  -6.10500 33.13300 42.81000
H  -6.66800 34.37200 44.09100

