158

Mg 7.04600 2.87500 27.94800
C  8.65500 1.44200 30.88700
C  5.23100 4.78700 30.08800
C  5.50700 4.20300 25.26400
C  8.71300 0.67000 26.04700
N  6.91900 3.00400 30.32000
C  7.77200 2.44600 31.23000
C  7.46100 3.09900 32.60100
C  6.10400 4.01100 32.38200
C  6.14300 3.99900 30.82400
C  4.81200 3.44100 32.85000
C  8.61300 3.99600 33.01900
C  8.42200 4.72700 34.40000
H  9.34900 4.25000 35.47400
N  5.60600 4.28500 27.70000
C  4.91300 4.96300 28.70000
C  3.93400 5.91000 28.17700
C  4.10600 5.85500 26.74600
C  5.11700 4.80900 26.49200
C  3.08900 6.76700 29.10100
C  3.35200 6.65300 25.76400
O  3.61200 6.52100 24.59300
C  2.27700 7.73000 26.11800
N  6.99300 2.46200 25.96700
C  6.39200 3.14800 24.97700
C  6.72800 2.65400 23.54800
C  7.91500 1.66800 23.90000
C  7.82000 1.53300 25.43500
C  5.45200 2.04500 22.88400
C  9.27800 2.21800 23.39000
C  10.06200 3.18800 24.33600
N  8.25600 1.28300 28.35700
C  8.96300 0.54100 27.47700
C  9.82500 -0.34700 28.10400
C  9.72800 -0.09700 29.48700
C  8.82100 0.98800 29.58400
C  10.69100 -1.37300 27.33800
C  10.28100 -0.35900 30.79800
O  11.16200 -1.16500 31.12600
C  9.66000 0.68900 31.75200
C  9.07200 -0.01000 32.86800
O  7.95500 -0.44500 32.87500
O  9.96900 -0.18100 33.90700
C  9.50500 -0.56400 35.27800
H  4.87900 5.50900 30.82800
H  4.92500 4.58500 24.42200
H  9.21900 -0.06700 25.42000
H  7.21800 2.32300 33.32800
H  6.27300 4.99200 32.82600
H  4.57900 4.00600 33.75200
H  4.90500 2.36900 33.03000
H  4.00400 3.67100 32.15600
H  8.70600 4.81800 32.30900
H  9.53800 3.42000 33.05900
H  7.42500 4.43600 34.73000
H  8.52400 5.77700 34.12600
H  3.13800 7.80700 28.77800
H  3.50300 6.73400 30.10900
H  2.04300 6.45800 29.11000
H  1.57400 7.32900 26.84800
H  1.78700 8.08300 25.21100
H  2.79600 8.51900 26.66300
H  7.11800 3.60000 23.17300
H  7.57900 0.71700 23.48600
H  4.52300 2.34900 23.36700
H  5.52200 0.96000 22.95200
H  5.37200 2.27000 21.82000
H  9.03900 2.66000 22.42300
H  9.83600 1.32700 23.10000
H  9.90000 4.19500 23.95300
H  11.13900 3.02000 24.34500
H  9.80900 3.14500 25.39500
H  11.63200 -1.68400 27.79100
H  10.98600 -1.06200 26.33600
H  10.04500 -2.23600 27.17600
H  10.35000 1.48800 32.02200
H  8.58900 -1.15400 35.28700
H  9.21600 0.38300 35.73500
H  10.24200 -1.07100 35.90000
Mg 49.22000 46.10200 43.72800
C  45.78400 46.63900 42.87100
C  48.94400 43.03500 42.13200
C  52.48000 45.98400 43.82300
C  49.32500 49.55100 44.66900
N  47.64900 45.05400 42.55400
C  46.30100 45.44300 42.35100
C  45.59900 44.54500 41.33300
C  46.49100 43.31300 41.32800
C  47.77500 43.80800 42.12400
C  45.96400 41.90200 41.75200
C  45.22400 45.27100 39.97700
C  43.80300 44.97700 39.40600
H  43.78600 44.76700 37.87700
N  50.51000 44.62500 43.27500
C  50.22300 43.38900 42.66900
C  51.36800 42.58200 42.51200
C  52.43300 43.44300 42.99100
C  51.87000 44.70900 43.48500
C  51.40300 41.12600 41.97500
C  53.91200 42.98200 42.96300
O  54.29500 41.96900 42.38700
C  54.98000 43.84700 43.60600
N  50.71000 47.58300 44.18400
C  52.00500 47.27500 44.11100
C  52.87900 48.46100 44.36700
C  51.85300 49.47900 44.92600
C  50.55400 48.82100 44.58700
C  54.12700 48.27300 45.16600
C  51.97700 51.03400 44.45200
C  51.72700 52.14900 45.53200
N  47.89500 47.80600 43.77900
C  48.06600 49.04400 44.30800
C  46.78700 49.69900 44.28200
C  45.87000 48.79300 43.77400
C  46.52900 47.68000 43.42900
C  46.54100 51.04100 44.84800
C  44.48300 48.67200 43.38600
O  43.47100 49.39200 43.56500
C  44.41000 47.22100 42.83300
C  43.36300 46.45300 43.56700
O  43.14500 46.59300 44.77400
O  42.75100 45.53100 42.76100
C  41.73000 44.75000 43.37700
H  48.88400 42.11100 41.55300
H  53.55700 45.96200 43.64300
H  49.39900 50.61400 44.90900
H  44.68600 44.14500 41.77500
H  46.92500 43.09500 40.35200
H  46.67100 41.48500 42.46900
H  45.77600 41.16100 40.97500
H  44.96600 42.00100 42.17900
H  45.91800 44.95000 39.19900
H  45.35900 46.33400 40.17400
H  43.19700 45.86600 39.58300
H  43.28400 44.16200 39.90900
H  51.02300 40.52000 42.79700
H  52.36300 40.73900 41.63200
H  50.73400 41.06000 41.11700
H  55.90100 43.26700 43.67400
H  54.75800 44.26300 44.58900
H  55.07300 44.72500 42.96700
H  53.21500 48.98000 43.47000
H  51.93800 49.33900 46.00300
H  54.92600 48.43300 44.44400
H  54.23400 47.28700 45.61900
H  54.22900 49.09100 45.88000
H  51.31100 51.15900 43.59800
H  52.94100 51.12300 43.95200
H  51.06400 52.78600 44.94700
H  52.58400 52.68500 45.94000
H  51.00300 51.80200 46.26900
H  46.66200 51.85300 44.13100
H  47.32600 51.20500 45.58700
H  45.62800 51.09700 45.44100
H  44.03500 47.41400 41.82800
H  42.06700 44.18400 44.24600
H  41.65100 43.90800 42.69000
H  40.76500 45.24800 43.47000

