158

Mg 41.20700 40.73800 27.53600
C  40.25600 43.30900 29.76600
C  41.88700 38.75400 30.22800
C  42.14000 38.39400 25.37000
C  40.82800 43.11300 24.92200
N  41.04000 40.97300 29.65000
C  40.48700 42.06100 30.34900
C  40.69200 41.86900 31.83400
C  41.10600 40.36000 31.95000
C  41.48500 40.02500 30.55300
C  42.22900 39.98600 32.91300
C  39.29800 42.12300 32.59300
C  39.34800 43.13300 33.74200
H  38.49400 42.79100 35.00400
N  41.89400 38.75600 27.77600
C  42.06900 38.10400 29.00600
C  42.49500 36.74900 28.69800
C  42.53700 36.68000 27.27000
C  42.19200 37.96100 26.71900
C  42.58000 35.74400 29.75600
C  42.73300 35.41400 26.46300
O  42.67200 35.42600 25.25900
C  43.18600 34.16000 27.17800
N  41.49300 40.75900 25.48100
C  41.91400 39.66500 24.81400
C  42.02700 39.90300 23.26000
C  41.46500 41.37000 23.18000
C  41.18300 41.77800 24.60000
C  43.43500 39.48700 22.71000
C  40.24200 41.67500 22.25400
C  38.91100 40.97400 22.70700
N  40.51800 42.74900 27.30100
C  40.59800 43.54500 26.23800
C  40.20000 44.83600 26.59300
C  40.06500 44.75900 27.99100
C  40.31100 43.49800 28.38100
C  39.84100 46.03700 25.72900
C  39.74000 45.57000 29.16700
O  39.32700 46.70100 29.21900
C  40.02100 44.70200 30.41300
C  41.29700 45.15000 31.09300
O  42.41400 45.11600 30.63300
O  40.88300 45.65600 32.28700
C  41.88000 46.17600 33.16400
H  42.25200 38.09300 31.01700
H  42.43400 37.71300 24.56800
H  40.64200 43.87000 24.15800
H  41.54100 42.49300 32.11400
H  40.23500 39.76800 32.23100
H  43.10900 39.84100 32.28700
H  42.08500 39.16100 33.61100
H  42.32300 40.85700 33.56200
H  38.93300 41.13200 32.86300
H  38.59300 42.55900 31.88500
H  38.95200 44.07000 33.35100
H  40.41900 43.20800 33.93100
H  42.24400 34.78100 29.37200
H  42.08300 36.03400 30.68200
H  43.61200 35.65700 30.09600
H  43.98400 34.38700 27.88500
H  43.52000 33.51200 26.36800
H  42.24100 33.70700 27.47800
H  41.30900 39.26500 22.74500
H  42.33900 41.93100 22.84900
H  44.08000 39.19300 23.53800
H  44.02700 40.21400 22.15500
H  43.42800 38.62900 22.03700
H  40.50000 41.35600 21.24400
H  39.95800 42.72600 22.20400
H  38.23300 41.61300 23.27300
H  39.12300 40.13600 23.37000
H  38.46200 40.58000 21.79600
H  39.58100 45.64400 24.74600
H  40.73900 46.63700 25.58300
H  39.05700 46.67400 26.13800
H  39.11900 44.72900 31.02300
H  41.62100 47.21000 33.39200
H  42.85300 46.10400 32.67800
H  42.12800 45.59100 34.04900
Mg -10.78600 40.45300 42.09700
C  -9.57600 37.37400 40.90700
C  -7.67900 41.83400 41.03600
C  -12.26100 43.33800 42.09200
C  -13.92300 38.85700 42.56600
N  -8.94300 39.64700 40.98300
C  -8.70300 38.38600 40.63200
C  -7.28700 38.26000 40.04000
C  -6.61000 39.60200 40.52200
C  -7.79900 40.45400 40.96400
C  -5.56500 39.45300 41.68400
C  -7.37700 37.98000 38.45500
C  -6.65200 36.67500 38.02700
H  -5.37600 36.65800 37.09200
N  -10.06200 42.39800 41.79600
C  -8.75600 42.76700 41.41000
C  -8.73100 44.17000 41.49900
C  -10.03700 44.68700 41.92300
C  -10.83200 43.48100 41.93300
C  -7.55800 44.97900 41.05600
C  -10.44100 46.09600 42.21700
O  -9.54200 46.97300 42.14000
C  -11.66800 46.39500 42.90900
N  -12.90000 40.91900 42.00500
C  -13.17600 42.26900 42.15300
C  -14.67500 42.51100 42.32100
C  -15.17200 41.04300 42.49600
C  -13.89500 40.19800 42.36900
C  -15.09600 43.53200 43.48600
C  -16.39700 40.55800 41.66900
C  -17.65700 41.37200 41.65800
N  -11.63000 38.47300 41.94600
C  -12.82900 37.94400 42.31300
C  -12.80200 36.54000 42.23400
C  -11.53500 36.23100 41.69500
C  -10.89100 37.47600 41.45700
C  -13.97300 35.63700 42.24500
C  -10.71600 35.16900 41.19500
O  -10.91400 33.95400 41.18400
C  -9.41500 35.89300 40.69100
C  -8.36300 35.41700 41.61400
O  -8.34100 35.44100 42.83300
O  -7.66900 34.52100 40.85400
C  -7.24100 33.22300 41.40900
H  -6.65900 42.20200 40.90700
H  -12.88400 44.23400 42.07000
H  -14.80600 38.32000 42.91700
H  -6.81400 37.49300 40.65300
H  -6.06900 40.12800 39.73500
H  -5.91300 39.88200 42.62400
H  -4.61000 39.85600 41.34700
H  -5.46000 38.42500 42.03300
H  -6.82200 38.77800 37.96200
H  -8.40300 38.04900 38.09300
H  -7.40700 36.12300 37.46900
H  -6.37900 36.15900 38.94800
H  -8.00700 45.70200 40.37500
H  -6.84900 44.43700 40.43000
H  -7.07800 45.51200 41.87700
H  -12.46000 46.55500 42.17700
H  -11.51100 47.35300 43.40500
H  -12.04900 45.72200 43.67600
H  -15.13400 42.64700 41.34200
H  -15.38500 40.78400 43.53400
H  -15.94800 43.20500 44.08100
H  -15.15300 44.60300 43.29100
H  -14.30100 43.27200 44.18600
H  -16.72400 39.63200 42.14200
H  -16.14500 40.39700 40.62100
H  -18.01400 41.40400 40.62900
H  -17.40100 42.36400 42.03100
H  -18.43000 40.92100 42.28100
H  -13.68000 34.59400 42.36900
H  -14.61700 35.65500 41.36600
H  -14.56100 35.86200 43.13500
H  -9.15700 35.73700 39.64300
H  -6.28300 32.88300 41.01600
H  -7.80900 32.48000 40.84900
H  -7.39000 33.13100 42.48500

