158

Mg 48.09100 45.07100 42.81600
C  44.68900 44.77100 42.84600
C  48.40100 41.80300 42.32300
C  51.43400 45.46900 42.69900
C  47.76900 48.58800 42.92500
N  46.72300 43.46000 42.62000
C  45.34800 43.53100 42.64100
C  44.68200 42.22900 42.55100
C  45.87200 41.22700 42.31500
C  47.10500 42.21900 42.49600
C  45.75600 39.92300 43.24300
C  43.57000 41.95000 41.56200
C  43.89800 42.15700 40.12600
H  44.24700 41.01600 39.20400
N  49.71500 43.84500 42.49100
C  49.64600 42.54700 42.40400
C  50.93600 41.96900 42.35200
C  51.88200 43.00800 42.38300
C  51.03600 44.18300 42.47900
C  51.18100 40.51400 42.02400
C  53.39800 42.85900 42.20500
O  53.98000 41.78200 42.37700
C  54.34300 44.05100 41.98500
N  49.43500 46.81200 42.54600
C  50.78000 46.67100 42.72200
C  51.41000 48.04500 42.88200
C  50.21600 49.04300 42.66800
C  49.04500 48.08500 42.73400
C  52.20800 48.24400 44.32600
C  50.34400 49.78600 41.33900
C  50.92600 51.16500 41.36500
N  46.56600 46.46200 42.74200
C  46.60500 47.77800 42.99000
C  45.26200 48.29800 43.18300
C  44.41000 47.19000 43.00900
C  45.27200 46.08600 42.89100
C  44.90000 49.77300 43.43600
C  43.05100 46.64000 43.11000
O  41.97500 47.22700 43.31900
C  43.22300 45.09000 42.91800
C  42.50900 44.38600 44.08400
O  41.71200 43.48400 43.86100
O  42.71400 45.00600 45.30500
C  42.07100 44.39700 46.45700
H  48.44100 40.73300 42.11000
H  52.48600 45.75000 42.61700
H  47.71200 49.65900 43.12900
H  44.15400 41.99000 43.47400
H  46.02800 40.92300 41.28000
H  44.76800 39.78400 43.68000
H  46.45500 39.81200 44.07200
H  45.81300 39.07400 42.56200
H  42.65300 42.51700 41.72600
H  43.19500 40.93700 41.70600
H  44.74800 42.83800 40.07700
H  43.15400 42.72600 39.56800
H  52.01000 40.24200 42.67700
H  51.50300 40.32100 41.00000
H  50.32800 39.92200 42.35500
H  53.91600 44.61600 41.15700
H  55.33000 43.68400 41.70100
H  54.44100 44.72700 42.83500
H  52.16900 48.06900 42.09900
H  50.20900 49.70400 43.53500
H  52.13800 47.29400 44.85600
H  51.70200 48.87300 45.05800
H  53.24400 48.54600 44.17600
H  49.32800 49.79300 40.94400
H  50.96000 49.15900 40.69500
H  50.15700 51.93500 41.29800
H  51.78800 51.21200 40.70000
H  51.55600 51.37100 42.23000
H  44.72500 50.16500 42.43400
H  45.63400 50.40600 43.93300
H  44.02000 49.72600 44.07800
H  42.73200 44.84300 41.97600
H  41.11900 44.92100 46.53900
H  42.73200 44.68300 47.27500
H  42.00600 43.30900 46.49000
Mg -5.97900 25.34000 25.70000
C  -3.97100 26.69800 28.17700
C  -7.40900 23.31800 27.94000
C  -7.56800 23.85800 23.15300
C  -3.72900 26.97500 23.32800
N  -5.67900 25.01700 27.78300
C  -4.95500 25.81900 28.68200
C  -5.31300 25.40900 30.15800
C  -6.03100 24.10400 30.02700
C  -6.39900 24.13100 28.52500
C  -5.16500 22.82100 30.33200
C  -6.04100 26.54100 30.89000
C  -5.64000 26.69300 32.33300
H  -5.22900 25.46100 33.08800
N  -7.31100 23.81900 25.57300
C  -7.86200 23.13000 26.61600
C  -8.94700 22.27500 26.12300
C  -9.00300 22.47700 24.72800
C  -7.93000 23.36700 24.41400
C  -9.87600 21.47800 26.99500
C  -9.89100 21.80000 23.62700
O  -9.68000 21.90700 22.37900
C  -11.07600 20.88400 23.91900
N  -5.44900 25.20300 23.54100
C  -6.43500 24.64700 22.77000
C  -6.03000 24.82000 21.30800
C  -4.93000 25.97300 21.27100
C  -4.63700 26.02800 22.79100
C  -5.60600 23.46000 20.74800
C  -5.29600 27.34200 20.67600
C  -4.71800 27.58000 19.22300
N  -4.34400 26.67100 25.67200
C  -3.57400 27.27600 24.68000
C  -2.62400 28.18700 25.23200
C  -2.69500 28.01000 26.62100
C  -3.68500 27.00000 26.79700
C  -1.73500 29.15000 24.52400
C  -2.20600 28.36700 27.90100
O  -1.31800 29.18300 28.12100
C  -2.98800 27.57900 28.93300
C  -2.07200 26.72100 29.75500
O  -1.68900 25.62100 29.59300
O  -1.74900 27.48800 30.84300
C  -1.00800 26.88900 31.97100
H  -7.86100 22.59500 28.62300
H  -8.18000 23.48400 22.32900
H  -3.16400 27.51900 22.56800
H  -4.33100 25.30700 30.62000
H  -6.88300 24.00700 30.70000
H  -5.03200 22.60500 31.39200
H  -4.32000 22.83300 29.64400
H  -5.79900 22.02700 29.93900
H  -7.12800 26.46700 30.89800
H  -5.83200 27.46900 30.35900
H  -6.42000 27.15400 32.93800
H  -4.74100 27.29500 32.20100
H  -9.63300 21.41300 28.05600
H  -9.76300 20.48700 26.55500
H  -10.88000 21.88800 26.88800
H  -11.93800 21.39200 24.35100
H  -10.73700 20.11800 24.61600
H  -11.31900 20.35100 22.99900
H  -6.92800 25.32000 20.94600
H  -3.97000 25.62000 20.89600
H  -5.62000 22.71300 21.54200
H  -4.61100 23.59200 20.32400
H  -6.29800 23.27000 19.92700
H  -5.01100 28.22100 21.25500
H  -6.38600 27.37300 20.70100
H  -5.36700 27.69700 18.35400
H  -4.14800 26.70300 18.91800
H  -4.00000 28.39500 19.31200
H  -0.76900 29.03500 25.01600
H  -2.05800 30.19100 24.54600
H  -1.55900 28.89900 23.47800
H  -3.51900 28.22900 29.62900
H  -0.66500 25.85700 31.90000
H  -1.70600 27.01500 32.79900
H  -0.14300 27.47300 32.28400

