158

Mg 35.54800 1.08000 30.00100
C  33.28600 1.68000 32.58700
C  38.02200 1.21000 32.35900
C  37.64500 0.91500 27.42500
C  32.83200 1.60000 27.74500
N  35.61000 1.41200 32.23600
C  34.53600 1.53300 33.09100
C  34.99500 1.69500 34.54100
C  36.57800 1.54700 34.41000
C  36.80000 1.45700 32.89900
C  37.28300 2.67100 35.08200
C  34.14300 0.73900 35.51300
C  33.45700 1.41600 36.69700
H  34.13600 2.56200 37.31900
N  37.51200 0.99200 29.87800
C  38.37800 0.90100 31.01400
C  39.64300 0.61300 30.46700
C  39.56800 0.58700 29.02900
C  38.19600 0.88500 28.69500
C  40.83600 0.39300 31.39000
C  40.66500 0.17500 28.05000
O  40.51800 0.04300 26.84300
C  42.00800 -0.24600 28.63500
N  35.28900 1.08200 27.91900
C  36.31800 1.07100 27.04100
C  35.82600 1.13300 25.57200
C  34.28500 1.28000 25.73400
C  34.06400 1.27000 27.23600
C  36.51600 2.11000 24.63600
C  33.41500 0.16500 25.06700
C  32.90400 -1.05200 25.87900
N  33.52600 1.48500 30.12900
C  32.52200 1.67700 29.08000
C  31.29300 1.97200 29.65400
C  31.51700 2.04600 31.03200
C  32.91700 1.66200 31.23700
C  30.05000 2.32300 28.93000
C  30.91000 2.32300 32.38700
O  29.76900 2.57400 32.74900
C  32.03000 2.16900 33.38400
C  32.26000 3.61000 33.78300
O  33.14600 4.33100 33.26400
O  31.60700 3.95100 34.99200
C  31.74700 5.30100 35.37500
H  38.83200 1.32800 33.08300
H  38.34800 0.89900 26.59000
H  32.14100 1.75200 26.91400
H  34.74500 2.73400 34.75500
H  36.85000 0.64900 34.96400
H  37.96200 3.19000 34.40400
H  37.97200 2.32800 35.85300
H  36.57800 3.39700 35.48800
H  34.87300 -0.00100 35.84000
H  33.46300 0.12200 34.92500
H  33.35500 0.72900 37.53700
H  32.49700 1.80800 36.36300
H  41.49000 1.25500 31.25800
H  41.48100 -0.47300 31.24500
H  40.52600 0.43600 32.43500
H  42.45600 0.50500 29.28500
H  42.67700 -0.30500 27.77600
H  41.80200 -1.17700 29.16300
H  36.01000 0.13900 25.16600
H  34.03300 2.25000 25.30600
H  35.82200 2.79300 24.14800
H  37.04600 1.55100 23.86500
H  37.26400 2.69200 25.17500
H  34.04900 -0.24400 24.28000
H  32.52400 0.65500 24.67400
H  33.58200 -1.22400 26.71500
H  32.82600 -2.00100 25.34800
H  31.86100 -0.91000 26.16200
H  30.29900 3.10500 28.21300
H  29.35000 2.64000 29.70400
H  29.75600 1.37800 28.47300
H  31.66600 1.56600 34.21700
H  31.55700 5.99000 34.55200
H  32.73500 5.45000 35.81000
H  31.00300 5.29300 36.17100
Mg 47.13900 34.47900 28.18000
C  45.63000 32.62200 30.79300
C  47.49600 37.19200 30.28700
C  48.14800 36.28600 25.48000
C  46.42200 31.84000 26.00300
N  46.63100 34.84300 30.30200
C  46.16300 33.86100 31.20300
C  46.34700 34.46800 32.64200
C  46.53300 36.04200 32.37600
C  46.97400 36.05200 30.94100
C  45.30800 36.99900 32.63000
C  47.56500 33.89400 33.36900
C  47.50900 33.57500 34.82000
H  46.51900 34.36700 35.71200
N  47.85800 36.39200 27.91300
C  47.95300 37.35600 28.94800
C  48.58200 38.52700 28.39400
C  48.73300 38.33900 26.96700
C  48.22200 37.01600 26.71100
C  48.97800 39.75400 29.26100
C  49.21800 39.30100 25.91800
O  49.34500 38.92600 24.77400
C  49.51300 40.74400 26.23900
N  47.13900 34.14700 26.03700
C  47.66600 35.01900 25.18400
C  47.89100 34.45400 23.77100
C  47.14300 33.12600 23.83000
C  46.92800 33.01500 25.39600
C  47.51500 35.29400 22.55600
C  48.00100 31.97100 23.22700
C  47.21600 30.96900 22.50400
N  46.29900 32.61900 28.32700
C  46.06300 31.67400 27.34400
C  45.54000 30.44700 27.91600
C  45.41100 30.82000 29.26000
C  45.84600 32.07200 29.46300
C  45.03200 29.11500 27.26600
C  44.90100 30.30300 30.53900
O  44.54200 29.19600 30.81200
C  44.82800 31.56200 31.49500
C  45.31800 31.09800 32.85500
O  46.35600 30.49400 33.03000
O  44.32200 31.34500 33.73300
C  44.39900 30.45900 34.89800
H  47.65900 38.02900 30.96900
H  48.50600 36.77800 24.57300
H  46.29900 31.00600 25.30800
H  45.39800 34.43000 33.17700
H  47.27200 36.38000 33.10200
H  45.64500 37.67000 33.42000
H  44.37900 36.47200 32.84900
H  45.10300 37.54000 31.70700
H  48.46100 34.46000 33.11500
H  47.62400 32.92100 32.88100
H  48.51900 33.80100 35.16300
H  47.35000 32.49900 34.88300
H  49.98400 40.10500 29.03200
H  48.97900 39.56300 30.33400
H  48.23100 40.51100 29.02500
H  49.57600 41.49900 25.45500
H  50.52100 40.71800 26.65300
H  48.79300 41.16200 26.94300
H  48.97100 34.33200 23.69600
H  46.14400 33.29800 23.42900
H  47.12200 36.21200 22.99200
H  46.73600 34.87800 21.91700
H  48.33700 35.55800 21.89000
H  48.50600 31.56300 24.10300
H  48.79400 32.29500 22.55300
H  47.31900 31.13900 21.43300
H  46.16200 31.05400 22.77000
H  47.54000 29.95100 22.72000
H  45.95200 28.62100 26.95500
H  44.40100 29.33800 26.40600
H  44.52900 28.62200 28.09800
H  43.81400 31.94100 31.62400
H  44.69900 29.43200 34.68900
H  43.34900 30.49600 35.18800
H  45.13600 30.90300 35.56700

