158

Mg 43.11500 4.39100 47.07500
C  40.70400 7.09700 47.04700
C  40.34200 2.29800 47.09600
C  45.17600 1.87500 46.29900
C  45.60300 6.65500 46.55700
N  40.75300 4.64500 47.26800
C  40.03100 5.86400 47.17500
C  38.52500 5.58800 47.20600
C  38.45900 4.02900 47.44500
C  39.89400 3.57800 47.29900
C  37.79600 3.55500 48.75300
C  37.74100 6.13400 46.01000
C  38.45100 6.09400 44.61500
H  37.58000 6.12500 43.32200
N  42.79900 2.36400 46.80600
C  41.59200 1.65200 46.76000
C  41.82000 0.22800 46.70400
C  43.18600 0.12900 46.37900
C  43.83000 1.48400 46.46600
C  40.67700 -0.83100 46.70800
C  43.86400 -1.12700 45.92800
O  43.29000 -2.19700 45.90000
C  45.25500 -1.08600 45.40300
N  45.11600 4.27400 46.48200
C  45.81600 3.09900 46.33400
C  47.37100 3.30800 46.21100
C  47.43200 4.81500 46.60700
C  45.97200 5.27200 46.59700
C  48.39600 2.23100 46.80500
C  48.30300 5.67000 45.50800
C  49.14700 6.64800 46.20000
N  43.17600 6.43400 46.83400
C  44.24400 7.21600 46.65900
C  43.78300 8.59500 46.61400
C  42.45800 8.57700 46.77900
C  42.12600 7.25900 46.89000
C  44.71400 9.66300 46.24900
C  41.27700 9.41500 46.83800
O  41.16500 10.59800 46.70600
C  40.08300 8.44200 47.12400
C  39.68800 8.84100 48.39700
O  39.90900 8.30800 49.46800
O  38.77800 9.84700 48.21500
C  37.81600 10.05900 49.38100
H  39.53500 1.56300 47.07000
H  45.93800 1.09500 46.24700
H  46.44600 7.34600 46.50100
H  38.19200 6.11600 48.09900
H  37.89800 3.52000 46.66100
H  38.59200 3.19800 49.40600
H  37.06400 2.77400 48.54700
H  37.35900 4.42900 49.23700
H  37.47800 7.17700 46.18400
H  36.81000 5.56900 46.04300
H  38.95500 5.12900 44.54900
H  39.22600 6.83900 44.43500
H  39.90600 -0.48500 47.39700
H  41.01300 -1.81000 47.04900
H  40.21800 -1.01400 45.73600
H  45.94700 -0.99100 46.23900
H  45.12700 -0.15200 44.85500
H  45.55100 -1.97000 44.83700
H  47.50800 3.41800 45.13500
H  47.72000 4.89800 47.65500
H  47.81800 1.57000 47.45200
H  49.13500 2.81900 47.34900
H  48.78900 1.69000 45.94500
H  47.53900 6.18900 44.92900
H  48.91800 5.07700 44.83100
H  48.87400 7.64500 45.85300
H  50.21500 6.57700 45.99500
H  49.16600 6.63100 47.29000
H  44.21200 10.63000 46.25100
H  44.99500 9.58100 45.19900
H  45.63500 9.59400 46.82900
H  39.39000 8.63400 46.30400
H  36.83000 9.61800 49.23400
H  37.74800 11.14300 49.46200
H  38.14900 9.57800 50.30100
Mg 16.94300 52.28800 26.18400
C  18.79400 50.93200 28.80000
C  14.71000 53.48500 28.47900
C  15.36900 53.99100 23.67900
C  19.30200 51.00800 23.91400
N  16.61200 52.01000 28.35600
C  17.61600 51.60600 29.25300
C  17.35000 52.17200 30.65300
C  15.83300 52.57300 30.57000
C  15.69500 52.67500 29.01500
C  14.78200 51.57900 31.14100
C  18.35200 53.17100 31.28900
C  18.65400 52.88200 32.78500
H  17.70300 52.02600 33.63400
N  15.31800 53.54200 26.13900
C  14.50400 53.92500 27.18300
C  13.43300 54.75800 26.68300
C  13.77600 55.09400 25.28100
C  14.89400 54.22500 24.98500
C  12.52000 55.44900 27.72800
C  13.06600 56.06100 24.29700
O  13.53900 56.26800 23.16300
C  11.86100 56.75800 24.75400
N  17.20900 52.44000 24.03500
C  16.43300 53.18100 23.23000
C  16.92200 53.09700 21.72600
C  18.23300 52.24700 21.85000
C  18.25900 51.79900 23.35500
C  15.83100 52.43800 20.85200
C  19.50700 53.11200 21.54000
C  20.55600 52.52500 20.61900
N  18.57300 51.11900 26.27800
C  19.46000 50.67600 25.31100
C  20.53500 49.92200 25.94700
C  20.36900 50.04300 27.28800
C  19.13700 50.73700 27.47700
C  21.69400 49.29100 25.22200
C  20.93200 49.70300 28.53400
O  21.99900 49.14700 28.80500
C  19.97000 50.34500 29.61200
C  19.40900 49.29300 30.50100
O  18.56600 48.48200 30.14300
O  20.03400 49.30300 31.71200
C  19.65200 48.42800 32.84500
H  14.06400 53.92100 29.24400
H  14.90300 54.56400 22.87500
H  20.11600 50.63000 23.29100
H  17.39100 51.29500 31.29800
H  15.55100 53.50100 31.06700
H  14.00800 51.27400 30.43700
H  14.35600 51.95700 32.07100
H  15.22800 50.61500 31.38700
H  17.87200 54.14800 31.23200
H  19.15600 53.08800 30.55700
H  18.61800 53.83000 33.32200
H  19.68800 52.57100 32.93200
H  11.57200 55.82200 27.34100
H  13.10100 56.26400 28.16000
H  12.13500 54.78100 28.49900
H  12.00200 57.54900 25.49000
H  11.09000 56.04400 25.04600
H  11.41700 57.30000 23.91900
H  17.14900 54.10800 21.38400
H  18.06600 51.36300 21.23400
H  15.47300 53.07100 20.03900
H  15.01500 52.11900 21.50100
H  16.16700 51.46700 20.48700
H  19.90900 53.40500 22.50900
H  19.32600 54.08500 21.08300
H  21.56400 52.74700 20.96900
H  20.42900 52.77700 19.56700
H  20.39300 51.44800 20.57100
H  21.26400 48.53000 24.57100
H  22.33400 48.77000 25.93500
H  22.32200 49.95800 24.63200
H  20.43200 51.17200 30.15100
H  18.75100 47.84800 32.64600
H  19.35600 49.06100 33.68200
H  20.39600 47.71000 33.19000

