158

Mg 47.20900 16.00400 28.35700
C  45.09000 15.94800 31.26000
C  49.44900 17.89800 30.38000
C  49.19700 16.15400 25.77000
C  44.71100 14.49900 26.57300
N  47.19400 16.94400 30.50700
C  46.38000 16.52400 31.52000
C  46.81100 17.01900 32.84100
C  48.06400 17.89500 32.57200
C  48.27000 17.59100 31.06700
C  48.03500 19.37400 32.96800
C  47.07300 15.84300 33.82300
C  46.64200 16.00000 35.29000
H  46.10300 17.38300 35.80800
N  49.07900 16.84400 28.10100
C  49.83700 17.63900 29.02400
C  51.04500 18.02600 28.37500
C  51.00900 17.58100 27.03400
C  49.71600 16.85200 26.87400
C  52.23700 18.72900 29.05900
C  52.02200 17.78300 25.91600
O  51.91600 17.18900 24.86800
C  53.10400 18.80300 25.94400
N  46.95000 15.37900 26.48200
C  47.89000 15.61400 25.53300
C  47.47100 15.16400 24.14100
C  46.08100 14.59800 24.42600
C  45.88800 14.78900 25.94600
C  47.46600 16.28900 23.03700
C  45.90100 13.08200 24.05200
C  46.36300 12.03700 25.07700
N  45.26300 15.26600 28.80600
C  44.36600 14.64500 27.90600
C  43.29600 14.24800 28.73100
C  43.47300 14.76500 30.03700
C  44.74400 15.39400 30.01200
C  42.11800 13.49700 28.12600
C  42.83100 14.99100 31.28800
O  41.72100 14.73800 31.66000
C  43.89300 15.69300 32.18400
C  43.32200 16.99000 32.66500
O  43.42600 18.05600 32.06700
O  42.60400 16.69800 33.81300
C  41.87200 17.81300 34.36600
H  50.31700 18.31400 30.89500
H  49.79500 16.26800 24.86400
H  43.92200 13.98700 26.01900
H  46.09300 17.73100 33.24800
H  48.88200 17.41300 33.10700
H  47.18200 19.67400 33.57600
H  48.07400 20.11000 32.16500
H  48.90100 19.56200 33.60300
H  48.12800 15.56900 33.83300
H  46.50600 15.01500 33.39700
H  47.50300 15.79500 35.92700
H  45.91100 15.23400 35.54700
H  52.96700 17.92100 29.10100
H  52.11300 18.81300 30.13900
H  52.73600 19.61200 28.65900
H  53.91800 18.32500 26.49000
H  52.77200 19.75400 26.36000
H  53.53500 19.03600 24.97100
H  48.08900 14.32800 23.81300
H  45.36100 15.21900 23.89200
H  47.01400 15.88600 22.13100
H  48.49700 16.53700 22.78400
H  47.09000 17.25800 23.36500
H  46.11400 12.91200 22.99700
H  44.83500 12.87400 24.14700
H  45.55600 11.48900 25.56300
H  46.95700 12.45900 25.88900
H  47.10000 11.35000 24.66100
H  41.88400 12.71000 28.84300
H  42.39200 13.05600 27.16800
H  41.27300 14.16500 27.96000
H  44.11600 15.02600 33.01700
H  41.41500 18.48700 33.64100
H  42.35000 18.46300 35.09800
H  41.09300 17.35200 34.97400
Mg 48.02600 34.86600 27.91400
C  45.95900 33.22000 30.15300
C  48.59100 37.19400 30.11900
C  49.15400 36.79700 25.35600
C  47.16500 32.41700 25.49500
N  47.27900 35.16800 29.85500
C  46.61400 34.30900 30.71300
C  46.68300 34.69300 32.16500
C  47.10500 36.23100 31.96300
C  47.71500 36.25600 30.56300
C  45.94500 37.15700 32.21300
C  47.65600 33.77200 33.05500
C  48.56800 34.46100 34.14000
H  47.92700 35.54300 35.04100
N  48.87100 36.73400 27.78400
C  49.05100 37.57100 28.83900
C  49.85800 38.68200 28.44200
C  49.87200 38.66300 27.06800
C  49.25000 37.36200 26.66600
C  50.56500 39.57000 29.48600
C  50.44300 39.68000 26.05500
O  50.53200 39.42900 24.78200
C  50.92900 41.02500 26.46600
N  47.99900 34.65000 25.69600
C  48.61700 35.61000 24.91400
C  48.68100 35.12800 23.47500
C  48.15000 33.67100 23.44700
C  47.73100 33.58700 24.97600
C  47.98200 36.11400 22.45800
C  49.15300 32.58000 22.96000
C  50.25900 32.07000 23.96400
N  46.95500 33.08800 27.84900
C  46.63900 32.19500 26.85900
C  45.91400 31.04500 27.43300
C  45.47300 31.49700 28.65500
C  46.14800 32.76400 28.87600
C  45.45600 29.86100 26.71600
C  44.71700 31.14700 29.75400
O  44.02300 30.16200 29.99100
C  44.91000 32.30600 30.76700
C  45.14200 31.84200 32.10700
O  46.09900 31.16000 32.47600
O  44.20000 32.29300 32.90400
C  44.35400 31.94900 34.32100
H  48.89100 37.88600 30.90800
H  49.37900 37.47900 24.53400
H  47.07400 31.56700 24.81600
H  45.69400 34.60300 32.61400
H  47.95700 36.40900 32.62000
H  45.98000 37.54200 33.23200
H  45.00700 36.60500 32.27000
H  45.93200 37.99800 31.51900
H  48.32000 33.33700 32.30800
H  47.24500 32.84500 33.45300
H  49.39700 34.94100 33.61900
H  48.94400 33.69700 34.82100
H  50.68400 40.60200 29.15400
H  51.54700 39.11500 29.62000
H  50.15600 39.35200 30.47300
H  50.17500 41.58200 27.02200
H  51.43600 41.49900 25.62600
H  51.71300 40.79400 27.18700
H  49.73900 35.19700 23.22000
H  47.26600 33.55500 22.82000
H  47.05900 35.73300 22.01900
H  48.78800 36.26800 21.74000
H  47.83400 37.00600 23.06600
H  49.79900 33.02200 22.20100
H  48.56900 31.80100 22.46900
H  50.37600 31.01900 23.69900
H  50.01600 32.05000 25.02600
H  51.24600 32.49200 23.77200
H  46.27500 29.28000 26.29300
H  44.87400 30.32500 25.92000
H  44.87100 29.24700 27.40000
H  44.01700 32.93000 30.78100
H  43.37400 32.15000 34.75300
H  45.10300 32.63600 34.71700
H  44.58200 30.93600 34.65400

