158

Mg 47.32000 25.67100 28.92700
C  47.83100 27.82600 31.57100
C  46.19400 23.25900 30.98500
C  47.02300 23.57000 26.21300
C  48.80400 28.06900 26.76700
N  46.98700 25.59000 31.02300
C  47.21900 26.58700 31.89900
C  46.71000 26.14600 33.31100
C  46.29300 24.62000 33.16900
C  46.53900 24.48200 31.63500
C  47.11000 23.63700 34.06500
C  45.62500 26.98900 34.00700
C  45.95200 27.61300 35.32900
H  46.23700 26.72100 36.53900
N  46.74300 23.70200 28.66600
C  46.24800 22.91500 29.66900
C  45.78200 21.63000 29.07100
C  45.96700 21.73300 27.67000
C  46.60700 23.04400 27.43200
C  45.18200 20.49800 29.93700
C  45.64300 20.80100 26.59000
O  45.99900 20.93600 25.40000
C  44.90400 19.52600 26.91600
N  47.83400 25.83100 26.70400
C  47.62800 24.78000 25.86300
C  48.09000 25.13500 24.40900
C  48.68000 26.59400 24.58400
C  48.37500 26.88300 26.08100
C  49.15000 24.08800 23.79300
C  47.86500 27.64400 23.69600
C  48.75600 28.36600 22.69500
N  48.15100 27.51100 29.10000
C  48.74900 28.35400 28.15100
C  49.21600 29.60300 28.77100
C  48.87300 29.39700 30.08500
C  48.26000 28.16400 30.27300
C  49.82800 30.84700 28.04300
C  48.95300 30.06500 31.35300
O  49.52500 31.12900 31.69000
C  48.27800 29.02600 32.38000
C  49.29300 28.83300 33.46800
O  50.33800 28.23900 33.28200
O  48.99700 29.36700 34.65800
C  49.83400 28.95900 35.79500
H  45.85200 22.53400 31.72700
H  46.89600 22.98900 25.29700
H  49.17100 28.90800 26.17200
H  47.62200 26.25500 33.89800
H  45.22800 24.48400 33.36100
H  47.70900 23.08200 33.34300
H  46.49700 22.88700 34.56400
H  47.81100 24.19300 34.68700
H  44.74700 26.38500 34.23600
H  45.42000 27.84500 33.36400
H  45.07000 28.19800 35.58800
H  46.88000 28.16700 35.19000
H  45.59700 19.49500 29.83600
H  44.10600 20.45200 29.77300
H  45.27800 20.66900 31.01000
H  45.63500 18.92000 27.45200
H  44.56900 19.13100 25.95800
H  44.11600 19.79000 27.62100
H  47.34000 25.08500 23.62000
H  49.75900 26.52600 24.44600
H  50.06100 24.59300 23.47300
H  48.62500 23.56500 22.99400
H  49.48500 23.39500 24.56500
H  47.47900 28.42700 24.34900
H  47.04700 27.09200 23.23500
H  48.67800 29.44800 22.80500
H  48.73500 27.96600 21.68200
H  49.80100 28.24500 22.98200
H  49.66600 30.93100 26.96900
H  50.89000 30.77700 28.27600
H  49.39300 31.68500 28.58900
H  47.38600 29.49200 32.79900
H  49.71200 27.88400 35.92500
H  49.42100 29.51000 36.64000
H  50.85900 29.23100 35.54500
Mg 27.32700 50.13700 27.10000
C  25.10700 50.96200 29.66100
C  29.71100 49.43900 29.52500
C  29.57700 49.53400 24.65100
C  25.11700 51.41700 24.81300
N  27.37400 50.26300 29.28300
C  26.28100 50.42200 30.14200
C  26.63100 50.24900 31.59600
C  28.23900 50.01700 31.48500
C  28.50400 49.95500 29.96000
C  29.05000 50.97300 32.41800
C  25.74000 49.11900 32.29800
C  24.84000 49.53100 33.55300
H  24.72300 48.63500 34.81300
N  29.35500 49.49600 27.07700
C  30.09900 49.17400 28.14600
C  31.39000 48.75900 27.76400
C  31.41200 48.85700 26.36400
C  30.06000 49.38200 25.95300
C  32.45600 48.30800 28.76700
C  32.52600 48.58000 25.30500
O  32.42700 48.71100 24.09200
C  33.85700 47.96900 25.73500
N  27.32700 50.28800 24.99400
C  28.30500 49.89100 24.19700
C  27.80300 49.92700 22.66300
C  26.34900 50.51500 22.78600
C  26.26400 50.78500 24.28900
C  28.62600 50.58800 21.53800
C  25.23600 49.55700 22.32700
C  24.05800 50.21500 21.65000
N  25.44900 50.96800 27.12800
C  24.63500 51.36200 26.11500
C  23.35000 51.76200 26.58200
C  23.46100 51.71300 27.99200
C  24.79200 51.13300 28.27000
C  22.20100 52.20000 25.74200
C  22.80300 51.94500 29.31200
O  21.71600 52.31700 29.60500
C  23.90700 51.42800 30.48900
C  24.14900 52.63800 31.27100
O  24.75400 53.58300 30.75400
O  23.58200 52.66500 32.49400
C  23.47000 53.92400 33.17600
H  30.35400 49.14500 30.35700
H  30.26700 49.23200 23.86000
H  24.30800 51.65500 24.11900
H  26.45200 51.21300 32.07300
H  28.36700 49.01900 31.90200
H  29.92100 51.37800 31.90300
H  29.58000 50.63800 33.31000
H  28.47400 51.85500 32.69700
H  26.39900 48.36300 32.72600
H  25.19800 48.60400 31.50500
H  23.77100 49.51800 33.34300
H  25.21300 50.51700 33.82800
H  33.47700 48.24600 28.39300
H  32.32000 47.31700 29.20200
H  32.39000 49.04200 29.57000
H  33.74900 46.92800 26.03900
H  34.19300 48.63200 26.53200
H  34.54800 47.91800 24.89300
H  27.72400 48.87700 22.38100
H  26.26700 51.52200 22.37700
H  29.11500 49.91600 20.83400
H  29.37700 51.24400 21.98100
H  27.95800 51.20200 20.93500
H  24.90700 48.94200 23.16400
H  25.68800 49.00100 21.50500
H  24.25700 51.27100 21.46800
H  23.09500 50.14700 22.15500
H  24.07100 49.74300 20.66800
H  22.58200 52.96600 25.06600
H  21.44600 52.59100 26.42300
H  21.74900 51.36200 25.21000
H  23.56100 50.65700 31.17700
H  22.39100 54.03800 33.28600
H  23.72000 54.83100 32.62700
H  23.91900 53.88500 34.16900

