158

Mg 7.54200 3.04500 26.96600
C  8.68300 1.53800 29.83400
C  5.44000 4.86800 28.92900
C  6.58900 4.67100 24.21300
C  9.03900 0.53500 25.09300
N  7.12800 3.23200 29.19000
C  7.81100 2.59100 30.12700
C  7.45100 3.01900 31.48600
C  6.19000 3.95200 31.18400
C  6.22900 4.04700 29.65100
C  4.86400 3.36600 31.81100
C  8.53400 3.69800 32.24500
C  8.40400 3.78300 33.74400
H  9.65500 3.93500 34.68500
N  6.19100 4.52700 26.62200
C  5.45200 5.25600 27.55900
C  4.73400 6.26000 26.92100
C  5.05700 6.24600 25.52500
C  6.05500 5.16600 25.39600
C  3.95400 7.28900 27.65100
C  4.57600 7.15300 24.34300
O  4.92200 7.05500 23.17300
C  3.68600 8.28200 24.64700
N  7.73400 2.56300 24.92900
C  7.39700 3.48700 24.00900
C  7.60200 2.89600 22.58300
C  8.27600 1.46000 22.83500
C  8.38000 1.44800 24.35900
C  6.25000 3.05200 21.74100
C  9.51000 1.16400 21.92300
C  9.27100 -0.17100 21.17300
N  8.56100 1.38300 27.33900
C  9.15500 0.48900 26.49600
C  10.03600 -0.38800 27.26800
C  9.75800 -0.07100 28.61500
C  8.92000 0.97500 28.57600
C  10.92500 -1.41800 26.75500
C  10.17800 -0.35700 29.95400
O  10.89500 -1.24000 30.38600
C  9.59200 0.71900 30.79100
C  8.84700 0.10900 31.98500
O  7.78000 -0.47000 31.92500
O  9.66100 0.12300 33.09100
C  9.10700 -0.49500 34.37200
H  4.72100 5.41500 29.54300
H  6.28300 5.09900 23.25600
H  9.54700 -0.22400 24.49300
H  7.07600 2.24700 32.15800
H  6.27800 4.95900 31.59300
H  4.01900 3.48400 31.13200
H  4.79700 3.95200 32.72800
H  4.81100 2.28600 31.94400
H  8.56100 4.75000 31.96000
H  9.56000 3.50200 31.93600
H  7.99600 2.81000 34.01700
H  7.68600 4.56600 33.98700
H  3.51400 7.04400 28.61800
H  3.08800 7.44300 27.00700
H  4.34800 8.30500 27.66100
H  3.44700 8.76700 23.70000
H  4.17900 8.95500 25.34800
H  2.69500 7.93600 24.94100
H  8.27000 3.50200 21.97100
H  7.48200 0.78100 22.52500
H  5.34500 3.26100 22.31200
H  6.13400 2.02800 21.38700
H  6.43700 3.79400 20.96500
H  10.47500 1.05500 22.41800
H  9.52100 1.86900 21.09100
H  9.22000 -0.04000 20.09200
H  8.40800 -0.74000 21.52000
H  10.12900 -0.83300 21.29600
H  11.34500 -1.14400 25.78800
H  10.48900 -2.40800 26.61500
H  11.80700 -1.30400 27.38500
H  10.37800 1.28200 31.29400
H  8.43400 0.13400 34.95500
H  9.90700 -0.76500 35.06100
H  8.65800 -1.43400 34.04800
Mg 26.55600 50.42200 25.80200
C  24.61000 51.37400 28.70400
C  28.93100 49.44600 28.01900
C  28.64600 50.04600 23.07900
C  24.20700 51.89200 23.68900
N  26.68100 50.38900 28.12300
C  25.75100 50.72300 29.06300
C  26.18800 50.31200 30.46300
C  27.65000 49.88300 30.23700
C  27.77200 49.92900 28.71000
C  28.72500 50.84900 30.80700
C  25.32000 49.16100 30.95000
C  24.99800 49.17100 32.47100
H  26.09300 49.43700 33.53800
N  28.50500 49.95200 25.62100
C  29.32100 49.51100 26.66900
C  30.60300 49.04500 26.07600
C  30.58100 49.30400 24.67700
C  29.15900 49.75100 24.38300
C  31.68700 48.47500 27.02200
C  31.69000 49.04000 23.66800
O  31.50500 49.37000 22.50300
C  32.96500 48.36800 24.06200
N  26.52500 51.01200 23.68800
C  27.42300 50.57700 22.76700
C  26.83600 50.54100 21.32600
C  25.38100 50.96300 21.51900
C  25.32100 51.34200 23.05600
C  27.69700 51.43700 20.41100
C  24.22100 49.92900 21.05700
C  23.49800 50.35000 19.78300
N  24.77000 51.35100 26.01000
C  23.96300 51.97700 25.10500
C  22.77500 52.35400 25.87000
C  23.04800 52.28600 27.22300
C  24.26300 51.58200 27.28700
C  21.66000 53.09500 25.17500
C  22.50500 52.50400 28.54200
O  21.49300 53.09000 28.86800
C  23.57500 52.05600 29.51600
C  24.12400 53.22600 30.25800
O  24.64300 54.26100 29.80400
O  24.10000 53.02400 31.64100
C  24.92400 53.91500 32.45900
H  29.71000 48.94200 28.59500
H  29.13000 49.67800 22.17200
H  23.39400 52.14900 23.00600
H  26.13000 51.16800 31.13600
H  27.88100 48.85300 30.50800
H  29.59200 50.30000 31.17600
H  28.29100 51.60800 31.45800
H  29.19300 51.53200 30.09900
H  25.67300 48.18900 30.60400
H  24.35200 49.09400 30.45400
H  24.60600 48.18800 32.73400
H  24.22800 49.93800 32.55200
H  32.68000 48.83800 26.75500
H  31.64800 47.38700 27.08100
H  31.66000 48.85900 28.04100
H  32.65500 47.42100 24.50500
H  33.54900 48.95500 24.77000
H  33.55800 48.18600 23.16600
H  26.86000 49.48400 21.06000
H  25.17900 51.93300 21.06500
H  27.76100 50.94500 19.44100
H  28.71600 51.47000 20.79600
H  27.34700 52.44700 20.19900
H  23.58700 49.76600 21.92800
H  24.64500 48.95900 20.79500
H  23.62400 49.66800 18.94300
H  23.78600 51.37900 19.56400
H  22.46200 50.43900 20.10900
H  21.62500 52.65600 24.17800
H  21.89300 54.16000 25.19200
H  20.75500 52.96800 25.76800
H  23.10500 51.42100 30.26700
H  25.95300 53.83200 32.10900
H  24.82800 53.53200 33.47500
H  24.57000 54.94600 32.43500

