158

Mg 48.93200 45.68700 42.29000
C  45.61600 46.51500 41.62300
C  48.67900 42.84500 40.43500
C  52.28200 45.19000 42.51500
C  49.33600 49.06600 43.47800
N  47.35700 44.82700 41.17300
C  46.04600 45.27300 41.06200
C  45.22600 44.36900 40.13300
C  46.14400 43.07400 40.08000
C  47.50100 43.62200 40.56100
C  45.55700 41.84600 40.87200
C  44.99500 44.89100 38.71500
C  43.64800 44.55800 37.98300
H  43.75100 43.51900 36.87200
N  50.33200 44.12500 41.64400
C  49.93500 42.99400 40.97700
C  51.07300 42.13100 40.90600
C  52.21600 42.82700 41.38800
C  51.62500 44.11300 41.90500
C  51.04900 40.76000 40.24500
C  53.53400 42.32800 41.36100
O  53.79300 41.23700 40.87400
C  54.64900 43.12900 41.86600
N  50.59200 46.93700 42.86300
C  51.86000 46.50600 42.88500
C  52.78100 47.64800 43.32900
C  51.77500 48.67900 43.89400
C  50.45200 48.25900 43.35200
C  53.95500 47.28300 44.38400
C  52.14100 50.17600 43.70000
C  51.73000 51.10200 44.87300
N  47.69400 47.44200 42.64200
C  48.02800 48.70200 43.07700
C  46.80200 49.54800 43.15300
C  45.82200 48.62400 42.63500
C  46.41000 47.42400 42.32000
C  46.59500 50.93400 43.69200
C  44.42500 48.50900 42.39100
O  43.53600 49.26600 42.64700
C  44.29900 47.19400 41.55600
C  43.03600 46.41000 42.06900
O  41.83800 46.53500 41.73400
O  43.51200 45.43500 42.95900
C  42.55500 44.61600 43.76000
H  48.58800 41.92500 39.85500
H  53.33500 44.99400 42.72700
H  49.39700 50.07300 43.89500
H  44.27900 44.16900 40.63500
H  46.20600 42.70200 39.05700
H  45.38000 41.15300 40.04900
H  44.66800 42.20900 41.38800
H  46.21600 41.42800 41.63300
H  45.79600 44.61600 38.02900
H  45.01300 45.97000 38.86800
H  43.28900 45.50900 37.58800
H  42.88000 44.09800 38.60500
H  51.86400 40.60400 39.53800
H  50.09600 40.50800 39.78000
H  51.24500 40.02400 41.02500
H  54.72800 43.09600 42.95300
H  54.57800 44.15000 41.49200
H  55.58100 42.82800 41.38800
H  53.25400 47.96000 42.39800
H  51.82200 48.46000 44.96100
H  54.89100 46.93300 43.94900
H  53.65300 46.51300 45.09500
H  54.20500 48.17300 44.96200
H  51.80100 50.57600 42.74500
H  53.21600 50.34500 43.64100
H  51.34300 50.57600 45.74500
H  50.90900 51.74900 44.56300
H  52.52400 51.72300 45.28800
H  45.53600 50.95400 43.94900
H  46.77000 51.69900 42.93600
H  47.17600 51.32500 44.52700
H  44.16200 47.44400 40.50400
H  41.67700 45.24000 43.92800
H  43.05000 44.24500 44.65700
H  42.28000 43.77800 43.12000
Mg -10.45400 39.20000 40.21700
C  -8.66200 36.31700 39.07800
C  -7.58100 41.15400 39.60800
C  -12.44300 41.93800 40.22800
C  -13.32400 37.16700 40.19900
N  -8.37900 38.77800 39.53000
C  -7.97400 37.60300 38.99000
C  -6.69400 37.75200 38.24700
C  -6.16200 39.09300 38.86600
C  -7.41800 39.74000 39.39100
C  -5.21500 38.89300 40.10500
C  -6.76300 37.84000 36.72100
C  -6.17200 36.70800 35.89100
H  -7.00300 36.16100 34.69800
N  -10.06000 41.26900 39.97600
C  -8.81500 41.90200 39.71800
C  -8.99200 43.32300 39.61100
C  -10.34900 43.58800 39.85400
C  -11.02700 42.24500 40.05400
C  -7.82200 44.26800 39.24100
C  -10.98900 44.93000 39.83000
O  -10.29500 45.88200 39.53900
C  -12.48600 45.13500 39.94900
N  -12.57000 39.52200 40.17500
C  -13.11800 40.73300 40.34100
C  -14.64200 40.71600 40.38200
C  -14.89300 39.11400 40.18000
C  -13.54700 38.56800 40.17300
C  -15.09900 41.16300 41.74600
C  -15.70100 38.89100 38.91500
C  -16.58600 37.57900 38.82800
N  -10.88500 37.12000 39.99600
C  -12.06800 36.47700 40.12500
C  -11.78300 35.08000 40.14500
C  -10.47400 34.95500 39.66100
C  -9.97200 36.24700 39.62300
C  -12.75300 34.08300 40.57300
C  -9.37600 34.02300 39.26300
O  -9.34000 32.79200 39.40400
C  -8.21500 34.92000 38.73400
C  -6.89000 34.53000 39.41500
O  -6.61200 34.67800 40.59100
O  -6.02700 33.96300 38.50700
C  -4.72700 33.51100 38.98700
H  -6.67600 41.73000 39.40400
H  -13.18500 42.72700 40.36400
H  -14.21200 36.53300 40.24900
H  -6.12500 36.87500 38.55400
H  -5.65800 39.66000 38.08400
H  -4.22500 39.19800 39.76500
H  -5.24800 37.85700 40.44300
H  -5.41400 39.53300 40.96500
H  -6.44700 38.81000 36.33500
H  -7.81200 37.83100 36.42300
H  -6.01700 35.88700 36.59100
H  -5.14500 36.89000 35.57400
H  -8.14800 45.09000 38.60400
H  -7.09000 43.65900 38.71000
H  -7.20300 44.66900 40.04300
H  -12.82100 46.17100 39.89600
H  -12.92400 44.69300 40.84400
H  -13.02500 44.69800 39.10900
H  -14.95400 41.34600 39.54900
H  -15.34200 38.67600 41.07100
H  -15.58000 42.14100 41.72100
H  -14.28400 41.29000 42.45800
H  -15.81300 40.41500 42.09100
H  -14.99300 38.95700 38.08900
H  -16.35800 39.75700 38.83700
H  -16.07400 36.72900 38.37600
H  -17.57500 37.82700 38.44200
H  -16.78800 37.32400 39.86800
H  -12.92000 34.23100 41.64000
H  -12.28600 33.10500 40.45400
H  -13.67400 34.21700 40.00600
H  -8.15300 34.80800 37.65100
H  -4.44300 32.75700 38.25300
H  -4.95800 33.10300 39.97100
H  -3.97100 34.28100 39.13900

