158

Mg 0.95700 42.20800 25.71600
C  1.82900 42.33400 29.15300
C  -2.13000 41.13500 26.56900
C  0.45500 41.65200 22.51100
C  4.32900 43.07900 24.96800
N  -0.02900 41.83200 27.64500
C  0.48300 41.95300 28.91500
C  -0.74600 41.88300 29.93500
C  -1.83000 41.07900 29.06100
C  -1.31100 41.39700 27.69900
C  -1.81800 39.52200 29.30700
C  -1.24200 43.25800 30.37100
C  -1.28000 43.35600 31.95100
H  -2.24000 42.35100 32.65900
N  -0.69800 41.62900 24.67300
C  -1.89400 41.18400 25.19200
C  -2.79200 40.82100 24.17300
C  -2.12600 40.83800 22.95500
C  -0.65900 41.38200 23.35800
C  -4.25000 40.36400 24.47500
C  -2.49500 40.43600 21.57600
O  -1.85500 40.68200 20.61500
C  -3.89700 39.87300 21.30100
N  2.22600 42.48100 23.94900
C  1.78800 42.07100 22.76100
C  2.93700 42.20100 21.71100
C  3.98400 43.03000 22.44800
C  3.48200 42.91700 23.86200
C  3.45600 40.85300 21.21200
C  4.15300 44.54800 22.02900
C  2.88900 45.38300 21.95700
N  2.72600 42.59700 26.77400
C  3.98400 42.90600 26.29100
C  4.90600 43.09000 27.45900
C  4.02200 42.80800 28.51900
C  2.77200 42.54100 28.11000
C  6.33700 43.52400 27.39900
C  4.03700 42.85400 29.99200
O  4.96500 43.25500 30.75600
C  2.55400 42.48300 30.43100
C  2.59200 41.25300 31.23900
O  3.34000 40.31500 31.08500
O  1.54900 41.25700 32.10000
C  1.36600 40.03900 32.86200
H  -3.10800 40.76200 26.88100
H  0.23800 41.25100 21.51900
H  5.33800 43.47400 24.82700
H  -0.58300 41.27500 30.82500
H  -2.83900 41.48300 29.14600
H  -1.02100 39.03600 28.74500
H  -2.76100 39.38200 28.78000
H  -1.92500 39.26200 30.36000
H  -2.27200 43.36300 30.02900
H  -0.63600 44.00800 29.86300
H  -1.63700 44.34500 32.23800
H  -0.37500 43.27400 32.55200
H  -4.32800 39.29900 24.25800
H  -4.91600 40.92700 23.82200
H  -4.61300 40.49400 25.49400
H  -4.17100 39.09800 22.01600
H  -3.83000 39.53400 20.26700
H  -4.57300 40.71300 21.46000
H  2.55000 42.84900 20.92400
H  4.93900 42.50600 22.44000
H  3.13900 40.06100 21.89000
H  4.54400 40.87300 21.15600
H  3.06400 40.56200 20.23700
H  4.71200 44.51000 21.09300
H  4.75800 45.08100 22.76200
H  2.94900 46.20800 22.66600
H  1.91100 44.93800 22.14200
H  2.88300 45.84000 20.96700
H  6.85900 42.81600 28.04300
H  6.31300 44.50600 27.87200
H  6.76500 43.51600 26.39600
H  2.10400 43.29900 30.99700
H  0.43100 40.00700 33.42100
H  2.15900 39.91400 33.60000
H  1.30500 39.12800 32.26700
Mg -1.02900 34.50100 26.78700
C  -2.87600 32.78300 29.24800
C  0.54100 36.32800 29.42400
C  0.22500 36.57100 24.60000
C  -2.78400 32.87900 24.28100
N  -1.30900 34.66400 29.10500
C  -2.06200 33.81400 29.87400
C  -1.84400 34.07800 31.38800
C  -0.86300 35.27700 31.32100
C  -0.48200 35.43500 29.88200
C  -1.36000 36.53400 31.98700
C  -1.25700 32.76900 32.09800
C  -1.94300 32.29800 33.34700
H  -1.10800 32.17400 34.58300
N  0.47300 36.01900 27.01500
C  0.96000 36.68800 28.14800
C  1.97800 37.65900 27.67100
C  1.89800 37.69500 26.27900
C  0.83700 36.69000 25.92000
C  2.82100 38.50700 28.60200
C  2.80100 38.51000 25.37700
O  2.57300 38.53900 24.19400
C  3.93700 39.37100 25.86700
N  -1.12800 34.60200 24.70300
C  -0.58400 35.57400 24.02500
C  -0.97400 35.58200 22.56400
C  -1.80900 34.26800 22.42500
C  -1.91400 33.89900 23.87500
C  -1.51800 36.94700 21.96200
C  -1.28000 33.05400 21.65300
C  -0.94100 33.11200 20.18000
N  -2.49800 33.14900 26.72000
C  -3.03600 32.49400 25.65200
C  -4.02700 31.47100 26.07300
C  -3.92000 31.55200 27.49200
C  -2.97000 32.52000 27.80300
C  -5.02300 30.68000 25.37000
C  -4.51500 31.04600 28.76700
O  -5.37900 30.28100 29.05000
C  -3.74500 31.83800 29.93500
C  -4.78800 32.47600 30.85800
O  -5.44800 33.45000 30.47900
O  -4.84800 31.84700 32.15200
C  -5.87700 32.48400 33.04200
H  1.18400 36.64100 30.25000
H  0.52500 37.30200 23.84600
H  -3.43200 32.43600 23.52200
H  -2.80900 34.37100 31.80300
H  0.10000 34.97600 31.73500
H  -1.97800 36.25400 32.84000
H  -1.92400 37.10800 31.25200
H  -0.57100 37.15700 32.40800
H  -0.25300 32.97400 32.46800
H  -1.18900 31.94500 31.38900
H  -2.30300 31.27300 33.25100
H  -2.86000 32.83800 33.58500
H  3.85000 38.25200 28.34800
H  2.46500 38.37000 29.62300
H  2.65600 39.56400 28.39100
H  4.66200 38.79200 26.43800
H  3.63300 40.17600 26.53600
H  4.47000 39.84000 25.04000
H  -0.10200 35.22400 22.01700
H  -2.70900 34.72500 22.01300
H  -1.48100 37.71600 22.73300
H  -2.58000 36.78600 21.77300
H  -1.10600 37.23600 20.99500
H  -1.85000 32.13900 21.81200
H  -0.34500 32.80500 22.15500
H  0.12800 33.25400 20.01600
H  -1.44400 33.88700 19.60200
H  -1.27000 32.17000 19.74100
H  -5.08700 30.95400 24.31700
H  -5.97100 30.76300 25.90000
H  -4.60800 29.67200 25.33500
H  -3.12400 31.20700 30.57100
H  -5.24800 32.90800 33.82400
H  -6.59400 31.80200 33.49900
H  -6.45300 33.24800 32.52000

