158

Mg 25.34800 0.51400 29.39600
C  27.42200 0.86000 32.26800
C  22.63100 1.15300 31.61300
C  23.38300 0.73700 26.84000
C  28.20600 0.00600 27.42300
N  25.03700 1.13700 31.68300
C  26.06000 1.06700 32.63300
C  25.48600 1.33000 34.00500
C  23.94900 1.20600 33.78700
C  23.85900 1.11600 32.25400
C  23.16500 0.11900 34.49100
C  26.02700 2.64000 34.63500
C  26.74900 2.41600 36.04100
H  26.36600 3.41000 37.20700
N  23.21200 0.97200 29.20200
C  22.32500 1.19500 30.23100
C  21.08200 1.42400 29.62200
C  21.19200 1.18400 28.18300
C  22.64100 0.96700 28.00300
C  19.73400 1.62600 30.34700
C  20.14200 1.17400 27.11300
O  20.48500 1.03500 25.96700
C  18.71000 1.35600 27.39100
N  25.77200 0.29700 27.30700
C  24.74200 0.39300 26.48400
C  25.20800 0.15800 25.07300
C  26.84700 0.07900 25.22200
C  26.95600 0.14000 26.68100
C  24.47300 -0.93000 24.28400
C  27.58800 1.28800 24.55700
C  28.98400 1.02100 24.02200
N  27.39300 0.28100 29.74600
C  28.43500 0.08700 28.84200
C  29.67000 -0.07000 29.58700
C  29.28600 0.26500 30.93300
C  27.93900 0.46700 30.96800
C  30.98300 -0.23800 28.96300
C  29.79000 0.46100 32.25800
O  30.94600 0.38400 32.64100
C  28.55400 0.80300 33.17400
C  28.48700 -0.24700 34.14900
O  27.67600 -1.18800 34.05800
O  29.43300 -0.01000 35.16500
C  29.15200 -0.83500 36.35400
H  21.75000 1.11000 32.25800
H  22.72300 0.79200 25.97100
H  29.03000 -0.25600 26.75700
H  25.86500 0.50500 34.60900
H  23.40600 2.08400 34.13600
H  22.21900 0.60400 34.73200
H  23.65500 -0.41700 35.30400
H  22.94100 -0.68400 33.79000
H  25.18200 3.32100 34.72400
H  26.73500 3.12000 33.95900
H  27.77100 2.71100 35.80100
H  26.81500 1.38900 36.39900
H  19.86200 1.73600 31.42300
H  19.03500 0.85100 30.03100
H  19.36400 2.53000 29.86400
H  18.35000 0.53500 28.01100
H  18.16000 1.19500 26.46400
H  18.53600 2.28900 27.92800
H  25.03900 1.08200 24.51900
H  27.21700 -0.88900 24.88200
H  23.71800 -1.24100 25.00600
H  25.18600 -1.65400 23.89000
H  23.81900 -0.46600 23.54600
H  27.52300 2.12100 25.25700
H  26.99200 1.46000 23.66100
H  28.88400 1.23900 22.95900
H  29.26400 -0.01700 24.19900
H  29.76900 1.63700 24.45900
H  30.93500 0.15500 27.94800
H  31.19100 -1.30700 28.91600
H  31.63900 0.33700 29.61600
H  28.76100 1.73900 33.69300
H  29.45100 -1.83500 36.04000
H  28.17300 -0.61900 36.78100
H  29.76500 -0.43400 37.16200
Mg 40.42300 9.39700 29.28200
C  42.44800 10.32300 32.10800
C  38.49700 7.54900 31.32600
C  38.77700 8.45000 26.49700
C  43.01400 10.70200 27.14600
N  40.48900 9.07800 31.43300
C  41.33200 9.61100 32.42200
C  40.74500 9.41300 33.77400
C  39.51800 8.44200 33.55200
C  39.49900 8.28500 32.04000
C  39.56000 7.05500 34.23000
C  40.43900 10.72600 34.55200
C  39.89000 10.44500 35.96900
H  39.79200 11.67900 36.91100
N  38.81100 8.11100 28.94900
C  38.13900 7.44000 29.95200
C  37.02900 6.79100 29.30300
C  37.12100 6.93100 27.93000
C  38.22900 7.89900 27.71900
C  36.08100 6.00700 30.25800
C  36.33100 6.22200 26.80000
O  36.43900 6.59000 25.60900
C  35.40700 5.19000 27.24500
N  40.93100 9.45300 27.13200
C  39.94900 9.20500 26.20400
C  40.44400 9.46700 24.73900
C  41.82900 10.21300 25.02300
C  41.94100 10.09800 26.50600
C  40.50000 8.25100 23.84300
C  41.66900 11.71400 24.51700
C  40.60100 12.59100 25.19500
N  42.31200 10.36400 29.48800
C  43.21000 10.83200 28.55200
C  44.33000 11.48300 29.27000
C  43.98500 11.26600 30.58500
C  42.82100 10.62100 30.74700
C  45.36100 12.32500 28.64100
C  44.53300 11.63300 31.89400
O  45.53900 12.27900 32.19600
C  43.54300 10.99500 32.97400
C  44.28000 10.01300 33.81700
O  44.27000 8.81500 33.53200
O  44.96300 10.57400 34.86000
C  45.69200 9.63600 35.69800
H  37.81000 7.10200 32.04700
H  38.18000 8.15900 25.63000
H  43.78400 11.20800 26.56000
H  41.46000 8.88300 34.40300
H  38.53600 8.87100 33.75100
H  39.52500 6.29900 33.44500
H  38.67900 6.92300 34.85800
H  40.41200 6.89100 34.89100
H  39.77400 11.43200 34.05400
H  41.41000 11.18200 34.74800
H  40.44700 9.61100 36.39700
H  38.83400 10.19500 35.86800
H  35.37100 5.34900 29.75600
H  35.63000 6.56000 31.08200
H  36.80400 5.33600 30.72200
H  35.99600 4.41500 27.73600
H  34.91200 4.83200 26.34200
H  34.57700 5.64100 27.78800
H  39.70800 10.18400 24.37400
H  42.57600 9.62100 24.49600
H  40.08600 7.38600 24.36200
H  41.51300 7.97900 23.54800
H  40.02400 8.52800 22.90300
H  41.43300 11.70700 23.45300
H  42.61400 12.24700 24.62400
H  40.11400 12.01300 25.98000
H  39.93100 12.82200 24.36700
H  41.03900 13.50900 25.58900
H  45.14300 12.52500 27.59200
H  46.36400 11.89900 28.61000
H  45.39500 13.28700 29.15300
H  43.09600 11.72700 33.64600
H  46.27100 9.00300 35.02600
H  45.02700 8.97200 36.25000
H  46.43600 10.24700 36.21000

