158

Mg 27.13100 50.68500 26.69800
C  24.99500 51.47000 29.51800
C  29.39800 49.76000 29.01500
C  28.97900 49.97500 24.13500
C  24.60300 51.93300 24.60300
N  27.17600 50.52800 29.03600
C  26.18400 50.91900 29.94700
C  26.72400 50.82700 31.39200
C  28.21600 50.34100 31.17300
C  28.27800 50.15100 29.67900
C  29.36900 51.35600 31.60200
C  25.94600 49.80800 32.36300
C  25.64400 50.27700 33.79000
H  25.67000 49.20700 34.89400
N  28.97400 50.02500 26.55900
C  29.73400 49.58800 27.65400
C  31.02600 49.09000 27.15200
C  30.94700 49.14500 25.71500
C  29.61100 49.69300 25.36900
C  32.18000 48.61700 28.06900
C  32.06100 48.87600 24.73900
O  31.85200 49.08300 23.55600
C  33.40100 48.29400 25.18500
N  26.85200 51.00000 24.72300
C  27.81100 50.56900 23.77600
C  27.24800 50.66300 22.31000
C  25.75400 51.23700 22.45700
C  25.67100 51.37600 24.04500
C  28.04500 51.54700 21.42500
C  24.60400 50.38700 21.94600
C  23.89000 50.81700 20.58600
N  25.21400 51.57700 26.98700
C  24.34200 52.06200 25.99900
C  23.16100 52.52400 26.70400
C  23.40900 52.39800 28.05100
C  24.61800 51.77200 28.17400
C  22.00500 53.22700 26.18400
C  22.91000 52.72300 29.42900
O  21.90500 53.22900 29.84700
C  23.94300 52.03900 30.35700
C  24.38900 53.20100 31.03400
O  25.22700 53.96400 30.63500
O  23.89500 53.26500 32.28800
C  24.53400 54.11200 33.27200
H  30.08900 49.28200 29.71300
H  29.48100 49.74200 23.19400
H  23.80400 52.27000 23.93900
H  26.71000 51.83600 31.80500
H  28.38600 49.36200 31.61900
H  28.92400 52.35000 31.55800
H  30.17700 51.50500 30.88600
H  29.70800 51.09300 32.60300
H  26.49800 48.88600 32.54700
H  24.97900 49.54100 31.93700
H  24.63400 50.68600 33.78000
H  26.38800 51.01800 34.08300
H  31.85200 48.51800 29.10400
H  32.96600 49.36000 27.92800
H  32.50100 47.63900 27.71100
H  33.21600 47.27200 25.51700
H  33.73500 48.91900 26.01300
H  34.08700 48.36400 24.34100
H  27.18500 49.66100 21.88500
H  25.71300 52.25300 22.06500
H  28.44300 52.41000 21.96000
H  27.48400 51.85000 20.54100
H  28.84500 50.89900 21.06600
H  23.81900 50.33600 22.70100
H  24.92200 49.34900 21.85600
H  24.15500 50.06900 19.83900
H  24.06600 51.84200 20.25700
H  22.80500 50.83200 20.68700
H  21.58400 52.62600 25.37800
H  22.21800 54.14100 25.63000
H  21.28200 53.40300 26.98100
H  23.39100 51.23900 30.85000
H  24.50800 55.10300 32.81900
H  25.56500 53.76700 33.34500
H  24.10200 54.02000 34.26900
Mg 0.73200 43.12800 26.13800
C  2.87400 43.43600 28.80300
C  -1.89400 42.46500 28.26500
C  -1.11000 42.56700 23.51600
C  3.62500 43.33300 23.98800
N  0.58500 42.97400 28.28700
C  1.58100 43.18300 29.15300
C  1.01600 43.15700 30.59500
C  -0.42200 42.60100 30.48200
C  -0.63300 42.73200 28.93700
C  -0.67400 41.23700 31.15500
C  1.02500 44.54100 31.32700
C  1.24200 44.52100 32.83400
H  0.93700 43.20400 33.67700
N  -1.23300 42.59500 25.90400
C  -2.15400 42.39600 26.89700
C  -3.41400 42.03900 26.32900
C  -3.20000 42.01000 24.88900
C  -1.76600 42.35800 24.73400
C  -4.69500 41.79400 27.08900
C  -4.15400 41.65800 23.78100
O  -3.93100 41.52700 22.58500
C  -5.59200 41.39700 24.10400
N  1.17700 43.10800 24.00500
C  0.19100 42.90800 23.16600
C  0.67900 43.01400 21.71200
C  2.18200 43.39100 21.84300
C  2.36300 43.28600 23.35800
C  0.40000 41.74800 20.88300
C  2.52100 44.74300 21.15800
C  2.26900 45.99000 22.11100
N  2.87700 43.27200 26.37700
C  3.86400 43.34600 25.39600
C  5.13100 43.54800 26.05800
C  4.82300 43.60100 27.43000
C  3.38600 43.45200 27.47800
C  6.41700 43.69600 25.34200
C  5.40000 43.77300 28.74900
O  6.54600 43.93700 29.12900
C  4.12700 43.61200 29.72400
C  4.43900 42.44100 30.55300
O  4.71000 41.34400 30.14600
O  4.46400 42.80000 31.92400
C  4.99400 41.80200 32.80200
H  -2.80300 42.23900 28.82700
H  -1.68100 42.40100 22.60100
H  4.43500 43.45900 23.26600
H  1.58500 42.46600 31.21600
H  -1.08800 43.33900 30.92700
H  -1.40600 41.25400 31.96200
H  0.23800 40.77000 31.53000
H  -1.19000 40.59600 30.44000
H  0.11300 45.05900 31.03100
H  1.86800 45.17800 31.06200
H  0.56900 45.28400 33.22400
H  2.18800 44.95800 33.15400
H  -5.43900 42.53600 26.79900
H  -4.65900 41.82900 28.17800
H  -4.96900 40.75300 26.91700
H  -5.68700 40.63800 24.88100
H  -6.00600 40.88400 23.23500
H  -6.02400 42.38000 24.28700
H  0.13100 43.89600 21.38100
H  2.81400 42.56700 21.51300
H  1.28700 41.38100 20.36600
H  -0.30900 41.89800 20.06900
H  0.11300 40.99900 21.62100
H  1.99500 44.89600 20.21600
H  3.57800 44.63300 20.91700
H  1.70100 46.74300 21.56400
H  3.19100 46.47700 22.42600
H  1.76600 45.85000 23.06800
H  6.39500 43.67800 24.25300
H  7.01500 42.82900 25.62300
H  6.79900 44.65000 25.70600
H  4.10600 44.46300 30.40400
H  4.14500 41.41300 33.36400
H  5.71400 42.21600 33.50800
H  5.42800 40.95100 32.27800

