158

Mg -2.73500 34.50800 26.79500
C  -3.45700 32.63900 29.64700
C  -1.03000 36.77600 28.77500
C  -2.31000 36.52700 24.03400
C  -4.41000 32.27000 24.85100
N  -2.43700 34.70800 28.95900
C  -2.75700 33.82700 29.96800
C  -2.24100 34.29300 31.36400
C  -1.60400 35.69000 31.05500
C  -1.69500 35.76200 29.52800
C  -2.15200 36.88800 31.80100
C  -1.25700 33.20500 32.00000
C  -1.73600 32.59500 33.34500
H  -0.85100 32.67300 34.59200
N  -1.75400 36.38800 26.52600
C  -1.03800 37.11700 27.41300
C  -0.35900 38.19600 26.75100
C  -0.74800 38.17800 25.41300
C  -1.63300 36.99400 25.25700
C  0.65900 39.04200 27.47200
C  -0.43900 39.18500 24.29900
O  -0.82000 38.99200 23.16200
C  0.22700 40.49700 24.57700
N  -3.34200 34.47100 24.75200
C  -3.04000 35.37100 23.89800
C  -3.47600 34.87900 22.47600
C  -3.83700 33.39500 22.63900
C  -3.79300 33.29300 24.14000
C  -4.62600 35.79700 21.95900
C  -2.98500 32.35700 21.91100
C  -3.36500 30.87100 21.82300
N  -3.81000 32.83800 27.15100
C  -4.44100 31.97200 26.24600
C  -5.04200 30.86200 26.99200
C  -4.64000 31.01800 28.31100
C  -3.88600 32.24800 28.37300
C  -5.86700 29.83200 26.41500
C  -4.70900 30.45700 29.60400
O  -5.27700 29.47000 30.01500
C  -4.04300 31.53400 30.54800
C  -5.10500 32.10800 31.47000
O  -5.95000 32.93600 31.13200
O  -4.98900 31.53100 32.69600
C  -5.91600 32.02000 33.75300
H  -0.52700 37.46000 29.46300
H  -2.13400 37.12000 23.13400
H  -4.89100 31.54700 24.18800
H  -3.06900 34.49500 32.04400
H  -0.54900 35.50600 31.26100
H  -2.80900 36.53800 32.59800
H  -2.52900 37.68400 31.15900
H  -1.30800 37.39500 32.26800
H  -0.27400 33.64500 32.16700
H  -1.09900 32.41700 31.26300
H  -1.89200 31.52700 33.19200
H  -2.68300 33.09200 33.55300
H  0.71000 38.67400 28.49700
H  0.47500 40.11500 27.42600
H  1.54500 38.84700 26.86800
H  1.31200 40.46800 24.67200
H  -0.27000 40.79300 25.50100
H  -0.07900 41.24500 23.84600
H  -2.70100 35.12300 21.74900
H  -4.88100 33.21600 22.38300
H  -5.31100 36.21400 22.69700
H  -5.31200 35.08100 21.50600
H  -4.34400 36.48500 21.16200
H  -1.98300 32.34900 22.34100
H  -2.80400 32.53700 20.85200
H  -4.33700 30.73900 22.29800
H  -2.57800 30.32900 22.34700
H  -3.36500 30.50800 20.79600
H  -6.02800 30.16800 25.39100
H  -6.77900 29.82900 27.01200
H  -5.42900 28.83700 26.49200
H  -3.22800 31.06400 31.09800
H  -6.66700 32.75100 33.45400
H  -5.39500 32.65400 34.47100
H  -6.46900 31.16800 34.14900
Mg -5.39400 24.69900 26.54600
C  -3.71200 26.46200 29.26100
C  -6.22000 22.36800 28.92500
C  -6.80900 22.85900 24.19200
C  -3.98400 26.90700 24.35400
N  -5.15900 24.55700 28.82000
C  -4.49700 25.35800 29.74700
C  -4.66500 24.95000 31.19500
C  -5.33900 23.57100 30.98600
C  -5.68100 23.51700 29.45200
C  -4.49500 22.28200 31.49800
C  -5.38100 26.06700 32.03900
C  -6.70900 25.84900 32.81700
H  -6.64800 25.28700 34.28700
N  -6.40700 22.88900 26.50300
C  -6.54600 22.06800 27.57900
C  -6.99400 20.80600 27.18300
C  -7.33800 20.97200 25.81000
C  -6.92300 22.33800 25.42100
C  -7.09600 19.68400 28.16200
C  -8.03500 20.01000 24.87800
O  -8.19400 20.28200 23.71000
C  -8.60900 18.72200 25.38800
N  -5.36800 24.77300 24.59100
C  -6.11000 24.02100 23.73000
C  -6.14300 24.56400 22.26800
C  -5.23600 25.85400 22.36300
C  -4.87400 25.92100 23.94300
C  -5.58400 23.56900 21.20400
C  -5.91200 27.14700 21.95700
C  -5.03300 27.86400 20.89200
N  -4.12500 26.38500 26.70800
C  -3.54900 27.19900 25.70200
C  -2.75800 28.25000 26.33800
C  -2.81000 27.96900 27.69200
C  -3.61200 26.78400 27.91100
C  -2.11400 29.34800 25.52400
C  -2.27000 28.38400 28.86600
O  -1.33400 29.18300 29.06500
C  -2.84200 27.45700 29.99900
C  -1.73200 26.83700 30.80700
O  -0.89900 26.03600 30.49200
O  -1.73400 27.41400 32.06200
C  -0.93000 26.78900 33.15900
H  -6.50400 21.61800 29.66600
H  -7.15900 22.28900 23.32900
H  -3.61200 27.66000 23.65700
H  -3.64600 24.76300 31.53400
H  -6.27600 23.50500 31.53900
H  -3.53000 22.57800 31.90800
H  -4.28100 21.67100 30.62100
H  -4.98700 21.61600 32.20600
H  -5.54700 26.91600 31.37600
H  -4.57000 26.37800 32.69600
H  -7.31400 25.24000 32.14500
H  -7.08300 26.87300 32.81800
H  -6.15000 19.70700 28.70200
H  -7.40500 18.70800 27.78800
H  -7.97200 19.86100 28.78700
H  -9.00100 18.28900 24.46800
H  -9.38800 19.06900 26.06800
H  -7.84000 18.09900 25.84500
H  -7.19400 24.78900 22.08600
H  -4.31800 25.66100 21.80900
H  -4.68700 23.04300 21.53400
H  -5.20200 23.93400 20.25100
H  -6.43400 22.91700 21.00500
H  -5.94000 27.83900 22.79800
H  -6.95000 26.90900 21.72500
H  -3.96500 27.79100 21.09700
H  -5.21000 28.90400 21.16500
H  -5.33400 27.75200 19.85100
H  -2.85000 29.93700 24.97700
H  -1.58300 28.85900 24.70700
H  -1.44800 29.92200 26.16800
H  -3.42200 28.07800 30.68100
H  -0.71700 27.52500 33.93400
H  0.04600 26.47900 32.78600
H  -1.46700 25.90600 33.50600

