158

Mg 0.72500 7.39800 26.54000
C  1.55900 9.84600 28.91000
C  0.98700 5.01100 28.86500
C  0.20800 5.16700 24.11500
C  1.31700 9.92500 24.14300
N  1.33800 7.46600 28.62200
C  1.38500 8.54800 29.46400
C  1.06500 8.14200 30.90800
C  1.47700 6.63800 30.79100
C  1.24700 6.31900 29.31200
C  2.90700 6.24700 31.24600
C  -0.28300 8.59800 31.41300
C  -0.36000 8.86800 32.89500
H  0.78200 8.54200 33.84600
N  0.45300 5.35400 26.53900
C  0.62400 4.53000 27.56100
C  0.36900 3.17700 27.17600
C  0.01900 3.15600 25.80900
C  0.22400 4.55500 25.41300
C  0.17700 2.04000 28.14900
C  -0.47200 2.06500 24.90900
O  -0.70400 2.20300 23.71800
C  -0.59200 0.65400 25.53000
N  0.66000 7.60000 24.38600
C  0.37500 6.45300 23.62500
C  0.48100 6.75200 22.11800
C  1.04300 8.27500 22.05600
C  0.99300 8.65000 23.59200
C  1.40400 5.69200 21.37500
C  0.18400 9.23100 21.17600
C  -1.25100 9.33700 21.66500
N  1.21900 9.47800 26.46200
C  1.37100 10.31600 25.44300
C  1.57800 11.64600 25.84600
C  1.67800 11.52000 27.26900
C  1.50400 10.19800 27.54800
C  1.72400 12.93700 24.97400
C  1.81400 12.20900 28.53400
O  2.04400 13.38900 28.84900
C  1.66000 11.17700 29.68400
C  2.83400 11.18600 30.48300
O  3.93200 10.68300 30.20800
O  2.66400 11.78200 31.70700
C  3.76100 11.83400 32.69600
H  1.12000 4.26800 29.65400
H  0.10800 4.48600 23.26700
H  1.50400 10.70000 23.39600
H  1.82600 8.65500 31.49500
H  0.60300 6.05900 31.08800
H  2.79000 5.99600 32.30000
H  3.60900 7.04200 30.99400
H  3.15300 5.35800 30.66500
H  -0.97700 7.76500 31.30300
H  -0.59400 9.52100 30.92300
H  -1.15600 8.22700 33.27400
H  -0.55200 9.92800 33.06600
H  -0.84900 1.71200 27.98600
H  0.29000 2.26800 29.20900
H  0.92300 1.27400 27.93900
H  0.19400 0.42100 26.24800
H  -0.53900 -0.08600 24.73200
H  -1.61400 0.59900 25.90500
H  -0.48400 6.62900 21.62500
H  2.04900 8.22700 21.63900
H  2.11200 5.17300 22.02200
H  2.04200 6.05100 20.56800
H  0.75500 4.91200 20.97700
H  0.22200 8.93800 20.12700
H  0.65900 10.21200 21.19100
H  -1.65900 10.33000 21.84800
H  -1.56800 8.85900 22.59200
H  -1.87300 8.82100 20.93400
H  0.87800 13.61000 25.11400
H  1.77000 12.77300 23.89700
H  2.63500 13.45800 25.26800
H  0.83100 11.44800 30.33800
H  4.69200 12.14400 32.22100
H  3.90400 10.93200 33.29100
H  3.71200 12.60600 33.46400
Mg -10.55600 38.73900 41.40900
C  -9.33000 35.54400 40.61400
C  -7.76600 40.06300 39.96300
C  -12.26400 41.62800 40.85100
C  -13.64100 37.14100 42.31500
N  -8.87800 37.86800 40.24100
C  -8.58800 36.53700 40.08700
C  -7.27600 36.44900 39.30900
C  -6.61800 37.84600 39.48400
C  -7.81000 38.68400 39.91700
C  -5.45200 37.94900 40.62900
C  -7.68100 36.03900 37.85200
C  -7.12600 34.67300 37.36700
H  -6.56800 34.57200 35.94800
N  -10.00800 40.62100 40.66100
C  -8.77400 41.03500 40.20900
C  -8.79600 42.44600 39.88200
C  -10.11600 42.89900 40.09600
C  -10.91400 41.67600 40.58000
C  -7.56900 43.12400 39.43400
C  -10.67600 44.27400 39.82900
O  -9.89600 45.15300 39.51200
C  -12.09000 44.61700 39.75600
N  -12.70700 39.24500 41.54700
C  -13.06600 40.59000 41.36200
C  -14.54000 40.67500 41.75500
C  -14.91400 39.35400 42.37400
C  -13.69300 38.52700 42.04100
C  -15.06300 41.95300 42.59700
C  -16.29100 38.63300 42.09200
C  -17.10200 38.27500 43.41500
N  -11.35500 36.80700 41.57300
C  -12.50300 36.31200 42.07100
C  -12.41300 34.90300 42.25400
C  -11.28200 34.54300 41.69700
C  -10.57500 35.70900 41.27400
C  -13.43800 34.04600 42.75000
C  -10.42500 33.37300 41.30100
O  -10.56100 32.20400 41.53700
C  -9.17800 34.00800 40.52100
C  -7.95900 33.47700 41.09600
O  -7.05200 32.87300 40.52800
O  -7.97600 33.62200 42.43000
C  -6.86200 32.95800 43.25500
H  -6.77300 40.37800 39.63500
H  -12.85500 42.54700 40.84300
H  -14.57200 36.79600 42.76900
H  -6.68700 35.70400 39.84400
H  -6.18700 38.13200 38.52400
H  -5.77500 38.51100 41.50600
H  -4.52000 38.37600 40.25900
H  -5.28000 36.91500 40.92500
H  -7.27000 36.75400 37.13900
H  -8.76900 36.06900 37.79900
H  -7.86900 33.89400 37.53800
H  -6.28000 34.44100 38.01400
H  -6.87700 43.19700 40.27300
H  -7.66000 44.12900 39.02300
H  -7.08800 42.45400 38.72100
H  -12.78700 43.92300 39.28500
H  -12.18200 45.63900 39.38800
H  -12.50300 44.65500 40.76400
H  -15.18900 40.72200 40.88100
H  -14.78100 39.50600 43.44500
H  -15.45400 41.63200 43.56200
H  -15.82000 42.51100 42.04700
H  -14.28000 42.65500 42.88500
H  -16.03400 37.75500 41.50000
H  -16.86100 39.40300 41.57300
H  -16.62500 38.47300 44.37500
H  -17.31900 37.21300 43.30200
H  -18.06400 38.77300 43.29300
H  -12.97000 33.11900 43.08100
H  -14.12500 33.85500 41.92600
H  -13.92000 34.47700 43.62800
H  -9.20500 33.67900 39.48200
H  -7.30800 32.58800 44.17800
H  -6.05200 33.66900 43.41600
H  -6.40800 32.09600 42.76600

