158

Mg 15.80500 -2.29300 27.88800
C  15.06900 -0.20100 30.56900
C  17.85500 -4.09800 30.11400
C  17.27100 -3.92000 25.33600
C  14.77400 0.17800 25.64600
N  16.53900 -1.99200 30.08200
C  15.97300 -1.21500 30.97700
C  16.36700 -1.56400 32.37300
C  17.54200 -2.55600 32.18600
C  17.24400 -3.01100 30.76700
C  19.05200 -2.02300 32.27100
C  15.13500 -2.11200 33.21800
C  14.81300 -1.27000 34.50100
H  15.89600 -0.87700 35.48500
N  17.09200 -3.99200 27.74200
C  17.90100 -4.53400 28.78100
C  18.62300 -5.67200 28.24500
C  18.41900 -5.67000 26.83800
C  17.55300 -4.50000 26.57400
C  19.47200 -6.53300 29.07200
C  18.95200 -6.57700 25.77400
O  18.75300 -6.37100 24.60600
C  19.80600 -7.75200 26.16300
N  15.82600 -1.97700 25.82800
C  16.56200 -2.78100 24.98400
C  16.48300 -2.31000 23.53200
C  15.58900 -1.06900 23.58500
C  15.35000 -0.96200 25.09200
C  17.80700 -2.13000 22.82300
C  14.41500 -0.94000 22.62100
C  13.27100 -1.84000 23.08800
N  14.97200 -0.40500 27.95100
C  14.48800 0.42200 27.00700
C  13.66900 1.44200 27.68900
C  13.89200 1.27800 29.10000
C  14.74600 0.17300 29.19300
C  12.68800 2.36300 27.00300
C  13.56300 1.78200 30.38900
O  12.75200 2.63500 30.64700
C  14.35400 0.90700 31.37900
C  15.22100 1.92100 32.14900
O  16.15200 2.51600 31.67400
O  14.62000 2.33200 33.33500
C  15.30200 3.43800 34.06600
H  18.46300 -4.72000 30.77500
H  17.73500 -4.41100 24.47800
H  14.30100 0.76900 24.85800
H  16.65700 -0.61600 32.82600
H  17.41200 -3.28800 32.98300
H  19.66900 -2.58300 32.97500
H  19.04300 -0.99200 32.62500
H  19.56300 -2.00200 31.30800
H  15.25400 -3.09900 33.66600
H  14.17100 -1.99000 32.72400
H  13.97500 -1.78300 34.97200
H  14.26200 -0.39400 34.15900
H  19.49100 -7.56500 28.72000
H  19.02400 -6.54500 30.06600
H  20.45300 -6.11400 29.29600
H  20.83000 -7.52200 26.45900
H  20.01400 -8.27500 25.23000
H  19.34900 -8.44200 26.87200
H  15.92500 -3.14100 23.10000
H  16.12500 -0.13200 23.43200
H  17.99700 -1.09900 22.52500
H  17.64600 -2.56900 21.83800
H  18.67200 -2.58300 23.30600
H  14.64100 -1.22600 21.59400
H  14.13100 0.10700 22.51600
H  12.34700 -1.32200 23.34600
H  13.49300 -2.48600 23.93700
H  13.11300 -2.48200 22.22100
H  12.32500 3.09700 27.72300
H  11.81000 1.80500 26.67700
H  13.18800 2.92700 26.21500
H  13.57400 0.48000 32.00900
H  14.52700 3.99400 34.59300
H  15.88800 4.15800 33.49400
H  15.96400 3.10800 34.86700
Mg 16.46600 52.65600 26.19800
C  18.70700 51.23100 28.39300
C  14.28500 53.15500 28.72000
C  14.53500 54.04800 23.87900
C  18.74100 51.60200 23.61500
N  16.60000 52.32100 28.28500
C  17.56200 51.81700 29.04500
C  17.23100 51.89200 30.54100
C  15.72100 52.04600 30.56200
C  15.51700 52.53900 29.11600
C  15.01600 50.71900 30.84400
C  17.99700 53.12200 31.12900
C  18.23400 53.25200 32.61700
H  17.30500 52.51000 33.53700
N  14.60600 53.45100 26.26500
C  13.88100 53.64600 27.46800
C  12.60300 54.35400 27.14900
C  12.69700 54.68800 25.74800
C  13.97500 54.06600 25.22600
C  11.68200 54.85000 28.20200
C  11.73700 55.56800 24.91700
O  11.83900 55.78800 23.72200
C  10.60800 56.33500 25.53100
N  16.69000 52.76300 24.03900
C  15.70500 53.41900 23.35000
C  16.10900 53.54900 21.87000
C  17.54100 52.94600 21.84700
C  17.71300 52.45500 23.23900
C  15.09400 52.91400 20.78400
C  18.67500 53.83500 21.32100
C  19.83600 54.28700 22.38700
N  18.29100 51.55700 25.97200
C  19.05700 51.16000 24.91200
C  20.24300 50.51500 25.31500
C  20.13400 50.48600 26.69700
C  18.91400 51.11100 27.03700
C  21.36500 49.99900 24.35800
C  20.80300 50.08000 27.88700
O  21.84400 49.40900 28.02800
C  19.92500 50.60300 29.03000
C  19.60000 49.59200 29.99500
O  18.89300 48.61100 29.77500
O  19.97500 50.00600 31.24700
C  19.56900 49.18400 32.37800
H  13.52600 53.21800 29.50400
H  13.94400 54.62700 23.16600
H  19.40000 51.34200 22.78400
H  17.45100 51.02600 31.16400
H  15.57800 52.74700 31.38400
H  14.00300 50.81100 30.45100
H  14.91300 50.62000 31.92500
H  15.60900 49.84000 30.59400
H  17.51300 54.05000 30.82200
H  18.92100 53.19900 30.55500
H  18.17500 54.32600 32.79700
H  19.28100 52.96100 32.70800
H  11.83400 54.28000 29.11900
H  10.68300 54.75000 27.77700
H  11.92300 55.87200 28.49300
H  10.28700 57.05800 24.78100
H  11.05200 56.81500 26.40400
H  9.93600 55.50600 25.75300
H  16.13300 54.61300 21.63400
H  17.42700 52.08900 21.18300
H  14.09300 53.08400 21.18100
H  15.32800 51.88800 20.50000
H  15.28100 53.52900 19.90300
H  18.33300 54.64800 20.68000
H  19.33300 53.28500 20.64900
H  20.79300 53.78500 22.24400
H  19.59100 54.38700 23.44400
H  20.12600 55.28500 22.05700
H  21.95900 49.17700 24.75700
H  22.04800 50.84000 24.24100
H  21.02100 49.69300 23.37000
H  20.47500 51.33200 29.62700
H  20.29000 48.39800 32.60100
H  18.62300 48.64400 32.41300
H  19.54700 49.93000 33.17300

