158

Mg 0.31600 8.27700 25.65100
C  1.17100 10.05000 28.67400
C  0.27600 5.40900 27.50400
C  0.42400 6.42100 22.81300
C  1.15700 11.08300 23.87700
N  0.94700 7.75600 27.85600
C  0.98200 8.68200 28.88200
C  0.86800 7.91000 30.24300
C  0.61600 6.37900 29.87100
C  0.58900 6.54600 28.29500
C  1.76000 5.39900 30.29400
C  -0.17600 8.56900 31.15500
C  0.09400 8.61600 32.70400
H  1.28500 7.95300 33.35300
N  0.18100 6.16900 25.23900
C  0.22700 5.15400 26.11900
C  0.01400 3.88200 25.46400
C  0.01000 4.19100 24.03000
C  0.23600 5.66200 23.96000
C  -0.00900 2.57500 26.26400
C  -0.04300 3.21100 22.79200
O  0.09500 3.57800 21.61000
C  -0.29800 1.71600 23.12500
N  0.73300 8.76400 23.62800
C  0.66700 7.82400 22.62600
C  0.74500 8.50100 21.25400
C  0.74900 9.94700 21.62800
C  0.78600 9.97100 23.13800
C  1.84500 8.00200 20.27700
C  -0.30900 10.82700 20.97200
C  -1.67500 10.98300 21.68300
N  0.84900 10.24900 26.20800
C  1.22500 11.20700 25.30700
C  1.70300 12.36800 26.05300
C  1.64100 11.95500 27.39000
C  1.21000 10.62500 27.39500
C  2.11200 13.65100 25.33900
C  1.98300 12.36600 28.72400
O  2.38400 13.39400 29.16900
C  1.60500 11.08600 29.63200
C  2.81100 10.77400 30.53500
O  3.69100 9.99300 30.32400
O  2.80100 11.62900 31.68000
C  3.87100 11.48700 32.62500
H  -0.05200 4.57100 28.12300
H  0.24400 5.78900 21.94000
H  1.39800 11.91900 23.21700
H  1.83500 8.02100 30.73200
H  -0.38000 6.00600 30.11200
H  2.49900 5.90500 30.91500
H  2.18600 4.88500 29.43200
H  1.33300 4.64500 30.95500
H  -1.04500 7.95200 30.92600
H  -0.36800 9.57500 30.78100
H  -0.83500 8.22600 33.12100
H  0.16500 9.67400 32.95300
H  -1.03600 2.31800 26.52800
H  0.50000 2.76500 27.20900
H  0.44800 1.72100 25.76400
H  0.62800 1.34400 23.56300
H  -0.35100 1.15400 22.19200
H  -1.20600 1.50400 23.69000
H  -0.21700 8.28700 20.79000
H  1.67600 10.46500 21.38100
H  2.60600 7.51500 20.88700
H  2.31100 8.87400 19.81700
H  1.67500 7.30700 19.45500
H  -0.44700 10.50100 19.94100
H  0.19500 11.78100 20.81500
H  -1.73200 10.22600 22.46600
H  -2.52000 11.09300 21.00400
H  -1.55100 11.98600 22.09200
H  3.18500 13.79400 25.21700
H  1.85100 14.44200 26.04100
H  1.51100 13.72300 24.43300
H  0.74900 11.49600 30.16800
H  4.77500 11.24300 32.06600
H  3.68400 10.62000 33.25800
H  4.10500 12.39800 33.17500
Mg 5.66700 54.50300 40.93300
C  4.94000 51.04300 40.80000
C  9.05900 53.76600 40.72500
C  6.20900 57.76900 40.68500
C  2.15300 55.12000 41.19200
N  6.80000 52.69400 40.61800
C  6.35400 51.37200 40.69400
C  7.54500 50.40400 40.81400
C  8.68500 51.39400 41.28600
C  8.17400 52.71100 40.82600
C  9.15200 51.31100 42.77100
C  7.82800 49.74700 39.38300
C  7.73600 50.69100 38.16000
H  6.65000 50.29700 37.12600
N  7.41800 55.65800 40.59100
C  8.69000 55.14800 40.50100
C  9.55300 56.29300 40.38800
C  8.81300 57.54100 40.34500
C  7.40900 57.01900 40.56700
C  11.09800 56.15400 40.33100
C  9.30700 58.92600 40.13300
O  10.52500 59.02800 40.13900
C  8.39500 60.14800 39.97700
N  4.36000 56.25800 41.01400
C  4.80400 57.49700 40.87800
C  3.59800 58.55300 41.02400
C  2.34900 57.63100 41.18900
C  2.97300 56.26400 41.06500
C  3.84100 59.48700 42.23100
C  1.14600 57.91800 40.18000
C  -0.31000 58.07900 40.75200
N  3.85100 53.44900 40.81500
C  2.53500 53.76200 41.11500
C  1.69900 52.54800 41.24300
C  2.62000 51.52200 41.23800
C  3.90200 52.08300 40.92800
C  0.21900 52.46200 41.43400
C  2.78000 50.12000 41.44800
O  1.92700 49.31400 41.85100
C  4.24300 49.75700 41.06100
C  4.13400 48.84500 39.86100
O  3.45700 48.95100 38.84600
O  4.88000 47.68800 40.11400
C  5.00700 46.54500 39.17400
H  10.14200 53.64000 40.78700
H  6.42800 58.83000 40.82700
H  1.08700 55.34500 41.26500
H  7.34500 49.63200 41.55700
H  9.54100 50.97900 40.75400
H  10.16100 50.90900 42.68000
H  8.46900 50.93600 43.53400
H  9.29400 52.36000 43.03200
H  7.12300 48.92800 39.24400
H  8.84500 49.35500 39.34700
H  8.75700 50.57700 37.79600
H  7.66700 51.76500 38.33100
H  11.49500 56.43900 39.35700
H  11.52200 55.15600 40.22200
H  11.60800 56.64300 41.16000
H  9.04100 60.94600 39.61200
H  8.09700 60.53400 40.95200
H  7.55200 59.95800 39.31300
H  3.37500 59.18600 40.16600
H  1.90400 57.73300 42.17800
H  4.90900 59.40800 42.43300
H  3.22600 59.31600 43.11500
H  3.61800 60.50400 41.90700
H  1.13800 57.18200 39.37700
H  1.43900 58.79800 39.60900
H  -0.99200 57.34400 40.32400
H  -0.69800 59.09300 40.65600
H  -0.26800 57.85900 41.81800
H  0.02900 51.38900 41.41700
H  -0.25700 52.87200 40.54400
H  -0.10300 52.82400 42.41100
H  4.67400 49.12800 41.84000
H  4.10400 45.94500 39.05600
H  5.61000 45.85300 39.76300
H  5.64800 46.58800 38.29400

