158

Mg 6.60700 56.88700 41.39300
C  4.93700 53.70100 41.74200
C  9.23500 55.25600 40.20400
C  8.07300 59.92900 40.79000
C  3.56600 58.45200 42.36000
N  6.91500 54.70100 40.86800
C  6.17700 53.62300 41.09800
C  6.86800 52.38300 40.80500
C  8.29500 52.85300 40.47700
C  8.16300 54.35000 40.48600
C  9.45500 52.32100 41.28800
C  6.29500 51.60200 39.60200
C  6.90100 50.22500 39.30200
H  6.11400 49.38900 38.26100
N  8.44800 57.48200 40.46700
C  9.36900 56.59000 40.02500
C  10.49000 57.33800 39.47400
C  10.15500 58.76400 39.57100
C  8.83900 58.77700 40.33600
C  11.66100 56.72500 38.75300
C  10.90900 59.94100 39.08000
O  12.01700 59.76900 38.61800
C  10.46500 61.41500 39.13400
N  5.97300 58.85800 41.53600
C  6.74400 59.96900 41.26600
C  6.12700 61.22400 41.82400
C  4.65500 60.82600 42.18900
C  4.69300 59.25700 42.07500
C  6.88600 61.93600 42.95500
C  3.50000 61.40400 41.29400
C  2.45200 62.28600 42.04400
N  4.62700 56.23300 41.89900
C  3.50800 57.03500 42.27800
C  2.49100 56.12800 42.70900
C  3.02900 54.83900 42.59500
C  4.35800 54.98000 42.04100
C  1.19300 56.41800 43.23400
C  2.73400 53.48700 42.94600
O  1.81900 52.94400 43.49700
C  4.04300 52.64800 42.51800
C  3.51900 51.53400 41.75800
O  2.79600 51.63300 40.79500
O  3.78500 50.35900 42.40100
C  3.63700 49.10200 41.58900
H  10.24200 54.84600 40.10600
H  8.42800 60.95700 40.69200
H  2.72000 59.06700 42.67300
H  6.88500 51.80400 41.72800
H  8.44500 52.56400 39.43700
H  9.86400 53.13400 41.88700
H  10.23400 52.06300 40.57000
H  9.16300 51.55900 42.01000
H  6.36500 52.12600 38.64900
H  5.23700 51.50000 39.84500
H  6.86000 49.73300 40.27400
H  7.96000 50.30900 39.06200
H  11.68100 56.87400 37.67300
H  11.65400 55.64200 38.87600
H  12.64100 57.01200 39.13300
H  10.33900 61.74700 40.16400
H  9.52800 61.56900 38.59800
H  11.27400 61.93800 38.62500
H  6.00300 61.95200 41.02200
H  4.35700 61.01800 43.21900
H  6.30000 62.08900 43.86100
H  7.00800 62.95800 42.59700
H  7.88000 61.49100 42.99900
H  2.83500 60.62800 40.91400
H  3.83600 61.93300 40.40200
H  2.55200 63.26200 41.57000
H  2.69000 62.38100 43.10300
H  1.44800 61.87100 41.94800
H  1.20100 56.18000 44.29700
H  0.53800 55.65900 42.80400
H  0.81700 57.42700 43.06800
H  4.56700 52.27100 43.39600
H  4.64900 48.69700 41.56900
H  3.29200 49.05600 40.55700
H  3.07900 48.37200 42.17600
Mg 8.61700 48.08500 25.31000
C  6.54200 47.97600 28.06700
C  11.10700 49.37800 27.24700
C  10.68200 48.20500 22.49700
C  5.94000 47.41400 23.25100
N  8.72400 48.64100 27.40100
C  7.81500 48.40600 28.36100
C  8.38700 48.90300 29.73000
C  9.66700 49.74600 29.35100
C  9.88700 49.29100 27.90500
C  9.38100 51.31800 29.49500
C  8.69400 47.72600 30.80200
C  8.05300 47.92600 32.18400
H  8.38300 46.76200 33.21800
N  10.69100 48.64500 24.97000
C  11.53000 49.05700 25.90300
C  12.79000 49.17900 25.30900
C  12.75500 48.67200 23.96200
C  11.34500 48.50500 23.72800
C  14.04200 49.50400 26.09600
C  13.89600 48.39000 22.92400
O  13.70000 47.96900 21.79700
C  15.36300 48.64300 23.24900
N  8.33900 47.99100 23.17500
C  9.28700 48.04300 22.22200
C  8.70000 47.83700 20.81600
C  7.26200 47.29400 21.22400
C  7.11300 47.66800 22.63000
C  8.67000 49.03200 19.86300
C  7.07800 45.75100 20.86800
C  5.78900 45.39500 20.14700
N  6.66100 47.74500 25.54400
C  5.73100 47.40400 24.61800
C  4.45300 47.13900 25.34000
C  4.69800 47.37300 26.69200
C  6.09400 47.69900 26.80500
C  3.18700 46.70000 24.67700
C  4.09100 47.31500 28.03300
O  3.01400 47.00300 28.46000
C  5.30200 47.69400 29.02100
C  5.54100 46.55100 30.01400
O  6.17800 45.55800 29.83400
O  4.71100 46.77300 31.14600
C  4.92200 45.78400 32.24000
H  11.93400 49.75100 27.85500
H  11.31600 47.96900 21.63900
H  5.20300 46.88200 22.64600
H  7.53600 49.48200 30.09000
H  10.54300 49.46500 29.93500
H  9.31400 51.67900 28.46900
H  10.27500 51.69500 29.99100
H  8.55200 51.59400 30.14700
H  9.77900 47.62700 30.84300
H  8.32800 46.85200 30.26400
H  6.97300 47.94400 32.04200
H  8.35600 48.87300 32.63100
H  13.83600 49.62400 27.15900
H  14.64300 50.34800 25.75700
H  14.61000 48.57800 26.00500
H  15.39000 49.62600 23.72000
H  15.90200 48.60800 22.30200
H  15.65700 47.84400 23.93000
H  9.19100 47.02500 20.28100
H  6.48500 47.78700 20.63900
H  7.66200 49.44300 19.79500
H  9.08000 48.66900 18.92100
H  9.37400 49.78500 20.21700
H  7.05600 45.23400 21.82700
H  7.94500 45.29500 20.39000
H  5.98900 45.24900 19.08500
H  5.03800 46.16900 20.30300
H  5.21800 44.54900 20.53000
H  3.42200 46.08400 23.80900
H  2.48200 47.51300 24.50200
H  2.69800 46.13700 25.47300
H  5.07800 48.60900 29.57100
H  3.92100 45.42600 32.48000
H  5.33300 46.22400 33.14900
H  5.54700 44.91600 32.03200

