158

Mg 9.17500 4.26100 27.65100
C  10.62400 2.86800 30.43500
C  7.36400 6.38100 29.72900
C  8.04900 5.68800 25.04000
C  10.68500 1.68100 25.68300
N  8.92700 4.45900 29.84600
C  9.72800 3.93000 30.80600
C  9.57200 4.49400 32.17300
C  8.40300 5.56200 31.94200
C  8.11500 5.43700 30.40200
C  7.19100 5.30000 32.87200
C  10.85500 4.94500 32.96700
C  10.74600 5.86200 34.13900
H  11.68500 5.68100 35.32500
N  7.80900 5.74100 27.41200
C  7.20200 6.54100 28.33200
C  6.43700 7.50300 27.68100
C  6.74100 7.42900 26.31200
C  7.58900 6.23900 26.19600
C  5.52000 8.43100 28.37900
C  6.33900 8.36100 25.13900
O  6.55700 8.09100 23.98900
C  5.66400 9.63900 25.40500
N  9.20200 3.66200 25.63700
C  8.67400 4.47300 24.71600
C  8.98100 3.98400 23.22500
C  9.96100 2.82100 23.57300
C  9.88300 2.64800 25.02900
C  7.67700 3.61000 22.40300
C  11.35500 3.27600 22.91300
C  12.11900 2.22200 22.18600
N  10.40000 2.59600 27.94100
C  10.90200 1.63300 27.10600
C  11.68600 0.64800 27.85500
C  11.66600 1.14200 29.17600
C  10.82700 2.29800 29.17200
C  12.36300 -0.54800 27.34000
C  12.17500 1.00800 30.53400
O  13.01300 0.19600 30.93300
C  11.54300 2.12000 31.38100
C  10.86800 1.38800 32.50700
O  9.77900 0.81400 32.51500
O  11.69400 1.46500 33.64400
C  11.26300 1.18700 35.03700
H  6.78900 7.04200 30.38100
H  7.74800 6.12400 24.08600
H  11.20100 0.93800 25.07100
H  9.18000 3.61300 32.67900
H  8.88500 6.52500 32.10800
H  6.35600 4.95500 32.26100
H  6.83700 6.21000 33.35500
H  7.49400 4.68900 33.72200
H  11.38000 5.50600 32.19400
H  11.39000 4.11000 33.41900
H  9.69700 5.84600 34.43500
H  10.95900 6.84300 33.71300
H  5.95100 9.39800 28.63800
H  5.33400 8.10400 29.40200
H  4.57700 8.46100 27.83300
H  5.73400 10.37100 24.60000
H  6.28400 10.04600 26.20300
H  4.62300 9.33100 25.50300
H  9.56000 4.80900 22.80900
H  9.53100 1.92300 23.13100
H  6.85000 4.08100 22.93400
H  7.52500 2.54900 22.20300
H  7.79000 4.06100 21.41700
H  11.97700 3.71200 23.69500
H  11.23400 3.96700 22.07900
H  11.57100 1.28400 22.26700
H  13.06000 2.06400 22.71300
H  12.33100 2.35800 21.12500
H  12.11300 -1.33400 28.05200
H  13.43000 -0.37600 27.19800
H  12.00900 -0.81700 26.34400
H  12.29000 2.83900 31.71900
H  11.80000 1.78800 35.77100
H  11.27300 0.11700 35.24500
H  10.24500 1.50300 35.26800
Mg -9.03600 40.38200 39.20200
C  -9.01900 37.05100 38.23600
C  -5.76400 40.74100 38.11100
C  -9.49400 43.78300 39.23700
C  -12.47800 40.00200 39.89300
N  -7.63100 39.11400 38.21900
C  -7.81000 37.74800 38.07600
C  -6.44300 37.12000 37.58500
C  -5.38600 38.21100 38.01100
C  -6.28500 39.44300 38.14100
C  -4.50000 37.86300 39.27600
C  -6.36600 36.63400 36.11300
C  -6.87300 37.59500 35.01600
H  -7.85500 37.13900 33.97400
N  -7.85900 42.02800 38.74600
C  -6.53800 41.95100 38.40500
C  -6.07700 43.29500 38.25300
C  -7.09100 44.23600 38.40800
C  -8.18600 43.34400 38.83400
C  -4.70100 43.60900 37.96300
C  -7.04300 45.76500 38.31000
O  -6.06600 46.34400 37.88100
C  -8.21400 46.73000 38.58900
N  -10.76600 41.73700 39.44600
C  -10.63900 43.03500 39.52300
C  -11.92100 43.78000 39.96500
C  -12.84600 42.56800 40.25400
C  -12.04700 41.32400 39.73300
C  -11.77800 44.75400 41.19600
C  -14.35700 42.64300 39.82800
C  -15.46700 42.94300 40.95800
N  -10.44800 38.87900 39.12200
C  -11.85200 38.87500 39.48400
C  -12.34100 37.54300 39.35700
C  -11.26400 36.80100 38.85700
C  -10.17800 37.64800 38.71600
C  -13.66200 36.93500 39.73800
C  -10.80900 35.46200 38.53600
O  -11.38400 34.34600 38.51100
C  -9.27800 35.53100 38.22800
C  -8.42600 34.76600 39.24500
O  -8.42200 34.78300 40.47000
O  -7.60200 34.05800 38.48600
C  -6.49700 33.48000 39.23300
H  -4.70700 40.99100 38.00100
H  -9.62100 44.86800 39.26300
H  -13.47600 39.90200 40.32500
H  -6.47800 36.23600 38.22100
H  -4.71200 38.37800 37.17000
H  -4.70300 38.50500 40.13300
H  -3.43600 37.86300 39.03700
H  -4.74500 36.86200 39.63300
H  -6.96500 35.74300 35.92600
H  -5.32500 36.39000 35.89800
H  -5.98100 38.05000 34.58400
H  -7.40400 38.44000 35.45400
H  -4.49900 43.70900 36.89700
H  -3.98000 42.86100 38.29500
H  -4.34300 44.45200 38.55500
H  -8.66600 46.69900 39.58100
H  -8.86300 46.43900 37.76300
H  -7.94700 47.78100 38.47900
H  -12.29900 44.38300 39.14000
H  -12.86600 42.34100 41.32000
H  -12.33200 44.50100 42.10000
H  -12.11900 45.78000 41.05400
H  -10.74300 44.80600 41.53300
H  -14.59200 41.68900 39.35600
H  -14.47700 43.47200 39.13100
H  -16.22100 42.16100 41.05200
H  -15.92700 43.89800 40.70600
H  -14.88400 42.93000 41.87900
H  -14.18300 37.54300 40.47800
H  -13.50900 35.98200 40.24500
H  -14.22100 36.78200 38.81400
H  -9.03600 35.07800 37.26700
H  -5.91800 34.33000 39.59500
H  -5.86300 32.87900 38.58200
H  -6.88700 32.81600 40.00400

