158

Mg 35.43100 3.34500 29.17400
C  33.36600 4.19800 31.77600
C  38.09400 3.34600 31.26400
C  37.34800 3.04300 26.44600
C  32.70500 3.75200 26.89300
N  35.76000 3.45600 31.36600
C  34.67900 3.85300 32.24400
C  35.20200 3.78700 33.67800
C  36.77500 3.71900 33.45900
C  36.94700 3.42900 31.96100
C  37.50900 4.98300 33.88600
C  34.51000 2.51500 34.27900
C  34.14200 2.54000 35.77200
H  34.86900 3.63900 36.56700
N  37.43100 3.05400 28.94900
C  38.40800 3.12800 29.91600
C  39.71200 2.88000 29.30300
C  39.50200 2.77400 27.88700
C  38.04000 2.97000 27.70800
C  40.98100 2.87500 30.09700
C  40.45000 2.38800 26.73900
O  40.10600 2.27000 25.56100
C  41.82200 1.86700 27.10800
N  34.99100 3.08400 26.90800
C  36.03600 3.13000 26.07300
C  35.51400 2.98000 24.60800
C  33.96000 3.18800 24.76400
C  33.87200 3.44700 26.25400
C  36.20200 3.89100 23.51400
C  33.01100 2.09300 24.25300
C  31.92900 2.68400 23.34400
N  33.45900 3.80900 29.31300
C  32.47600 3.95400 28.28400
C  31.21000 4.32900 28.91300
C  31.51900 4.47700 30.28200
C  32.89600 4.17900 30.46100
C  29.96300 4.63600 28.13400
C  30.97500 4.78000 31.60500
O  29.86000 5.15500 31.89900
C  32.13700 4.42500 32.59300
C  32.31000 5.56900 33.53100
O  32.89700 6.63700 33.32100
O  31.80200 5.22200 34.76900
C  31.51800 6.26500 35.70500
H  38.99500 3.42300 31.87700
H  37.91700 3.00000 25.51500
H  31.89700 3.93200 26.18100
H  34.84900 4.72800 34.10000
H  37.19500 2.80300 33.87500
H  38.17700 5.43300 33.15200
H  38.21300 4.60000 34.62400
H  36.97100 5.74300 34.45400
H  35.04200 1.60300 34.00900
H  33.50000 2.34400 33.90600
H  34.59300 1.62600 36.15800
H  33.06200 2.60300 35.90100
H  40.89400 3.42100 31.03600
H  41.79100 3.31400 29.51400
H  41.23200 1.82400 30.24500
H  42.12100 1.14100 26.35200
H  41.88800 1.27000 28.01800
H  42.49200 2.72700 27.09500
H  35.70100 1.97700 24.22500
H  33.75100 4.11000 24.22000
H  36.49600 3.23700 22.69200
H  37.02200 4.44700 23.96800
H  35.59200 4.71000 23.13300
H  32.49800 1.70600 25.13400
H  33.62200 1.32100 23.78400
H  31.73500 1.94000 22.57200
H  32.15600 3.68600 22.97900
H  31.00300 2.80900 23.90600
H  29.85000 4.36300 27.08500
H  29.71500 5.69200 28.23700
H  29.19800 4.11300 28.70900
H  31.84900 3.49500 33.08300
H  32.20900 6.17700 36.54300
H  30.50100 6.03000 36.01900
H  31.43300 7.26400 35.27700
Mg 7.49300 52.95800 40.90700
C  6.95300 49.43500 40.87200
C  10.67100 52.22400 39.66500
C  7.98400 56.21300 40.51300
C  4.14900 53.48800 41.49700
N  8.63000 51.05800 40.32800
C  8.20700 49.74800 40.41200
C  9.29000 48.79400 39.88500
C  10.54500 49.68800 39.92600
C  9.88000 51.11600 39.85800
C  11.38400 49.44100 41.17700
C  9.05400 48.24500 38.48600
C  8.54200 49.20900 37.41800
H  8.03200 48.53200 36.14900
N  9.10700 54.10000 40.15000
C  10.32100 53.53200 39.84100
C  11.19600 54.68700 39.50700
C  10.47200 55.91300 39.82100
C  9.11800 55.41200 40.11700
C  12.60800 54.54100 38.90400
C  11.04800 57.29000 39.72000
O  12.06400 57.53200 39.04400
C  10.42600 58.43400 40.38700
N  6.17600 54.71000 40.76100
C  6.66100 55.93400 40.86700
C  5.65800 56.91400 41.47500
C  4.41800 56.00300 41.47400
C  4.89400 54.65400 41.28600
C  6.07500 57.48700 42.80400
C  3.32800 56.34000 40.34700
C  2.33900 57.38700 40.71100
N  5.86200 51.79300 41.15900
C  4.57800 52.12900 41.53500
C  3.82100 50.93000 41.82800
C  4.71800 49.83600 41.54900
C  5.95200 50.40800 41.17100
C  2.31300 50.84400 42.14300
C  4.82900 48.40600 41.54600
O  3.91400 47.66600 41.85600
C  6.35500 48.06000 41.12800
C  6.16400 47.19200 39.92800
O  5.83600 47.55400 38.86800
O  6.67400 45.88900 40.15400
C  6.56500 44.89600 39.08100
H  11.69500 52.02400 39.34400
H  8.06700 57.29400 40.64100
H  3.12300 53.60700 41.85300
H  9.32300 47.96600 40.59300
H  11.23900 49.64000 39.08700
H  12.39500 49.26200 40.81200
H  11.26200 48.45600 41.62600
H  11.35000 50.27300 41.88000
H  8.56400 47.27600 38.39300
H  10.08900 48.05300 38.20100
H  9.30400 49.94200 37.15100
H  7.75200 49.84300 37.82200
H  12.82400 55.02700 37.95300
H  12.93600 53.50200 38.88500
H  13.32300 55.02900 39.56600
H  9.68500 58.97500 39.79800
H  11.23800 59.12300 40.61800
H  9.94900 58.11700 41.31500
H  5.61400 57.74700 40.77400
H  3.97500 56.03300 42.47000
H  6.95800 56.94700 43.14800
H  5.30800 57.46900 43.57700
H  6.29000 58.55100 42.70600
H  2.82700 55.48800 39.88700
H  3.96300 56.84800 39.62100
H  2.20400 57.38100 41.79300
H  1.41200 57.33200 40.14000
H  2.64900 58.37300 40.36500
H  2.32700 50.57700 43.20000
H  1.84600 50.07000 41.53400
H  1.93400 51.86400 42.08700
H  6.85000 47.48900 41.91300
H  7.23000 45.08700 38.23800
H  5.52400 44.74900 38.79200
H  6.89400 43.95300 39.51800

