158

Mg 50.42000 46.03800 41.47700
C  47.41500 47.44800 40.52200
C  49.43600 43.04400 40.27300
C  53.62300 44.81000 42.00400
C  51.65400 49.20800 42.08500
N  48.69900 45.38200 40.31900
C  47.47300 46.06500 40.23400
C  46.27000 45.08500 39.87500
C  46.98000 43.72900 39.99700
C  48.49100 44.05600 40.25300
C  46.42800 42.65000 41.01100
C  45.70200 45.44700 38.50800
C  44.18700 45.01700 38.30400
H  44.00500 43.98900 37.14300
N  51.36100 44.15200 41.15300
C  50.72800 43.05700 40.72100
C  51.70900 42.00200 40.79100
C  52.98700 42.55700 41.03000
C  52.67400 43.89900 41.43100
C  51.33900 40.57700 40.19400
C  54.32900 41.85200 40.89400
O  54.38900 40.66100 40.61900
C  55.64300 42.56800 41.11100
N  52.40000 46.92700 42.04200
C  53.46400 46.14300 42.25500
C  54.66000 47.02800 42.61900
C  53.97800 48.39700 42.79800
C  52.56700 48.19400 42.25200
C  55.60800 46.53100 43.75400
C  54.80500 49.58800 42.21800
C  55.58300 50.53800 43.20400
N  49.76000 47.88700 41.27900
C  50.31200 49.07300 41.63700
C  49.38800 50.18000 41.56200
C  48.16700 49.58400 41.13100
C  48.47900 48.20900 41.02700
C  49.57100 51.59300 42.11700
C  46.76100 49.78000 40.89900
O  46.02500 50.73500 41.09300
C  46.28700 48.40800 40.38300
C  45.03600 47.89800 41.18600
O  44.96700 47.55600 42.35000
O  43.95900 48.00600 40.36500
C  42.72300 47.36100 40.92700
H  49.01700 42.04800 40.11500
H  54.62600 44.44700 42.23600
H  51.90900 50.22400 42.39200
H  45.50800 45.20200 40.64600
H  47.13600 43.21800 39.04700
H  46.34600 41.63500 40.62100
H  45.49600 43.00100 41.45300
H  47.20300 42.46800 41.75600
H  46.30600 44.99000 37.72400
H  45.91100 46.50100 38.32300
H  43.64700 45.93500 38.07200
H  43.84200 44.53100 39.21600
H  51.36700 40.70500 39.11200
H  50.33600 40.30100 40.52200
H  51.99400 39.76200 40.50400
H  56.04100 42.37300 42.10700
H  55.75800 43.63600 40.92700
H  56.38500 42.01700 40.53300
H  55.28200 47.01400 41.72400
H  53.90100 48.53100 43.87700
H  55.64500 47.13100 44.66300
H  56.63300 46.65500 43.40500
H  55.42700 45.52500 44.13400
H  54.13000 50.24600 41.67200
H  55.57300 49.21800 41.53900
H  55.44900 51.58700 42.94000
H  56.61700 50.20800 43.29500
H  55.12100 50.33700 44.17100
H  49.63700 52.25300 41.25100
H  50.49900 51.74400 42.66700
H  48.73200 51.97000 42.70300
H  46.02600 48.44800 39.32500
H  43.06600 46.40100 41.31400
H  42.11100 47.16400 40.04800
H  42.15700 47.93200 41.66300
Mg 35.29900 48.32400 25.82200
C  35.83400 46.45600 28.70600
C  34.06900 50.81000 27.76000
C  34.67800 49.99300 23.00800
C  36.25100 45.39800 23.90800
N  34.87400 48.50900 27.99200
C  35.38000 47.74800 29.01200
C  35.15400 48.38800 30.42000
C  34.29900 49.59000 30.05800
C  34.45300 49.65100 28.48400
C  32.85800 49.54100 30.62200
C  36.47800 48.63100 31.10200
C  36.41100 48.46700 32.69400
H  35.06200 48.59100 33.37000
N  34.62100 50.24500 25.44500
C  34.15100 51.13000 26.32400
C  33.94700 52.37000 25.68900
C  34.07300 52.13900 24.28200
C  34.38100 50.70800 24.19400
C  33.72100 53.62200 26.45000
C  33.90200 53.14900 23.09400
O  33.97000 52.82700 21.90400
C  33.59600 54.57000 23.40400
N  35.39200 47.75100 23.85700
C  35.16400 48.68300 22.82700
C  35.16000 48.01500 21.44600
C  35.99200 46.71900 21.77600
C  35.81300 46.57000 23.26500
C  33.75800 47.70700 20.84500
C  37.52000 46.89300 21.42700
C  38.08700 45.72400 20.62400
N  35.88200 46.33000 26.20900
C  36.30300 45.30400 25.33300
C  36.79200 44.23400 26.13800
C  36.62300 44.56300 27.47200
C  36.02300 45.87600 27.47200
C  37.40300 42.93800 25.69700
C  36.84100 44.14000 28.83500
O  37.20100 43.05800 29.28800
C  36.28500 45.30300 29.72200
C  35.26600 44.75700 30.60000
O  34.06800 44.75300 30.31100
O  35.72200 44.57100 31.84400
C  34.80200 44.42500 32.95500
H  33.67700 51.62200 28.37700
H  34.35100 50.49400 22.09400
H  36.80000 44.60600 23.39500
H  34.59800 47.67800 31.03100
H  34.67500 50.53100 30.46000
H  32.04800 49.45600 29.89800
H  32.57500 50.43500 31.17800
H  32.74800 48.73300 31.34600
H  36.89200 49.53500 30.65400
H  37.13200 47.84600 30.72400
H  36.96400 49.29000 33.14700
H  36.84600 47.51400 32.99200
H  34.48600 54.31400 26.09800
H  33.81300 53.42700 27.51800
H  32.76200 54.05600 26.17000
H  33.62900 55.21400 22.52600
H  34.32500 54.88200 24.15200
H  32.57900 54.45000 23.78000
H  35.64400 48.68000 20.73000
H  35.53700 45.81800 21.36500
H  33.72000 46.61900 20.80500
H  33.53400 48.15600 19.87700
H  32.93600 48.02000 21.48800
H  38.09100 46.85900 22.35500
H  37.64600 47.90100 21.03200
H  37.59100 45.71800 19.65300
H  37.81800 44.75800 21.05000
H  39.14400 45.97400 20.52800
H  36.71100 42.09600 25.69300
H  38.30500 42.67600 26.25000
H  37.73800 43.03800 24.66500
H  37.13300 45.55000 30.36100
H  35.24800 45.08000 33.70400
H  34.91700 43.39000 33.27500
H  33.73800 44.63200 32.83900

