158

Mg 0.84900 -1.23000 43.53300
C  4.31300 -0.85800 42.75100
C  0.25300 1.60500 41.75500
C  -2.50000 -1.97200 43.68800
C  1.55300 -4.34500 44.81400
N  2.17400 0.18600 42.43000
C  3.53900 0.22800 42.29000
C  4.03500 1.46800 41.48100
C  2.69500 2.26600 41.34400
C  1.62700 1.27200 41.82400
C  2.73900 3.57300 42.12700
C  4.77000 1.00100 40.07200
C  5.88300 2.06000 39.68300
H  5.62600 2.77100 38.34200
N  -0.84700 -0.22400 42.90000
C  -0.87800 0.94700 42.25100
C  -2.23800 1.30800 42.05100
C  -3.07900 0.34300 42.59400
C  -2.15700 -0.71200 43.15000
C  -2.65700 2.56200 41.42100
C  -4.59200 0.37700 42.63600
O  -5.23200 1.25300 42.09800
C  -5.37800 -0.57300 43.45600
N  -0.29500 -2.85200 44.21200
C  -1.66800 -2.97800 44.11500
C  -2.16800 -4.40200 44.35000
C  -0.84400 -5.22100 44.61800
C  0.23000 -4.07900 44.52800
C  -3.25400 -4.49900 45.51700
C  -0.54900 -6.41300 43.56100
C  -0.83900 -7.76400 44.16400
N  2.53000 -2.37300 43.93800
C  2.63800 -3.60600 44.55400
C  4.00400 -3.97500 44.51000
C  4.65300 -2.87400 43.86300
C  3.74700 -1.96500 43.50400
C  4.57300 -5.33300 45.02700
C  6.03600 -2.33200 43.52400
O  7.16300 -2.89700 43.53900
C  5.81000 -0.99700 42.84700
C  6.60200 0.04800 43.57100
O  6.42000 0.36200 44.73400
O  7.55800 0.52900 42.79000
C  8.59600 1.41900 43.43400
H  0.13000 2.61600 41.36100
H  -3.52700 -2.34300 43.69300
H  1.82000 -5.29600 45.27900
H  4.68800 1.99100 42.17900
H  2.46800 2.34300 40.28100
H  2.10800 3.50600 43.01400
H  2.58300 4.44800 41.49500
H  3.75700 3.78300 42.45400
H  4.01000 0.83000 39.30900
H  5.27000 0.05200 40.26900
H  6.88700 1.63600 39.68700
H  5.92300 2.86700 40.41500
H  -2.86200 2.29600 40.38400
H  -1.90200 3.34600 41.47200
H  -3.54300 2.95300 41.92000
H  -6.39300 -0.17500 43.47100
H  -5.03600 -0.68800 44.48400
H  -5.35600 -1.47700 42.84700
H  -2.68400 -4.73000 43.44700
H  -0.72600 -5.51500 45.66100
H  -3.57300 -3.52600 45.89100
H  -2.82700 -5.18800 46.24500
H  -4.10100 -5.05500 45.11500
H  0.50900 -6.42600 43.29900
H  -1.14500 -6.29500 42.65500
H  0.12800 -8.26400 44.11300
H  -1.50300 -8.45900 43.64900
H  -1.25200 -7.69800 45.17100
H  4.85900 -6.13600 44.34800
H  3.91700 -5.73200 45.80100
H  5.50300 -4.94800 45.44500
H  6.31400 -1.11100 41.88800
H  9.55800 1.10500 43.03000
H  8.66000 1.38500 44.52200
H  8.27700 2.42200 43.15300
Mg 23.93900 -6.71600 47.05100
C  26.51600 -4.59300 45.93600
C  21.86300 -5.29400 44.63700
C  21.73300 -9.33600 47.31000
C  26.35500 -8.48500 48.75300
N  24.18300 -4.98700 45.55400
C  25.34500 -4.30700 45.28800
C  25.11400 -3.39000 44.07900
C  23.55100 -3.60300 43.70100
C  23.13700 -4.70100 44.69200
C  22.72800 -2.28700 43.73200
C  26.11400 -3.67800 42.87200
C  27.11000 -2.48700 42.54300
H  27.05900 -1.78500 41.23300
N  22.06100 -7.17600 46.20200
C  21.35900 -6.39600 45.33600
C  20.02000 -6.98200 45.03400
C  19.97500 -8.18400 45.79700
C  21.24600 -8.26400 46.54600
C  19.01200 -6.30800 44.08200
C  18.71900 -9.08700 45.91900
O  17.62700 -8.87800 45.40700
C  18.80300 -10.37600 46.77400
N  24.00000 -8.65600 47.76400
C  22.98500 -9.50700 47.93300
C  23.31100 -10.73300 48.87500
C  24.83500 -10.41700 49.32500
C  25.08000 -9.05300 48.62600
C  22.30100 -10.81200 50.07100
C  25.75200 -11.62300 49.03100
C  26.68700 -12.14300 50.19300
N  25.96600 -6.57200 47.44800
C  26.83300 -7.33700 48.20000
C  28.12200 -6.71800 48.23700
C  28.03300 -5.67100 47.33900
C  26.74200 -5.61500 46.88900
C  29.37600 -7.07700 49.05100
C  28.76200 -4.52900 46.77800
O  29.89000 -4.09500 46.98500
C  27.82800 -3.74000 45.77400
C  27.60400 -2.38200 46.41000
O  26.82400 -2.10700 47.33100
O  28.28500 -1.38600 45.78400
C  27.88600 0.05100 46.12000
H  21.17000 -4.75100 43.99100
H  21.07200 -10.14800 47.62100
H  27.03800 -8.94700 49.46900
H  25.21900 -2.33200 44.32400
H  23.37100 -3.99500 42.70000
H  23.40100 -1.49100 43.41500
H  22.43400 -2.20300 44.77900
H  21.92300 -2.42300 43.00900
H  25.70400 -3.97100 41.90600
H  26.72500 -4.54500 43.12600
H  28.12900 -2.86100 42.63800
H  27.02500 -1.81500 43.39700
H  19.15100 -5.22800 44.02100
H  17.96800 -6.46600 44.35200
H  19.16900 -6.90500 43.18300
H  18.95400 -10.08200 47.81300
H  19.66700 -10.88300 46.34400
H  17.91700 -11.01100 46.75100
H  23.25500 -11.65000 48.28800
H  24.83900 -10.06000 50.35500
H  21.52800 -10.04400 50.07400
H  22.80700 -10.75000 51.03500
H  21.76700 -11.76100 50.01000
H  26.47900 -11.34700 48.26800
H  25.16500 -12.46700 48.66800
H  27.63000 -11.59700 50.21000
H  26.74200 -13.23000 50.24900
H  26.13600 -11.77100 51.05800
H  30.02400 -6.20300 49.11100
H  29.69700 -7.95100 48.48500
H  29.15900 -7.48900 50.03600
H  28.19200 -3.70200 44.74700
H  27.99900 0.59200 45.18000
H  28.54000 0.49200 46.87200
H  26.85700 0.29900 46.38100

