158

Mg 47.11700 15.28900 28.53500
C  44.82100 15.22400 31.39000
C  48.92900 17.66300 30.41300
C  49.18400 15.60500 26.09400
C  44.72600 13.63600 26.68500
N  46.75800 16.45200 30.60700
C  45.91000 16.07000 31.63900
C  46.23900 16.80000 32.96000
C  47.31300 17.79600 32.44900
C  47.76100 17.25200 31.09300
C  46.83600 19.28300 32.43400
C  46.61600 15.92100 34.17000
C  46.85700 16.70100 35.48000
H  47.96100 16.21800 36.40400
N  48.88600 16.41700 28.33200
C  49.51400 17.18400 29.25700
C  50.84600 17.42900 28.72900
C  50.90500 16.92700 27.41800
C  49.68300 16.27900 27.20900
C  51.85100 18.37200 29.40600
C  52.04500 16.98700 26.45200
O  51.93400 16.58600 25.28700
C  53.31000 17.63100 26.90700
N  46.82300 14.92200 26.53000
C  47.93300 15.08000 25.73000
C  47.68200 14.40100 24.36700
C  46.37900 13.63800 24.67700
C  45.92200 14.05300 26.04200
C  47.65700 15.25800 23.09300
C  46.60500 12.10200 24.75900
C  46.45000 11.21400 23.43000
N  45.13800 14.55100 28.90100
C  44.37100 13.80800 28.07800
C  43.26300 13.19100 28.92000
C  43.43000 13.80000 30.13900
C  44.54700 14.57500 30.14000
C  42.14900 12.36700 28.36200
C  42.73500 13.95700 31.47600
O  41.65100 13.44100 31.87100
C  43.74300 14.76600 32.37700
C  43.07900 15.85700 33.13200
O  42.59300 16.83500 32.59100
O  43.06100 15.62200 34.45300
C  42.06900 16.42400 35.16600
H  49.55800 18.32800 31.01000
H  49.83500 15.51000 25.22200
H  44.10200 12.95500 26.10300
H  45.29400 17.29300 33.19100
H  48.15800 17.90900 33.12800
H  46.93100 19.66900 31.41900
H  47.42800 19.81000 33.18200
H  45.80000 19.46000 32.72400
H  47.36600 15.16200 33.94800
H  45.83600 15.23600 34.50400
H  46.02100 16.63000 36.17500
H  46.97900 17.73700 35.16200
H  51.92300 19.31400 28.86300
H  52.80500 17.87800 29.59200
H  51.60200 18.60400 30.44200
H  53.98600 17.52800 26.05800
H  53.76600 17.15200 27.77400
H  53.12600 18.66800 27.18600
H  48.52200 13.74700 24.13400
H  45.58400 13.80800 23.95200
H  46.77500 14.92900 22.54400
H  48.49400 15.09700 22.41300
H  47.48200 16.32600 23.22600
H  45.97000 11.70400 25.55100
H  47.57500 11.99300 25.24500
H  46.14400 11.75800 22.53600
H  45.77500 10.38100 23.62800
H  47.41900 10.72100 23.35200
H  42.11900 11.53100 29.06000
H  42.45000 11.91600 27.41600
H  41.22300 12.93300 28.26000
H  44.18200 14.01700 33.03600
H  41.92200 15.84500 36.07800
H  41.16600 16.60000 34.58100
H  42.53800 17.34400 35.51700
Mg -9.48400 40.65600 43.62400
C  -8.04700 37.49400 42.90200
C  -6.94000 42.19300 41.86100
C  -11.17300 43.49800 43.77700
C  -12.23700 38.85500 45.03400
N  -7.88400 39.92100 42.28300
C  -7.44800 38.58300 42.19200
C  -6.31600 38.55300 41.25000
C  -5.62100 39.96200 41.58100
C  -6.91300 40.77400 41.95400
C  -4.55600 39.98000 42.64000
C  -6.71900 38.38400 39.76200
C  -6.32400 37.04300 39.16000
H  -5.24500 37.09400 38.12400
N  -9.14100 42.50300 42.81900
C  -8.02400 42.97000 42.18700
C  -8.12500 44.39800 41.93400
C  -9.37000 44.83500 42.41600
C  -9.94400 43.63400 43.07800
C  -7.14200 45.24300 41.22400
C  -9.85600 46.37400 42.38100
O  -9.24500 47.26200 41.81800
C  -11.23200 46.68100 42.92600
N  -11.37200 41.10900 44.26600
C  -11.78900 42.34300 44.30600
C  -13.10900 42.47400 45.13200
C  -13.52700 40.99400 45.42900
C  -12.31400 40.24900 44.87700
C  -12.92600 43.43200 46.33900
C  -14.77400 40.50700 44.64900
C  -15.82600 39.64400 45.37200
N  -10.00800 38.62100 44.07900
C  -11.06500 38.04400 44.73500
C  -10.96200 36.63900 44.68400
C  -9.69400 36.36500 44.19800
C  -9.23500 37.59900 43.66100
C  -12.02200 35.71400 45.14800
C  -8.80000 35.31700 43.84100
O  -8.84900 34.05600 43.99300
C  -7.70300 36.03000 42.87200
C  -6.27700 35.77400 43.35300
O  -5.66500 36.36000 44.23500
O  -5.72200 34.82400 42.56800
C  -4.31500 34.50200 42.68900
H  -6.01300 42.67900 41.55000
H  -11.69700 44.45600 43.80600
H  -13.02200 38.27900 45.52900
H  -5.62000 37.75500 41.50600
H  -5.10400 40.42500 40.74100
H  -4.76400 40.83400 43.28500
H  -3.56600 40.10400 42.20400
H  -4.52800 39.15800 43.35600
H  -6.33000 39.18700 39.13600
H  -7.80900 38.37300 39.75400
H  -7.24200 36.77500 38.63600
H  -6.07700 36.29300 39.91200
H  -6.35600 44.67300 40.72800
H  -6.74100 45.95200 41.94800
H  -7.65600 45.78100 40.42700
H  -11.39500 46.61400 44.00100
H  -12.00500 46.12700 42.39300
H  -11.36300 47.71700 42.61200
H  -13.88300 42.90400 44.49700
H  -13.57000 40.91600 46.51600
H  -13.57100 44.29700 46.18200
H  -11.88900 43.76000 46.41100
H  -13.23000 43.02500 47.30300
H  -14.52200 39.88400 43.79100
H  -15.34400 41.30900 44.17800
H  -16.15000 38.83700 44.71500
H  -16.67500 40.28600 45.60700
H  -15.44800 39.13700 46.25900
H  -12.88000 35.85500 44.49100
H  -12.27500 35.86000 46.19800
H  -11.67400 34.68800 45.02300
H  -7.85100 35.64400 41.86300
H  -4.11000 33.73500 41.94200
H  -4.07800 34.10000 43.67400
H  -3.61900 35.33500 42.59300

