158

Mg 35.59200 2.57300 30.07400
C  33.14900 3.63200 32.32800
C  37.86400 2.49800 32.70300
C  37.98800 2.11200 27.94000
C  33.40400 3.47800 27.46800
N  35.47200 3.07900 32.27900
C  34.39300 3.47700 32.95200
C  34.65200 3.59200 34.52800
C  36.27300 3.40000 34.64200
C  36.59700 2.89600 33.12600
C  37.22700 4.61400 34.89700
C  33.85000 2.61500 35.34900
C  33.53700 2.88400 36.88700
H  34.36600 4.01600 37.57100
N  37.61500 2.28400 30.35500
C  38.33900 2.21000 31.47000
C  39.71700 1.90200 31.21800
C  39.75400 1.73200 29.77600
C  38.41500 2.03900 29.31900
C  40.76500 1.59400 32.26000
C  40.93500 1.23300 28.92600
O  40.86500 1.09000 27.70600
C  42.31400 0.88900 29.55400
N  35.67900 2.83600 27.94800
C  36.79300 2.45300 27.28800
C  36.59400 2.52900 25.78900
C  35.09600 2.96500 25.60300
C  34.65600 3.05300 27.06700
C  37.66600 3.37600 24.99200
C  34.27100 1.95600 24.73800
C  33.62200 0.73700 25.39200
N  33.62100 3.23400 29.92300
C  32.83300 3.51500 28.77700
C  31.46700 3.76400 29.24200
C  31.50700 3.85500 30.62400
C  32.85800 3.53100 30.98600
C  30.37700 3.95500 28.31300
C  30.74700 4.21000 31.80900
O  29.56100 4.43100 31.95300
C  31.76500 4.02400 32.96600
C  31.78100 5.34600 33.64800
O  32.52300 6.25800 33.31900
O  30.77100 5.40100 34.57400
C  30.78800 6.62400 35.41600
H  38.55800 2.67500 33.52800
H  38.73300 1.82700 27.19300
H  32.60800 3.64600 26.73900
H  34.47600 4.64300 34.75600
H  36.47300 2.59400 35.34800
H  36.60900 5.49700 35.05600
H  37.84400 4.82000 34.02200
H  37.90100 4.36200 35.71600
H  34.29300 1.62700 35.47700
H  32.89200 2.43700 34.86000
H  33.61400 1.96800 37.47300
H  32.51900 3.26500 36.96000
H  41.80500 1.69400 31.95000
H  40.69200 0.61400 32.73200
H  40.69400 2.38200 33.01000
H  42.79100 0.37200 28.72100
H  42.21500 0.18200 30.37800
H  42.90000 1.79900 29.67900
H  36.78500 1.52500 25.40800
H  35.09500 4.02600 25.35300
H  38.35500 3.84800 25.69200
H  37.09300 4.11400 24.43000
H  38.24000 2.77300 24.28900
H  34.99500 1.60900 24.00100
H  33.62800 2.59000 24.12700
H  34.00700 0.71500 26.41200
H  34.00900 -0.13900 24.87200
H  32.53300 0.73300 25.35800
H  29.42400 4.16400 28.79800
H  30.28300 3.10200 27.64200
H  30.44000 4.87400 27.73100
H  31.29400 3.29900 33.63100
H  30.48500 7.51300 34.86300
H  31.71800 6.82300 35.94900
H  29.97100 6.52400 36.13000
Mg 6.73400 53.66100 40.55600
C  6.20300 50.19800 40.35700
C  10.03800 53.12100 39.75100
C  7.10500 57.02700 40.04700
C  3.22600 54.03100 40.81800
N  7.89600 51.86400 39.94200
C  7.45600 50.58700 40.01500
C  8.60600 49.63700 39.62000
C  9.86800 50.55300 39.89700
C  9.26400 51.99500 39.92300
C  10.80500 50.15900 41.09100
C  8.67700 49.10700 38.16300
C  8.07900 50.02800 36.97600
H  7.13700 49.43800 35.92800
N  8.42400 54.90500 40.00200
C  9.71600 54.51100 39.79800
C  10.51600 55.67100 39.62800
C  9.63600 56.83100 39.63300
C  8.28700 56.28600 39.89900
C  12.04500 55.60600 39.30000
C  10.09200 58.18900 39.36400
O  11.28100 58.48600 39.11300
C  9.16800 59.44700 39.53400
N  5.29700 55.30500 40.09900
C  5.83100 56.59400 40.27500
C  4.66000 57.57100 40.48700
C  3.40800 56.66200 40.57300
C  4.01000 55.22100 40.53300
C  4.85600 58.48200 41.77000
C  2.44400 56.91900 39.41500
C  1.47100 58.08300 39.63500
N  4.97600 52.42300 40.63500
C  3.66200 52.68500 40.77900
C  2.97000 51.51400 40.92500
C  3.86700 50.48500 40.82000
C  5.08800 51.08200 40.48600
C  1.50400 51.39000 41.19200
C  4.00100 49.06900 40.92000
O  3.18400 48.19400 41.19000
C  5.58300 48.80000 40.65400
C  5.59300 47.75900 39.58300
O  5.24800 47.94300 38.44600
O  5.80100 46.47700 40.10800
C  5.70300 45.43100 39.18500
H  11.10400 52.88700 39.72300
H  7.25800 58.10000 39.91600
H  2.18400 54.27700 41.02800
H  8.53200 48.82200 40.33900
H  10.46500 50.56500 38.98500
H  11.52300 49.36100 40.89900
H  10.08200 49.76500 41.80400
H  11.40300 51.00200 41.43900
H  8.33900 48.07200 38.21500
H  9.73400 49.10800 37.89700
H  8.91600 50.40500 36.38900
H  7.52800 50.89000 37.35200
H  12.17900 56.03100 38.30500
H  12.30200 54.55800 39.14800
H  12.72800 56.01600 40.04300
H  9.71400 60.37200 39.35000
H  8.86000 59.41600 40.57900
H  8.37200 59.41700 38.78900
H  4.60900 58.17200 39.58000
H  2.92000 56.76200 41.54300
H  5.83100 58.96700 41.73800
H  4.70500 57.89400 42.67600
H  4.14400 59.30400 41.69800
H  1.85400 56.00200 39.42800
H  3.03800 57.13800 38.52800
H  0.46600 57.66200 39.66500
H  1.68100 58.76800 38.81400
H  1.47600 58.59100 40.60000
H  1.12800 52.36700 41.49600
H  1.25000 50.73800 42.02800
H  0.98700 51.06200 40.29100
H  5.84300 48.35700 41.61500
H  6.11200 45.71700 38.21600
H  4.67700 45.08100 39.07400
H  6.30700 44.54700 39.39300

