158

Mg 48.88200 34.55000 26.62600
C  46.68800 33.28700 29.03200
C  49.09800 37.51700 28.46300
C  50.42700 35.94300 24.04600
C  48.01100 31.69600 24.65800
N  47.95800 35.28900 28.50600
C  47.24900 34.47800 29.39200
C  47.42000 35.03600 30.75100
C  47.77000 36.58000 30.39200
C  48.39200 36.49500 29.06800
C  46.53400 37.60600 30.39000
C  48.62800 34.44500 31.60100
C  48.52000 34.20400 33.08000
H  47.31900 34.94200 33.75200
N  49.84200 36.42200 26.39200
C  49.78300 37.52200 27.22900
C  50.72300 38.51100 26.73200
C  51.14800 38.05800 25.46100
C  50.44900 36.75000 25.27400
C  50.96900 39.70100 27.45900
C  52.11100 38.73300 24.57900
O  52.25900 38.47300 23.36300
C  52.81500 39.97600 25.11000
N  49.04300 33.88900 24.62700
C  49.76500 34.67100 23.78400
C  49.78300 34.01000 22.36400
C  49.36900 32.56000 22.69400
C  48.78000 32.71100 24.08800
C  48.76200 34.76100 21.38800
C  50.63500 31.55400 22.59700
C  50.68200 30.39900 21.57900
N  47.54200 32.79100 26.79800
C  47.36000 31.76100 25.92700
C  46.62100 30.74100 26.53600
C  46.21300 31.34100 27.74700
C  46.80400 32.56000 27.84200
C  46.28100 29.42100 25.97900
C  45.46800 31.16900 28.94000
O  44.67300 30.26900 29.19000
C  45.83400 32.34300 29.92100
C  46.53000 31.73400 31.08300
O  47.62000 31.19600 31.06700
O  45.76400 31.81400 32.18600
C  46.21000 31.15200 33.43100
H  49.09800 38.31800 29.20600
H  50.94300 36.37600 23.18600
H  48.10500 30.76300 24.10000
H  46.49300 34.98700 31.32300
H  48.50000 37.00400 31.08200
H  46.86600 38.41100 31.04700
H  45.67800 37.00200 30.69200
H  46.34900 37.97800 29.38300
H  49.41600 35.18800 31.47400
H  48.93500 33.51300 31.12700
H  49.33900 34.70700 33.59500
H  48.46100 33.14800 33.34200
H  50.65400 39.52900 28.48800
H  50.32600 40.50100 27.09100
H  51.95800 40.14300 27.57800
H  52.06500 40.72800 25.35900
H  53.38400 40.24200 24.21900
H  53.39600 39.72400 25.99700
H  50.76100 34.00400 21.88200
H  48.53500 32.32400 22.03400
H  47.75600 34.60200 21.77500
H  48.83300 34.27100 20.41600
H  48.97900 35.82700 21.45500
H  50.85400 31.02900 23.52700
H  51.52700 32.17400 22.51300
H  50.77900 29.42700 22.06400
H  51.53200 30.43600 20.89700
H  49.81000 30.45000 20.92700
H  46.40300 28.79400 26.86200
H  46.99000 29.17400 25.18900
H  45.28400 29.46100 25.54100
H  44.89400 32.78900 30.24600
H  47.28400 31.14200 33.61500
H  45.86500 30.11900 33.48100
H  45.71800 31.81700 34.14000
Mg 8.57300 48.11000 26.26700
C  7.01600 48.06600 29.23100
C  11.42000 49.54800 27.82200
C  10.33600 48.06200 23.27700
C  5.68900 47.45600 24.56700
N  9.20700 48.69300 28.32800
C  8.37900 48.31400 29.37000
C  9.07400 48.75400 30.70800
C  10.29300 49.69000 30.15100
C  10.38500 49.32200 28.74200
C  10.03500 51.20800 30.27700
C  9.48900 47.64300 31.67900
C  9.04900 47.94600 33.15800
H  8.85200 46.74900 34.10300
N  10.58900 48.58100 25.61200
C  11.58200 49.11100 26.46700
C  12.80800 49.12800 25.64900
C  12.50800 48.71600 24.37600
C  11.05400 48.43900 24.35800
C  14.15500 49.50300 26.26100
C  13.50400 48.58200 23.21100
O  13.14400 48.21900 22.03100
C  14.96700 48.77700 23.50800
N  8.13300 47.99600 24.21900
C  9.01200 47.82600 23.19700
C  8.28100 47.54900 21.89000
C  6.79200 47.30600 22.29200
C  6.88000 47.60500 23.78300
C  8.42700 48.66000 20.73600
C  6.31000 45.85700 21.92200
C  6.80000 44.66300 22.72400
N  6.64400 47.97500 26.73700
C  5.57700 47.69600 25.96500
C  4.35400 47.75600 26.77800
C  4.93000 47.84800 28.09000
C  6.31600 47.99600 28.01600
C  2.95400 47.49600 26.32000
C  4.58400 47.86000 29.50800
O  3.49500 47.86400 30.08800
C  5.97300 48.01500 30.29300
C  6.06800 46.81200 31.18600
O  6.80800 45.88100 31.00300
O  5.35000 47.08100 32.34700
C  5.22600 45.92000 33.24100
H  12.24100 50.09400 28.29200
H  10.83800 48.06500 22.30700
H  4.82300 47.00200 24.08000
H  8.37000 49.42800 31.19600
H  11.29600 49.47600 30.52200
H  9.70100 51.58300 29.31000
H  10.91900 51.80700 30.49400
H  9.27600 51.57500 30.96800
H  10.57500 47.72200 31.63300
H  9.19700 46.66100 31.30600
H  8.17100 48.58900 33.21100
H  9.88500 48.50000 33.58400
H  14.92300 48.74800 26.42500
H  13.90400 49.73900 27.29600
H  14.56200 50.42700 25.85000
H  15.55300 48.32000 22.71000
H  15.30300 48.30100 24.42900
H  14.93700 49.86500 23.56200
H  8.71900 46.71700 21.34000
H  6.04700 47.98400 21.87400
H  9.15700 49.37000 21.12600
H  7.47200 49.11300 20.47100
H  8.76800 48.12800 19.84800
H  6.70200 45.68300 20.92000
H  5.22600 45.96300 21.97900
H  7.56000 44.16400 22.12200
H  6.05200 43.89500 22.92300
H  7.20700 44.98800 23.68100
H  2.57900 48.28600 25.66900
H  2.36700 47.29000 27.21500
H  2.89300 46.59700 25.70700
H  5.94400 48.92800 30.88700
H  4.18600 45.63300 33.08500
H  5.43000 46.29300 34.24400
H  5.86200 45.06800 32.99800

