158

Mg 24.54300 -6.77200 46.66500
C  27.00800 -4.39800 46.21800
C  22.71000 -5.25900 44.12300
C  22.47400 -9.38300 46.64300
C  26.91800 -8.54800 48.71800
N  24.96400 -5.13800 45.16500
C  26.03500 -4.28500 45.29400
C  25.87300 -3.14900 44.30200
C  24.37900 -3.35100 43.85800
C  23.98000 -4.71700 44.39500
C  23.33300 -2.26800 44.24500
C  27.00800 -3.41400 43.16100
C  27.91500 -2.15900 42.94200
H  27.95700 -1.80100 41.43700
N  22.74100 -7.16500 45.70300
C  22.13800 -6.40300 44.64200
C  20.88000 -7.04200 44.32900
C  20.83500 -8.21500 45.13800
C  22.04100 -8.29900 45.85400
C  19.81800 -6.53100 43.34700
C  19.59300 -9.05800 45.21700
O  18.70200 -8.92900 44.39600
C  19.38400 -10.03400 46.41300
N  24.66400 -8.71000 47.43600
C  23.68300 -9.59900 47.34800
C  23.96300 -10.88300 48.13300
C  25.36300 -10.56000 48.73500
C  25.72700 -9.13600 48.27400
C  22.85600 -11.19500 49.25000
C  26.37700 -11.60400 48.35500
C  27.16600 -12.17300 49.61900
N  26.57500 -6.59500 47.40100
C  27.34300 -7.29700 48.27800
C  28.54600 -6.49000 48.63200
C  28.43700 -5.35400 47.76300
C  27.25800 -5.47400 47.09700
C  29.57300 -6.95100 49.65400
C  29.18000 -4.15000 47.46200
O  30.20300 -3.69200 47.86400
C  28.20700 -3.45300 46.34500
C  27.81000 -2.18100 46.86700
O  27.16500 -1.97300 47.87500
O  28.29700 -1.20400 46.07500
C  27.70500 0.13200 46.21800
H  22.11700 -4.69100 43.40400
H  21.83700 -10.25800 46.49900
H  27.52600 -9.12300 49.42100
H  26.01600 -2.22200 44.85600
H  24.31700 -3.34400 42.77000
H  23.88600 -1.36400 44.50100
H  22.68900 -2.54000 45.08200
H  22.70900 -2.03800 43.38200
H  26.52500 -3.73700 42.23900
H  27.67400 -4.21300 43.48700
H  28.95500 -2.26300 43.25100
H  27.58500 -1.27300 43.48500
H  18.91600 -6.46700 43.95500
H  19.63000 -7.13800 42.46100
H  20.12900 -5.54500 43.00200
H  18.31200 -10.14400 46.57900
H  19.86100 -9.58000 47.28200
H  19.95900 -10.93700 46.21100
H  24.08300 -11.66000 47.37700
H  25.19700 -10.27200 49.77300
H  22.33200 -12.12900 49.04500
H  22.16000 -10.36400 49.36600
H  23.37300 -11.13900 50.20800
H  27.14000 -11.25400 47.65900
H  25.80900 -12.48700 48.06300
H  26.49100 -12.41300 50.44100
H  27.83900 -11.36000 49.89100
H  27.66500 -13.07200 49.25700
H  29.83000 -7.98000 49.40400
H  29.19600 -6.86200 50.67300
H  30.49100 -6.36500 49.60900
H  28.66200 -3.33800 45.36100
H  27.46300 0.51800 45.22800
H  28.40400 0.86200 46.62600
H  26.75900 0.13800 46.75900
Mg 7.01300 54.25200 41.01600
C  6.78700 50.72900 40.69700
C  10.22000 54.11300 39.94400
C  6.96900 57.57500 40.75900
C  3.69300 54.22100 42.08100
N  8.28000 52.55700 40.27800
C  8.07400 51.23200 40.34800
C  9.38400 50.48300 40.18300
C  10.48800 51.61100 40.13900
C  9.58300 52.87300 40.08000
C  11.42600 51.64000 41.38200
C  9.38300 49.47300 39.03500
C  9.20100 50.14100 37.61200
H  8.01600 49.73400 36.77700
N  8.46700 55.70800 40.41300
C  9.71700 55.42300 40.09800
C  10.38400 56.70300 39.84400
C  9.42800 57.72900 39.91100
C  8.24900 57.03400 40.45400
C  11.90500 56.83000 39.56500
C  9.57000 59.26500 39.41500
O  10.68000 59.70300 39.10200
C  8.46500 60.24100 39.44000
N  5.53800 55.69700 41.33100
C  5.77000 57.03200 41.11800
C  4.52900 57.85600 41.32400
C  3.50900 56.80500 41.85400
C  4.22900 55.48000 41.76900
C  4.68600 59.20300 42.18700
C  2.26000 56.68400 40.90000
C  0.85500 56.87800 41.59000
N  5.47100 52.81800 41.34500
C  4.21900 52.94900 41.88600
C  3.71600 51.64900 42.28400
C  4.71100 50.71900 41.81600
C  5.65600 51.51600 41.17700
C  2.42400 51.35100 42.98700
C  5.08300 49.26500 41.79100
O  4.54200 48.27800 42.26100
C  6.39500 49.23700 40.97600
C  5.85300 48.57800 39.79800
O  5.12900 49.09900 38.87100
O  6.22800 47.22800 39.93700
C  5.55200 46.41300 38.95700
H  11.30100 54.13700 39.79400
H  6.85000 58.65700 40.67300
H  2.76500 54.04500 42.63000
H  9.45900 49.90000 41.10100
H  11.08000 51.55600 39.22500
H  12.37000 51.96900 40.94700
H  11.46400 50.64500 41.82400
H  11.29100 52.43900 42.11100
H  8.66400 48.68800 39.27000
H  10.36100 48.99200 39.03000
H  10.08600 49.95100 37.00400
H  9.11800 51.22700 37.65800
H  12.20500 56.97400 38.52700
H  12.48700 56.00500 39.97600
H  12.21700 57.70700 40.13300
H  7.71800 59.59900 38.97500
H  8.54000 61.17300 38.88000
H  8.24200 60.52800 40.46800
H  4.31000 58.21400 40.31800
H  3.19700 56.98400 42.88300
H  3.91000 59.27500 42.95000
H  4.58800 60.02800 41.48200
H  5.68500 59.16300 42.62300
H  2.32600 55.74300 40.35400
H  2.33500 57.49400 40.17400
H  0.55100 57.92000 41.49100
H  0.90100 56.46500 42.59800
H  0.17100 56.26800 41.00000
H  2.63400 51.03500 44.00900
H  1.93400 50.44100 42.64100
H  1.71900 52.17100 42.85200
H  7.11200 48.65600 41.55500
H  6.30100 46.25500 38.18100
H  4.53000 46.66200 38.67000
H  5.55400 45.44200 39.45300

