158

Mg 53.76800 23.87300 44.26600
C  50.78800 25.52700 43.44000
C  52.34800 21.05100 43.01100
C  56.76300 22.46600 44.23400
C  55.16800 26.97800 45.17800
N  51.84300 23.50300 43.23800
C  50.73800 24.25800 42.98100
C  49.61300 23.48000 42.33900
C  50.01500 21.94500 42.72900
C  51.57800 22.16000 43.03900
C  49.21800 21.17200 43.87600
C  49.50600 23.83400 40.82000
C  48.05700 24.01700 40.22000
H  47.83800 23.23900 38.88000
N  54.47300 21.99000 43.64900
C  53.71800 20.95400 43.26500
C  54.57000 19.74300 43.04800
C  55.88400 20.10200 43.50800
C  55.80800 21.55500 43.77900
C  54.12700 18.39500 42.35500
C  57.10400 19.25800 43.50600
O  56.98500 18.07700 43.19400
C  58.43500 19.72200 44.13800
N  55.67300 24.68900 44.42000
C  56.80500 23.83600 44.37500
C  58.13900 24.70400 44.42800
C  57.56800 26.02000 45.07400
C  56.07600 25.92100 44.90400
C  59.33800 24.15900 45.19100
C  58.11200 27.42200 44.66800
C  59.10200 28.03000 45.66100
N  53.19800 25.87900 44.32200
C  53.82000 26.98100 44.85700
C  52.73600 27.92300 45.12900
C  51.58200 27.44700 44.53100
C  51.91400 26.21000 44.01400
C  53.02400 29.21300 45.79300
C  50.23000 27.73200 44.35000
O  49.62200 28.73900 44.67000
C  49.64300 26.52100 43.44300
C  49.21100 27.05000 42.12200
O  50.00800 27.43200 41.28700
O  47.86600 27.21000 42.04000
C  47.25700 27.84900 40.84700
H  51.82900 20.14700 42.68500
H  57.78000 22.07000 44.21400
H  55.53200 27.77300 45.83200
H  48.74800 23.89600 42.85500
H  49.91300 21.34100 41.82700
H  48.60000 21.89900 44.40300
H  49.93900 20.74100 44.57100
H  48.60300 20.34800 43.51400
H  49.97700 23.03000 40.25600
H  50.12600 24.70700 40.61400
H  47.85700 25.08500 40.12600
H  47.27000 23.72300 40.91600
H  54.20800 18.50400 41.27400
H  53.11600 18.29200 42.75000
H  54.63000 17.46900 42.63400
H  58.93500 20.35900 43.40800
H  59.00600 18.82700 44.38800
H  58.19600 20.20600 45.08400
H  58.40700 24.86000 43.38300
H  57.63100 26.01300 46.16200
H  59.60300 24.89500 45.95000
H  60.11800 23.92800 44.46600
H  59.12900 23.22700 45.71800
H  57.30000 28.06300 44.32400
H  58.56600 27.29600 43.68500
H  59.99300 28.27200 45.08200
H  59.27500 27.35900 46.50200
H  58.55200 28.90600 46.00500
H  54.07900 29.28800 46.05600
H  52.50800 29.24300 46.75300
H  52.81400 29.96300 45.03100
H  48.78200 26.13900 43.99100
H  46.23100 27.50400 40.97400
H  47.62800 27.39400 39.92800
H  47.27900 28.92300 41.02700
Mg 8.78600 47.79600 26.65900
C  6.83300 47.44000 29.55200
C  11.51300 48.00700 28.82000
C  10.74600 47.98400 24.00600
C  5.91700 47.56000 24.74400
N  9.08000 47.81400 28.95600
C  8.14100 47.57600 29.95200
C  8.72100 47.64600 31.34000
C  10.22700 47.97100 31.07400
C  10.27600 47.92000 29.52900
C  10.78900 49.33700 31.74000
C  8.33900 46.48600 32.37400
C  9.40300 45.98800 33.40200
H  8.89200 45.49200 34.69500
N  10.84100 47.98100 26.46400
C  11.77300 48.02200 27.44700
C  13.11900 48.11100 26.86600
C  12.99200 48.17800 25.47000
C  11.49000 48.08400 25.25000
C  14.34500 48.12800 27.86100
C  13.99500 48.25200 24.33400
O  13.66700 48.56700 23.17100
C  15.46700 48.33700 24.77800
N  8.40900 47.86200 24.69900
C  9.36200 47.96400 23.76400
C  8.77600 48.15900 22.38500
C  7.27900 47.85500 22.59500
C  7.18300 47.73900 24.08400
C  9.16900 49.52300 21.55200
C  6.57200 46.72300 21.78400
C  5.70500 47.21000 20.59200
N  6.77700 47.68700 26.98900
C  5.73000 47.54500 26.10600
C  4.53900 47.43000 26.83700
C  4.90100 47.38600 28.19900
C  6.31400 47.54500 28.25100
C  3.09900 47.35600 26.28800
C  4.35500 47.20500 29.58800
O  3.19100 47.04700 29.96000
C  5.62400 47.24600 30.47600
C  5.55300 46.02000 31.30300
O  5.83800 44.89800 30.93600
O  5.14700 46.33500 32.53600
C  4.89000 45.23500 33.47900
H  12.33200 48.09800 29.53700
H  11.31400 48.14900 23.08800
H  4.95400 47.48600 24.23400
H  8.31800 48.54800 31.80200
H  10.96000 47.21200 31.34900
H  11.82700 49.14300 32.01100
H  10.22800 49.65200 32.62000
H  10.55300 50.04800 30.94800
H  8.13000 45.61300 31.75600
H  7.44300 46.81900 32.89800
H  10.16200 46.75100 33.56900
H  9.92300 45.15800 32.92300
H  15.14200 47.43000 27.60400
H  14.13800 47.78700 28.87500
H  14.76600 49.13000 27.77200
H  15.72000 47.38000 25.23500
H  15.49900 49.08400 25.57100
H  16.13000 48.48600 23.92600
H  9.22400 47.32700 21.84100
H  6.72400 48.78400 22.46400
H  9.13500 50.48600 22.06200
H  8.58600 49.56600 20.63200
H  10.21400 49.38700 21.27300
H  6.10200 46.05900 22.50900
H  7.35400 46.15300 21.28200
H  5.93300 48.24600 20.34400
H  4.63700 47.20900 20.81100
H  5.84900 46.53900 19.74500
H  2.54500 46.54700 26.76400
H  3.11700 47.18900 25.21100
H  2.51300 48.22200 26.59500
H  5.52000 47.99000 31.26600
H  3.82100 45.07700 33.62800
H  5.31100 45.29900 34.48200
H  5.49100 44.36400 33.21600

