158

Mg -12.67000 16.88700 42.06300
C  -9.74100 15.20500 41.49500
C  -11.63000 19.47400 40.22800
C  -15.89000 18.03900 42.21500
C  -14.03000 13.76900 43.32100
N  -10.91500 17.24700 40.87900
C  -9.79400 16.47100 40.88900
C  -8.63800 17.13600 40.09300
C  -9.10500 18.70300 40.02700
C  -10.68100 18.44500 40.28600
C  -8.56300 19.72000 41.05200
C  -8.25600 16.47700 38.73800
C  -6.72500 16.29700 38.46300
H  -6.03700 16.97500 37.31700
N  -13.64100 18.62900 41.45500
C  -13.01700 19.55900 40.68500
C  -13.93600 20.59600 40.55800
C  -15.18900 20.27900 41.15400
C  -14.96900 18.91500 41.61900
C  -13.50700 21.90200 39.81200
C  -16.43100 21.15800 41.20400
O  -16.44200 22.25600 40.73100
C  -17.68800 20.73500 42.00900
N  -14.69300 16.01000 42.69600
C  -15.74700 16.77300 42.76600
C  -16.97800 15.97600 43.24300
C  -16.43200 14.60300 43.50500
C  -14.98600 14.79400 43.17600
C  -17.67400 16.66100 44.50400
C  -16.99000 13.41800 42.64500
C  -16.99500 12.03800 43.24900
N  -11.96400 14.92300 42.47700
C  -12.64100 13.78600 42.89400
C  -11.68700 12.68900 43.01500
C  -10.46800 13.20700 42.54000
C  -10.76000 14.51000 42.10100
C  -11.99600 11.36400 43.63200
C  -9.06500 12.93100 42.22100
O  -8.33600 11.94900 42.30900
C  -8.55200 14.31600 41.61600
C  -7.50300 14.92200 42.53800
O  -7.78300 15.60800 43.49600
O  -6.24100 14.63100 42.11400
C  -5.10700 15.23600 42.79300
H  -11.27900 20.41700 39.80600
H  -16.89200 18.47100 42.22500
H  -14.43300 12.85700 43.76500
H  -7.74200 17.11600 40.71300
H  -8.99500 19.15500 39.04100
H  -7.72000 19.32600 41.62000
H  -9.34600 19.91300 41.78500
H  -8.11200 20.58900 40.57300
H  -8.86200 17.07300 38.05500
H  -8.72300 15.49200 38.76300
H  -6.51700 15.22700 38.47700
H  -6.16100 16.70800 39.30100
H  -13.57000 21.67500 38.74800
H  -12.53600 22.26000 40.15600
H  -14.25100 22.63300 40.12800
H  -17.44200 20.40100 43.01700
H  -18.13500 19.97400 41.36900
H  -18.32300 21.62200 42.02900
H  -17.77100 15.96400 42.49500
H  -16.46000 14.38300 44.57200
H  -17.43900 16.12300 45.42200
H  -18.73500 16.62300 44.25500
H  -17.30500 17.66300 44.71900
H  -16.43500 13.47700 41.70900
H  -18.00800 13.67600 42.35200
H  -16.39100 11.37000 42.63400
H  -17.98900 11.60100 43.35000
H  -16.49200 12.02600 44.21600
H  -12.38400 11.57000 44.62900
H  -11.00300 10.92500 43.72700
H  -12.63600 10.67900 43.07500
H  -8.11700 14.21600 40.62200
H  -4.52700 14.36000 43.08500
H  -5.35800 15.82000 43.67800
H  -4.59200 15.77500 41.99800
Mg -5.13000 25.17900 25.96300
C  -3.72000 26.78900 28.92400
C  -7.04300 23.26800 28.15900
C  -5.99700 23.31800 23.30400
C  -2.75600 27.01600 24.09900
N  -5.14900 24.90500 28.23800
C  -4.61100 25.67700 29.27300
C  -5.24900 25.36400 30.67700
C  -6.09400 24.11700 30.33500
C  -6.13300 24.06200 28.76600
C  -5.49900 22.76800 30.95300
C  -6.09300 26.56900 31.22000
C  -5.56600 27.04600 32.63100
H  -5.08000 25.98100 33.68300
N  -6.45200 23.76200 25.73800
C  -7.17200 23.14700 26.75000
C  -8.18000 22.28900 26.13800
C  -8.02000 22.44200 24.76700
C  -6.70400 23.16800 24.53200
C  -9.08400 21.31700 26.84900
C  -8.88400 21.83100 23.61000
O  -8.66700 22.07800 22.44200
C  -10.09000 20.97800 23.88900
N  -4.50400 25.23300 23.91500
C  -4.93100 24.25700 23.03700
C  -4.12800 24.35400 21.68700
C  -3.15400 25.61300 22.01200
C  -3.40300 25.93800 23.48400
C  -3.32900 23.06700 21.33200
C  -3.46300 26.84200 21.09600
C  -2.18400 27.61600 20.63200
N  -3.65400 26.67400 26.38500
C  -2.84700 27.38300 25.44300
C  -2.13100 28.41500 26.15700
C  -2.45500 28.20400 27.53800
C  -3.33100 27.11100 27.59700
C  -1.27500 29.47700 25.49900
C  -2.26200 28.73500 28.85100
O  -1.61800 29.67800 29.19600
C  -3.01000 27.81000 29.87200
C  -1.90700 27.07700 30.65500
O  -1.17700 26.26600 30.14300
O  -1.77400 27.51600 31.92200
C  -0.77000 26.74800 32.70700
H  -7.63200 22.58500 28.77500
H  -6.22200 22.64000 22.47800
H  -2.01500 27.48300 23.44700
H  -4.40400 25.19400 31.34400
H  -7.05700 24.22000 30.83700
H  -5.17000 22.13100 30.13200
H  -6.21600 22.25200 31.59200
H  -4.53600 22.97500 31.41900
H  -7.16900 26.40500 31.26800
H  -5.98100 27.41100 30.53700
H  -6.46600 27.40400 33.13100
H  -4.86600 27.86800 32.48100
H  -10.15000 21.47000 26.68100
H  -8.94600 21.42000 27.92500
H  -8.79100 20.31700 26.53100
H  -9.82400 20.26800 24.67100
H  -10.43600 20.54400 22.95100
H  -10.91000 21.58200 24.27900
H  -4.75500 24.61100 20.83400
H  -2.12500 25.26700 21.92200
H  -2.24400 23.04300 21.43600
H  -3.64200 22.83600 20.31400
H  -3.77800 22.30200 21.96500
H  -4.00700 27.54900 21.72300
H  -4.12300 26.59100 20.26500
H  -2.05400 27.45100 19.56300
H  -1.30700 27.30000 21.19800
H  -2.32000 28.65500 20.93100
H  -0.26500 29.39300 25.90100
H  -1.75400 30.41400 25.78300
H  -1.28000 29.33300 24.41900
H  -3.66800 28.43400 30.47600
H  0.14000 26.53000 32.14700
H  -1.30400 25.88700 33.10900
H  -0.48100 27.35100 33.56800

