158

Mg 0.58700 8.02000 27.22000
C  1.70000 10.14500 29.83900
C  0.74400 5.50400 29.45600
C  -0.09000 6.03300 24.65300
C  0.95700 10.66800 24.96400
N  1.06200 7.90700 29.43800
C  1.34700 8.92600 30.35800
C  1.12400 8.41600 31.82200
C  1.23700 6.87800 31.61000
C  1.04900 6.70800 30.07500
C  2.57400 6.22100 32.14500
C  -0.23800 8.87100 32.35500
C  -0.33400 8.82400 33.91000
H  0.90400 8.36200 34.78300
N  0.39700 5.93700 27.05700
C  0.46800 5.08000 28.10000
C  0.23500 3.73300 27.54600
C  0.00300 3.89600 26.14100
C  0.14300 5.36800 25.87500
C  0.14600 2.43300 28.36500
C  -0.24400 2.84800 25.04500
O  -0.56200 3.18700 23.90700
C  -0.30700 1.35000 25.34300
N  0.62600 8.27300 25.06900
C  0.08600 7.37000 24.30500
C  -0.27500 7.83200 22.90300
C  -0.13300 9.34400 23.01800
C  0.50400 9.48100 24.39900
C  0.49800 7.20800 21.75100
C  -1.42800 10.09900 22.86300
C  -1.32700 11.50000 22.27800
N  1.15400 10.02600 27.31200
C  1.36900 10.97200 26.34300
C  1.63200 12.27900 26.94000
C  1.76800 11.96500 28.30400
C  1.59800 10.53800 28.45100
C  1.96200 13.61000 26.27900
C  2.19400 12.56100 29.53000
O  2.47200 13.76100 29.77300
C  1.95500 11.45500 30.59500
C  2.97100 11.37700 31.65500
O  4.09100 10.93800 31.53100
O  2.41600 11.99700 32.85600
C  3.31600 12.09700 33.98200
H  0.78100 4.68400 30.17700
H  -0.36500 5.44400 23.77600
H  0.97000 11.56000 24.33400
H  1.93900 8.69900 32.48800
H  0.43200 6.53100 32.25800
H  3.24700 5.92500 31.34100
H  2.27200 5.35600 32.73500
H  3.12700 6.91800 32.77500
H  -1.06800 8.29600 31.94400
H  -0.23400 9.91800 32.05000
H  -1.14900 8.11300 34.04700
H  -0.71000 9.78800 34.25400
H  1.03300 1.82200 28.19700
H  -0.72600 1.82600 28.12100
H  0.16700 2.53500 29.45000
H  -0.09300 0.79700 24.42800
H  -1.31100 1.17700 25.73000
H  0.39300 1.09600 26.13800
H  -1.32700 7.59500 22.74800
H  0.54500 9.70000 22.24200
H  -0.14800 6.82500 20.96100
H  1.16500 6.38900 22.02100
H  1.16600 7.97400 21.35700
H  -1.83900 10.16000 23.87100
H  -2.02200 9.45500 22.21400
H  -1.05400 12.16200 23.10000
H  -2.17400 11.77000 21.64800
H  -0.51300 11.49200 21.55400
H  1.23400 13.90100 25.52200
H  2.89200 13.32100 25.79100
H  2.11000 14.38100 27.03600
H  0.95600 11.72300 30.94000
H  4.29100 12.43800 33.63500
H  3.45800 11.10300 34.40700
H  2.74600 12.68700 34.70000
Mg 45.69200 4.36300 47.48300
C  43.38400 6.99300 46.73800
C  42.98200 2.16300 46.96100
C  47.80900 1.82800 47.65600
C  48.18200 6.66200 47.27000
N  43.35700 4.59100 46.69200
C  42.67400 5.74600 46.61700
C  41.19600 5.45700 46.46200
C  41.06000 3.93700 46.73200
C  42.57200 3.55300 46.82500
C  40.13900 3.52200 47.86200
C  40.69200 6.05100 45.13000
C  39.25000 6.53600 45.21300
H  38.55400 6.68600 43.88400
N  45.43100 2.27300 47.30600
C  44.26700 1.59700 47.16200
C  44.54800 0.21000 47.18600
C  45.97800 0.04600 47.41200
C  46.46000 1.40900 47.56400
C  43.45800 -0.83500 47.05100
C  46.64200 -1.24100 47.56100
O  46.08600 -2.28600 47.27200
C  48.07500 -1.31600 48.01500
N  47.70700 4.22500 47.30600
C  48.36300 3.11100 47.61900
C  49.82800 3.37700 48.01800
C  49.98900 4.88000 47.62100
C  48.49800 5.32500 47.42100
C  50.04100 2.94200 49.49800
C  50.89000 5.15400 46.40600
C  51.83200 6.39600 46.43300
N  45.85400 6.45300 47.15100
C  46.96300 7.25000 47.14000
C  46.52600 8.62000 46.99900
C  45.13300 8.50300 46.95200
C  44.77800 7.21300 46.90500
C  47.41800 9.84400 46.98200
C  43.92700 9.27000 46.87000
O  43.78700 10.47100 46.87600
C  42.80500 8.32100 46.73000
C  41.84300 8.54700 47.85700
O  41.92200 7.93400 48.90300
O  40.88600 9.56100 47.53800
C  39.92100 9.95900 48.65800
H  42.20200 1.43900 46.71700
H  48.62800 1.12000 47.79800
H  49.11500 7.19600 47.45700
H  40.57300 5.95300 47.20600
H  40.68200 3.46200 45.82700
H  39.72600 4.33500 48.45900
H  40.74400 2.85600 48.47800
H  39.32100 2.95500 47.41900
H  41.00200 5.32900 44.37500
H  41.35000 6.88800 44.90000
H  39.25600 7.56000 45.58800
H  38.69100 5.87100 45.87100
H  43.02200 -0.78300 46.05300
H  42.62600 -0.56200 47.70000
H  43.67800 -1.86800 47.31800
H  48.76100 -0.91900 47.26700
H  48.30500 -2.33200 48.33500
H  48.10200 -0.69600 48.91100
H  50.47300 2.73300 47.42100
H  50.45600 5.42200 48.44300
H  50.87400 2.24800 49.61000
H  49.10300 2.52700 49.86500
H  50.32400 3.81800 50.08400
H  50.25600 5.16600 45.52000
H  51.58700 4.33200 46.24400
H  52.79600 6.07500 46.82700
H  51.51800 7.22100 47.07300
H  51.75800 6.66300 45.37900
H  47.82500 9.99700 45.98300
H  48.15700 9.63700 47.75700
H  46.96600 10.79600 47.26100
H  42.27100 8.52900 45.80200
H  39.53900 10.92700 48.33500
H  40.32200 10.09000 49.66300
H  39.02500 9.34500 48.75600

