158

Mg 52.83100 24.43400 44.16000
C  50.19500 26.87400 43.32100
C  50.82000 22.14900 42.56600
C  55.46000 22.51100 43.68800
C  54.94700 27.28100 44.63600
N  50.83200 24.62400 42.82600
C  49.86900 25.62100 42.81900
C  48.45000 25.09700 42.36900
C  48.64100 23.56400 42.44500
C  50.20600 23.45200 42.61500
C  47.87500 22.81600 43.62600
C  47.78300 25.66400 41.02900
C  48.76900 26.04400 39.96900
H  48.40600 25.94500 38.45700
N  53.05200 22.58000 43.50000
C  52.14000 21.75900 42.86700
C  52.62500 20.41500 42.72100
C  54.01400 20.48800 43.01600
C  54.24100 21.92500 43.46300
C  51.87000 19.20200 42.13200
C  55.06300 19.37200 42.97000
O  54.66700 18.25800 42.51700
C  56.47300 19.47700 43.19300
N  54.96700 24.85100 44.11900
C  55.81400 23.82400 44.02800
C  57.26800 24.26600 44.34500
C  57.08100 25.81300 44.48500
C  55.60700 26.01000 44.46500
C  57.91900 23.37700 45.44400
C  57.82800 26.75600 43.58100
C  57.19200 27.32700 42.32100
N  52.57400 26.66200 44.21500
C  53.51200 27.60100 44.55700
C  52.81300 28.82000 44.79500
C  51.48800 28.54000 44.38700
C  51.44400 27.26900 43.90300
C  53.36700 30.07900 45.23300
C  50.19200 29.14700 44.29600
O  49.73800 30.25900 44.53300
C  49.31200 28.06600 43.59800
C  48.70100 28.71600 42.40500
O  49.44100 29.22100 41.53300
O  47.33900 28.90000 42.49300
C  46.76400 29.76600 41.42400
H  50.19900 21.28200 42.33100
H  56.29000 21.80900 43.58200
H  55.60900 28.11400 44.88400
H  47.65200 25.37300 43.05800
H  48.41600 22.99800 41.54100
H  47.30800 22.02300 43.13800
H  47.07900 23.40900 44.07600
H  48.44700 22.41000 44.46000
H  47.26900 26.60400 41.23000
H  47.03500 24.97100 40.64700
H  49.59300 25.34800 40.13000
H  48.99900 27.08100 40.21100
H  50.82200 19.41800 41.92100
H  51.92200 18.33600 42.79200
H  52.38500 19.04100 41.18500
H  56.82000 18.46300 42.99300
H  56.56600 19.75300 44.24300
H  56.97200 20.23200 42.58400
H  57.70300 24.03700 43.37200
H  57.41200 26.13400 45.47200
H  58.05900 23.94200 46.36600
H  58.91500 23.04300 45.15300
H  57.32600 22.49700 45.69100
H  58.71300 26.25300 43.19100
H  58.22900 27.56200 44.19600
H  57.14800 28.41600 42.32500
H  56.18400 26.91200 42.29600
H  57.69400 26.88300 41.46100
H  54.05300 30.37700 44.44000
H  53.88300 30.12500 46.19200
H  52.62800 30.88000 45.24000
H  48.61300 27.69200 44.34600
H  47.16200 29.44600 40.46100
H  47.17000 30.77700 41.45500
H  45.68400 29.62000 41.40200
Mg -11.78500 17.13900 42.23400
C  -8.62100 15.51200 41.90600
C  -10.18300 19.96200 40.73300
C  -14.79100 18.58500 41.95600
C  -13.20000 14.12200 43.09900
N  -9.64100 17.65000 41.36000
C  -8.53800 16.79600 41.34800
C  -7.29300 17.58700 40.86700
C  -7.82200 18.96400 40.60400
C  -9.26400 18.87100 40.99900
C  -7.04700 20.12400 41.29800
C  -6.72200 16.85500 39.59800
C  -5.28500 16.27400 39.75700
H  -4.78800 15.05000 38.88000
N  -12.37000 19.11400 41.53400
C  -11.58000 20.00800 40.93600
C  -12.45800 21.08700 40.56000
C  -13.76900 20.78400 41.06900
C  -13.68500 19.42700 41.56600
C  -11.91600 22.30300 39.87700
C  -14.90400 21.83800 41.09500
O  -14.77900 22.94100 40.57900
C  -16.19300 21.61700 41.89500
N  -13.69000 16.40100 42.19000
C  -14.83200 17.15900 42.13000
C  -16.13400 16.43400 42.48900
C  -15.51200 15.02900 42.90800
C  -14.05700 15.12800 42.59700
C  -16.84100 17.11900 43.78600
C  -16.13800 13.85500 42.24700
C  -16.45700 12.62000 43.12600
N  -11.18300 15.15200 42.46000
C  -11.79800 14.11100 43.02400
C  -10.84700 13.00100 43.27200
C  -9.59800 13.56600 42.80100
C  -9.85800 14.87000 42.36700
C  -11.25100 11.64900 43.76400
C  -8.25300 13.28100 42.60900
O  -7.60200 12.23600 42.75700
C  -7.52000 14.46200 41.97600
C  -6.40400 14.94300 42.82400
O  -6.43100 15.81900 43.65100
O  -5.29800 14.19100 42.58300
C  -4.02400 14.64800 43.19400
H  -9.73200 20.85100 40.28800
H  -15.76400 19.07200 41.85900
H  -13.63100 13.27200 43.63100
H  -6.53000 17.62000 41.64500
H  -7.70400 19.23800 39.55500
H  -6.40000 20.62200 40.57600
H  -6.46300 19.66600 42.09600
H  -7.69300 20.83000 41.82000
H  -6.60600 17.54100 38.75900
H  -7.36300 16.02000 39.31700
H  -5.05100 16.06000 40.80000
H  -4.64200 17.06000 39.36200
H  -12.65700 22.84700 39.29100
H  -11.19300 22.00000 39.12000
H  -11.53500 22.96400 40.65500
H  -16.63200 22.61500 41.92600
H  -16.05100 21.11400 42.85200
H  -16.77900 20.98400 41.23000
H  -16.70600 16.34400 41.56600
H  -15.61600 14.99700 43.99200
H  -16.81800 16.48100 44.66900
H  -17.85100 17.47200 43.58100
H  -16.22100 17.96100 44.09400
H  -15.49600 13.49000 41.44600
H  -17.14800 14.13100 41.94600
H  -15.54400 12.12700 43.46300
H  -17.12600 11.93800 42.60200
H  -17.00400 12.87800 44.03300
H  -10.86000 10.90000 43.07500
H  -12.32500 11.49800 43.87000
H  -10.73200 11.49000 44.70900
H  -7.14800 14.32100 40.96100
H  -3.96600 15.62900 43.66600
H  -3.32200 14.64100 42.36100
H  -3.70900 13.88200 43.90400

