158

Mg 35.39000 48.80200 24.82900
C  35.61100 47.38500 27.84800
C  34.50300 51.85000 26.26100
C  34.92800 50.34600 21.70800
C  36.34900 46.00800 23.27600
N  35.16900 49.57600 26.85900
C  35.26600 48.75500 27.97200
C  35.22200 49.64000 29.21800
C  34.76400 51.05700 28.68500
C  34.86100 50.85200 27.15000
C  33.28200 51.53700 29.12200
C  36.57200 49.80900 30.00900
C  36.59800 49.34500 31.46200
H  35.32200 49.56500 32.26200
N  34.75900 50.80200 24.04700
C  34.40000 51.86700 24.87100
C  34.02000 52.99800 24.06100
C  34.18300 52.58300 22.69900
C  34.60500 51.18500 22.81100
C  33.58000 54.34700 24.58900
C  33.92300 53.33100 21.44000
O  33.92200 52.76600 20.37100
C  33.67400 54.82800 21.45000
N  35.60800 48.24500 22.75000
C  35.42200 49.00000 21.64200
C  35.82200 48.28800 20.38500
C  36.72400 47.04900 21.00700
C  36.27200 47.11800 22.48200
C  34.59600 47.99300 19.49800
C  38.26800 47.16000 20.82400
C  39.01000 45.80600 20.73600
N  35.89800 47.00300 25.38500
C  36.21800 45.89100 24.67800
C  36.43800 44.73400 25.58400
C  36.10500 45.31200 26.82300
C  35.81300 46.67500 26.66400
C  36.69600 43.35100 25.12300
C  35.94800 44.98200 28.23400
O  36.02700 43.95100 28.89600
C  35.74400 46.35800 28.94000
C  34.45000 46.28800 29.87200
O  33.32900 46.61900 29.48500
O  34.74000 45.55600 31.02200
C  33.59000 45.17700 31.80800
H  34.20100 52.80400 26.69800
H  34.89500 50.68300 20.67000
H  36.52600 45.09300 22.70800
H  34.41100 49.28400 29.85400
H  35.45700 51.88900 28.80500
H  33.28000 52.49700 29.63700
H  32.75500 50.84500 29.77800
H  32.66800 51.74900 28.24700
H  36.87300 50.84800 30.14100
H  37.43000 49.41200 29.46700
H  37.41800 49.76700 32.04200
H  36.69300 48.26000 31.51200
H  32.56300 54.55700 24.25800
H  34.24800 55.06800 24.11700
H  33.53000 54.42400 25.67500
H  34.45100 55.43900 21.90900
H  32.73300 54.98300 21.97800
H  33.48600 55.18500 20.43700
H  36.57100 48.85500 19.83200
H  36.38200 46.07700 20.65100
H  34.66700 48.28200 18.44900
H  33.65600 48.40400 19.86600
H  34.53000 46.90900 19.58300
H  38.80900 47.79700 21.52500
H  38.56900 47.60000 19.87300
H  39.22500 45.61100 19.68600
H  38.39600 45.05200 21.22900
H  40.02600 45.86900 21.12600
H  35.76600 42.82500 24.90300
H  37.29500 42.87700 25.90000
H  37.28000 43.32700 24.20300
H  36.54200 46.58200 29.64800
H  33.00200 44.50600 31.18100
H  32.92000 46.01900 31.98200
H  33.87900 44.78700 32.78400
Mg 8.70300 47.51700 27.90900
C  7.10500 46.99500 30.83500
C  11.59600 47.87000 29.71700
C  10.28300 48.63900 25.13300
C  5.69800 47.74700 26.20800
N  9.26000 47.59100 30.09600
C  8.48200 47.21100 31.10000
C  9.21500 47.25700 32.43100
C  10.60400 47.95600 32.05600
C  10.53000 47.74400 30.53500
C  10.78300 49.41000 32.50400
C  9.23500 45.96500 33.24100
C  8.92400 46.02800 34.77400
H  9.46300 44.93600 35.68300
N  10.73800 47.89400 27.45000
C  11.78400 48.00600 28.27600
C  13.02300 48.28500 27.53300
C  12.59100 48.51100 26.20300
C  11.15000 48.37600 26.22900
C  14.43100 48.28300 28.11800
C  13.39900 48.83100 24.91800
O  12.89000 48.85600 23.78800
C  14.83600 48.84800 24.88300
N  8.06700 48.05700 25.94300
C  8.93300 48.54700 25.00300
C  8.20000 48.98700 23.73100
C  6.75000 48.38600 24.04100
C  6.83100 47.98200 25.49500
C  8.30200 50.50700 23.51000
C  6.29600 47.17000 23.07300
C  6.27900 47.54500 21.56900
N  6.71800 47.56900 28.36600
C  5.61200 47.54000 27.58000
C  4.45700 47.28800 28.42300
C  4.96400 47.00000 29.66200
C  6.36100 47.20700 29.58800
C  3.08700 47.18400 27.88400
C  4.66100 46.70500 31.04700
O  3.55100 46.54600 31.55100
C  6.08200 46.59400 31.81000
C  6.18200 45.31100 32.45700
O  6.59100 44.27600 31.96500
O  5.76400 45.34300 33.78500
C  5.74600 43.98200 34.46200
H  12.59600 48.05500 30.11400
H  10.70100 49.12200 24.24700
H  4.76100 47.75400 25.64800
H  8.59700 48.02100 32.90300
H  11.40700 47.30300 32.39800
H  10.04700 49.55300 33.29600
H  10.53400 50.12100 31.71700
H  11.76400 49.54000 32.96100
H  10.26200 45.61500 33.14200
H  8.51800 45.28700 32.77800
H  7.85300 45.93700 34.95500
H  9.25700 47.02200 35.07000
H  14.36700 48.05100 29.18200
H  14.91500 49.25800 28.07400
H  15.07100 47.62500 27.53100
H  15.11000 49.70300 25.50100
H  15.13700 49.04600 23.85400
H  15.20900 47.89200 25.24900
H  8.58900 48.42800 22.88000
H  6.01000 49.18300 23.97000
H  7.35300 50.83300 23.93600
H  8.27600 50.63800 22.42800
H  9.22900 50.91600 23.91200
H  5.33600 46.80900 23.44200
H  6.97800 46.33900 23.25500
H  6.54300 48.58100 21.36000
H  5.26300 47.46100 21.18200
H  6.91700 46.86500 21.00400
H  2.67300 48.18800 27.79400
H  2.52500 46.71700 28.69400
H  3.08800 46.68300 26.91600
H  6.01600 47.30000 32.63700
H  5.89500 44.12400 35.53200
H  6.60300 43.42100 34.08900
H  4.80300 43.50300 34.19700

