158

Mg -0.40100 7.87700 26.39400
C  0.51500 10.17900 28.87600
C  -0.20400 5.43200 28.85300
C  -1.20000 5.78300 24.04700
C  -0.22900 10.63500 24.08100
N  -0.02100 7.93600 28.62000
C  0.17100 8.93600 29.47200
C  0.28600 8.50200 30.91600
C  0.30300 6.97000 30.80700
C  0.03100 6.74000 29.29300
C  1.59200 6.23600 31.29200
C  -0.79000 9.09900 31.94000
C  -0.18700 9.33200 33.39000
H  0.74400 8.36900 34.09600
N  -0.70300 5.83900 26.46600
C  -0.57900 5.01100 27.54700
C  -0.75300 3.65200 27.11500
C  -0.96100 3.63600 25.69300
C  -1.03700 5.10600 25.29700
C  -0.58500 2.35300 28.00900
C  -1.18100 2.49900 24.72900
O  -1.60200 2.83000 23.61600
C  -0.97100 1.06300 25.06500
N  -0.48300 8.08000 24.29600
C  -0.96600 7.10100 23.58000
C  -1.36800 7.60800 22.14000
C  -1.10400 9.14900 22.13400
C  -0.62800 9.31600 23.60800
C  -0.74100 6.83300 20.94900
C  -2.28800 10.01800 21.63700
C  -3.38300 10.45400 22.58400
N  0.23000 9.92800 26.37700
C  0.10800 10.92200 25.46200
C  0.54600 12.19700 26.02100
C  0.81600 11.90200 27.34000
C  0.58800 10.53200 27.48500
C  0.65500 13.53300 25.34800
C  1.30700 12.44000 28.56400
O  1.80600 13.53100 28.74500
C  1.02800 11.42900 29.65500
C  2.33500 11.15700 30.32700
O  3.22600 10.56800 29.77100
O  2.36100 11.58000 31.66700
C  3.55300 11.31500 32.50200
H  -0.21900 4.70800 29.67000
H  -1.58300 5.21700 23.19500
H  -0.16500 11.47600 23.38700
H  1.24000 8.93500 31.21500
H  -0.47800 6.50500 31.40800
H  1.31600 5.55700 32.09900
H  2.28600 7.01700 31.60100
H  2.01100 5.55000 30.55600
H  -1.66400 8.45100 31.99700
H  -1.14600 10.03000 31.49800
H  -1.06200 9.34900 34.04000
H  0.35800 10.27300 33.47000
H  -1.47500 1.91800 28.46400
H  0.01300 2.63200 28.87600
H  0.05500 1.69900 27.41700
H  -1.71400 0.75800 25.80200
H  0.05700 1.00000 25.42000
H  -1.23700 0.50600 24.16600
H  -2.40000 7.38100 21.87100
H  -0.19800 9.38600 21.57600
H  -0.45600 7.31100 20.01200
H  -1.46700 6.11400 20.57100
H  0.09100 6.22000 21.29600
H  -2.81300 9.40400 20.90500
H  -1.96100 10.95000 21.17500
H  -4.36000 10.24500 22.14900
H  -3.27600 11.47900 22.93900
H  -3.25300 9.84400 23.47700
H  -0.35700 13.92600 25.25600
H  1.12800 13.43500 24.37000
H  1.25800 14.20500 25.95800
H  0.35700 11.90400 30.37200
H  4.18000 10.45100 32.28300
H  3.29400 11.30000 33.56100
H  4.13700 12.22100 32.33900
Mg 48.07500 25.15700 29.18700
C  49.00400 27.47000 31.66100
C  46.90200 23.02800 31.68100
C  47.03200 23.14600 26.81300
C  49.32700 27.38500 26.87400
N  47.99200 25.33700 31.43400
C  48.40900 26.29300 32.25100
C  47.97800 26.10700 33.73800
C  47.51600 24.56000 33.72900
C  47.48600 24.29600 32.19500
C  48.57000 23.60300 34.38600
C  46.83900 27.13200 34.08800
C  47.03800 27.99200 35.30500
H  46.22300 27.83100 36.50100
N  47.21400 23.26500 29.20500
C  46.73600 22.58200 30.33000
C  46.17300 21.34400 29.94000
C  46.08200 21.35500 28.53500
C  46.81800 22.58300 28.08400
C  45.81200 20.14500 30.84300
C  45.47100 20.40200 27.55100
O  45.57000 20.57500 26.35200
C  44.77800 19.17900 27.95100
N  48.35300 25.15400 27.12300
C  47.65300 24.27800 26.33200
C  47.73800 24.72800 24.81300
C  48.29500 26.14900 24.93400
C  48.73100 26.23800 26.40300
C  48.68000 23.83900 23.95800
C  47.16300 27.24100 24.58100
C  47.55300 28.31800 23.48600
N  49.03500 27.00900 29.26400
C  49.51900 27.73800 28.20900
C  50.06900 28.99300 28.64200
C  50.00000 28.92600 30.10300
C  49.34000 27.70100 30.38400
C  50.73200 30.04400 27.78000
C  50.27400 29.58500 31.32700
O  50.95000 30.60600 31.53700
C  49.54200 28.59200 32.39700
C  50.64500 28.21600 33.30200
O  51.44600 27.27300 33.16800
O  50.70100 29.11600 34.39800
C  51.59500 28.76400 35.51600
H  46.34100 22.41900 32.39200
H  46.32600 22.69700 26.11000
H  49.52200 28.02000 26.00700
H  48.92600 26.14500 34.27300
H  46.49600 24.44200 34.09500
H  48.75500 22.81200 33.65900
H  48.01400 23.23000 35.24600
H  49.52200 24.08600 34.60600
H  45.97900 26.48300 34.25500
H  46.64900 27.61700 33.13100
H  47.07200 29.02100 34.94800
H  48.07400 27.79300 35.58200
H  46.19800 20.29600 31.85200
H  46.19900 19.22800 30.39900
H  44.73600 20.06600 31.00000
H  44.10300 19.56800 28.71300
H  45.41900 18.36700 28.29700
H  44.14400 18.78100 27.15900
H  46.79000 24.69500 24.27500
H  49.18800 26.31500 24.33200
H  48.47900 24.01800 22.90100
H  48.53200 22.79900 24.24900
H  49.70900 24.16000 24.12300
H  46.77800 27.66700 25.50700
H  46.24100 26.78500 24.22100
H  48.52100 28.12900 23.02200
H  47.63800 29.27700 23.99500
H  46.81600 28.42300 22.68900
H  50.08200 30.19300 26.91800
H  51.74200 29.85500 27.41600
H  50.65300 31.00200 28.29300
H  48.69300 28.95800 32.97500
H  51.00700 28.19700 36.23700
H  51.90000 29.77000 35.80400
H  52.41800 28.13800 35.17200

