158

Mg 1.75000 -0.24500 43.86600
C  5.29900 0.05100 43.38500
C  1.29100 2.60000 42.14400
C  -1.42400 -1.06300 43.84300
C  2.56600 -3.55000 44.99900
N  3.16000 1.05000 42.85900
C  4.53000 1.06100 42.70900
C  4.98100 2.11800 41.67800
C  3.80700 3.13900 41.69100
C  2.65200 2.17700 42.28500
C  3.95400 4.44900 42.60600
C  5.23200 1.56400 40.23800
C  6.40100 2.26600 39.58100
H  5.81900 2.88800 38.28900
N  0.12100 0.68000 43.17400
C  0.09100 1.88400 42.54000
C  -1.26700 2.22600 42.35900
C  -2.08600 1.13000 42.86100
C  -1.09600 0.21200 43.32100
C  -1.68800 3.42700 41.65000
C  -3.57700 1.01500 42.81300
O  -4.20200 2.09000 42.61200
C  -4.37300 -0.26500 43.04000
N  0.72000 -2.01200 44.43100
C  -0.62600 -2.06300 44.36300
C  -1.18600 -3.38500 44.86600
C  0.06600 -4.25400 45.22600
C  1.22500 -3.24000 44.89400
C  -2.10600 -3.29000 46.19400
C  0.20000 -5.53100 44.27500
C  0.58700 -6.82700 44.98700
N  3.51500 -1.47200 44.28800
C  3.68100 -2.75900 44.72400
C  5.10200 -2.98300 44.99600
C  5.76400 -1.89700 44.55900
C  4.77300 -0.99300 44.07700
C  5.65100 -4.38900 45.36400
C  7.10000 -1.38500 44.27400
O  8.20300 -1.95500 44.36300
C  6.79700 -0.06200 43.47500
C  7.39800 1.08400 44.18100
O  6.93700 1.81900 45.08400
O  8.63600 1.30500 43.57900
C  9.40800 2.55300 43.84500
H  1.13700 3.58500 41.69800
H  -2.45600 -1.38600 44.00000
H  2.73900 -4.59400 45.27000
H  5.82300 2.66400 42.10100
H  3.39400 3.51000 40.75300
H  3.12400 4.57300 43.30100
H  3.99900 5.27700 41.89700
H  4.84500 4.43700 43.23400
H  4.32500 1.75800 39.66600
H  5.47000 0.50100 40.28300
H  7.11800 1.48000 39.34500
H  6.78200 3.08300 40.19400
H  -2.47400 3.90700 42.23300
H  -2.07600 3.07100 40.69600
H  -1.00800 4.19700 41.28800
H  -5.38300 -0.10000 42.66400
H  -4.38900 -0.38600 44.12300
H  -3.93900 -0.98400 42.34600
H  -1.78200 -3.82900 44.06900
H  0.16500 -4.56900 46.26500
H  -3.07600 -3.74400 45.99000
H  -2.37800 -2.25500 46.40400
H  -1.69000 -3.82500 47.04800
H  0.95200 -5.29700 43.52100
H  -0.73500 -5.68000 43.73500
H  -0.35500 -7.33000 45.20700
H  1.06000 -6.67700 45.95700
H  1.20400 -7.40400 44.29800
H  5.49700 -5.05700 44.51600
H  5.16300 -4.73700 46.27400
H  6.73200 -4.41000 45.50600
H  7.31700 -0.00900 42.51800
H  10.07600 2.51400 44.70600
H  8.78100 3.44100 43.92900
H  10.13500 2.70400 43.04800
Mg 35.81200 49.51300 24.95100
C  35.71000 48.19600 28.28400
C  34.11900 52.16900 26.22100
C  35.52800 50.44600 21.80900
C  36.85800 46.28400 23.85500
N  35.12100 50.14500 27.10200
C  35.30200 49.52300 28.26900
C  34.82000 50.43100 29.52400
C  34.16700 51.59500 28.72800
C  34.43400 51.28300 27.25900
C  32.67500 51.89900 28.92500
C  35.99500 50.76000 30.53200
C  35.98700 50.14200 31.85800
H  35.16200 50.73400 32.92300
N  35.00600 51.13100 24.10000
C  34.37900 52.12300 24.82300
C  33.94400 53.11000 23.85100
C  34.22400 52.60000 22.52700
C  34.95800 51.36700 22.76800
C  33.25200 54.36100 24.23100
C  33.90700 53.22200 21.09100
O  34.28400 52.63700 20.05600
C  33.15100 54.50900 20.94600
N  36.29200 48.54100 23.09200
C  36.14200 49.18200 21.95900
C  36.62100 48.34200 20.82000
C  37.07900 47.03300 21.39300
C  36.75600 47.28600 22.89800
C  35.56100 48.25500 19.64500
C  38.57400 46.57200 21.09200
C  39.59300 47.68200 21.13600
N  36.23700 47.60300 25.86000
C  36.69000 46.39700 25.27200
C  36.94300 45.41400 26.36900
C  36.57500 46.07200 27.54000
C  36.15000 47.37500 27.17800
C  37.51300 44.02800 26.20100
C  36.42200 45.87300 28.94900
O  36.56500 44.86700 29.70400
C  35.87600 47.22800 29.51100
C  34.71400 47.01200 30.29900
O  33.58200 46.96700 29.85500
O  35.05300 46.70300 31.65600
C  33.86300 46.42300 32.48000
H  33.60400 53.11800 26.38500
H  35.30100 50.84500 20.81900
H  37.27500 45.34500 23.48300
H  34.07700 49.86500 30.08600
H  34.75900 52.50200 28.84800
H  32.30800 51.52600 29.88100
H  32.20600 51.40900 28.07100
H  32.47900 52.97100 28.92000
H  35.92200 51.83300 30.70900
H  36.89600 50.48700 29.98300
H  37.02100 50.26700 32.17800
H  35.76900 49.07700 31.78100
H  32.16200 54.33900 24.24200
H  33.52000 55.13800 23.51600
H  33.46200 54.67700 25.25200
H  32.95700 54.90000 19.94700
H  33.80000 55.21600 21.46200
H  32.21800 54.52700 21.50800
H  37.46400 48.91000 20.42700
H  36.41800 46.22100 21.08800
H  34.64500 48.80900 19.85100
H  35.26500 47.23600 19.39300
H  36.07000 48.66500 18.77300
H  38.50000 46.15700 20.08700
H  38.92300 45.73500 21.69600
H  39.28300 48.59200 21.65000
H  40.09900 47.82900 20.18200
H  40.31600 47.14400 21.75000
H  37.76700 43.84100 25.15700
H  36.86100 43.19300 26.45200
H  38.38500 44.02200 26.85500
H  36.58700 47.74700 30.15500
H  33.49400 45.49000 32.05500
H  33.21800 47.30100 32.44400
H  34.23500 46.33700 33.50100

