158

Mg 36.41900 49.83800 24.75300
C  36.52600 47.72300 27.70100
C  35.03100 52.19600 26.78100
C  35.63300 51.43800 21.89100
C  37.49700 47.03300 22.87800
N  35.84600 49.90500 27.02200
C  36.09600 49.05000 28.01300
C  35.80000 49.67600 29.44500
C  35.08600 51.06100 29.03800
C  35.33400 51.05600 27.54700
C  33.59000 51.26100 29.41400
C  36.96600 49.68100 30.48000
C  36.55200 49.84000 32.00800
H  35.06700 49.85900 32.39000
N  35.53700 51.64400 24.38600
C  35.07900 52.46100 25.40300
C  34.94100 53.76500 24.68900
C  34.96100 53.52400 23.26700
C  35.31500 52.13000 23.11800
C  34.54700 54.90400 25.47300
C  34.54700 54.47000 22.15700
O  34.48200 54.10500 20.97100
C  34.15800 55.86700 22.44700
N  36.45000 49.32600 22.70100
C  36.19200 50.21700 21.69400
C  36.61700 49.65500 20.39200
C  37.49400 48.45100 20.78900
C  37.13100 48.22700 22.21600
C  35.55200 49.29900 19.36100
C  39.05800 48.60800 20.56100
C  39.62100 47.67400 19.40500
N  37.00700 47.87500 25.13300
C  37.35200 46.88000 24.26600
C  37.69800 45.64600 25.03700
C  37.38400 45.97000 26.32700
C  36.95800 47.32600 26.37200
C  38.19600 44.26700 24.46300
C  37.39200 45.43900 27.69800
O  37.76700 44.40400 28.12900
C  36.88900 46.58700 28.64700
C  35.76700 46.03500 29.43100
O  34.99600 45.16400 28.96500
O  35.67800 46.51200 30.71200
C  34.68000 45.84600 31.55300
H  34.55700 52.97100 27.38600
H  35.41900 51.99800 20.97800
H  37.99100 46.33300 22.20100
H  35.08800 48.93000 29.79900
H  35.69000 51.85100 29.48400
H  32.90600 50.94800 28.62400
H  33.46100 52.27100 29.80200
H  33.22900 50.62200 30.22000
H  37.71000 50.45700 30.30500
H  37.55800 48.77300 30.36500
H  37.04500 50.72100 32.41900
H  36.94000 48.94200 32.49000
H  34.86600 55.86100 25.05900
H  35.06300 54.90600 26.43300
H  33.47200 54.92800 25.64900
H  35.00400 56.45800 22.80000
H  33.33000 55.78900 23.15100
H  33.79000 56.28900 21.51200
H  37.22800 50.43000 19.93000
H  37.18000 47.56200 20.24300
H  35.94800 48.57200 18.65200
H  35.27200 50.21700 18.84500
H  34.65800 48.84600 19.78900
H  39.49800 48.20400 21.47200
H  39.40100 49.61200 20.31300
H  40.04300 46.79300 19.88900
H  40.39500 48.18300 18.83100
H  38.79600 47.25700 18.82700
H  38.81800 43.71500 25.16800
H  38.63400 44.43100 23.47900
H  37.34900 43.60300 24.29000
H  37.73300 46.64500 29.33500
H  35.04100 45.99400 32.57100
H  34.51800 44.77200 31.45600
H  33.69600 46.28700 31.40000
Mg -5.44800 25.36900 26.06600
C  -4.41100 26.78500 29.07200
C  -7.63300 23.28400 28.08700
C  -6.14400 23.45800 23.31900
C  -3.08100 27.01700 24.25300
N  -5.78600 24.99500 28.32900
C  -5.34600 25.82900 29.32800
C  -5.91900 25.34000 30.70300
C  -6.82600 24.16900 30.38700
C  -6.82800 24.20800 28.81200
C  -6.22900 22.82000 30.82000
C  -6.61700 26.59900 31.30500
C  -6.74400 26.54900 32.83300
H  -6.07100 25.37200 33.62800
N  -6.76200 23.61400 25.72500
C  -7.48600 22.88800 26.70600
C  -8.28300 21.85400 25.98200
C  -7.88700 22.00500 24.61200
C  -6.98300 23.09500 24.50200
C  -9.34700 20.97300 26.60700
C  -8.42500 21.20700 23.44400
O  -8.17100 21.50900 22.30300
C  -9.28200 20.05000 23.69600
N  -4.74200 25.33400 24.01800
C  -5.18400 24.44200 23.11500
C  -4.36500 24.50100 21.80800
C  -3.54700 25.86000 21.93800
C  -3.82400 26.16700 23.49100
C  -3.54100 23.33000 21.29500
C  -4.03700 27.10900 21.11500
C  -3.03700 27.67000 19.99000
N  -4.04300 26.72900 26.47800
C  -3.11600 27.36200 25.60800
C  -2.22700 28.24400 26.43600
C  -2.69100 28.05700 27.78300
C  -3.80500 27.10500 27.74300
C  -1.05400 29.06800 26.07200
C  -2.52600 28.43000 29.25800
O  -1.74400 29.22000 29.67800
C  -3.55900 27.57800 30.11900
C  -2.74900 26.68000 31.01400
O  -2.07000 25.69300 30.70100
O  -2.71200 27.31800 32.23800
C  -1.64000 26.80700 33.05900
H  -8.29500 22.57100 28.58400
H  -6.28500 22.76600 22.48600
H  -2.39900 27.62700 23.65800
H  -5.02500 25.25900 31.32100
H  -7.84400 24.34100 30.73500
H  -6.15200 22.07400 30.02900
H  -6.83000 22.47800 31.66300
H  -5.16900 22.91000 31.05800
H  -7.61500 26.57200 30.86800
H  -6.09400 27.50100 30.98800
H  -7.80200 26.63600 33.08100
H  -6.22200 27.42800 33.21200
H  -9.07400 19.93600 26.41500
H  -10.36100 21.22800 26.29800
H  -9.25900 21.04700 27.69000
H  -8.85600 19.20100 24.23000
H  -9.67000 19.64700 22.76100
H  -10.13600 20.46900 24.22800
H  -5.07600 24.73500 21.01600
H  -2.46600 25.77500 21.82400
H  -2.54800 23.75100 21.13300
H  -4.02400 22.88100 20.42700
H  -3.51200 22.52000 22.02400
H  -4.31700 27.90800 21.80200
H  -5.01100 26.83700 20.70700
H  -2.81200 28.71200 20.21700
H  -3.57100 27.78300 19.04600
H  -2.03300 27.26200 20.10100
H  -1.32200 30.09100 25.80900
H  -0.47900 28.59500 25.27600
H  -0.35300 29.01100 26.90500
H  -4.18800 28.18700 30.76800
H  -1.68100 27.19800 34.07500
H  -0.67800 26.87600 32.55100
H  -1.79600 25.73900 33.21100

