158

Mg 35.01000 3.08400 29.84400
C  33.17500 4.07700 32.65700
C  37.65500 3.04800 31.92600
C  36.92300 2.60000 27.19600
C  32.30000 3.94700 27.88700
N  35.36500 3.72000 32.01800
C  34.48000 3.98600 33.00200
C  35.13200 4.02400 34.40200
C  36.60500 4.02000 34.01700
C  36.55900 3.52300 32.53500
C  37.29400 5.40300 34.03100
C  34.66100 2.71700 35.24300
C  34.56600 2.88700 36.76300
H  35.35600 3.99400 37.46100
N  37.08100 2.80200 29.60200
C  38.00200 2.67300 30.61100
C  39.33200 2.38600 29.96600
C  39.14300 2.37900 28.60900
C  37.63800 2.56900 28.42500
C  40.57700 2.21100 30.75800
C  40.15700 2.26000 27.50400
O  39.89200 2.32000 26.33800
C  41.54500 1.75200 27.87900
N  34.69400 3.36200 27.87400
C  35.62400 3.05100 26.93400
C  35.05800 3.11400 25.52400
C  33.51400 3.31900 25.80700
C  33.51700 3.52000 27.26400
C  35.69100 4.27700 24.67100
C  32.59800 2.12500 25.34000
C  31.24600 2.48300 24.75800
N  33.01000 3.79600 30.13200
C  32.03500 4.15100 29.24100
C  30.86600 4.59000 29.87000
C  31.22100 4.42900 31.22600
C  32.55700 4.05100 31.37200
C  29.63400 5.04000 29.12200
C  30.72200 4.63500 32.53400
O  29.58100 4.93800 32.86700
C  31.96100 4.46800 33.55700
C  32.04100 5.78800 34.25300
O  32.41400 6.83300 33.70400
O  31.27400 5.77200 35.34900
C  31.00000 7.12800 35.87500
H  38.47500 2.95100 32.64100
H  37.53500 2.37100 26.32100
H  31.46200 3.98500 27.18800
H  34.71400 4.88400 34.92500
H  37.22500 3.31800 34.57500
H  38.23200 5.34800 34.58500
H  36.68800 6.18600 34.48700
H  37.35300 5.79900 33.01700
H  35.34200 1.91100 34.97200
H  33.66400 2.53900 34.84100
H  34.85700 1.97100 37.27800
H  33.51300 2.95300 37.03600
H  40.62100 2.15100 31.84600
H  41.25000 3.00300 30.42900
H  41.06400 1.29100 30.43700
H  41.51700 0.92400 28.58600
H  42.10300 2.48800 28.45900
H  42.18800 1.38000 27.08100
H  35.39700 2.26700 24.92800
H  33.19100 4.21700 25.28000
H  36.30400 4.84100 25.37400
H  34.95600 4.97700 24.27500
H  36.34300 3.95100 23.86000
H  32.47100 1.48300 26.21100
H  33.00200 1.52100 24.52600
H  30.42000 2.10500 25.36000
H  31.10000 2.03800 23.77300
H  31.06900 3.55000 24.62200
H  28.87800 5.33500 29.85000
H  29.23000 4.35200 28.38000
H  29.93900 5.86800 28.48200
H  31.77100 3.76900 34.37100
H  30.02200 7.49900 35.57000
H  31.77400 7.88600 35.75400
H  30.85500 7.01800 36.95000
Mg 7.89700 52.03300 41.08700
C  7.45000 48.60700 40.70500
C  11.20400 51.57400 40.25500
C  8.20600 55.23800 41.40900
C  4.32300 52.31700 41.89400
N  9.20700 50.34300 40.55300
C  8.78400 49.05300 40.42700
C  9.90300 48.25700 39.97800
C  11.19200 49.01400 40.31400
C  10.53200 50.41300 40.42700
C  12.12200 48.62400 41.46900
C  9.83100 47.82800 38.46400
C  9.26800 48.87500 37.54900
H  8.68200 48.38400 36.24000
N  9.44000 53.23700 40.68500
C  10.72200 52.86200 40.32700
C  11.49200 54.06600 40.23100
C  10.65200 55.19200 40.50100
C  9.38000 54.62100 40.86400
C  12.93900 54.05500 39.78600
C  11.07600 56.62500 40.43800
O  12.21500 56.90400 40.27600
C  10.04700 57.82900 40.52600
N  6.46400 53.61600 41.53000
C  6.90400 54.83000 41.71300
C  5.76900 55.85900 42.13600
C  4.53100 54.87200 42.26800
C  5.13100 53.49800 41.92800
C  5.97800 56.83300 43.26900
C  3.25800 55.19500 41.37800
C  1.97800 55.60900 42.14600
N  6.22500 50.79800 41.17800
C  4.84000 50.98100 41.59800
C  4.12800 49.70500 41.62900
C  5.11700 48.77300 41.26200
C  6.31300 49.46900 41.01400
C  2.68400 49.36300 41.96200
C  5.35400 47.36100 41.14600
O  4.60000 46.41700 41.33200
C  6.90400 47.18300 40.79300
C  6.90000 46.45400 39.50700
O  6.53900 46.95600 38.46700
O  7.21500 45.16100 39.71300
C  6.71100 44.34600 38.66200
H  12.25100 51.39900 40.00000
H  8.28000 56.32400 41.50400
H  3.29100 52.45800 42.22000
H  9.88100 47.33500 40.55700
H  11.84700 49.20500 39.46400
H  11.70600 47.85500 42.11900
H  12.09000 49.53700 42.06400
H  13.17800 48.41800 41.29400
H  9.23000 46.92900 38.32800
H  10.84600 47.60600 38.13400
H  10.02900 49.64400 37.41700
H  8.37500 49.30100 38.00400
H  13.40500 53.08100 39.63200
H  13.61300 54.65100 40.40000
H  13.00800 54.44600 38.77100
H  9.89200 58.01100 41.59000
H  9.12800 57.66200 39.96500
H  10.49900 58.64600 39.96300
H  5.67500 56.50600 41.26400
H  4.11100 54.65800 43.25100
H  5.43300 56.57500 44.17700
H  5.73000 57.81600 42.86800
H  7.01500 56.79400 43.60200
H  2.99200 54.39900 40.68200
H  3.55500 55.99500 40.70000
H  1.96500 55.19000 43.15200
H  1.19100 55.15200 41.54600
H  1.96200 56.69500 42.05700
H  2.21600 50.31500 42.21300
H  2.68100 48.56500 42.70400
H  2.17600 48.98500 41.07500
H  7.24700 46.52400 41.59100
H  7.19100 44.61100 37.72000
H  5.62200 44.40600 38.65800
H  7.00900 43.31400 38.84700

