158

Mg 1.75600 -2.78000 44.67400
C  5.20900 -2.60800 43.68300
C  1.07300 -0.45500 42.21400
C  -1.47400 -3.72700 44.71100
C  2.54200 -5.89200 46.25100
N  3.05000 -1.67500 43.22300
C  4.42200 -1.66200 42.99900
C  4.89000 -0.56900 41.99300
C  3.47500 0.07000 41.59000
C  2.43400 -0.76000 42.34300
C  3.40700 1.60400 41.95700
C  5.59000 -1.28800 40.67200
C  7.10000 -0.94400 40.31800
H  7.42800 -0.41700 38.91600
N  0.03600 -1.97500 43.85100
C  -0.03600 -1.01200 42.89100
C  -1.41700 -0.64800 42.65300
C  -2.23700 -1.54900 43.48000
C  -1.23100 -2.47800 44.06600
C  -1.83300 0.57300 41.79800
C  -3.68500 -1.46600 43.62800
O  -4.35500 -0.62200 43.10700
C  -4.38500 -2.43500 44.44600
N  0.67400 -4.49200 45.57800
C  -0.66400 -4.59300 45.48300
C  -1.17200 -5.77800 46.21800
C  0.08200 -6.57000 46.56500
C  1.18600 -5.58100 46.19200
C  -2.09800 -5.43600 47.41200
C  0.08400 -7.99300 45.89100
C  0.59200 -9.21100 46.65200
N  3.51800 -3.95300 45.08900
C  3.65700 -5.12700 45.74200
C  5.08000 -5.40100 45.88400
C  5.73400 -4.38800 45.11000
C  4.72800 -3.54800 44.60300
C  5.76300 -6.57300 46.49700
C  7.00900 -3.85400 44.74700
O  8.13900 -4.22000 45.08600
C  6.70100 -2.90600 43.59300
C  7.62100 -1.80200 43.63000
O  8.64300 -1.63900 42.95700
O  7.25100 -0.85500 44.57900
C  8.11500 0.31000 44.53100
H  0.95300 0.38300 41.52400
H  -2.49100 -4.05900 44.49400
H  2.76600 -6.83800 46.74900
H  5.59200 0.15100 42.41500
H  3.32500 -0.08500 40.52100
H  4.42000 2.00400 41.97400
H  2.89600 1.68000 42.91700
H  2.83900 2.05700 41.14500
H  4.95000 -1.16700 39.79800
H  5.52400 -2.35800 40.86900
H  7.69100 -1.83800 40.51500
H  7.42800 -0.24100 41.08500
H  -1.67100 0.22500 40.77800
H  -1.13200 1.37100 42.04300
H  -2.85400 0.92300 41.95400
H  -4.30600 -3.40700 43.96100
H  -5.36600 -2.06900 44.74800
H  -3.91400 -2.43000 45.42900
H  -1.81500 -6.32200 45.52600
H  0.05700 -6.69100 47.64800
H  -2.43700 -6.31800 47.95600
H  -3.02800 -4.94300 47.12800
H  -1.62600 -4.80500 48.16600
H  0.72300 -7.95500 45.00800
H  -0.91800 -8.31300 45.60500
H  0.99500 -8.94900 47.63000
H  1.47000 -9.62500 46.15600
H  -0.17700 -9.97800 46.73600
H  6.81200 -6.49200 46.21300
H  5.29400 -7.49900 46.16500
H  5.82300 -6.51700 47.58400
H  6.90800 -3.43500 42.66300
H  9.00400 -0.13900 44.97200
H  7.75200 1.12200 45.16200
H  8.49000 0.59300 43.54700
Mg 25.41100 1.40700 30.20700
C  27.71800 0.94300 32.92200
C  22.87600 1.72300 32.51300
C  23.27600 1.53700 27.65700
C  28.02600 0.55400 28.07100
N  25.33500 1.28700 32.51100
C  26.40400 1.26300 33.37500
C  25.92900 1.57300 34.84900
C  24.39700 1.70500 34.68100
C  24.14500 1.59000 33.14300
C  23.79600 0.48500 35.41100
C  26.68300 2.87100 35.49000
C  27.10300 2.85700 36.98700
H  26.39500 3.93300 37.88300
N  23.37200 1.59900 30.11500
C  22.52400 1.76600 31.18700
C  21.15200 1.93900 30.65000
C  21.23400 1.69000 29.27900
C  22.65900 1.54700 28.95500
C  19.86700 2.27600 31.37800
C  20.20000 1.66000 28.23900
O  20.45700 1.28900 27.13800
C  18.77100 1.91900 28.62600
N  25.49000 0.85800 28.12200
C  24.55600 1.30700 27.24400
C  25.11200 1.20600 25.77200
C  26.67000 1.06100 25.93900
C  26.78300 0.86400 27.47700
C  24.50200 0.22600 24.72900
C  27.52400 2.14600 25.31300
C  27.59400 3.59100 26.02700
N  27.43100 0.88300 30.38200
C  28.41700 0.56000 29.40900
C  29.72600 0.35100 29.99200
C  29.44500 0.51100 31.37400
C  28.11600 0.80800 31.52700
C  31.07400 -0.00200 29.31200
C  30.12600 0.46500 32.63600
O  31.29700 0.34800 32.92800
C  29.03800 0.91400 33.68200
C  28.89100 -0.14600 34.88100
O  28.10300 -1.06300 34.90500
O  29.64000 0.22800 35.96300
C  29.22300 -0.49900 37.18300
H  21.97900 1.88400 33.11400
H  22.61500 1.83000 26.83800
H  28.90100 0.49600 27.42000
H  26.14700 0.69000 35.45000
H  23.84300 2.51200 35.16200
H  24.36400 0.36900 36.33400
H  23.80900 -0.30700 34.66200
H  22.77100 0.67100 35.73400
H  25.98800 3.71000 35.51100
H  27.60300 3.21900 35.02000
H  28.14200 3.17800 37.05000
H  26.95600 1.89800 37.48500
H  19.29600 1.35100 31.29200
H  19.40000 3.17100 30.96800
H  19.93000 2.38200 32.46100
H  18.22300 1.85800 27.68500
H  18.74300 2.90400 29.09100
H  18.35600 1.14900 29.27600
H  24.94600 2.20800 25.37600
H  27.21700 0.21400 25.52300
H  24.00800 0.67800 23.86900
H  23.73700 -0.44800 25.11400
H  25.22000 -0.51200 24.37100
H  27.26800 2.32000 24.26700
H  28.57500 1.85600 25.32300
H  26.94800 3.55400 26.90400
H  27.19100 4.25400 25.26100
H  28.61900 3.86100 26.27900
H  31.00400 -0.46700 28.32800
H  31.50700 -0.71200 30.01700
H  31.74600 0.84300 29.16300
H  29.32400 1.90100 34.04300
H  29.68300 -1.47900 37.31400
H  28.14900 -0.63700 37.30400
H  29.56200 0.09400 38.03200

