158

Mg 31.22500 59.66200 38.88400
C  28.34000 57.72000 37.80000
C  33.19300 57.04800 37.95400
C  33.82300 61.78700 39.08100
C  29.02700 62.28000 39.64900
N  30.81400 57.72100 37.90200
C  29.61400 57.08000 37.74500
C  29.81600 55.76200 37.03300
C  31.29000 55.41300 37.40800
C  31.82100 56.85900 37.79500
C  31.51800 54.32900 38.48600
C  29.45600 55.61000 35.53600
C  28.33900 54.67100 35.08100
H  27.24000 55.27800 34.14500
N  33.29400 59.46400 38.67900
C  33.85500 58.27300 38.37700
C  35.33400 58.46800 38.42900
C  35.53300 59.81200 38.75800
C  34.22400 60.44800 38.84600
C  36.36400 57.42000 38.19300
C  36.87500 60.49400 38.98300
O  37.93300 59.88700 39.00300
C  36.96300 61.98100 39.34300
N  31.36700 61.82700 39.17700
C  32.59100 62.42100 39.29000
C  32.43800 63.89000 39.59200
C  30.90700 64.05300 39.95500
C  30.38400 62.68200 39.55500
C  33.36800 64.46900 40.71600
C  30.30900 65.18200 39.15900
C  29.37500 66.24200 39.84900
N  29.12200 59.98600 38.75400
C  28.37600 61.07500 39.18100
C  26.96300 60.77600 39.06700
C  26.94200 59.44200 38.55800
C  28.26600 59.05900 38.31600
C  25.80100 61.62300 39.59000
C  26.05800 58.29700 38.22000
O  24.87300 58.14500 38.26200
C  26.89900 57.15100 37.65300
C  26.55400 55.88000 38.40200
O  27.19300 55.47700 39.33700
O  25.58000 55.15300 37.78800
C  25.25700 53.84700 38.26900
H  33.81200 56.23100 37.57700
H  34.61000 62.54400 39.09200
H  28.37300 63.04200 40.07800
H  29.13000 55.13400 37.60200
H  31.78200 55.09700 36.48800
H  30.66800 53.64600 38.48700
H  31.55000 54.82100 39.45800
H  32.42100 53.74500 38.30800
H  30.32200 55.36600 34.92100
H  29.08700 56.60200 35.27700
H  27.81900 54.25400 35.94300
H  28.78200 53.84000 34.53100
H  35.98200 56.59800 37.58700
H  36.56100 56.98900 39.17500
H  37.36300 57.71600 37.87200
H  38.01300 62.27200 39.37300
H  36.46200 62.18000 40.29000
H  36.49600 62.51800 38.51800
H  32.63800 64.48400 38.70100
H  30.72500 64.17400 41.02300
H  34.17600 63.86400 41.12800
H  32.83400 64.84800 41.58700
H  33.85400 65.32500 40.24700
H  29.76000 64.87600 38.26800
H  31.12500 65.86000 38.90800
H  29.77300 67.25100 39.74100
H  29.27800 65.98400 40.90400
H  28.39600 66.22900 39.37100
H  26.02200 61.86700 40.62900
H  24.86700 61.06800 39.50600
H  25.80600 62.58200 39.07100
H  26.77300 57.00300 36.58000
H  25.90800 53.04300 37.92800
H  24.27200 53.53100 37.92300
H  25.16800 53.79900 39.35500
Mg -9.55400 39.30700 42.11900
C  -8.96700 35.87800 41.74800
C  -6.55700 39.92000 40.71800
C  -10.58900 42.51600 41.71000
C  -12.79700 38.60100 43.48100
N  -8.08400 38.06100 41.25800
C  -7.94100 36.66900 41.22900
C  -6.70400 36.17800 40.48200
C  -5.84500 37.41400 40.65900
C  -6.90100 38.61000 40.93200
C  -4.89700 37.44000 41.90500
C  -7.00900 35.71800 39.01000
C  -5.77600 35.18800 38.28000
H  -4.99500 36.02500 37.29200
N  -8.73700 40.98300 41.24200
C  -7.46700 41.06000 40.75800
C  -7.20600 42.41500 40.53400
C  -8.43000 43.08900 40.54800
C  -9.31600 42.17100 41.21900
C  -5.81600 42.88300 40.12800
C  -8.70100 44.50000 40.00300
O  -7.78200 45.08600 39.51100
C  -10.10500 45.12100 39.80300
N  -11.46200 40.40400 42.54200
C  -11.54500 41.75800 42.30100
C  -12.88100 42.33500 42.77300
C  -13.65500 41.00800 43.16200
C  -12.53900 39.94300 43.16100
C  -12.90900 43.34400 44.01000
C  -14.75300 40.65000 42.13100
C  -16.18400 40.77100 42.63000
N  -10.71200 37.63200 42.58900
C  -11.96100 37.50900 43.17200
C  -12.25900 36.09700 43.19600
C  -11.09700 35.42300 42.70400
C  -10.16300 36.41600 42.30700
C  -13.49500 35.44300 43.60900
C  -10.50500 34.13700 42.45600
O  -10.90200 33.03900 42.67900
C  -9.12300 34.38300 41.79200
C  -8.11500 33.65400 42.58600
O  -8.16400 33.29900 43.76300
O  -7.06700 33.32100 41.74800
C  -5.87300 32.68500 42.33300
H  -5.58500 40.09100 40.25100
H  -10.90800 43.55800 41.77600
H  -13.79400 38.45800 43.90300
H  -6.18300 35.42000 41.06700
H  -5.30600 37.74100 39.77100
H  -5.35600 37.87200 42.79400
H  -4.09400 38.11900 41.61900
H  -4.59600 36.40200 42.04800
H  -7.48000 36.51100 38.43100
H  -7.69000 34.87000 38.92300
H  -6.05400 34.25300 37.79400
H  -5.02800 35.00700 39.05200
H  -5.60600 42.61400 39.09300
H  -5.00700 42.64400 40.81800
H  -5.73200 43.96600 40.03700
H  -10.45000 45.55700 40.74000
H  -10.84600 44.36400 39.54600
H  -10.10300 45.95400 39.10000
H  -13.35600 42.89600 41.96800
H  -14.10400 41.07400 44.15300
H  -13.14500 42.72100 44.87300
H  -13.75700 44.01900 43.89700
H  -11.87900 43.70000 43.99500
H  -14.55000 39.64700 41.75300
H  -14.53700 41.28600 41.27300
H  -16.65100 41.66800 42.22400
H  -16.32900 40.80500 43.71000
H  -16.65700 39.88400 42.21000
H  -13.67900 35.76300 44.63400
H  -13.34600 34.36400 43.57000
H  -14.35800 35.78600 43.03800
H  -9.06600 34.14700 40.72900
H  -5.23200 32.21400 41.58800
H  -6.14100 31.91700 43.05900
H  -5.40700 33.49000 42.90100

