158

Mg 9.63900 48.83100 26.47200
C  7.98900 48.73400 29.52700
C  12.49900 49.62500 28.01800
C  11.13700 48.42400 23.43800
C  6.44600 48.54400 24.85900
N  10.07300 49.16100 28.56300
C  9.34300 49.07700 29.69000
C  10.19100 49.34200 30.90100
C  11.43200 50.00300 30.30400
C  11.37200 49.56400 28.86800
C  11.50300 51.58300 30.53100
C  10.46100 48.19900 31.84100
C  9.95300 48.44000 33.30900
H  9.85700 47.24700 34.25400
N  11.55900 49.02800 25.80000
C  12.62900 49.31500 26.62100
C  13.84800 49.20800 25.83900
C  13.52100 48.87100 24.53300
C  12.00300 48.75700 24.51700
C  15.12100 49.51300 26.34600
C  14.38000 48.70700 23.30100
O  13.96900 48.39600 22.19200
C  15.95200 48.85200 23.48600
N  8.80800 48.62200 24.40500
C  9.69300 48.33900 23.30200
C  8.79700 47.85000 22.14900
C  7.29500 48.20800 22.53700
C  7.47900 48.45500 24.03100
C  9.20500 48.57700 20.80400
C  6.24900 47.10800 22.11700
C  5.72500 47.12100 20.66200
N  7.67800 48.72600 26.98700
C  6.48300 48.63900 26.24100
C  5.37900 48.50200 27.15300
C  5.93000 48.51900 28.43800
C  7.32200 48.62900 28.29700
C  4.04100 48.15000 26.74000
C  5.59300 48.35400 29.91900
O  4.57400 48.11800 30.57900
C  6.92700 48.55900 30.60100
C  7.06200 47.30200 31.40500
O  7.61200 46.26800 31.06300
O  6.34500 47.51700 32.58400
C  6.13400 46.35800 33.44700
H  13.47900 49.79100 28.47100
H  11.64400 48.21800 22.49300
H  5.43300 48.43800 24.46500
H  9.62400 50.11600 31.41900
H  12.32300 49.55500 30.74400
H  10.56700 52.04800 30.84100
H  11.78400 52.02800 29.57600
H  12.20200 52.01200 31.24800
H  11.54100 48.08300 31.93900
H  10.05100 47.27800 31.42600
H  9.04000 49.01900 33.45200
H  10.69900 49.04300 33.82600
H  15.16100 49.37300 27.42600
H  15.53700 50.50300 26.16300
H  15.84000 48.74900 26.05000
H  16.24100 49.80900 23.91900
H  16.49700 48.71100 22.55200
H  16.22100 48.04300 24.16500
H  8.87700 46.77400 21.99500
H  6.94400 49.13900 22.09100
H  8.65700 49.49900 20.61200
H  9.07000 47.91500 19.94800
H  10.18800 49.04900 20.82000
H  5.46100 47.10400 22.87000
H  6.74100 46.15500 22.31200
H  6.06700 48.07600 20.26400
H  4.63500 47.10400 20.67600
H  6.06700 46.23400 20.12900
H  3.97200 47.40200 25.95100
H  3.58600 49.04100 26.30600
H  3.47200 47.82300 27.61100
H  6.98400 49.44200 31.23800
H  5.26700 45.78100 33.12400
H  5.95300 46.79700 34.42800
H  7.06400 45.79000 33.48400
Mg -11.66300 38.29800 42.26000
C  -9.43600 35.76800 41.18700
C  -9.74300 40.47800 40.76300
C  -14.30500 40.28300 42.41100
C  -13.69100 35.64500 43.73100
N  -9.90500 38.05000 40.91300
C  -9.14100 36.99800 40.64000
C  -7.93200 37.34100 39.72200
C  -7.90000 38.91000 39.88400
C  -9.24100 39.21700 40.59300
C  -6.69900 39.36100 40.78200
C  -8.11400 36.73100 38.24200
C  -6.96700 35.76300 37.76300
H  -5.88600 36.37000 36.76100
N  -11.96500 40.19300 41.72600
C  -10.96500 40.94500 41.24000
C  -11.47900 42.28400 40.97600
C  -12.88900 42.27800 41.27700
C  -13.15300 40.86100 41.81500
C  -10.66100 43.42300 40.53700
C  -13.82800 43.37200 41.13100
O  -13.44900 44.46600 40.77300
C  -15.26500 43.28600 41.50600
N  -13.86100 37.93700 42.84300
C  -14.66200 38.99300 42.85700
C  -16.02000 38.63200 43.62600
C  -15.83500 37.15700 44.02200
C  -14.39500 36.88500 43.57100
C  -16.37200 39.59200 44.84200
C  -16.91500 36.12900 43.54800
C  -17.22600 34.94200 44.48300
N  -11.62900 36.13300 42.42200
C  -12.39300 35.26400 43.19700
C  -11.77300 33.95200 43.19100
C  -10.60500 34.13900 42.37400
C  -10.55700 35.41300 41.97300
C  -12.16500 32.61600 43.95400
C  -9.45100 33.45600 41.83700
O  -9.09300 32.26300 42.06100
C  -8.65700 34.47400 40.98400
C  -7.25500 34.58800 41.50300
O  -6.80000 35.47800 42.19000
O  -6.56400 33.46700 40.98800
C  -5.12000 33.73900 40.98600
H  -9.07300 41.19400 40.28300
H  -15.12600 40.98800 42.55500
H  -14.27000 34.93100 44.31900
H  -7.03600 36.94200 40.19700
H  -7.83100 39.44500 38.93700
H  -6.29300 40.35400 40.59400
H  -5.85800 38.68200 40.64000
H  -7.03100 39.25500 41.81500
H  -8.03300 37.62000 37.61800
H  -9.09000 36.24700 38.20000
H  -7.36500 34.84700 37.32600
H  -6.42300 35.45900 38.65700
H  -9.61000 43.15600 40.42500
H  -10.81900 44.28000 41.19200
H  -11.00100 43.75500 39.55600
H  -15.73800 42.37500 41.14000
H  -15.80100 44.11600 41.04500
H  -15.34300 43.42100 42.58500
H  -16.79700 38.77600 42.87500
H  -15.76800 37.05100 45.10500
H  -15.39700 39.96400 45.15400
H  -16.91700 38.96000 45.54400
H  -17.03200 40.38900 44.50000
H  -16.53600 35.61700 42.66400
H  -17.85700 36.65800 43.40400
H  -17.02800 34.07200 43.85900
H  -18.26500 34.96800 44.81100
H  -16.66100 34.90700 45.41500
H  -12.93600 32.94000 44.65300
H  -11.30100 32.26800 44.52000
H  -12.53400 31.87900 43.24000
H  -8.67900 34.19800 39.93000
H  -4.80400 34.10200 40.00700
H  -4.59400 32.82000 41.24600
H  -4.86000 34.52900 41.69000

