158

Mg 17.17000 52.28900 26.52400
C  19.09100 50.83300 29.28200
C  14.63300 52.66600 28.80800
C  15.25800 53.10800 23.94900
C  19.57100 50.70900 24.27000
N  16.92400 51.72800 28.79400
C  17.90600 51.36500 29.69100
C  17.40300 51.49600 31.12700
C  15.82300 51.80800 30.91100
C  15.76600 52.10900 29.43300
C  14.95800 50.55300 31.27900
C  18.23000 52.58100 31.81500
C  18.56300 52.47100 33.34600
H  17.69000 51.59500 34.25400
N  15.33900 53.04700 26.46000
C  14.41100 53.16800 27.51300
C  13.23800 53.86200 26.98200
C  13.40000 54.01400 25.52500
C  14.68000 53.39000 25.28000
C  12.10300 54.31800 27.90000
C  12.55200 54.76500 24.50000
O  12.94200 54.98700 23.35000
C  11.21900 55.27900 24.85700
N  17.37800 51.93900 24.43900
C  16.53100 52.56500 23.57900
C  16.97100 52.38900 22.08400
C  18.45600 51.90300 22.26500
C  18.46900 51.42100 23.71000
C  16.09100 51.47600 21.19100
C  19.52700 52.91800 21.94700
C  20.63500 52.47500 20.97700
N  18.99500 51.06500 26.74300
C  19.79200 50.47900 25.66300
C  20.84700 49.82900 26.28000
C  20.69600 49.99100 27.67100
C  19.49700 50.66100 27.90800
C  21.99400 49.16200 25.56100
C  21.24200 49.67300 29.04200
O  22.21600 48.97500 29.36700
C  20.14800 50.18200 30.06900
C  19.61200 48.95100 30.74500
O  18.81100 48.13000 30.28400
O  19.96000 49.02500 32.11000
C  19.58000 47.85500 32.94300
H  13.76900 52.67200 29.47500
H  14.70800 53.41500 23.05700
H  20.29700 50.38700 23.52000
H  17.46300 50.52400 31.61600
H  15.45900 52.60300 31.56200
H  15.08100 50.26900 32.32400
H  15.31200 49.69300 30.71100
H  13.93100 50.89500 31.15200
H  17.65700 53.50000 31.69100
H  19.21100 52.76700 31.37700
H  18.71000 53.47900 33.73400
H  19.53200 52.01000 33.53800
H  12.20400 53.79200 28.84900
H  11.09300 54.15300 27.52400
H  12.15000 55.38200 28.13100
H  11.25700 56.24600 25.35900
H  10.72100 54.44400 25.35000
H  10.66400 55.55000 23.95900
H  16.95200 53.35800 21.58500
H  18.51700 50.98000 21.69000
H  15.02100 51.64600 21.31200
H  16.34900 50.45100 21.46000
H  16.35000 51.74900 20.16900
H  19.95100 53.06400 22.94100
H  19.09900 53.88600 21.68700
H  20.91900 53.25100 20.26600
H  20.35600 51.56900 20.43800
H  21.53100 52.29400 21.57100
H  22.82800 49.07300 26.25700
H  22.26300 49.82500 24.73900
H  21.64300 48.25000 25.07700
H  20.69200 50.80000 30.78200
H  20.45900 47.21100 32.95900
H  18.73300 47.34900 32.47900
H  19.36300 48.06400 33.99000
Mg 0.72900 42.68900 25.92700
C  2.13700 42.63800 28.97100
C  -1.99100 41.02800 27.12700
C  -0.40800 42.14900 22.71900
C  3.80000 43.72700 24.57200
N  0.14100 42.00500 27.80800
C  0.86500 42.21200 28.91200
C  0.05200 41.80700 30.14500
C  -1.33200 41.26300 29.55800
C  -1.01500 41.38900 28.03100
C  -1.75700 39.80900 30.10300
C  -0.08700 42.88200 31.20100
C  0.41500 42.45400 32.62100
H  -0.41900 42.66600 33.87600
N  -1.00400 41.84000 25.09500
C  -1.97500 41.21900 25.75800
C  -2.99700 40.81300 24.85900
C  -2.60300 41.27700 23.54500
C  -1.28100 41.72800 23.69600
C  -4.27000 40.25800 25.37300
C  -3.36500 41.06700 22.22500
O  -2.83600 41.33300 21.11400
C  -4.72100 40.38400 22.15600
N  1.57700 42.92100 23.99300
C  0.85200 42.70700 22.85900
C  1.60900 43.15100 21.58300
C  2.83900 43.88700 22.22300
C  2.78100 43.54900 23.68800
C  1.96100 42.04600 20.58100
C  2.86800 45.45500 21.92800
C  4.09500 45.85000 21.12800
N  2.66300 43.05400 26.61200
C  3.82200 43.48300 25.95700
C  4.92500 43.62800 26.92400
C  4.27400 43.30100 28.10100
C  2.92400 42.98800 27.84600
C  6.36200 43.93400 26.59400
C  4.48300 43.16500 29.55900
O  5.49800 43.38300 30.24500
C  3.10400 42.73000 30.11100
C  3.32200 41.44200 30.83700
O  3.00000 40.32800 30.44600
O  3.93900 41.68400 32.05700
C  4.20900 40.52100 32.90000
H  -2.88800 40.66700 27.63500
H  -0.68500 41.93600 21.68500
H  4.69500 44.06100 24.04400
H  0.64900 40.94300 30.43500
H  -2.23600 41.84200 29.74200
H  -1.64600 39.13100 29.25700
H  -2.79900 39.68500 30.40000
H  -1.03500 39.55100 30.87800
H  -1.07900 43.33200 31.24500
H  0.54100 43.71300 30.87800
H  1.28300 43.11300 32.64100
H  0.89500 41.47500 32.63600
H  -5.04000 41.01800 25.23800
H  -4.26500 39.92800 26.41200
H  -4.68300 39.44800 24.77200
H  -4.53600 39.37800 22.53400
H  -4.98600 40.32200 21.10000
H  -5.42700 41.05200 22.65000
H  0.89800 43.83700 21.12300
H  3.73000 43.40700 21.82100
H  1.61400 41.06300 20.89900
H  3.00900 41.95400 20.29300
H  1.26600 42.18800 19.75300
H  2.92000 46.05800 22.83500
H  2.04700 45.77600 21.28600
H  4.75000 46.39700 21.80600
H  3.89200 46.56100 20.32700
H  4.65300 45.01800 20.69800
H  6.48300 44.61500 25.75200
H  6.96800 43.04800 26.40400
H  6.89700 44.38100 27.43200
H  2.80000 43.50100 30.81800
H  5.09600 40.20200 32.35400
H  3.42700 39.76200 32.90200
H  4.46000 40.79500 33.92500

