158

Mg 30.31600 57.41900 39.52000
C  27.81500 55.36000 38.40800
C  32.70100 55.08200 38.78800
C  32.67300 59.84700 39.89700
C  27.80700 60.11200 39.84400
N  30.23700 55.58000 38.47800
C  29.09400 54.78700 38.31500
C  29.42900 53.29500 38.09800
C  30.86900 53.24400 38.59000
C  31.32100 54.72000 38.62400
C  31.15600 52.38000 39.85800
C  29.04100 52.74500 36.73100
C  29.40300 53.59500 35.51600
H  28.17800 54.01300 34.52800
N  32.44400 57.43700 39.38700
C  33.22000 56.37100 39.05400
C  34.58300 56.85900 39.05900
C  34.64400 58.21900 39.32400
C  33.16900 58.52500 39.56800
C  35.73500 56.07700 38.57700
C  35.90900 59.06000 39.29900
O  36.97600 58.59600 38.98000
C  35.89600 60.46100 39.59700
N  30.23800 59.64500 39.77900
C  31.37400 60.33100 40.02100
C  31.06300 61.80800 40.35400
C  29.47800 61.93500 40.15000
C  29.13700 60.45600 39.93500
C  31.41700 62.22500 41.77900
C  28.92700 62.71100 38.93700
C  27.93800 63.85500 39.16600
N  28.19100 57.72700 39.30200
C  27.34900 58.81100 39.44900
C  25.99000 58.37300 39.02900
C  26.12800 57.00800 38.74200
C  27.48300 56.74800 38.86100
C  24.77800 59.23600 38.78900
C  25.40300 55.82500 38.38700
O  24.20800 55.69500 38.10500
C  26.49700 54.66000 38.30200
C  26.22500 53.70800 39.45300
O  26.82300 53.54900 40.53400
O  25.16500 52.94900 39.00500
C  24.68800 51.97600 39.97500
H  33.39300 54.24900 38.92900
H  33.35000 60.67200 40.12800
H  27.06400 60.90700 39.93500
H  28.76600 52.72500 38.74700
H  31.50100 52.87300 37.78300
H  30.61500 51.44700 39.69800
H  30.73800 52.93600 40.69800
H  32.21800 52.14100 39.90000
H  27.95200 52.72000 36.75700
H  29.52900 51.77400 36.64600
H  30.17700 53.05700 34.96900
H  29.85200 54.53200 35.84300
H  36.49800 56.60500 38.00600
H  35.31600 55.27700 37.96700
H  36.16700 55.55100 39.42900
H  35.26600 61.01600 38.90200
H  36.91700 60.83800 39.53100
H  35.58700 60.61100 40.63100
H  31.63700 62.43200 39.66800
H  29.07400 62.24800 41.11200
H  32.41300 61.86400 42.03600
H  30.70800 61.91000 42.54500
H  31.53800 63.30500 41.86900
H  28.54100 62.03500 38.17400
H  29.81300 63.13800 38.46900
H  27.06200 63.61600 38.56400
H  28.30100 64.87900 39.07200
H  27.54500 63.76200 40.17900
H  24.58800 59.68600 39.76400
H  23.85400 58.67000 38.66700
H  24.81200 60.00800 38.02100
H  26.30100 54.13700 37.36700
H  25.53400 51.44500 40.41100
H  24.17500 51.15100 39.48000
H  24.04000 52.41500 40.73300
Mg 6.41800 53.37500 41.35300
C  6.10800 49.96800 40.22500
C  9.46800 53.39200 39.76500
C  6.28600 56.66800 41.21500
C  2.91200 53.17200 42.25100
N  7.58100 51.88600 40.05800
C  7.26400 50.60700 39.74800
C  8.30400 49.93300 38.83600
C  9.49900 50.91900 39.08600
C  8.81000 52.14700 39.63900
C  10.71500 50.35800 39.89900
C  7.85800 49.83400 37.30400
C  7.95600 48.44000 36.64200
H  6.92000 47.97800 35.57300
N  7.75200 54.86800 40.72900
C  9.01200 54.67800 40.22000
C  9.69700 55.89600 40.18200
C  8.80100 56.94900 40.53200
C  7.53700 56.20400 40.79300
C  11.16800 55.91900 39.69300
C  9.06900 58.45800 40.40700
O  10.21200 58.87500 40.05400
C  8.00200 59.41500 40.55600
N  4.79800 54.64400 41.52300
C  5.10000 56.04000 41.49700
C  3.80800 56.84300 41.82300
C  2.72300 55.73200 42.08900
C  3.49100 54.41800 41.97400
C  3.85500 57.89700 43.03200
C  1.50100 55.77700 41.15800
C  0.10700 55.47400 41.79100
N  4.89400 51.89800 41.52400
C  3.64500 51.92000 42.05500
C  3.16200 50.59800 42.21900
C  4.09300 49.80800 41.52800
C  5.10900 50.64800 41.05000
C  1.82000 50.25600 43.00600
C  4.40000 48.38000 41.06600
O  3.88200 47.33500 41.40600
C  5.73600 48.49000 40.24600
C  5.56800 47.74900 38.92700
O  4.88200 48.15200 38.00000
O  5.84500 46.42700 39.06300
C  5.40300 45.44700 38.09300
H  10.51400 53.34800 39.45400
H  6.27500 57.74300 41.40700
H  1.88000 53.02400 42.57500
H  8.57600 48.96600 39.26100
H  9.96300 51.28700 38.17100
H  11.40300 49.68900 39.38300
H  10.25000 49.90300 40.77400
H  11.38200 51.08500 40.36300
H  8.57000 50.38600 36.69100
H  6.83600 50.20800 37.24400
H  8.07200 47.80000 37.51600
H  8.90200 48.35800 36.10700
H  11.28800 55.23800 38.85000
H  11.91400 55.67700 40.44900
H  11.38400 56.96000 39.45100
H  8.20900 60.43600 40.23400
H  7.73400 59.32500 41.60900
H  7.17900 59.11600 39.90700
H  3.62400 57.39800 40.90300
H  2.37800 55.80400 43.12000
H  3.58800 58.86600 42.61000
H  4.83500 57.94200 43.50700
H  3.15000 57.57400 43.79800
H  1.57800 55.08600 40.31800
H  1.48700 56.77300 40.71600
H  -0.34000 56.46800 41.82300
H  0.14400 55.11500 42.81900
H  -0.54500 54.80800 41.22700
H  1.46600 49.47100 42.33800
H  1.00900 50.98100 43.07200
H  2.08700 49.95900 44.02100
H  6.41700 47.88500 40.84400
H  4.41100 45.69100 37.71300
H  5.21600 44.43100 38.44100
H  6.10100 45.33700 37.26400

