158

Mg 43.97800 4.27600 46.79800
C  41.61600 6.75000 46.09400
C  41.57400 1.98400 46.35900
C  46.45200 1.98100 46.54000
C  46.25400 6.79600 47.49100
N  41.96000 4.35500 46.10300
C  41.16200 5.44200 45.81400
C  39.72300 4.99900 45.47900
C  39.66200 3.67000 46.22700
C  41.14000 3.28200 46.23900
C  39.17600 3.81100 47.71800
C  39.36500 4.94500 43.93700
C  38.35100 5.87000 43.44100
H  38.80300 6.54000 42.14100
N  44.00200 2.18200 46.53200
C  42.89400 1.46700 46.45100
C  43.30800 0.04200 46.31300
C  44.74400 -0.00600 46.26700
C  45.14900 1.43200 46.43400
C  42.41700 -1.13900 46.44700
C  45.58300 -1.32500 46.28800
O  45.06300 -2.37400 46.47000
C  47.06900 -1.34200 45.97200
N  46.00800 4.37800 46.88800
C  46.86600 3.28400 46.87600
C  48.31800 3.73000 47.15500
C  48.14700 5.12200 47.70500
C  46.67800 5.47300 47.29400
C  49.17900 2.68800 48.04200
C  49.24700 6.08600 47.18700
C  49.90200 6.93800 48.26000
N  43.97700 6.41500 46.76000
C  44.89300 7.30400 47.19900
C  44.45000 8.65700 47.02300
C  43.10300 8.48000 46.66300
C  42.89500 7.08700 46.51400
C  45.24500 9.92300 47.30100
C  41.89500 9.13600 46.30500
O  41.65000 10.31900 46.33300
C  40.80200 8.09100 46.00900
C  39.84800 8.16700 47.08100
O  39.97800 7.77200 48.28800
O  38.65800 8.77200 46.60200
C  37.44900 8.85100 47.37800
H  40.71400 1.32200 46.23700
H  47.30500 1.30600 46.44300
H  46.94500 7.51600 47.93500
H  38.95300 5.58300 45.98200
H  39.14000 2.88600 45.67900
H  39.88300 3.25300 48.33200
H  38.16900 3.39300 47.72600
H  39.22200 4.77300 48.22900
H  38.93700 3.97000 43.70200
H  40.29200 5.19600 43.42100
H  38.25600 6.61000 44.23600
H  37.43900 5.32600 43.19700
H  42.81600 -1.82900 45.70300
H  41.38100 -0.86100 46.25500
H  42.34000 -1.53300 47.46000
H  47.27000 -0.37600 45.51000
H  47.31800 -2.09900 45.22800
H  47.69800 -1.36400 46.86300
H  48.90400 3.86200 46.24500
H  48.22200 5.17000 48.79100
H  49.54500 3.24000 48.90800
H  49.98600 2.38700 47.37500
H  48.56200 1.86000 48.39100
H  48.89800 6.86500 46.50900
H  50.03100 5.59800 46.60800
H  49.66000 7.98900 48.10400
H  50.96400 6.69600 48.21400
H  49.53500 6.64700 49.24400
H  45.69600 10.27700 46.37400
H  46.12200 9.80600 47.93600
H  44.51100 10.66300 47.62100
H  40.39900 8.19000 45.00100
H  37.49300 8.45800 48.39400
H  36.70000 8.22200 46.89800
H  37.01300 9.84900 47.43400
Mg 6.96400 54.62000 40.70300
C  7.09200 51.10200 40.59000
C  10.18700 54.80900 39.74700
C  6.73900 58.01700 40.44200
C  3.44500 54.35700 41.16200
N  8.38500 53.16800 40.15800
C  8.32700 51.74300 40.25500
C  9.71500 51.04200 40.04800
C  10.71100 52.28600 40.22300
C  9.72900 53.54100 39.99000
C  11.27700 52.46400 41.66900
C  9.72400 50.33400 38.65400
C  9.20000 51.16800 37.53500
H  7.77600 51.09200 37.00800
N  8.28500 56.24300 40.13700
C  9.59800 56.08000 39.79200
C  10.18300 57.32800 39.39100
C  9.21700 58.29300 39.62400
C  8.02100 57.55500 40.11900
C  11.57000 57.58300 38.69800
C  9.38200 59.76900 39.40400
O  10.48800 60.12300 39.09600
C  8.26700 60.79900 39.56000
N  5.30700 55.97600 40.80000
C  5.51800 57.29800 40.64100
C  4.17300 58.06100 40.73800
C  3.10000 56.90800 40.88000
C  3.96400 55.64300 40.90900
C  4.16500 59.17100 41.86700
C  2.00200 56.93300 39.74300
C  0.55500 57.29800 40.21500
N  5.52600 53.03500 40.89200
C  4.14500 53.07200 41.13100
C  3.69800 51.70500 41.26500
C  4.85100 50.92900 41.12600
C  5.85100 51.75700 40.83200
C  2.26200 51.33800 41.81600
C  5.22300 49.60600 41.33600
O  4.61400 48.64500 41.87000
C  6.74200 49.60400 40.76000
C  6.58100 48.81300 39.50300
O  5.81200 49.04800 38.63200
O  7.13800 47.51700 39.54400
C  6.80900 46.60200 38.46700
H  11.26000 54.72300 39.56100
H  6.49300 59.08100 40.42500
H  2.36100 54.30400 41.28200
H  9.81600 50.32000 40.85800
H  11.51100 52.18800 39.49000
H  12.34000 52.24700 41.56300
H  10.91600 51.80100 42.45500
H  11.10800 53.46200 42.07300
H  9.25900 49.36400 38.82500
H  10.72600 49.98100 38.41200
H  9.78100 50.87500 36.66100
H  9.56000 52.16100 37.80100
H  11.40600 58.15600 37.78500
H  12.06700 56.63600 38.48300
H  12.25800 58.08700 39.37800
H  7.43100 60.40500 38.98200
H  8.65400 61.76800 39.24400
H  8.00900 60.75200 40.61800
H  4.02300 58.45200 39.73200
H  2.70300 57.05300 41.88400
H  4.99700 58.96300 42.54000
H  3.25000 59.21300 42.45700
H  4.47700 60.11500 41.42000
H  2.00900 55.91400 39.35800
H  2.22800 57.62700 38.93200
H  -0.08600 56.43500 40.03500
H  0.25800 58.18400 39.65400
H  0.59700 57.56600 41.27100
H  1.62100 51.37800 40.93500
H  1.89900 52.10200 42.50400
H  2.29900 50.33400 42.23800
H  7.38100 49.05600 41.45300
H  7.47700 45.74100 38.50700
H  7.00800 47.01000 37.47600
H  5.79300 46.28200 38.69600

