158

Mg 41.19400 7.74500 29.70000
C  42.51900 9.30300 32.65400
C  38.85100 6.16800 31.75400
C  40.18100 6.09400 27.06800
C  43.72300 9.23700 27.99800
N  40.66400 7.80800 31.99900
C  41.38600 8.49700 32.93700
C  40.68900 8.28000 34.34000
C  39.57600 7.15300 34.04900
C  39.69700 6.98000 32.53700
C  39.55300 5.85400 34.93600
C  40.03400 9.55500 35.06100
C  40.04100 9.40600 36.54000
H  40.15600 10.72700 37.32100
N  39.56100 6.45200 29.40600
C  38.80300 5.91200 30.39500
C  37.84400 5.06800 29.72200
C  38.12000 5.02600 28.26900
C  39.38000 5.81200 28.17700
C  36.62100 4.44500 30.49500
C  37.35800 4.39600 27.17800
O  37.71000 4.44800 26.00400
C  36.09800 3.64500 27.52100
N  41.84300 7.71900 27.80500
C  41.31200 6.88600 26.85400
C  41.96700 6.92800 25.42400
C  42.97500 8.09300 25.66300
C  42.87100 8.41600 27.19100
C  42.66200 5.58400 25.04100
C  42.72800 9.28900 24.73600
C  41.38900 10.09100 25.19300
N  42.76900 8.91700 30.17300
C  43.68200 9.46300 29.32200
C  44.66800 10.20300 30.10100
C  44.25000 10.09400 31.46500
C  43.09900 9.31900 31.41400
C  45.82000 10.87900 29.58000
C  44.52000 10.59600 32.77200
O  45.47900 11.31000 33.08100
C  43.34200 10.08200 33.58700
C  43.84000 9.33400 34.77200
O  44.35300 8.23500 34.78200
O  43.66900 10.06400 35.84700
C  44.02400 9.41200 37.15800
H  38.06400 5.68500 32.33700
H  39.78100 5.57100 26.19700
H  44.50000 9.64400 27.34800
H  41.33600 7.69100 34.98900
H  38.60400 7.62600 34.18600
H  39.88500 5.02600 34.31000
H  38.54300 5.67200 35.30400
H  40.21000 5.87800 35.80600
H  38.99800 9.73500 34.77600
H  40.66900 10.37400 34.72400
H  40.70900 8.60200 36.84800
H  39.03500 9.04100 36.74600
H  35.75800 4.97600 30.09300
H  36.60400 4.52900 31.58200
H  36.60400 3.36900 30.32200
H  36.37800 2.83500 28.19500
H  35.76700 3.19900 26.58300
H  35.29700 4.26100 27.92900
H  41.15700 7.05500 24.70500
H  44.02800 7.83500 25.55000
H  42.27900 4.74700 25.62500
H  43.74700 5.48700 25.08200
H  42.30200 5.41200 24.02700
H  42.71000 8.83600 23.74400
H  43.69200 9.79800 24.75600
H  40.86900 9.68500 26.06100
H  40.71000 9.94400 24.35300
H  41.70600 11.12700 25.30700
H  45.95800 11.91000 29.90500
H  45.85600 10.72900 28.50100
H  46.59200 10.26700 30.04800
H  42.80200 10.95600 33.95000
H  45.06500 9.10300 37.06700
H  43.43000 8.55600 37.47800
H  43.91500 10.09400 38.00100
Mg 53.90300 23.13600 44.64000
C  51.57100 25.69700 44.01600
C  51.77200 20.79300 43.69100
C  56.49800 20.94900 44.26400
C  56.35000 25.62400 45.43100
N  51.97900 23.26800 43.84800
C  51.13100 24.40300 43.61700
C  49.77400 23.94600 43.12800
C  49.77700 22.41000 43.49000
C  51.23700 22.12500 43.67400
C  48.99900 22.06100 44.80000
C  49.48900 24.24100 41.64200
C  48.03300 24.14300 41.27100
H  47.76900 23.51300 39.90600
N  54.05200 21.05100 44.09000
C  53.03000 20.24900 43.75700
C  53.52600 18.90200 43.59300
C  54.92300 18.89600 43.90400
C  55.25500 20.31600 44.07500
C  52.57700 17.78700 43.21100
C  55.81500 17.70300 43.89600
O  55.31100 16.57100 43.84000
C  57.27300 17.74400 44.01100
N  56.10200 23.29800 44.68700
C  56.91200 22.25600 44.49200
C  58.44800 22.60900 44.80000
C  58.34100 24.08200 45.30700
C  56.82500 24.36800 45.19900
C  59.19100 21.54600 45.77700
C  59.25000 25.04000 44.51600
C  60.20900 25.85500 45.48200
N  53.91700 25.24300 44.93300
C  55.00100 26.11800 45.28300
C  54.44600 27.41900 45.40500
C  53.10600 27.30100 44.92700
C  52.84200 25.97400 44.57700
C  55.12000 28.53300 45.98900
C  51.85600 27.99100 44.76100
O  51.55200 29.10000 45.20600
C  50.77400 26.99800 44.07600
C  50.47100 27.59900 42.73200
O  51.28900 28.17000 42.00400
O  49.14100 27.41600 42.46100
C  48.57400 27.94900 41.23700
H  51.06200 19.96800 43.77900
H  57.34600 20.27200 44.14100
H  57.04800 26.41100 45.72600
H  49.01800 24.49700 43.68600
H  49.41800 21.76000 42.69200
H  48.19900 22.74300 45.08600
H  49.75600 22.25700 45.56000
H  48.58800 21.05600 44.89100
H  50.01200 23.52300 41.01100
H  49.83900 25.24600 41.41000
H  47.56300 25.12600 41.31500
H  47.49500 23.55000 42.01100
H  52.19700 17.84000 42.19100
H  51.74500 17.62800 43.89800
H  53.01600 16.79600 43.10000
H  57.48700 18.22500 44.96600
H  57.65100 18.22000 43.10700
H  57.67500 16.73000 44.01200
H  58.87900 22.66700 43.80100
H  58.45500 24.02100 46.39000
H  59.87000 20.96500 45.15200
H  58.48500 20.86700 46.25500
H  59.67400 22.05900 46.60800
H  58.66200 25.75300 43.93700
H  59.93900 24.40900 43.95600
H  61.23200 25.47900 45.46800
H  59.70000 25.99200 46.43600
H  60.32200 26.86100 45.07800
H  56.05300 28.65700 45.44000
H  55.37300 28.39500 47.04100
H  54.54200 29.44000 45.81300
H  49.90800 26.89000 44.72900
H  49.02600 27.56100 40.32400
H  48.64800 29.03400 41.16400
H  47.51300 27.69500 41.23800

