158

Mg 44.15400 4.39600 46.87000
C  42.11200 7.26300 46.68900
C  41.49900 2.38700 46.39200
C  46.29300 1.95300 46.08900
C  47.07900 6.67700 47.00500
N  42.05600 4.84400 46.65600
C  41.37500 6.02800 46.52600
C  39.91400 5.83500 46.16700
C  39.79300 4.26400 46.55600
C  41.20500 3.75600 46.50100
C  39.07300 3.84900 47.83800
C  39.51400 6.05000 44.67800
C  37.92600 5.93800 44.43100
H  37.37100 5.71600 43.02200
N  43.85200 2.42400 46.35400
C  42.71700 1.77400 46.34500
C  43.01100 0.34500 46.10800
C  44.37600 0.17300 46.00300
C  44.93700 1.53500 46.19800
C  41.94100 -0.77700 45.96100
C  45.11400 -1.14000 45.70300
O  44.49200 -2.18700 45.70400
C  46.49300 -1.20100 45.21600
N  46.36000 4.33700 46.46200
C  46.91800 3.13800 46.19200
C  48.50000 3.24500 46.25300
C  48.79700 4.71800 46.52800
C  47.35000 5.31100 46.67500
C  49.27400 2.29200 47.13200
C  49.69300 5.34200 45.47100
C  50.45500 6.55000 46.01900
N  44.57300 6.55500 47.00800
C  45.78400 7.28100 47.03700
C  45.37300 8.68200 47.20900
C  44.00000 8.70700 47.00200
C  43.53900 7.40500 46.90200
C  46.27100 9.84300 47.45700
C  42.83500 9.57400 46.82700
O  42.74400 10.76400 46.96900
C  41.51100 8.62000 46.66400
C  40.58100 8.76600 47.84900
O  40.38300 8.00000 48.78100
O  39.83100 9.93300 47.63200
C  38.76600 9.97900 48.67300
H  40.59600 1.77200 46.41100
H  47.03100 1.15300 46.00400
H  47.95400 7.30700 47.17900
H  39.32800 6.44900 46.85100
H  39.38500 3.78500 45.66500
H  38.69600 4.75300 48.31700
H  39.78700 3.40100 48.53000
H  38.25600 3.17700 47.57700
H  40.07200 5.36500 44.04000
H  39.74500 7.10300 44.51400
H  37.45700 6.85500 44.78800
H  37.60700 5.15800 45.12300
H  41.89400 -1.42100 45.08300
H  41.01500 -0.20300 45.91400
H  41.75600 -1.35200 46.86800
H  46.57200 -0.49100 44.39300
H  46.72200 -2.18600 44.81100
H  47.17900 -1.00200 46.03900
H  48.86300 3.11100 45.23400
H  49.33900 4.73800 47.47400
H  49.53400 1.43200 46.51600
H  48.60000 2.02100 47.94500
H  50.17000 2.73700 47.56300
H  48.91800 5.69800 44.79200
H  50.29100 4.71300 44.81200
H  49.99100 7.46900 45.66000
H  51.47200 6.36200 45.67600
H  50.54400 6.55400 47.10600
H  46.50400 9.82900 48.52200
H  45.87700 10.79200 47.09500
H  47.19900 9.65600 46.91600
H  40.87700 8.77900 45.79200
H  38.22100 9.04600 48.53100
H  38.10800 10.79400 48.37000
H  39.08500 10.10000 49.70800
Mg -11.54100 16.91500 42.22100
C  -8.29900 17.87000 41.86300
C  -12.59300 20.23200 41.73500
C  -14.86500 16.00500 42.54800
C  -10.39500 13.62900 42.43800
N  -10.56600 18.81100 41.68300
C  -9.20000 18.98000 41.73100
C  -8.70700 20.39600 41.58400
C  -10.13900 21.16300 41.71600
C  -11.19600 20.04600 41.76500
C  -10.24200 22.18600 42.94000
C  -8.02200 20.64600 40.21100
C  -6.75200 21.37400 40.26000
H  -5.62500 21.06400 39.26300
N  -13.48000 17.93700 41.93500
C  -13.68300 19.29500 41.76900
C  -15.08300 19.59500 41.84900
C  -15.75100 18.40000 42.08300
C  -14.73200 17.38100 42.23500
C  -15.55600 21.05000 41.70700
C  -17.25500 18.37200 42.21800
O  -17.95400 19.35700 42.08600
C  -18.00400 16.97500 42.40200
N  -12.46100 15.04400 42.09000
C  -13.81300 14.96400 42.52300
C  -14.10100 13.52500 42.90500
C  -12.76000 12.73200 42.46100
C  -11.78000 13.87100 42.39600
C  -14.48200 13.38000 44.39600
C  -12.80300 11.99800 41.14400
C  -13.70300 10.76000 41.06400
N  -9.72200 15.87200 42.17900
C  -9.37000 14.54700 42.27500
C  -7.93000 14.45400 42.40200
C  -7.44400 15.73800 42.15800
C  -8.57300 16.55700 42.08900
C  -7.21800 13.18200 42.78700
C  -6.27900 16.51500 42.06700
O  -5.13300 16.08400 42.14200
C  -6.76400 18.01300 41.87900
C  -6.33700 18.81500 43.13400
O  -6.82600 18.58300 44.18200
O  -5.29900 19.58600 42.90600
C  -4.65300 20.20600 44.04200
H  -12.88400 21.25200 41.47600
H  -15.85300 15.66900 42.86900
H  -10.10300 12.61400 42.71600
H  -8.24700 20.65600 42.53800
H  -10.23600 21.84500 40.87200
H  -10.12300 23.19800 42.55200
H  -9.55000 21.98700 43.75900
H  -11.24500 22.24300 43.36400
H  -8.59800 21.10400 39.40700
H  -7.83200 19.69400 39.71600
H  -6.38000 21.12200 41.25300
H  -6.97000 22.44100 40.21200
H  -16.53500 21.13800 41.23600
H  -14.82300 21.60600 41.12200
H  -15.57000 21.48700 42.70600
H  -19.02300 17.16800 42.06600
H  -17.98200 16.64400 43.44000
H  -17.61600 16.23400 41.70300
H  -14.88100 13.12400 42.25800
H  -12.26900 12.01000 43.11300
H  -15.46500 12.94000 44.55900
H  -14.38100 14.32700 44.92800
H  -13.77500 12.75500 44.94200
H  -11.81200 11.73500 40.77300
H  -13.18000 12.71400 40.41300
H  -14.53500 10.97500 40.39200
H  -14.02900 10.65700 42.09900
H  -13.16400 9.87300 40.73400
H  -7.36600 12.95400 43.84300
H  -6.15900 13.33100 42.58000
H  -7.67500 12.41100 42.16600
H  -6.31200 18.24300 40.91400
H  -5.24600 21.01600 44.46400
H  -3.75600 20.76200 43.76700
H  -4.26300 19.51100 44.78600

