158

Mg 25.20800 -6.52300 48.06300
C  27.81700 -4.51000 46.69700
C  23.05900 -5.47200 45.54500
C  23.15900 -9.18400 48.65300
C  27.65200 -8.02200 49.97200
N  25.46400 -5.19500 46.25100
C  26.57800 -4.32400 46.03100
C  26.19900 -3.33500 44.95000
C  24.60100 -3.52100 44.71000
C  24.32400 -4.80700 45.52100
C  23.63100 -2.37400 45.11400
C  27.03300 -3.53000 43.65600
C  27.43300 -2.17800 42.93300
H  27.06800 -1.93100 41.53800
N  23.34400 -7.23300 47.33600
C  22.65000 -6.61600 46.25900
C  21.49100 -7.43500 45.91200
C  21.45100 -8.50700 46.88000
C  22.70400 -8.34900 47.63700
C  20.52800 -7.28400 44.72400
C  20.42500 -9.62300 46.91700
O  19.46500 -9.69200 46.11600
C  20.39600 -10.67100 47.95600
N  25.34700 -8.27500 49.25100
C  24.33100 -9.16500 49.41200
C  24.71100 -10.27900 50.41700
C  26.17100 -10.02700 50.72000
C  26.44400 -8.68600 49.96600
C  23.68800 -10.25200 51.53500
C  27.20400 -11.10500 50.20200
C  27.75000 -11.94500 51.39300
N  27.27100 -6.13200 48.54000
C  28.13900 -6.86700 49.32200
C  29.35600 -6.20500 49.31300
C  29.27900 -5.20800 48.35800
C  27.99800 -5.31800 47.78600
C  30.56000 -6.66700 49.98100
C  29.94500 -4.14600 47.65600
O  31.07200 -3.74000 47.87500
C  29.07400 -3.68200 46.53100
C  28.77600 -2.17900 46.75400
O  29.47100 -1.29400 46.26800
O  27.64200 -2.01600 47.55100
C  27.23500 -0.72500 47.99300
H  22.34100 -5.10500 44.80900
H  22.56200 -10.09500 48.73300
H  28.45300 -8.48300 50.55300
H  26.25600 -2.35700 45.42700
H  24.39400 -3.68800 43.65300
H  23.63900 -1.66600 44.28600
H  24.20700 -1.81100 45.84800
H  22.63400 -2.71300 45.39400
H  26.44100 -4.04500 42.90000
H  27.88400 -4.20900 43.71800
H  28.47800 -1.97400 43.16600
H  26.83700 -1.42100 43.44100
H  20.93400 -6.60100 43.97900
H  19.55300 -6.91500 45.04300
H  20.43900 -8.22600 44.18400
H  21.28200 -11.28400 47.79400
H  19.55000 -11.35000 47.85300
H  20.35400 -10.24000 48.95600
H  24.65600 -11.20900 49.85200
H  26.36000 -9.86000 51.78100
H  22.70600 -10.53000 51.15200
H  23.64000 -9.34700 52.14100
H  23.81200 -11.10800 52.19800
H  28.08600 -10.55600 49.87400
H  26.63400 -11.56900 49.39800
H  28.70200 -12.24900 50.95700
H  27.10600 -12.73900 51.77100
H  28.05700 -11.39600 52.28300
H  31.16100 -7.06700 49.16500
H  30.32400 -7.32800 50.81600
H  31.04600 -5.74600 50.30400
H  29.57200 -3.88100 45.58200
H  26.75000 -0.90400 48.95200
H  26.51600 -0.34600 47.26700
H  28.10900 -0.07500 48.03400
Mg 47.46800 15.65900 27.79800
C  45.22300 15.22000 30.55900
C  49.67900 17.21500 30.06800
C  49.30200 16.44400 25.15600
C  45.00800 14.42800 25.74800
N  47.36500 16.24600 30.01100
C  46.37800 15.88500 30.93800
C  46.74400 16.40500 32.34000
C  48.03900 17.18900 32.05900
C  48.38700 16.87200 30.60900
C  47.99500 18.68700 32.28200
C  46.85400 15.21000 33.33400
C  46.20200 15.39000 34.74200
H  45.89700 16.78300 35.38000
N  49.24500 16.67100 27.67500
C  50.00900 17.22100 28.72500
C  51.23800 17.72000 28.13800
C  51.10300 17.40900 26.70000
C  49.81700 16.88500 26.45800
C  52.26600 18.48700 28.87300
C  52.11600 17.59700 25.59100
O  51.92100 17.31300 24.41100
C  53.53800 17.85100 25.98600
N  47.21900 15.38500 25.69600
C  48.17200 15.74800 24.86200
C  47.69400 15.60200 23.37900
C  46.33500 14.86900 23.51200
C  46.17800 14.82400 25.06800
C  47.50200 17.02200 22.78800
C  46.29200 13.53500 22.75700
C  46.73200 12.22300 23.48400
N  45.58600 14.86300 28.04100
C  44.70800 14.42100 27.08700
C  43.53500 13.95200 27.67800
C  43.63800 14.25300 28.99900
C  44.95900 14.72100 29.18400
C  42.39000 13.26500 27.00300
C  42.92500 14.24000 30.29400
O  41.78100 14.04100 30.66900
C  43.98000 14.85200 31.40300
C  43.35300 16.20900 32.01100
O  43.64400 17.30900 31.59900
O  42.46600 16.02400 33.02100
C  41.90100 17.24100 33.65100
H  50.40700 17.61200 30.77800
H  49.80500 16.63100 24.20500
H  44.25100 13.99600 25.09100
H  45.93800 17.11600 32.52600
H  48.81700 16.75300 32.68600
H  48.99100 19.08500 32.47700
H  47.50700 18.83100 33.24600
H  47.44500 19.27000 31.54300
H  47.88800 15.03800 33.63500
H  46.43000 14.32300 32.86300
H  46.85900 14.84300 35.41800
H  45.29700 14.78300 34.73400
H  52.11000 19.54300 28.65300
H  53.29300 18.18600 28.66500
H  52.11400 18.40600 29.94900
H  54.04700 17.95900 25.02900
H  53.82900 17.02000 26.62800
H  53.67900 18.78500 26.53100
H  48.38500 14.92500 22.87700
H  45.48000 15.49500 23.26100
H  47.90100 17.75300 23.49100
H  46.49300 17.24200 22.43800
H  48.06200 17.04400 21.85400
H  47.01100 13.72200 21.95900
H  45.27700 13.43700 22.37100
H  46.70300 12.37700 24.56200
H  47.71500 11.85300 23.19100
H  46.03600 11.40500 23.29500
H  41.82300 12.62600 27.67900
H  42.78600 12.71300 26.15100
H  41.82500 14.08000 26.55100
H  44.16600 14.25100 32.29300
H  40.81600 17.13900 33.66800
H  42.20300 18.20200 33.23400
H  42.23200 17.09000 34.67900

