158

Mg 29.73300 58.61000 38.65600
C  26.74500 56.87700 38.04000
C  31.40900 55.98200 37.41500
C  32.41200 60.66700 38.37000
C  27.79300 61.47500 39.20100
N  29.09600 56.67800 37.87100
C  27.90800 56.15500 37.73800
C  27.94400 54.72000 37.23600
C  29.40500 54.34500 37.42900
C  30.01000 55.80200 37.65400
C  29.64800 53.42400 38.66200
C  27.56800 54.74500 35.72200
C  26.47300 53.87900 35.10400
H  25.68000 54.62900 34.06500
N  31.70800 58.31400 38.07900
C  32.19600 57.16800 37.55000
C  33.61900 57.32100 37.38500
C  33.96700 58.60200 37.76500
C  32.71000 59.28100 38.10000
C  34.50300 56.19900 36.73200
C  35.31700 59.25500 37.70000
O  36.20500 58.49800 37.36600
C  35.57300 60.63100 37.91900
N  30.09700 60.81800 38.82500
C  31.29400 61.36800 38.78900
C  31.20200 62.81800 38.85500
C  29.72200 63.14000 39.08600
C  29.16300 61.70100 39.09900
C  32.26200 63.50400 39.86200
C  29.08200 63.95900 37.87700
C  27.97800 64.99500 38.18500
N  27.72100 59.05500 38.83000
C  27.08100 60.21500 39.02900
C  25.63700 60.08200 39.01400
C  25.42600 58.71300 38.67000
C  26.78900 58.16800 38.55000
C  24.60200 61.14200 39.17900
C  24.47800 57.69800 38.33200
O  23.30000 57.65100 38.23600
C  25.28000 56.42900 37.95200
C  24.97100 55.17900 38.83500
O  25.43100 55.01900 39.92700
O  23.96500 54.45600 38.24700
C  23.22000 53.54900 39.08800
H  31.87000 55.11700 36.93400
H  33.29600 61.28600 38.20600
H  27.23400 62.41200 39.24800
H  27.24600 54.07800 37.77300
H  29.85200 53.86200 36.56000
H  28.69200 53.35600 39.18200
H  30.49200 53.64500 39.31400
H  29.83500 52.39300 38.36200
H  28.37800 54.45000 35.05500
H  27.45500 55.75500 35.32700
H  25.84100 53.76000 35.98400
H  26.87300 52.92400 34.76300
H  35.09700 56.66500 35.94500
H  33.92200 55.42000 36.23700
H  35.01200 55.71000 37.56300
H  36.65400 60.77400 37.89400
H  35.10200 60.78600 38.88900
H  34.94200 61.15200 37.19900
H  31.52000 63.03600 37.83500
H  29.54800 63.66500 40.02500
H  32.99900 64.17500 39.42100
H  32.86500 62.75000 40.36800
H  31.66500 64.04400 40.59700
H  28.61600 63.25600 37.18600
H  29.80200 64.47400 37.24100
H  28.29100 66.00600 37.92400
H  27.77600 65.13700 39.24600
H  27.09600 64.68500 37.62300
H  23.84500 60.74700 39.85600
H  24.24600 61.44400 38.19400
H  24.99400 61.99100 39.74000
H  25.15600 56.24400 36.88500
H  23.31700 52.51800 38.74800
H  22.19000 53.84100 39.29500
H  23.64200 53.54400 40.09300
Mg -5.97600 25.71900 25.57900
C  -4.22700 27.01400 28.44200
C  -6.98300 23.14400 27.67800
C  -7.36400 24.21700 22.97300
C  -4.24700 27.91500 23.61900
N  -5.73600 25.26900 27.84300
C  -5.13700 26.01200 28.83400
C  -5.52000 25.50800 30.23800
C  -6.02800 24.11000 29.93500
C  -6.33200 24.16300 28.37900
C  -5.08300 22.90900 30.50400
C  -6.66400 26.48200 30.76100
C  -6.57900 26.73700 32.29900
H  -6.45700 25.45900 33.21900
N  -7.03000 23.91200 25.33100
C  -7.38300 23.01300 26.30200
C  -8.04000 21.89700 25.70800
C  -8.29700 22.20000 24.30800
C  -7.54400 23.50300 24.16000
C  -8.41600 20.70900 26.57300
C  -9.16600 21.46200 23.28900
O  -9.44900 22.02600 22.19000
C  -9.82600 20.11300 23.57900
N  -5.93000 26.05000 23.63100
C  -6.59200 25.30700 22.66300
C  -6.25700 25.75400 21.25500
C  -5.55900 27.12800 21.58800
C  -5.18500 26.97700 23.07500
C  -5.38600 24.83500 20.38200
C  -6.39900 28.38100 21.47000
C  -6.44600 29.01400 20.13100
N  -4.54900 27.17600 25.95900
C  -3.90900 27.99400 25.02800
C  -2.95400 28.81900 25.64900
C  -3.01700 28.40700 27.02600
C  -4.00500 27.45400 27.12200
C  -1.94900 29.76600 25.05700
C  -2.36400 28.69700 28.33200
O  -1.55800 29.53600 28.66000
C  -3.25300 27.83300 29.26500
C  -2.38400 27.04000 30.24100
O  -1.54800 26.20300 29.97200
O  -2.66500 27.31800 31.57500
C  -1.91400 26.61500 32.66200
H  -7.31600 22.35600 28.35700
H  -7.92800 23.85900 22.10900
H  -3.72400 28.61100 22.95900
H  -4.63000 25.51200 30.86800
H  -7.02700 23.94100 30.33700
H  -4.40600 22.69600 29.67700
H  -5.59300 22.01500 30.86400
H  -4.50700 23.35200 31.31700
H  -7.65700 26.06200 30.59900
H  -6.72600 27.48800 30.34600
H  -7.39000 27.42300 32.54400
H  -5.74800 27.40600 32.52100
H  -9.20100 20.11800 26.10200
H  -8.58300 20.93900 27.62500
H  -7.59200 19.99700 26.62300
H  -9.00200 19.42700 23.77600
H  -10.44500 19.83700 22.72600
H  -10.51800 20.24600 24.41100
H  -7.19800 25.96000 20.74600
H  -4.68000 27.25300 20.95500
H  -4.41800 25.31900 20.24900
H  -5.79700 24.58800 19.40300
H  -5.37700 23.94600 21.01300
H  -6.24400 29.09300 22.28100
H  -7.44400 28.07200 21.47600
H  -7.17200 28.38600 19.61300
H  -5.54500 28.87500 19.53400
H  -6.55100 30.09900 20.14500
H  -1.90500 30.58400 25.77600
H  -2.16800 30.11700 24.04800
H  -1.00000 29.23500 24.97600
H  -3.87400 28.53100 29.82600
H  -2.73100 26.57100 33.38200
H  -1.04700 27.05300 33.15600
H  -1.80100 25.56900 32.37600

