158

Mg 48.29000 16.32100 28.19900
C  46.09700 16.04000 30.94500
C  50.42900 18.18600 30.20900
C  50.23000 16.53100 25.68900
C  45.57800 15.24600 26.12100
N  48.21000 17.03400 30.29900
C  47.29400 16.75300 31.24500
C  47.67300 17.35200 32.63500
C  48.89600 18.23100 32.30100
C  49.21500 17.81200 30.85000
C  48.76000 19.73800 32.47900
C  48.03100 16.17400 33.63100
C  47.58900 16.35500 35.01900
H  47.67300 17.81600 35.61100
N  50.13700 17.10100 28.01400
C  50.94200 17.73700 28.93700
C  52.22500 18.01500 28.34500
C  52.15400 17.52000 27.03800
C  50.80600 17.05700 26.81300
C  53.36800 18.48200 29.23400
C  53.28900 17.49700 25.95800
O  53.10900 16.94000 24.91600
C  54.64700 18.23700 26.05500
N  47.89500 16.11600 26.15800
C  48.97400 16.06400 25.34400
C  48.69100 15.33100 23.96400
C  47.10200 15.10200 24.08100
C  46.81600 15.53000 25.52900
C  49.10100 15.95200 22.55800
C  46.53300 13.67100 23.73300
C  46.79100 12.60500 24.73200
N  46.21800 15.76800 28.42700
C  45.28100 15.28500 27.49500
C  44.09700 14.82700 28.19000
C  44.37600 15.13700 29.52900
C  45.66300 15.73600 29.62600
C  42.80300 14.23800 27.69700
C  43.78200 15.15400 30.85200
O  42.63400 14.86600 31.22100
C  44.85500 15.78700 31.86400
C  44.28700 17.08300 32.32900
O  44.20800 18.10500 31.68700
O  43.94500 16.87900 33.67900
C  43.12700 18.02700 34.18500
H  51.05300 18.90100 30.74900
H  50.77400 16.45300 24.74600
H  44.85900 14.88900 25.38200
H  46.79100 17.86200 33.02200
H  49.77300 17.99600 32.90400
H  48.97500 20.29500 31.56800
H  49.41900 20.07300 33.28000
H  47.72100 19.95600 32.72900
H  49.06800 15.83900 33.60500
H  47.42200 15.33400 33.29700
H  48.20900 15.65000 35.57300
H  46.54600 16.04100 35.02100
H  53.79600 19.41800 28.87500
H  54.26400 17.87400 29.10700
H  53.08200 18.61900 30.27700
H  55.40300 17.75600 25.43400
H  55.15500 18.15600 27.01500
H  54.45900 19.28200 25.80700
H  49.08600 14.31500 23.98600
H  46.57400 15.80700 23.43900
H  48.23700 16.06800 21.90400
H  49.85500 15.32600 22.08100
H  49.55400 16.93300 22.69900
H  46.90000 13.32000 22.76900
H  45.47000 13.79900 23.52900
H  47.37200 11.76200 24.35700
H  45.90700 12.17300 25.20100
H  47.40000 12.95700 25.56500
H  42.27400 13.71000 28.49100
H  43.05400 13.49600 26.93900
H  42.01700 14.85100 27.25600
H  44.98800 15.04900 32.65600
H  42.76700 18.68600 33.39500
H  43.72800 18.57800 34.90900
H  42.21300 17.83000 34.74600
Mg 50.67300 45.30200 42.09900
C  47.75100 46.73000 40.64000
C  49.72300 42.32200 40.81900
C  53.78500 44.33400 42.43800
C  51.66000 48.74200 42.82000
N  48.97800 44.63100 40.76200
C  47.82400 45.29900 40.46000
C  46.81000 44.35400 39.75600
C  47.38800 42.89900 40.15300
C  48.76500 43.29800 40.72200
C  46.50500 42.05200 41.08700
C  46.73200 44.64900 38.20600
C  45.28000 44.88300 37.64200
H  44.86500 43.88600 36.53400
N  51.63000 43.47600 41.66500
C  51.08500 42.31900 41.14200
C  52.11400 41.32000 41.11400
C  53.30300 41.85500 41.55600
C  52.97900 43.28900 41.92100
C  51.78600 39.96800 40.61000
C  54.62300 41.04500 41.71000
O  54.71000 39.88800 41.34000
C  55.81600 41.66300 42.21500
N  52.43400 46.45500 42.47100
C  53.54400 45.69800 42.71200
C  54.82800 46.61900 43.10600
C  54.04200 48.00200 43.31000
C  52.62600 47.70600 42.87900
C  55.69100 46.07900 44.29300
C  54.76700 49.06500 42.41500
C  54.84700 50.64500 42.87100
N  49.83500 47.34200 41.93200
C  50.42400 48.55400 42.18400
C  49.56100 49.57900 41.76200
C  48.46100 48.88900 41.13300
C  48.66200 47.55900 41.25800
C  49.80500 51.08600 41.87000
C  47.21600 49.10100 40.41600
O  46.66500 50.14500 40.07900
C  46.62700 47.77000 40.15000
C  45.32000 47.60000 40.80100
O  45.07700 46.86100 41.74600
O  44.40400 48.36800 40.17900
C  43.10500 48.25900 40.87800
H  49.36400 41.33800 40.51100
H  54.84900 44.09900 42.36400
H  51.81800 49.76600 43.16500
H  45.79000 44.47800 40.12000
H  47.55300 42.20900 39.32600
H  45.48200 42.39900 40.94200
H  46.81400 42.15300 42.12700
H  46.42400 40.98200 40.89700
H  47.02100 43.73700 37.68300
H  47.27900 45.57300 38.01900
H  45.04400 45.90100 37.33400
H  44.50200 44.92400 38.40400
H  52.47100 39.65900 39.82100
H  50.81200 39.90400 40.12400
H  51.96500 39.23800 41.39900
H  55.68900 42.03900 43.23000
H  56.00900 42.49200 41.53500
H  56.72500 41.07200 42.09700
H  55.58800 46.60900 42.32400
H  54.13200 48.15200 44.38600
H  56.65200 45.68700 43.96000
H  55.13200 45.21500 44.65400
H  55.67600 46.78900 45.12000
H  54.25100 49.05400 41.45500
H  55.78800 48.76900 42.17400
H  54.60100 50.64000 43.93300
H  54.16400 51.25600 42.28000
H  55.82700 51.05400 42.62900
H  50.85300 51.38200 41.93300
H  49.37100 51.34300 42.83600
H  49.26200 51.50800 41.02400
H  46.49800 47.66700 39.07200
H  42.31000 48.70000 40.27600
H  43.11900 48.70900 41.87100
H  42.81400 47.22200 41.04800

