158

Mg 17.67900 -1.36400 27.93100
C  16.51800 0.37500 30.68000
C  19.77100 -3.10300 30.00000
C  19.26400 -2.65100 25.16000
C  15.77900 0.68600 25.89700
N  18.24800 -1.24100 30.14300
C  17.43400 -0.56500 31.10800
C  17.91300 -0.93800 32.46800
C  19.16200 -1.85700 32.18400
C  19.08500 -2.09600 30.71100
C  20.56100 -1.37200 32.62100
C  16.74900 -1.44300 33.42100
C  16.83900 -0.84000 34.90200
H  18.18000 -0.36900 35.52400
N  19.04700 -2.82000 27.64500
C  19.68200 -3.49300 28.66000
C  20.40600 -4.51900 28.06900
C  20.20700 -4.45800 26.68200
C  19.54000 -3.22500 26.43300
C  21.43700 -5.43000 28.75200
C  20.75600 -5.42800 25.55100
O  20.50800 -5.23900 24.39500
C  21.59200 -6.67000 25.90700
N  17.57500 -1.00300 25.79000
C  18.37000 -1.64300 24.88800
C  18.00200 -1.16200 23.45000
C  16.91400 -0.12500 23.75300
C  16.69000 -0.15700 25.24700
C  19.11900 -0.55200 22.71700
C  15.56700 -0.34800 22.90700
C  15.31500 0.80500 21.93700
N  16.42000 0.12800 28.18500
C  15.70300 0.89300 27.29300
C  14.86400 1.78000 27.89900
C  15.09000 1.68100 29.25400
C  16.06000 0.62900 29.40200
C  13.86700 2.75300 27.23000
C  14.82000 2.16400 30.55200
O  14.06200 3.08100 30.98900
C  15.64400 1.25900 31.49000
C  16.40300 2.23300 32.34300
O  17.36200 2.89200 31.93500
O  15.80500 2.30500 33.59200
C  16.38700 3.26100 34.60200
H  20.29800 -3.74700 30.70700
H  19.68100 -3.13000 24.27100
H  15.06300 1.25500 25.30100
H  18.22400 0.02900 32.86100
H  19.08600 -2.70100 32.87100
H  21.03100 -2.08300 33.30100
H  20.49000 -0.41200 33.13100
H  21.20100 -1.16700 31.76300
H  16.71800 -2.52900 33.50800
H  15.78700 -1.28100 32.93400
H  16.51000 -1.65900 35.54200
H  16.13100 -0.01200 34.86200
H  20.98800 -6.37000 29.07000
H  21.78900 -4.90800 29.64200
H  22.38000 -5.56700 28.22300
H  21.03000 -7.23500 26.65100
H  22.55600 -6.39800 26.33700
H  21.74600 -7.37900 25.09300
H  17.74900 -2.00800 22.81200
H  17.30000 0.88600 23.61800
H  19.79500 -0.08400 23.43300
H  18.83400 0.23700 22.02100
H  19.71400 -1.26700 22.14900
H  14.67600 -0.43800 23.52900
H  15.70700 -1.25700 22.32200
H  16.28600 1.25600 21.73800
H  14.59700 1.52100 22.33600
H  15.03800 0.32300 20.99900
H  13.08700 2.84000 27.98600
H  13.42600 2.39100 26.30100
H  14.25600 3.75700 27.05900
H  14.95900 0.75200 32.17000
H  16.20400 2.86500 35.60100
H  15.80700 4.18200 34.54200
H  17.46300 3.42100 34.54000
Mg 46.83000 25.33000 28.13600
C  47.69100 27.61300 30.73700
C  46.48300 22.88900 30.65100
C  46.52000 23.09100 25.76200
C  47.78000 27.83300 25.85700
N  46.97900 25.26600 30.38400
C  47.18000 26.35600 31.22400
C  47.16500 25.99300 32.69800
C  46.81300 24.45600 32.68300
C  46.73200 24.16900 31.15500
C  47.92700 23.63300 33.34700
C  46.16500 26.85300 33.46300
C  45.78100 26.34600 34.86900
H  46.11500 27.17000 36.04100
N  46.48100 23.28400 28.18200
C  46.44300 22.44400 29.30000
C  46.35400 21.07300 28.79800
C  46.18500 21.17200 27.44400
C  46.39000 22.58500 27.04900
C  46.48400 19.81500 29.69000
C  45.84300 20.08000 26.43900
O  45.88700 20.23900 25.22100
C  45.49300 18.67000 26.91300
N  47.22700 25.42700 26.00700
C  46.89800 24.38000 25.25600
C  46.81900 24.78600 23.77300
C  47.25300 26.30800 23.81200
C  47.40600 26.56300 25.30400
C  47.68600 23.82200 22.92500
C  46.36000 27.38200 23.10200
C  46.99600 28.04300 21.92200
N  47.52400 27.32900 28.22300
C  47.87400 28.15800 27.18500
C  48.41600 29.41600 27.71100
C  48.33600 29.23800 29.09000
C  47.78600 27.96900 29.36800
C  49.10000 30.50700 27.06800
C  48.60500 29.87900 30.29400
O  49.15600 30.98100 30.56100
C  48.22900 28.84300 31.51700
C  49.34300 28.75200 32.44700
O  50.40700 28.23800 32.22800
O  48.90400 29.31500 33.58600
C  49.75000 29.31000 34.76100
H  46.35100 22.08600 31.38000
H  46.24800 22.49000 24.89200
H  47.85100 28.64900 25.13400
H  48.10900 26.17100 33.21300
H  45.83400 24.25600 33.11900
H  48.13500 22.76100 32.72700
H  47.65600 23.30600 34.35100
H  48.79400 24.28700 33.44600
H  45.31000 27.13600 32.84900
H  46.66100 27.82000 33.54700
H  46.13400 25.32100 34.97800
H  44.71200 26.13700 34.89000
H  47.23700 19.24100 29.15000
H  45.52800 19.29600 29.76500
H  46.94100 20.06100 30.64900
H  46.43100 18.18400 27.18000
H  45.02400 18.19100 26.05300
H  44.76400 18.64900 27.72300
H  45.77700 24.58900 23.52100
H  48.25900 26.46900 23.42400
H  47.03600 22.95300 22.82600
H  48.56500 23.44600 23.44900
H  47.93000 24.23200 21.94500
H  46.07300 28.14200 23.82900
H  45.55500 26.80700 22.64300
H  46.38400 27.75300 21.06800
H  48.00700 27.67300 21.75000
H  46.96600 29.12700 22.02800
H  48.97400 30.39200 25.99100
H  50.16200 30.52000 27.31200
H  48.64400 31.45500 27.35400
H  47.40000 29.40500 31.94600
H  49.12200 28.96200 35.58100
H  50.00800 30.33800 35.01500
H  50.71100 28.83100 34.57400

