158

Mg 35.86300 0.67800 30.42500
C  33.55900 1.24200 33.08300
C  38.34800 0.83900 32.73500
C  37.98800 0.36500 27.83900
C  33.21800 1.11200 28.12500
N  35.88000 1.09500 32.66600
C  34.84600 1.10600 33.59600
C  35.25200 1.27900 34.97500
C  36.73100 1.73500 34.75800
C  37.05400 1.09900 33.30300
C  36.99800 3.29000 34.89900
C  35.11500 0.03700 35.86100
C  34.67600 0.51900 37.30700
H  35.01200 1.93000 37.80400
N  37.85200 0.57000 30.32300
C  38.70300 0.57700 31.37800
C  40.04700 0.24800 30.94000
C  40.01300 0.13600 29.52400
C  38.56300 0.41200 29.17900
C  41.21400 0.17200 31.91000
C  41.10200 -0.09500 28.59800
O  40.89200 -0.17700 27.41900
C  42.53900 -0.42300 29.02700
N  35.65800 0.74200 28.30700
C  36.65800 0.51100 27.43000
C  36.29800 0.61300 25.97400
C  34.76900 0.79800 26.06100
C  34.48500 0.87800 27.60000
C  36.99400 1.66500 25.03700
C  33.99500 -0.20600 25.14100
C  33.48900 -1.46400 25.87800
N  33.80000 0.96700 30.54400
C  32.91000 1.17600 29.50400
C  31.62200 1.52400 30.06600
C  31.77400 1.51800 31.48500
C  33.16100 1.19200 31.70200
C  30.31400 1.63400 29.27200
C  31.13700 1.75900 32.75900
O  29.93600 1.96700 32.95800
C  32.29600 1.63900 33.80900
C  32.35200 2.96400 34.44900
O  32.50300 4.05500 33.88800
O  32.04100 2.82900 35.83000
C  31.60700 4.13100 36.40700
H  39.20900 0.97400 33.39100
H  38.61800 0.14900 26.97400
H  32.49400 1.37100 27.35000
H  34.66600 2.08100 35.42200
H  37.44500 1.28700 35.44900
H  37.61400 3.61600 35.73700
H  36.08500 3.84200 35.12000
H  37.44500 3.73900 34.01200
H  35.93100 -0.66400 36.03400
H  34.33600 -0.55200 35.37500
H  35.04300 -0.22100 38.01900
H  33.58800 0.56100 37.27800
H  41.08500 0.73500 32.83400
H  42.14700 0.59300 31.53500
H  41.39500 -0.82100 32.32100
H  42.94700 0.39400 29.62300
H  43.06700 -0.51500 28.07700
H  42.73300 -1.37100 29.52700
H  36.35400 -0.37500 25.51700
H  34.48600 1.78400 25.69100
H  37.86500 2.14800 25.48000
H  36.31400 2.44300 24.69000
H  37.29700 1.17600 24.11200
H  34.56100 -0.51800 24.26300
H  33.10800 0.30400 24.76500
H  33.96000 -1.48000 26.86100
H  33.92200 -2.41400 25.56700
H  32.42400 -1.45700 26.11300
H  29.77200 0.79000 29.70000
H  30.57700 1.56900 28.21600
H  29.76900 2.56900 29.40500
H  32.00800 0.94200 34.59600
H  31.35500 4.89700 35.67400
H  32.39900 4.49500 37.06100
H  30.77900 3.90700 37.08000
Mg 53.35900 24.45700 45.11000
C  50.52400 26.41700 44.17300
C  51.76700 21.72400 43.72100
C  56.24600 22.67400 45.43200
C  54.87300 27.31700 46.15800
N  51.48700 24.15600 43.98900
C  50.44100 25.04800 43.83200
C  49.20700 24.44100 43.16500
C  49.47000 22.94700 43.48700
C  51.00200 22.90000 43.78300
C  48.50400 22.29100 44.52300
C  49.18500 24.77400 41.69200
C  47.68000 24.88400 41.10900
H  46.98000 23.56400 40.70000
N  53.97600 22.48200 44.52400
C  53.09100 21.51400 44.08800
C  53.74200 20.23300 44.05000
C  55.07800 20.43500 44.50000
C  55.20900 21.89100 44.75900
C  53.08100 18.89500 43.85500
C  56.13500 19.33200 44.80800
O  55.99200 18.14600 44.48500
C  57.42600 19.62500 45.39000
N  55.30400 24.94700 45.70500
C  56.26900 24.03000 45.80200
C  57.62800 24.72800 46.17900
C  57.21800 26.23200 46.38900
C  55.68000 26.14700 46.07100
C  58.14500 24.12300 47.47900
C  57.98000 27.32200 45.57300
C  58.52700 28.48500 46.47100
N  52.78100 26.43500 45.32900
C  53.56300 27.47600 45.74600
C  52.76800 28.66300 45.85800
C  51.54300 28.32000 45.18100
C  51.65800 26.91900 44.88100
C  53.13500 29.95500 46.42500
C  50.20400 28.76800 44.81600
O  49.67200 29.88700 45.01900
C  49.51000 27.62200 44.06800
C  49.17500 28.08700 42.67800
O  49.95100 28.13200 41.71400
O  47.87900 28.38200 42.63000
C  47.24500 28.48300 41.35600
H  51.26800 20.76700 43.55400
H  57.05700 22.02700 45.77400
H  55.26800 28.25500 46.55500
H  48.25800 24.72800 43.61700
H  49.27800 22.34800 42.59700
H  48.55900 21.22500 44.74400
H  47.54200 22.71000 44.22900
H  48.78300 22.69900 45.49500
H  49.64200 23.91900 41.19400
H  49.73700 25.65700 41.37100
H  47.68500 25.55200 40.24700
H  46.98100 25.18100 41.89100
H  53.67700 18.40900 43.08400
H  52.05500 18.94500 43.48900
H  53.03100 18.20500 44.69800
H  58.10300 18.77400 45.46600
H  57.37700 19.99500 46.41400
H  57.90900 20.35000 44.73500
H  58.41600 24.62900 45.43300
H  57.28500 26.56300 47.42500
H  59.12200 23.70900 47.23100
H  57.42500 23.40100 47.86100
H  58.19300 24.87700 48.26500
H  57.32900 27.77700 44.82600
H  58.80900 26.87400 45.02400
H  58.54400 29.40400 45.88400
H  59.56000 28.24500 46.72200
H  57.96300 28.54700 47.40100
H  54.01300 29.95200 47.07200
H  52.27200 30.40500 46.91600
H  53.48500 30.44100 45.51400
H  48.57100 27.25400 44.48000
H  46.59200 27.62000 41.22900
H  47.98000 28.55100 40.55300
H  46.60500 29.36500 41.35300

