158

Mg 9.04300 48.16200 25.56700
C  6.87000 48.79000 28.19800
C  11.67600 48.64800 27.65100
C  10.94200 47.64100 23.02000
C  6.13700 47.97900 23.54900
N  9.23000 48.77200 27.66100
C  8.24100 48.88700 28.59900
C  8.82500 48.99900 30.03900
C  10.31800 49.33800 29.72300
C  10.43300 48.94500 28.24900
C  10.72300 50.82000 29.97600
C  8.66100 47.70100 30.92200
C  9.46300 47.58200 32.20300
H  8.71700 46.75100 33.33800
N  11.04800 48.20000 25.31600
C  12.01400 48.33000 26.34700
C  13.34000 48.18600 25.80400
C  13.11900 47.71400 24.47800
C  11.68800 47.93800 24.17000
C  14.60500 48.35200 26.57800
C  14.12400 47.13200 23.48800
O  13.72900 46.63400 22.43400
C  15.60700 47.00200 23.67000
N  8.60400 48.09700 23.51900
C  9.63100 47.81100 22.65000
C  9.01200 47.39500 21.34000
C  7.46900 47.81600 21.47200
C  7.35100 47.94400 22.94000
C  9.73700 47.99500 20.11500
C  6.46200 46.86700 20.84900
C  5.35800 47.49300 20.06700
N  6.93800 48.27700 25.84600
C  5.93000 48.13100 24.92800
C  4.59900 48.38200 25.57900
C  4.98000 48.52100 26.90900
C  6.35900 48.52800 26.96100
C  3.21000 48.15600 24.93500
C  4.40900 48.73000 28.21900
O  3.24500 48.73500 28.59300
C  5.65400 48.75500 29.13000
C  5.52000 47.48900 29.88700
O  5.70000 46.34500 29.46800
O  5.13900 47.79600 31.18900
C  4.91500 46.68500 32.18800
H  12.41500 48.79100 28.44200
H  11.53100 47.17400 22.22800
H  5.15500 47.92900 23.07300
H  8.32100 49.82300 30.54400
H  11.00200 48.83300 30.40600
H  10.24500 51.41400 29.19700
H  11.79700 51.00400 29.93300
H  10.32500 51.20400 30.91500
H  8.69200 46.83400 30.26200
H  7.62400 47.68100 31.25900
H  9.69100 48.56100 32.62400
H  10.41100 47.09300 31.97600
H  15.23700 47.47200 26.69500
H  14.30700 48.58900 27.59900
H  15.18200 49.23900 26.31600
H  16.05000 47.28700 22.71600
H  15.91100 46.02600 24.04700
H  15.89500 47.79300 24.36300
H  9.08600 46.30800 21.35200
H  7.36500 48.80100 21.01700
H  10.40300 48.76700 20.50000
H  9.09200 48.38200 19.32600
H  10.34200 47.19800 19.68400
H  5.94500 46.26400 21.59500
H  7.01400 46.16600 20.22300
H  5.29900 48.56300 20.26500
H  4.39300 47.00200 20.18800
H  5.59500 47.36300 19.01100
H  2.90500 47.14600 25.20800
H  3.23400 48.05300 23.85000
H  2.45300 48.91800 25.11900
H  5.60800 49.58000 29.84100
H  3.83500 46.55000 32.24900
H  5.26900 46.98100 33.17600
H  5.36500 45.73600 31.89800
Mg -5.52300 25.87100 25.61800
C  -4.61200 27.27900 28.62500
C  -7.16800 23.47200 27.40300
C  -5.76400 24.21200 22.78800
C  -3.16000 28.13500 24.19900
N  -5.75800 25.36000 27.79000
C  -5.38300 26.12700 28.80800
C  -5.78700 25.57700 30.23400
C  -6.44900 24.22300 29.79300
C  -6.43300 24.30300 28.26000
C  -5.69500 22.92200 30.28200
C  -6.77300 26.51400 31.13600
C  -6.80300 26.17800 32.69000
H  -5.90400 24.98900 33.29200
N  -6.53300 24.20600 25.16300
C  -7.22800 23.38800 25.94900
C  -7.92400 22.43400 25.18500
C  -7.55500 22.61200 23.85000
C  -6.60000 23.75600 23.86000
C  -8.89600 21.50100 25.73000
C  -8.02200 21.85100 22.59100
O  -7.54800 22.20000 21.50900
C  -9.14900 20.81200 22.69000
N  -4.64300 26.22000 23.76300
C  -4.88300 25.37400 22.70500
C  -3.95100 25.70200 21.49200
C  -3.55800 27.18200 21.89700
C  -3.69100 27.12200 23.42000
C  -2.72300 24.73900 21.33200
C  -4.43300 28.25700 21.34100
C  -3.70700 29.46700 20.53100
N  -4.26700 27.48400 26.21500
C  -3.39900 28.27600 25.51200
C  -2.85700 29.27600 26.36800
C  -3.33700 28.87300 27.64900
C  -4.16800 27.78800 27.44900
C  -1.82800 30.33900 26.04600
C  -3.22500 29.18400 29.04600
O  -2.68700 30.19600 29.58800
C  -4.03000 28.19400 29.71800
C  -3.10800 27.59000 30.70000
O  -2.26400 26.73600 30.42500
O  -3.24200 28.13600 31.99700
C  -2.23200 27.76000 33.06100
H  -7.74700 22.74200 27.97200
H  -5.84700 23.59600 21.89000
H  -2.39400 28.80200 23.79700
H  -4.87800 25.37300 30.80100
H  -7.42900 24.12200 30.26000
H  -4.84600 23.06900 30.95000
H  -5.28300 22.44800 29.39100
H  -6.41000 22.28300 30.80000
H  -7.72900 26.21900 30.70300
H  -6.65200 27.57200 30.90300
H  -7.85500 26.18600 32.97600
H  -6.39200 27.03200 33.22800
H  -8.70600 20.46900 25.43500
H  -9.90000 21.80800 25.43800
H  -8.81900 21.36800 26.80900
H  -9.46200 20.53300 21.68400
H  -9.91500 21.45300 23.12500
H  -8.96700 19.89800 23.25600
H  -4.50700 25.74300 20.55600
H  -2.49000 27.26200 21.69400
H  -1.85300 25.31100 21.01100
H  -2.90900 24.03200 20.52400
H  -2.50700 24.10200 22.18900
H  -4.97400 28.78000 22.13000
H  -5.25000 27.94900 20.69000
H  -3.97100 29.40600 19.47600
H  -2.66100 29.31000 20.79800
H  -4.04900 30.44100 20.88200
H  -2.36600 31.28000 26.16700
H  -1.40100 30.25000 25.04800
H  -1.15800 30.28300 26.90400
H  -4.82400 28.67100 30.29200
H  -1.25800 27.59600 32.60000
H  -2.64400 26.79200 33.34600
H  -2.25500 28.53600 33.82700

