158

Mg 24.91400 1.65200 29.57400
C  26.83600 1.33600 32.49100
C  22.14200 1.72000 31.50200
C  23.01500 1.61500 26.73300
C  27.76800 1.39000 27.76100
N  24.52600 1.49400 31.78800
C  25.43000 1.46100 32.73300
C  24.75900 1.64700 34.12800
C  23.19200 1.59400 33.79600
C  23.25000 1.57400 32.29900
C  22.30300 0.45700 34.39300
C  25.30400 2.92700 34.89900
C  26.02000 2.68900 36.28300
H  25.61200 3.60600 37.51200
N  22.87700 1.69800 29.15000
C  21.87400 1.80800 30.08300
C  20.68400 2.05400 29.46200
C  20.90100 1.80600 28.08400
C  22.32600 1.65000 27.91200
C  19.36000 2.27700 30.20400
C  19.87600 1.60400 26.94000
O  20.12800 1.42400 25.76100
C  18.43000 1.64300 27.35900
N  25.34400 1.45600 27.60800
C  24.38600 1.55200 26.63800
C  25.08800 1.65000 25.26100
C  26.53200 1.85100 25.59800
C  26.56100 1.66500 27.09400
C  24.74300 0.51800 24.26900
C  27.38900 3.07100 25.04400
C  26.76100 4.48200 25.34700
N  26.93600 1.24000 30.05400
C  27.97800 1.21200 29.14300
C  29.21200 0.93200 29.89300
C  28.81400 0.99800 31.29700
C  27.44800 1.13200 31.28900
C  30.50000 0.84200 29.22200
C  29.27900 1.05000 32.63600
O  30.37000 1.04600 33.15300
C  27.98400 1.32700 33.51100
C  27.94700 0.29600 34.66400
O  27.46900 -0.81100 34.63800
O  28.58400 0.83400 35.72200
C  28.68100 -0.05900 36.94800
H  21.28500 1.63500 32.17300
H  22.52600 1.83900 25.78200
H  28.67800 1.39800 27.15600
H  25.00000 0.82700 34.80500
H  22.71800 2.51500 34.13300
H  21.66100 0.92200 35.14100
H  22.87700 -0.24300 34.99900
H  21.68400 -0.04200 33.64700
H  24.43500 3.56800 35.04800
H  25.89900 3.55500 34.23600
H  27.08000 2.92800 36.19800
H  25.87800 1.66900 36.64100
H  19.56900 2.75300 31.16200
H  18.82800 1.34300 30.38600
H  18.84700 2.97300 29.54100
H  18.24800 0.80600 28.03200
H  17.86500 1.44900 26.44700
H  18.06600 2.58100 27.77800
H  24.72700 2.60700 24.88500
H  27.14700 1.01600 25.26100
H  25.52900 -0.23700 24.25400
H  24.48900 0.82000 23.25300
H  23.89700 -0.03500 24.67500
H  27.56100 3.05800 23.96800
H  28.36300 3.01400 25.52900
H  25.93300 4.34700 26.04400
H  26.40600 4.88200 24.39800
H  27.59400 5.10800 25.66600
H  30.55500 1.43900 28.31100
H  30.61500 -0.23100 29.06700
H  31.27300 1.24900 29.87500
H  27.99900 2.34000 33.91200
H  29.19800 0.34700 37.81700
H  29.02600 -1.05400 36.66600
H  27.66100 -0.06300 37.33400
Mg 26.96200 50.11300 26.97100
C  24.91100 51.21100 29.73600
C  29.22300 48.98500 29.10700
C  29.11800 49.96700 24.39000
C  24.56700 51.63600 24.84500
N  27.07400 50.33500 29.15900
C  26.07900 50.60700 30.13700
C  26.64800 50.33700 31.57700
C  28.08700 49.61000 31.27500
C  28.12500 49.61800 29.73300
C  29.31200 50.33600 31.99100
C  25.69300 49.46600 32.48700
C  25.21300 50.11100 33.79600
H  25.30200 49.16400 34.99800
N  28.86400 49.51900 26.76900
C  29.62200 48.98800 27.74500
C  30.86700 48.37800 27.13900
C  30.78400 48.63500 25.77000
C  29.57000 49.45600 25.54900
C  31.97900 47.77000 27.99500
C  31.75300 48.30800 24.65500
O  31.63600 48.62500 23.44200
C  33.05000 47.57400 24.97000
N  26.89200 50.85400 24.96100
C  27.91300 50.55600 24.07600
C  27.45900 50.78100 22.61900
C  25.94100 51.01100 22.75300
C  25.76200 51.23100 24.27800
C  28.20000 51.95800 21.98800
C  25.04900 49.80100 22.23400
C  24.25200 49.95600 20.95100
N  25.00000 51.18400 27.15700
C  24.19300 51.69000 26.19200
C  22.96100 52.07200 26.82900
C  23.27400 51.97500 28.20900
C  24.47900 51.37100 28.30200
C  21.69700 52.43700 26.18500
C  22.65700 52.09500 29.51000
O  21.52700 52.50500 29.78900
C  23.63900 51.64100 30.55700
C  23.88100 52.66700 31.56300
O  24.84400 53.48300 31.57300
O  22.96900 52.52700 32.56500
C  23.09500 53.49500 33.71300
H  29.85400 48.44500 29.81600
H  29.80600 49.85700 23.54800
H  23.76600 51.97400 24.18400
H  26.82300 51.31900 32.01700
H  28.03800 48.58400 31.63800
H  29.00700 50.77800 32.93900
H  29.89600 51.00600 31.36000
H  30.03200 49.53900 32.18000
H  26.14900 48.49300 32.67200
H  24.81600 49.21500 31.88900
H  24.15600 50.31500 33.62700
H  25.63700 51.08700 34.03000
H  31.75200 48.06800 29.01800
H  32.95300 48.17300 27.71900
H  32.03700 46.69000 27.86400
H  32.97200 46.56700 25.37800
H  33.55300 48.22800 25.68200
H  33.61500 47.62600 24.03900
H  27.53700 49.85300 22.05300
H  25.51400 51.91900 22.32600
H  28.52900 51.59100 21.01500
H  29.07700 52.39400 22.46500
H  27.52600 52.79400 21.80400
H  24.41000 49.34800 22.99100
H  25.72600 48.99100 21.96400
H  24.52600 49.20700 20.20800
H  24.37600 51.00400 20.67600
H  23.20100 49.77700 21.17900
H  20.84200 52.34000 26.85500
H  21.58300 51.98500 25.19900
H  21.78400 53.50300 25.97800
H  23.21500 50.79500 31.09800
H  23.32700 52.92000 34.60900
H  22.12900 53.88400 34.03500
H  23.78500 54.33000 33.59300

