158

Mg 40.33000 9.57400 29.85500
C  42.33600 10.83400 32.39300
C  38.39700 8.26500 32.21200
C  38.47300 8.34100 27.37800
C  42.68500 10.76800 27.57200
N  40.44600 9.40300 32.02500
C  41.21400 10.10000 32.89500
C  40.90500 9.87400 34.40700
C  39.63400 8.91400 34.23000
C  39.46600 8.87400 32.70200
C  39.71800 7.54200 34.85900
C  40.58500 11.24400 35.14500
C  40.12700 11.06100 36.60500
H  40.93100 11.68800 37.74300
N  38.60200 8.51200 29.77800
C  37.95700 8.03200 30.85100
C  36.79600 7.25500 30.42700
C  36.74400 7.29600 29.03600
C  37.98100 8.06800 28.64200
C  35.78800 6.61300 31.34400
C  35.73700 6.82200 28.05900
O  35.88300 7.04800 26.85500
C  34.50400 6.11200 28.53700
N  40.57300 9.57900 27.76000
C  39.63000 9.00400 26.99700
C  39.81200 9.44600 25.52400
C  41.29700 10.17000 25.53900
C  41.54400 10.14500 27.05100
C  39.74200 8.22800 24.56400
C  41.45000 11.54800 24.82700
C  40.61600 12.74400 25.29300
N  42.16900 10.42200 29.93000
C  42.99500 10.85200 28.92600
C  44.20200 11.54900 29.52900
C  43.88600 11.61700 30.88400
C  42.71600 10.90100 31.05900
C  45.37200 12.09200 28.79000
C  44.36000 12.06700 32.19000
O  45.41200 12.64100 32.44800
C  43.39700 11.50100 33.21700
C  44.09500 10.53400 34.06100
O  44.34600 9.38100 33.80200
O  44.37800 11.03900 35.31200
C  45.22800 10.26800 36.19500
H  37.67600 7.77500 32.87000
H  37.79300 8.28000 26.52600
H  43.29500 11.19400 26.77300
H  41.66600 9.30200 34.93700
H  38.76800 9.29000 34.77500
H  40.74300 7.40500 35.20600
H  39.38600 6.80600 34.12700
H  39.20700 7.55400 35.82200
H  39.77800 11.68700 34.56200
H  41.48100 11.86600 35.16200
H  40.18300 10.01500 36.90900
H  39.11800 11.45600 36.72200
H  35.92700 6.80700 32.40700
H  36.03800 5.56300 31.19100
H  34.77000 6.74700 30.97900
H  33.93400 5.69700 27.70600
H  33.89900 6.89500 28.99500
H  34.67600 5.35000 29.29600
H  39.12400 10.25400 25.27500
H  41.97700 9.45100 25.08200
H  40.05900 7.28900 25.01700
H  40.26700 8.47200 23.64000
H  38.67900 8.12300 24.35100
H  41.10000 11.41600 23.80300
H  42.50900 11.75400 24.67100
H  41.22700 13.47400 25.82300
H  39.89300 12.31500 25.98600
H  40.12600 13.30300 24.49600
H  45.73300 11.25000 28.20000
H  46.23000 12.39400 29.39000
H  45.06900 12.90400 28.12800
H  42.98600 12.33800 33.78000
H  44.79500 9.27800 36.33700
H  45.19300 10.79100 37.15100
H  46.30400 10.14900 36.07100
Mg -1.63500 33.65300 27.20200
C  -3.61500 31.97900 29.63000
C  -0.30900 35.59100 29.64500
C  0.02700 35.37800 24.72700
C  -3.49700 32.08800 24.66700
N  -1.91900 33.68400 29.32900
C  -2.77300 32.99300 30.20800
C  -2.50600 33.21400 31.71600
C  -1.63700 34.53500 31.63800
C  -1.26400 34.68000 30.10000
C  -2.29400 35.84600 32.14400
C  -1.88700 31.93200 32.43600
C  -2.73300 31.39300 33.65300
H  -1.97700 31.57300 34.97400
N  -0.33800 35.22500 27.19700
C  0.17900 35.84100 28.31100
C  1.04100 36.91900 27.90400
C  1.16800 36.85100 26.47500
C  0.28500 35.74100 26.09300
C  1.56000 37.96000 28.81800
C  1.94800 37.72400 25.52800
O  1.97100 37.56200 24.32700
C  2.82200 38.76600 26.09100
N  -1.84000 33.88100 25.05600
C  -0.93300 34.52200 24.25500
C  -0.95800 33.95100 22.77500
C  -2.23200 32.99000 22.81500
C  -2.53400 32.95400 24.28100
C  -1.13900 35.00300 21.64900
C  -1.89600 31.63100 22.06900
C  -3.09900 30.99000 21.39900
N  -3.17800 32.31700 27.06100
C  -3.79700 31.72900 25.99900
C  -4.72200 30.79000 26.46700
C  -4.70700 30.78600 27.85900
C  -3.74900 31.74500 28.19900
C  -5.62100 30.05400 25.58400
C  -5.24800 30.21700 29.07500
O  -6.09500 29.37900 29.25800
C  -4.55500 30.96900 30.31500
C  -5.60700 31.68900 31.20300
O  -6.13800 32.75200 30.97900
O  -5.84300 30.90300 32.35400
C  -6.68000 31.38000 33.45800
H  0.23700 36.14500 30.41100
H  0.62300 35.74800 23.89000
H  -3.97800 31.54300 23.85100
H  -3.39400 33.48100 32.28900
H  -0.75000 34.44200 32.26500
H  -2.35200 36.64500 31.40500
H  -1.60400 36.25700 32.88100
H  -3.35300 35.75500 32.38500
H  -0.85500 32.24400 32.59800
H  -1.89900 31.10500 31.72600
H  -2.98700 30.33800 33.55200
H  -3.70600 31.87700 33.73600
H  2.63900 38.10900 28.77800
H  1.23900 37.77100 29.84300
H  1.04500 38.89600 28.60300
H  3.25400 39.40000 25.31700
H  3.62700 38.28500 26.64700
H  2.31600 39.48300 26.73800
H  -0.08700 33.30100 22.69900
H  -3.04700 33.62700 22.47100
H  -1.43700 35.94900 22.10200
H  -1.91400 34.72500 20.93500
H  -0.19500 35.08400 21.11000
H  -1.64400 30.89600 22.83400
H  -1.10500 31.80500 21.33900
H  -2.89600 30.73800 20.35800
H  -3.91300 31.71500 21.39100
H  -3.38900 30.12200 21.99100
H  -5.00500 29.67100 24.77000
H  -6.35700 30.78300 25.24600
H  -6.06800 29.22100 26.12600
H  -3.90600 30.30700 30.88900
H  -7.45700 32.07200 33.13300
H  -6.08700 31.87100 34.23000
H  -7.32400 30.64700 33.94400

