158

Mg 16.86100 52.06500 26.13000
C  18.49200 50.74500 28.91900
C  14.32000 53.01200 28.25900
C  15.09000 53.03500 23.48000
C  19.37800 50.77800 24.06700
N  16.50500 52.03600 28.45500
C  17.32400 51.48800 29.30200
C  16.85100 51.77700 30.78200
C  15.40600 52.18500 30.55300
C  15.35600 52.49600 29.02700
C  14.33300 51.12200 31.00200
C  17.85200 52.75200 31.46900
C  18.17700 52.45100 32.92700
H  17.05000 51.79600 33.80300
N  15.03000 52.91800 25.91100
C  14.10600 53.21400 26.89300
C  12.91500 53.85500 26.30300
C  13.24000 53.97800 24.94800
C  14.54300 53.33300 24.72100
C  11.80400 54.49200 27.11900
C  12.37300 54.53500 23.82900
O  12.68300 54.54500 22.65400
C  11.09500 55.07600 24.17500
N  17.14800 51.88100 24.07500
C  16.31900 52.41800 23.16300
C  16.88000 52.29900 21.74500
C  18.30700 51.74800 21.95200
C  18.33000 51.46000 23.41400
C  15.99200 51.44200 20.78700
C  19.43300 52.70400 21.48900
C  19.50500 54.19200 21.84800
N  18.53300 50.82300 26.32800
C  19.52500 50.50500 25.43600
C  20.59800 49.74600 26.09900
C  20.18900 49.80200 27.51500
C  18.94400 50.53900 27.57800
C  21.88200 49.20100 25.50600
C  20.57000 49.44300 28.85500
O  21.51500 48.78600 29.23100
C  19.49700 50.05200 29.82200
C  18.94500 48.93000 30.54800
O  18.16800 48.11500 30.08300
O  19.29800 49.03800 31.84300
C  18.75800 48.10900 32.82500
H  13.49100 53.24000 28.93200
H  14.59200 53.10800 22.51100
H  20.28800 50.64200 23.48000
H  16.88400 50.80800 31.28000
H  15.10900 53.08800 31.08600
H  13.68400 51.60100 31.73500
H  14.89600 50.26000 31.36000
H  13.68900 50.73400 30.21300
H  17.49900 53.78300 31.48400
H  18.81800 52.65700 30.97200
H  18.37700 53.34700 33.51400
H  19.06200 51.82200 32.82100
H  12.06000 54.45500 28.17800
H  10.88800 53.90700 27.03900
H  11.64500 55.52200 26.79900
H  10.37800 54.39800 24.63800
H  10.53200 55.02900 23.24300
H  11.17900 56.08600 24.57700
H  16.91500 53.34900 21.45400
H  18.41800 50.75000 21.52900
H  16.51400 50.84300 20.04100
H  15.42700 51.97900 20.02400
H  15.32500 50.76600 21.32200
H  19.40900 52.87600 20.41300
H  20.37700 52.20300 21.70400
H  20.22900 54.35200 22.64700
H  18.55000 54.52600 22.25200
H  19.84400 54.72700 20.96100
H  21.94400 49.25800 24.41900
H  22.09400 48.14400 25.66900
H  22.73900 49.66100 25.99700
H  20.03800 50.69500 30.51700
H  19.28800 47.15900 32.76600
H  17.67200 48.02100 32.84400
H  18.96400 48.48900 33.82600
Mg -9.63400 38.69200 40.78100
C  -8.85900 35.40900 40.09000
C  -6.53600 39.69100 39.75200
C  -10.77700 41.84200 40.76400
C  -12.85400 37.57100 41.68400
N  -7.89300 37.66000 39.96900
C  -7.88000 36.29400 39.67600
C  -6.48300 35.95000 39.11500
C  -5.62500 37.29700 39.27300
C  -6.71300 38.29800 39.70900
C  -4.60100 37.19900 40.44700
C  -6.69500 35.49300 37.64000
C  -7.31900 36.42900 36.61000
H  -8.28600 35.87600 35.54500
N  -8.77500 40.55400 40.33900
C  -7.49100 40.76000 39.98300
C  -7.26900 42.16300 39.77300
C  -8.45400 42.85300 39.99900
C  -9.41000 41.75700 40.41600
C  -5.88500 42.77600 39.51200
C  -8.75500 44.33200 39.90900
O  -7.91300 45.13200 39.48700
C  -10.16900 44.90300 40.13000
N  -11.48700 39.55200 41.17400
C  -11.70100 40.92600 41.15200
C  -13.17700 41.29700 41.50800
C  -13.82300 39.90800 41.91900
C  -12.65000 38.93100 41.58500
C  -13.46300 42.48100 42.48300
C  -15.21200 39.57000 41.22600
C  -16.21600 38.83400 42.09200
N  -10.64100 36.87100 40.97800
C  -11.92000 36.52600 41.37900
C  -12.12400 35.21000 41.38700
C  -10.92600 34.65300 40.85200
C  -10.10500 35.73900 40.58700
C  -13.45900 34.57500 41.51100
C  -10.24400 33.40700 40.48500
O  -10.61000 32.25800 40.53400
C  -8.88000 33.88600 39.95600
C  -7.86500 33.10300 40.79000
O  -7.92900 32.78000 41.99000
O  -6.83300 32.69100 39.89600
C  -5.74900 31.81400 40.39100
H  -5.56400 39.94300 39.32300
H  -11.23400 42.82300 40.90400
H  -13.81800 37.12300 41.93200
H  -6.04200 35.12500 39.67500
H  -5.17500 37.68200 38.35800
H  -3.65100 37.54600 40.04100
H  -4.42000 36.19400 40.82800
H  -4.85300 37.79400 41.32500
H  -7.29500 34.58300 37.67000
H  -5.69500 35.22700 37.29800
H  -6.44500 36.88600 36.14700
H  -7.75700 37.21500 37.22600
H  -5.69600 43.37600 38.62100
H  -5.16300 41.96000 39.50400
H  -5.67700 43.44000 40.35100
H  -10.60600 44.68300 41.10400
H  -10.75900 44.74500 39.22700
H  -9.93200 45.96400 40.05300
H  -13.70600 41.45800 40.56900
H  -13.89900 39.79400 43.00100
H  -12.54600 43.02300 42.71300
H  -13.82600 42.02700 43.40500
H  -14.22700 43.20400 42.19700
H  -15.04700 38.88700 40.39300
H  -15.63500 40.44200 40.72700
H  -17.10900 39.45600 42.03200
H  -15.95900 38.79300 43.15000
H  -16.48800 37.83800 41.74200
H  -14.00500 34.71400 40.57800
H  -14.10200 34.94700 42.30800
H  -13.30700 33.51300 41.70100
H  -8.89900 33.50200 38.93600
H  -4.74100 32.17700 40.19100
H  -5.70500 30.84600 39.89200
H  -5.94200 31.62400 41.44600

