158

Mg 16.92000 -1.96300 27.46000
C  16.04300 0.28300 30.12400
C  18.71200 -3.81200 29.88500
C  17.82300 -3.96500 25.08500
C  15.42100 0.21400 25.20200
N  17.41700 -1.77200 29.80000
C  16.74900 -0.84400 30.60200
C  17.12500 -1.19800 32.05300
C  18.27800 -2.31000 31.96300
C  18.07100 -2.73000 30.48600
C  19.79300 -2.00600 32.32100
C  15.83400 -1.62300 32.77900
C  15.55100 -0.95800 34.12700
H  16.79300 -0.47400 34.79900
N  18.10500 -3.60900 27.45600
C  18.77600 -4.19300 28.50100
C  19.57200 -5.31400 28.00200
C  19.31700 -5.38500 26.58800
C  18.40100 -4.29000 26.34300
C  20.41000 -6.30300 28.87200
C  19.81300 -6.41100 25.52300
O  19.71100 -6.22700 24.29600
C  20.68500 -7.61700 26.01900
N  16.65300 -1.89100 25.37500
C  17.04100 -2.90600 24.62200
C  16.85400 -2.52500 23.18500
C  15.81400 -1.37100 23.24100
C  15.97800 -0.92300 24.62600
C  18.20500 -2.16200 22.57600
C  14.35100 -1.75600 22.90900
C  14.08800 -1.91900 21.36100
N  16.04600 -0.09400 27.59200
C  15.44200 0.68600 26.52900
C  14.80900 1.80900 27.18400
C  14.97300 1.69300 28.59100
C  15.77300 0.56400 28.76100
C  14.04200 2.88800 26.49100
C  14.61700 2.23700 29.85800
O  13.69500 2.99400 30.08000
C  15.38500 1.40600 30.91900
C  16.40500 2.26200 31.44300
O  17.55300 2.30100 30.97500
O  15.95600 2.77700 32.57500
C  16.77700 3.75300 33.36400
H  19.37300 -4.42500 30.50100
H  18.17000 -4.54500 24.22700
H  14.81000 0.79700 24.51000
H  17.62900 -0.34500 32.50800
H  17.89000 -3.20400 32.45000
H  20.39200 -2.13900 31.42100
H  20.14700 -2.64100 33.13300
H  19.93900 -0.99600 32.70500
H  15.80900 -2.69100 32.99500
H  14.89700 -1.46600 32.24400
H  15.03300 -1.71600 34.71500
H  14.79200 -0.17700 34.17500
H  21.46800 -6.34600 28.61500
H  20.00400 -7.31100 28.79200
H  20.30900 -6.04500 29.92700
H  21.61800 -7.35800 26.52000
H  20.93000 -8.33300 25.23400
H  20.10700 -8.25400 26.68900
H  16.39800 -3.32900 22.60700
H  16.08800 -0.48500 22.66800
H  18.65900 -3.06800 22.17400
H  18.89800 -1.69700 23.27700
H  17.98600 -1.45300 21.77700
H  13.65600 -0.97200 23.21100
H  14.01900 -2.57900 23.54100
H  13.66800 -0.99100 20.97400
H  13.45300 -2.78400 21.17000
H  14.99700 -2.22300 20.84200
H  13.18500 2.48400 25.95300
H  14.65400 3.44900 25.78500
H  13.65200 3.57900 27.23900
H  14.75300 0.95500 31.68400
H  17.48200 4.36300 32.80000
H  17.38300 3.18400 34.06900
H  16.11500 4.43800 33.89500
Mg 25.70400 -0.12900 29.20000
C  27.50200 -0.15800 32.23100
C  22.87400 0.45900 30.82700
C  24.21900 -0.00600 26.20100
C  28.64700 -1.23900 27.60300
N  25.30700 0.18400 31.25400
C  26.13400 0.27500 32.34400
C  25.39500 0.58100 33.64700
C  24.02400 0.79100 33.12400
C  23.99700 0.40300 31.64300
C  23.03500 0.02300 33.96400
C  26.03500 1.78600 34.43300
C  26.92800 1.70100 35.74800
H  26.48600 2.61800 36.84900
N  23.79200 0.17800 28.53000
C  22.69600 0.37400 29.41300
C  21.49100 0.50000 28.59500
C  21.89300 0.40900 27.22100
C  23.33900 0.15300 27.27400
C  20.12400 0.67900 29.22700
C  21.13100 0.35500 25.92300
O  21.59400 0.15700 24.77300
C  19.73400 0.60500 26.14900
N  26.30500 -0.85400 27.27500
C  25.49400 -0.51400 26.19400
C  26.21900 -0.68600 24.91000
C  27.63500 -1.14000 25.36600
C  27.51300 -1.07900 26.83400
C  25.56900 -1.55900 23.90600
C  28.81200 -0.26700 24.81600
C  29.02000 1.07400 25.37700
N  27.70100 -0.60500 29.73800
C  28.79300 -1.03200 29.02000
C  29.99700 -1.13300 29.82700
C  29.45500 -0.86700 31.14400
C  28.09300 -0.55600 31.01900
C  31.40500 -1.44800 29.28400
C  29.83400 -0.85500 32.53000
O  30.88600 -1.17100 33.08000
C  28.55600 -0.27000 33.26900
C  28.21000 -1.22400 34.30100
O  27.40600 -2.13700 34.18400
O  29.01300 -1.08100 35.44200
C  28.86300 -2.10700 36.44100
H  21.98200 0.70600 31.40600
H  23.79500 0.06500 25.19800
H  29.61400 -1.59400 27.24000
H  25.59400 -0.27000 34.29800
H  23.80800 1.85800 33.18100
H  23.20600 0.13400 35.03500
H  23.04000 -1.05800 33.82800
H  22.01200 0.35900 33.79200
H  25.26100 2.54300 34.56800
H  26.75300 2.20800 33.73000
H  27.93300 2.04700 35.50700
H  26.88600 0.64000 35.99500
H  19.89300 1.74400 29.25700
H  20.06600 0.26100 30.23200
H  19.35700 0.09700 28.71700
H  19.30000 -0.33400 26.49200
H  19.42000 0.86500 25.13800
H  19.57000 1.38700 26.89000
H  26.28700 0.26900 24.38800
H  27.89000 -2.14800 25.03900
H  25.16500 -2.39200 24.48200
H  26.17800 -1.89500 23.06700
H  24.72700 -0.97500 23.53400
H  28.55000 -0.10900 23.76900
H  29.74300 -0.83000 24.76100
H  29.80100 1.06300 26.13800
H  28.05200 1.42800 25.72900
H  29.09300 1.74100 24.51800
H  31.57300 -0.50600 28.76100
H  31.42800 -2.39000 28.73600
H  32.16600 -1.56300 30.05600
H  28.81300 0.65400 33.78900
H  29.78700 -2.24700 37.00200
H  28.58700 -3.04500 35.96100
H  28.09000 -1.79400 37.14300

