158

Mg 24.65000 -4.43400 46.21700
C  26.94000 -2.23300 44.78100
C  22.28900 -3.40700 43.97200
C  22.84900 -7.21300 46.91500
C  27.36400 -5.83800 48.19400
N  24.72800 -3.05200 44.48100
C  25.68800 -2.18400 44.08700
C  25.22600 -1.19700 42.98300
C  23.66700 -1.42200 43.09600
C  23.55400 -2.71700 43.90600
C  22.83600 -0.27800 43.73700
C  25.76300 -1.59600 41.59300
C  26.05000 -0.41600 40.64600
H  25.58800 -0.54400 39.16900
N  22.74500 -5.18500 45.63400
C  21.98000 -4.67200 44.61100
C  20.77600 -5.51600 44.47300
C  20.85900 -6.65200 45.34100
C  22.19500 -6.33300 46.03100
C  19.67800 -5.14600 43.57200
C  19.87600 -7.80400 45.44400
O  18.91500 -7.97300 44.68800
C  20.07600 -8.88700 46.50300
N  25.01900 -6.16600 47.53600
C  24.09300 -7.08500 47.61700
C  24.54200 -8.28900 48.48400
C  25.96700 -7.76700 49.01200
C  26.13200 -6.50000 48.17500
C  23.54100 -8.95000 49.47600
C  27.10500 -8.74100 48.96500
C  28.26800 -8.55900 49.92200
N  26.69000 -4.08700 46.58400
C  27.62400 -4.69300 47.46200
C  28.88600 -3.96300 47.25600
C  28.63200 -2.91100 46.33600
C  27.29400 -3.07700 45.85400
C  30.15300 -4.27400 48.00900
C  29.29600 -1.78100 45.62000
O  30.45000 -1.43000 45.71000
C  28.26000 -1.33500 44.61700
C  28.02100 0.11400 44.89400
O  27.41200 0.60800 45.85400
O  28.51100 0.76400 43.81300
C  28.29000 2.22700 43.62000
H  21.55700 -2.99000 43.27700
H  22.42700 -8.20100 47.11300
H  28.22500 -6.12400 48.80300
H  25.43200 -0.19300 43.35400
H  23.30300 -1.73000 42.11600
H  21.82600 -0.27100 43.32500
H  23.14000 0.74800 43.53200
H  22.79100 -0.52200 44.79800
H  25.05700 -2.06600 40.90800
H  26.67600 -2.16900 41.75400
H  27.12600 -0.26300 40.73000
H  25.49600 0.43700 41.03800
H  19.74100 -4.05900 43.59900
H  18.70300 -5.40000 43.98900
H  19.78900 -5.61800 42.59500
H  20.18600 -8.45000 47.49500
H  20.96300 -9.43400 46.18200
H  19.18600 -9.51600 46.52600
H  24.72500 -9.15500 47.84800
H  26.03200 -7.43400 50.04800
H  22.59800 -8.40500 49.43500
H  23.94400 -8.88300 50.48700
H  23.29000 -10.00200 49.34300
H  27.51000 -8.74100 47.95300
H  26.78700 -9.77900 49.06500
H  28.49700 -9.52700 50.36700
H  28.26300 -7.80900 50.71300
H  29.08500 -8.31200 49.24400
H  30.63500 -5.17800 47.63600
H  29.95300 -4.33100 49.07900
H  30.88600 -3.47000 47.95300
H  28.73700 -1.40400 43.64000
H  29.17700 2.78400 43.32000
H  27.82000 2.70000 44.48200
H  27.68400 2.39700 42.73100
Mg 0.28200 44.03200 26.85100
C  2.46700 43.64100 29.45300
C  -2.31600 43.23300 29.11000
C  -1.83800 43.67400 24.24800
C  2.96900 44.35900 24.64000
N  0.10900 43.42200 29.00500
C  1.15900 43.48400 29.88600
C  0.62700 43.48800 31.34100
C  -0.78900 43.04200 31.10900
C  -1.04800 43.29700 29.63800
C  -1.17500 41.60700 31.56200
C  0.74700 44.90300 31.90300
C  1.07100 45.03100 33.40500
H  0.89300 43.76600 34.26300
N  -1.82300 43.67900 26.71000
C  -2.69600 43.50400 27.78500
C  -4.04900 43.52800 27.26300
C  -3.94700 43.49800 25.83300
C  -2.49600 43.60000 25.53700
C  -5.35600 43.49500 28.15300
C  -5.08800 43.38400 24.88400
O  -4.94400 43.41800 23.62400
C  -6.48100 43.26900 25.38400
N  0.53500 43.70600 24.72800
C  -0.49000 43.80400 23.83300
C  -0.13400 44.07700 22.40100
C  1.32700 44.55100 22.61400
C  1.62200 44.22200 24.09100
C  -0.25600 42.88200 21.35100
C  1.50500 46.04400 22.43400
C  1.45100 46.56800 20.95100
N  2.33700 43.96100 26.99300
C  3.30100 44.19500 25.99900
C  4.57600 44.33400 26.64700
C  4.32000 44.03200 28.04500
C  2.96300 43.85200 28.12900
C  5.87000 44.83900 26.03500
C  4.88300 43.83400 29.36400
O  6.02700 43.95800 29.77800
C  3.70900 43.57300 30.31300
C  3.95300 42.29400 30.94100
O  4.00900 41.18300 30.44200
O  4.26500 42.68900 32.19600
C  4.81600 41.59000 33.05900
H  -3.08200 42.99400 29.85000
H  -2.40700 43.65600 23.31600
H  3.71400 44.63700 23.89200
H  1.17300 42.72000 31.88800
H  -1.46400 43.73200 31.61600
H  -1.72100 41.09300 30.77100
H  -1.80200 41.78700 32.43500
H  -0.25600 41.06100 31.77400
H  -0.11600 45.51600 31.64200
H  1.65500 45.29000 31.44000
H  0.48400 45.82700 33.86300
H  2.10800 45.35700 33.48200
H  -5.89800 42.58400 27.89900
H  -6.11500 44.27300 28.07000
H  -5.16700 43.51700 29.22700
H  -6.50700 42.22500 25.69900
H  -7.12700 43.20900 24.50800
H  -6.85000 44.01300 26.09000
H  -0.74100 44.88300 21.98800
H  1.98300 43.95800 21.97700
H  -1.13100 42.96400 20.70700
H  -0.36200 41.99400 21.97500
H  0.59700 42.75100 20.68500
H  2.43900 46.26400 22.95100
H  0.73700 46.61500 22.95700
H  0.64100 47.29000 20.84100
H  1.21300 45.73800 20.28600
H  2.41900 47.05300 20.82700
H  6.47500 45.35700 26.77900
H  5.79600 45.44200 25.13000
H  6.41400 43.95800 25.69400
H  3.69500 44.39800 31.02500
H  4.06600 40.80400 32.98300
H  4.78300 41.89300 34.10500
H  5.77600 41.21400 32.70400

