158

Mg 35.80300 1.77100 29.03200
C  33.47200 2.90100 31.44800
C  38.24400 1.95700 31.31400
C  37.90400 1.30600 26.49100
C  33.07500 2.05500 26.66200
N  35.81000 2.52300 31.07400
C  34.78600 2.67400 31.94500
C  35.24300 2.80600 33.47300
C  36.83800 2.70600 33.33600
C  36.99000 2.29500 31.85300
C  37.65600 3.91600 33.78500
C  34.62300 1.75100 34.35600
C  34.24200 2.38400 35.76600
H  35.05800 3.58700 36.31900
N  37.75600 1.59100 28.90400
C  38.63300 1.60900 29.98800
C  40.02700 1.25200 29.49800
C  39.91100 1.03000 28.09300
C  38.48800 1.34700 27.80400
C  41.17700 0.95000 30.48800
C  41.15100 0.68700 27.15500
O  41.01600 0.56200 25.96600
C  42.50100 0.45000 27.71100
N  35.53400 1.70500 26.89100
C  36.59200 1.62200 26.07400
C  36.14100 1.79200 24.62700
C  34.55700 1.71300 24.60800
C  34.38000 1.76300 26.13800
C  36.67200 3.12900 24.04700
C  33.94300 0.49200 23.92100
C  34.04100 0.49900 22.36500
N  33.78400 2.30600 29.01000
C  32.86800 2.40500 27.99900
C  31.55900 2.87000 28.46600
C  31.79600 3.06900 29.84900
C  33.15500 2.78700 30.06600
C  30.28200 3.06800 27.77200
C  31.13400 3.46000 31.12500
O  29.93400 3.60200 31.40600
C  32.21900 3.38000 32.18800
C  32.34500 4.70200 32.85400
O  33.11000 5.62800 32.54300
O  31.53900 4.78200 33.98900
C  31.68700 5.94900 34.90100
H  39.07600 2.01700 32.01900
H  38.63500 1.03200 25.72800
H  32.25000 2.10700 25.94800
H  34.88400 3.78900 33.77500
H  37.17900 1.80900 33.85300
H  38.20300 4.46400 33.01800
H  38.46800 3.57500 34.42700
H  37.02500 4.60900 34.34100
H  35.33200 0.93100 34.47200
H  33.65000 1.50100 33.93500
H  34.27500 1.58300 36.50400
H  33.18000 2.62900 35.73400
H  40.78100 0.81200 31.49400
H  41.81900 1.82800 30.55800
H  41.72500 0.03800 30.24900
H  43.09200 0.39500 26.79800
H  42.49700 -0.54300 28.16200
H  42.82400 1.25900 28.36700
H  36.52100 0.95400 24.04200
H  34.15300 2.61200 24.14300
H  37.45600 3.63000 24.61400
H  35.92000 3.81600 23.65800
H  36.96900 2.83900 23.03900
H  32.95100 0.27900 24.32000
H  34.55400 -0.30400 24.34500
H  34.94900 -0.01000 22.04100
H  34.10200 1.50400 21.94800
H  33.20800 -0.03900 21.91200
H  29.69600 2.14900 27.74500
H  30.58800 3.43100 26.79100
H  29.67100 3.88200 28.16300
H  31.97700 2.59100 32.90000
H  30.83400 6.62300 34.81900
H  32.61900 6.48500 34.72100
H  31.59500 5.69900 35.95800
Mg 49.33400 45.62600 43.32400
C  45.77900 45.68300 42.40200
C  49.36100 42.38300 42.57100
C  52.60300 45.92900 43.32200
C  49.00400 49.16100 43.64200
N  47.75300 44.24600 42.42900
C  46.35300 44.43400 42.27700
C  45.70300 43.11100 41.98800
C  46.81700 42.07100 42.25200
C  48.08900 42.89300 42.36200
C  46.46900 41.31600 43.59300
C  45.12200 43.00500 40.55100
C  46.01300 43.56800 39.37000
H  45.87400 42.86000 38.04000
N  50.84100 44.30200 43.04300
C  50.61600 42.98900 42.73900
C  51.86500 42.28500 42.79800
C  52.86000 43.25100 43.10000
C  52.14100 44.54800 43.20900
C  52.04300 40.72000 42.71800
C  54.36100 42.99800 43.27300
O  54.85600 41.86400 43.19300
C  55.31500 44.09400 43.56900
N  50.59900 47.34200 43.32400
C  51.91800 47.18400 43.38200
C  52.68000 48.49100 43.56600
C  51.52700 49.49500 43.67800
C  50.31700 48.63200 43.56700
C  53.47600 48.48600 44.87100
C  51.52700 50.63000 42.60900
C  52.17300 52.04200 42.84700
N  47.72800 47.12000 43.24300
C  47.76800 48.51500 43.37600
C  46.46100 49.10700 43.37900
C  45.70500 48.00900 42.91600
C  46.46800 46.85900 42.84900
C  45.93700 50.34900 43.69700
C  44.29800 47.60000 42.49500
O  43.28000 48.24200 42.46400
C  44.40500 46.11100 41.88300
C  43.26700 45.30700 42.46300
O  42.45300 44.71200 41.83300
O  43.22200 45.38100 43.84100
C  42.14300 44.58100 44.48700
H  49.37800 41.29300 42.51500
H  53.68500 45.91600 43.17500
H  48.93100 50.24300 43.77400
H  44.83700 42.99700 42.64000
H  46.97400 41.36900 41.43400
H  45.56600 41.66600 44.09400
H  47.27300 41.35500 44.32700
H  46.24400 40.30000 43.26800
H  44.13200 43.45500 40.47500
H  45.00600 41.96800 40.23600
H  47.06800 43.43300 39.60800
H  45.92200 44.65100 39.28500
H  51.22200 40.32600 42.11800
H  51.90100 40.32800 43.72500
H  53.07000 40.42400 42.50800
H  54.97600 44.66800 44.43200
H  55.41900 44.80700 42.75200
H  56.29700 43.70300 43.83600
H  53.31900 48.60900 42.69000
H  51.46700 49.86100 44.70200
H  54.51300 48.61100 44.56000
H  53.31400 47.52400 45.35800
H  53.10900 49.20300 45.60500
H  50.52800 50.98600 42.35700
H  51.92200 50.11500 41.73300
H  53.03300 52.33700 42.24500
H  52.66100 51.91500 43.81300
H  51.48000 52.88100 42.91200
H  45.30000 50.76500 42.91600
H  46.74200 51.07400 43.81700
H  45.36600 50.26300 44.62100
H  44.21000 46.17200 40.81200
H  42.28900 43.52000 44.28500
H  41.22200 45.02900 44.11400
H  42.24100 44.74400 45.56000

