158

Mg 35.97400 2.47600 30.62300
C  33.51100 3.83600 32.93400
C  38.16300 2.41400 33.42000
C  38.49200 2.03100 28.57700
C  33.61700 2.78100 28.13800
N  35.85700 3.13000 32.84200
C  34.73600 3.53900 33.56800
C  34.96500 3.64300 35.09500
C  36.53400 3.52000 35.09100
C  36.87400 2.83900 33.74000
C  37.34900 4.78200 35.41800
C  34.11700 2.55700 35.87900
C  33.58300 2.90000 37.27900
H  34.28100 3.93500 38.19600
N  37.96000 2.10800 30.91400
C  38.66500 2.11800 32.12800
C  39.96100 1.45400 31.85500
C  40.10700 1.39000 30.50900
C  38.87000 1.88300 29.90700
C  40.95000 1.07600 33.01100
C  41.27700 0.87800 29.79500
O  41.28200 0.68700 28.59500
C  42.69000 0.55600 30.54100
N  36.06000 2.56000 28.60100
C  37.23600 2.24500 27.99900
C  36.93000 2.14400 26.48800
C  35.38800 2.20900 26.32400
C  34.96300 2.42600 27.85500
C  37.72600 3.31900 25.65800
C  34.75600 0.86200 25.70800
C  33.53500 1.11900 24.76600
N  33.98900 3.27600 30.44900
C  33.15100 3.20800 29.36200
C  31.82900 3.61600 29.74200
C  31.98400 3.98700 31.10600
C  33.30400 3.72400 31.49400
C  30.70200 3.66200 28.76800
C  31.20500 4.51800 32.25500
O  30.04500 4.92600 32.41000
C  32.19800 4.40700 33.50800
C  32.33300 5.79500 34.00000
O  32.78200 6.78700 33.40200
O  31.90300 5.77500 35.27500
C  31.92100 7.08500 35.93000
H  38.78500 2.36300 34.31600
H  39.29200 1.90500 27.84400
H  32.97300 2.78500 27.25700
H  34.61300 4.63300 35.38500
H  36.69700 2.77600 35.87100
H  36.73700 5.67400 35.55300
H  38.01100 5.09100 34.60900
H  37.91800 4.79300 36.34700
H  34.73800 1.67200 36.02000
H  33.30900 2.15300 35.26900
H  33.46900 1.96000 37.81800
H  32.55000 3.23100 37.17600
H  40.46700 1.18000 33.98300
H  41.73300 1.83400 33.00100
H  41.43700 0.10300 32.94300
H  42.71900 -0.40400 31.05500
H  42.94500 1.33400 31.26000
H  43.45900 0.59500 29.76800
H  37.23700 1.14100 26.19200
H  35.07900 3.05900 25.71600
H  37.14200 4.23600 25.58700
H  37.95400 2.90900 24.67400
H  38.63600 3.55600 26.21000
H  34.44200 0.21800 26.53000
H  35.50200 0.39500 25.06500
H  33.76300 1.07900 23.70100
H  33.04800 2.06200 25.01400
H  32.81600 0.36300 25.08100
H  29.93700 4.37300 29.08100
H  30.31300 2.64400 28.74300
H  31.12700 3.98400 27.81800
H  31.65900 3.84600 34.27100
H  32.86700 7.55000 36.20700
H  31.37500 6.81300 36.83400
H  31.43600 7.80900 35.27500
Mg -10.65200 40.24600 39.53900
C  -9.21300 36.98900 38.86800
C  -7.82400 41.60600 38.28200
C  -12.25200 43.10500 39.36300
C  -13.56300 38.56500 40.55700
N  -8.82000 39.39700 38.68200
C  -8.41000 38.06900 38.44800
C  -6.95800 37.99400 37.92100
C  -6.53100 39.40700 38.52100
C  -7.76600 40.23400 38.39000
C  -5.97000 39.34700 40.00200
C  -6.88500 37.88200 36.35900
C  -6.16600 36.66000 35.82700
H  -6.85800 35.91300 34.72500
N  -10.08300 42.12600 38.93800
C  -8.83600 42.54600 38.49700
C  -8.83200 43.94800 38.37900
C  -10.08300 44.42000 38.69300
C  -10.86600 43.22300 39.03700
C  -7.53600 44.73000 37.93000
C  -10.57400 45.81700 38.52400
O  -9.78300 46.61100 38.13200
C  -11.95700 46.35700 38.81500
N  -12.63000 40.76100 39.83900
C  -13.08500 42.04500 39.69300
C  -14.49700 42.21100 40.17700
C  -14.90200 40.73500 40.46400
C  -13.64600 39.97700 40.30800
C  -14.56500 43.00000 41.41600
C  -15.95500 40.22500 39.47300
C  -17.37400 40.15600 40.00900
N  -11.25200 38.16900 39.88500
C  -12.45600 37.69200 40.30000
C  -12.32100 36.23500 40.60300
C  -11.13500 35.93800 39.95300
C  -10.51600 37.15000 39.52400
C  -13.26800 35.30000 41.26900
C  -10.21800 34.83400 39.53800
O  -10.36700 33.64800 39.70900
C  -8.99400 35.48200 38.79800
C  -7.77500 35.00800 39.45700
O  -7.35700 35.51300 40.53900
O  -7.12300 34.00700 38.69800
C  -5.77800 33.68900 39.21100
H  -6.88900 41.93200 37.82100
H  -12.78400 44.05500 39.44100
H  -14.51200 38.09900 40.82900
H  -6.41800 37.16200 38.37300
H  -5.86100 39.97800 37.87900
H  -6.76500 39.67500 40.67100
H  -5.14900 40.05400 40.12300
H  -5.75400 38.31300 40.27100
H  -6.29600 38.73100 36.01200
H  -7.87900 37.82700 35.91500
H  -6.01200 35.87800 36.57100
H  -5.21100 36.90800 35.36400
H  -7.52000 44.91200 36.85600
H  -6.67400 44.12000 38.20100
H  -7.39400 45.66200 38.47800
H  -12.60600 46.08500 37.98300
H  -11.76200 47.42500 38.72000
H  -12.26700 45.96900 39.78600
H  -15.09900 42.71000 39.41800
H  -15.26600 40.62800 41.48600
H  -13.84300 42.53700 42.08800
H  -15.57600 43.08700 41.81400
H  -14.47900 44.08500 41.35200
H  -15.79700 39.22100 39.08000
H  -15.94000 40.96900 38.67700
H  -17.85600 39.28800 39.55900
H  -17.99000 41.03800 39.83400
H  -17.41300 40.02600 41.09000
H  -13.29200 35.52500 42.33500
H  -12.93700 34.30500 40.97100
H  -14.22700 35.35800 40.75500
H  -8.90300 35.18800 37.75200
H  -5.73000 33.71600 40.29900
H  -4.97400 34.38900 38.98000
H  -5.51400 32.66100 38.96300

