158

Mg 7.78300 52.61100 41.95500
C  7.16500 49.17100 41.48100
C  10.61800 52.26400 40.08200
C  7.91100 55.86300 41.68100
C  4.53100 52.73500 43.33700
N  8.73800 50.82500 40.89200
C  8.37800 49.58900 40.87700
C  9.51200 48.71500 40.23500
C  10.76600 49.66900 40.26800
C  10.05900 50.99600 40.42100
C  11.77600 49.44600 41.48400
C  9.05200 48.27000 38.74500
C  7.85900 49.02600 38.04400
H  7.25500 48.42300 36.81300
N  9.14100 53.92400 40.99300
C  10.27900 53.59300 40.28000
C  11.04300 54.81000 40.10000
C  10.27100 55.87400 40.53400
C  9.04000 55.23600 41.08400
C  12.49100 54.91900 39.56600
C  10.64200 57.37500 40.58400
O  11.66300 57.76700 40.06500
C  9.83900 58.39100 41.20600
N  6.39100 54.09200 42.53600
C  6.71400 55.40900 42.28100
C  5.57500 56.32500 42.72100
C  4.58900 55.33100 43.37200
C  5.21300 53.96800 43.11300
C  5.86000 57.54900 43.62700
C  3.08600 55.46700 43.03400
C  2.08600 55.69600 44.17000
N  6.15600 51.25300 42.40500
C  4.88300 51.45600 42.92100
C  4.39700 50.16700 43.33800
C  5.22400 49.20700 42.72800
C  6.21700 49.90200 42.10700
C  3.30100 49.86200 44.09200
C  5.44100 47.78200 42.48800
O  4.80400 46.85100 42.92700
C  6.69300 47.72300 41.56900
C  6.36900 46.96900 40.29500
O  5.31400 47.14300 39.67200
O  7.32000 46.04800 39.94100
C  6.96500 44.98100 38.97300
H  11.68000 52.20700 39.83400
H  7.91300 56.94900 41.56200
H  3.61500 52.89800 43.90900
H  9.62400 47.85500 40.89500
H  11.38400 49.60300 39.37200
H  11.40500 48.78600 42.26800
H  12.02900 50.39700 41.95300
H  12.68700 49.02600 41.05700
H  9.02900 47.19100 38.59100
H  9.81900 48.70300 38.10300
H  7.94500 50.11200 38.00100
H  7.10700 48.87600 38.81800
H  12.53900 55.77800 38.89700
H  12.75200 54.04100 38.97600
H  13.27000 55.02500 40.32100
H  9.68200 58.02400 42.22100
H  8.88200 58.44800 40.68700
H  10.34100 59.35800 41.23600
H  5.07900 56.69100 41.82200
H  4.64100 55.40000 44.45900
H  5.17700 57.76700 44.44800
H  6.03300 58.49600 43.11600
H  6.78200 57.34500 44.17200
H  2.72700 54.74900 42.29700
H  3.03500 56.43300 42.53200
H  2.71400 55.87700 45.04200
H  1.54100 54.80300 44.47600
H  1.43400 56.56500 44.08000
H  3.70100 49.57500 45.06400
H  2.64100 49.11900 43.64300
H  2.67800 50.74500 44.23500
H  7.51200 47.12500 41.97000
H  7.71000 44.86500 38.18600
H  6.05400 45.04000 38.37700
H  6.84100 44.05000 39.52600
Mg -6.10900 24.59200 25.51100
C  -4.35800 25.78400 28.25100
C  -8.00500 22.68400 27.58000
C  -7.63000 23.14400 22.83100
C  -4.08100 26.45400 23.50100
N  -6.22300 24.26100 27.73700
C  -5.40700 24.90000 28.65300
C  -5.78300 24.52900 30.09700
C  -6.87800 23.44300 29.89900
C  -7.14800 23.48300 28.36200
C  -6.63000 22.01500 30.49200
C  -6.28300 25.77200 30.95400
C  -5.80500 25.68100 32.43000
H  -5.66600 24.31900 33.12300
N  -7.61300 23.18900 25.23300
C  -8.26900 22.58400 26.18400
C  -9.34500 21.68500 25.62300
C  -9.20200 21.78100 24.19100
C  -8.10100 22.71200 24.03900
C  -10.42000 21.00200 26.48500
C  -9.94200 21.06700 23.09000
O  -9.69100 21.29200 21.91600
C  -11.14400 20.20000 23.43700
N  -5.85300 24.65100 23.43500
C  -6.68400 24.10200 22.49200
C  -6.31600 24.52600 21.07200
C  -5.30900 25.74900 21.31900
C  -5.02600 25.63700 22.82800
C  -5.76200 23.42600 20.14400
C  -5.89700 27.12400 20.88900
C  -5.22400 27.75300 19.60900
N  -4.53500 25.87600 25.69900
C  -3.78800 26.61600 24.80300
C  -2.80800 27.50700 25.54700
C  -3.01800 27.17200 26.87100
C  -4.02100 26.22300 26.90000
C  -1.67300 28.38000 24.89200
C  -2.51000 27.31000 28.16800
O  -1.48400 27.91100 28.42600
C  -3.31700 26.44900 29.15800
C  -2.36900 25.42100 29.78300
O  -2.07100 24.30500 29.32800
O  -1.71000 25.98900 30.84900
C  -1.07100 25.09400 31.84700
H  -8.55000 21.89800 28.10600
H  -8.11900 22.91400 21.88200
H  -3.59000 27.24900 22.93600
H  -4.83900 24.06600 30.38500
H  -7.68000 23.87800 30.49600
H  -5.65500 21.95100 30.97400
H  -6.57000 21.23700 29.73100
H  -7.39500 21.65500 31.17900
H  -7.37200 25.81700 30.94200
H  -5.97500 26.76100 30.61400
H  -6.55900 26.26600 32.95600
H  -4.80700 26.11900 32.45500
H  -10.29900 19.94400 26.25100
H  -11.44600 21.26600 26.22600
H  -10.28900 21.17100 27.55400
H  -10.68800 19.42600 24.05500
H  -11.55400 19.79900 22.51000
H  -11.81000 20.83900 24.01700
H  -7.22800 24.92600 20.63000
H  -4.39100 25.55800 20.76300
H  -6.39400 22.53900 20.11600
H  -4.79700 23.01000 20.43200
H  -5.58100 23.87900 19.16800
H  -5.58900 27.84500 21.64500
H  -6.96900 27.21300 20.71200
H  -6.01800 27.96600 18.89200
H  -4.44500 27.07100 19.27000
H  -4.69900 28.68200 19.83200
H  -1.11500 29.01300 25.58200
H  -2.14100 29.11300 24.23500
H  -0.98900 27.79100 24.28100
H  -3.72300 27.11500 29.91900
H  -1.84000 24.38600 32.15800
H  -0.84000 25.69000 32.73000
H  -0.21800 24.63700 31.34600

