158

Mg 25.48400 1.65300 29.87000
C  27.62600 1.52500 32.76900
C  22.91400 2.08700 31.95500
C  23.51900 1.61800 27.27100
C  28.23700 0.62500 27.98200
N  25.46700 1.64300 32.21400
C  26.36700 1.83100 33.16900
C  25.79600 2.21600 34.50500
C  24.24700 2.31600 34.23100
C  24.19300 1.95300 32.71100
C  23.41300 1.30600 35.16200
C  26.47700 3.54900 35.04700
C  27.30400 3.41600 36.34100
H  27.09900 4.42000 37.49100
N  23.50800 1.79900 29.66200
C  22.60600 1.97800 30.65900
C  21.26200 2.10800 30.08900
C  21.44000 2.00200 28.66500
C  22.83500 1.82900 28.46200
C  20.05300 2.36500 30.90700
C  20.34600 2.06500 27.56600
O  20.61700 2.02000 26.37000
C  18.84900 2.08800 27.84400
N  25.79900 1.20300 27.93600
C  24.88900 1.36600 27.00300
C  25.48800 1.36600 25.62700
C  26.96900 0.98000 25.79600
C  27.02400 0.96500 27.35600
C  24.74800 0.42000 24.54500
C  28.03600 1.82700 25.17000
C  28.14700 3.34100 25.51000
N  27.49800 1.19400 30.22200
C  28.52000 0.76600 29.38000
C  29.76000 0.56300 30.14200
C  29.44100 0.82500 31.45400
C  28.12900 1.29100 31.44700
C  31.00300 0.08700 29.54300
C  29.92000 0.89600 32.79400
O  31.05500 0.64400 33.18700
C  28.81200 1.40200 33.70000
C  28.67900 0.47400 34.78400
O  28.20400 -0.69100 34.76400
O  29.22000 1.08200 35.86200
C  29.37000 0.24500 37.00200
H  22.13100 2.42100 32.63800
H  22.82400 1.69600 26.43200
H  29.04900 0.16100 27.41900
H  26.08400 1.30700 35.03400
H  23.94400 3.32700 34.50100
H  22.76000 0.72700 34.51100
H  22.75100 1.92000 35.77400
H  23.99400 0.66100 35.82100
H  25.65000 4.22600 35.26600
H  27.09400 3.99700 34.26700
H  28.36700 3.44900 36.10100
H  26.98200 2.42700 36.66900
H  19.15400 1.87600 30.53300
H  19.93000 3.42800 30.70000
H  20.22300 2.20100 31.97100
H  18.72200 3.00200 28.42400
H  18.63600 1.29100 28.55600
H  18.25900 1.99000 26.93300
H  25.35500 2.38900 25.27500
H  27.12200 -0.03800 25.43900
H  23.83200 -0.05100 24.90100
H  25.28600 -0.46200 24.19500
H  24.58200 1.01200 23.64500
H  27.80300 1.89900 24.10800
H  28.99900 1.31900 25.21100
H  29.03000 3.31100 26.14800
H  27.19100 3.67400 25.91400
H  28.32800 3.90300 24.59300
H  31.09900 0.36600 28.49300
H  31.18200 -0.97800 29.69100
H  31.79500 0.57100 30.11300
H  29.07800 2.40100 34.04500
H  29.59600 -0.80600 36.82400
H  28.37600 0.29900 37.44700
H  30.13000 0.68600 37.64800
Mg 49.00300 35.32000 25.60900
C  46.82200 34.51000 28.20200
C  49.83700 38.09100 27.34300
C  50.97500 36.19100 22.91800
C  47.66100 32.68000 23.63700
N  48.23500 36.30700 27.47000
C  47.49300 35.67200 28.43900
C  47.44800 36.49500 29.74300
C  48.24600 37.83100 29.25300
C  48.83100 37.38800 27.99100
C  47.40600 39.17700 29.07500
C  48.18600 35.85100 30.93400
C  47.30400 35.59700 32.11500
H  47.43600 36.64300 33.19200
N  50.33900 36.88100 25.29000
C  50.49800 37.87200 26.12800
C  51.50500 38.74300 25.56200
C  52.05100 38.12700 24.42700
C  51.15700 36.97600 24.18000
C  52.00300 40.04100 26.24400
C  53.23200 38.49100 23.49900
O  53.67900 37.79600 22.62200
C  53.93700 39.76800 23.74200
N  49.29500 34.57400 23.61300
C  50.14400 35.11400 22.63600
C  50.03800 34.35600 21.30300
C  49.32400 33.04100 21.70600
C  48.72500 33.40700 23.10800
C  49.46200 35.24300 20.10500
C  50.22700 31.76200 21.75500
C  49.72700 30.51100 20.94300
N  47.35000 33.97300 25.73800
C  46.98800 32.90000 24.89400
C  45.94400 32.14600 25.55300
C  45.85100 32.69500 26.87500
C  46.73200 33.79000 26.92800
C  45.42600 30.84200 25.12700
C  45.29700 32.59200 28.15100
O  44.45700 31.77000 28.54400
C  45.94900 33.62800 29.13400
C  46.74200 32.87500 30.15200
O  47.91400 32.51800 30.05000
O  45.84600 32.47200 31.20400
C  46.57100 31.77900 32.23600
H  50.23300 38.96300 27.86800
H  51.58900 36.62000 22.12400
H  47.34000 31.80000 23.07600
H  46.40600 36.70200 29.98900
H  49.10600 38.18100 29.82500
H  47.74500 39.82900 28.27000
H  47.50300 39.66700 30.04400
H  46.37600 38.83600 28.96500
H  48.92700 36.60200 31.21100
H  48.64500 34.92200 30.59600
H  47.46200 34.62600 32.58400
H  46.26100 35.64900 31.80200
H  51.39400 40.39900 27.07500
H  52.03000 40.87700 25.54600
H  53.07000 39.97000 26.45500
H  54.53500 40.04100 22.87300
H  54.52300 39.82400 24.66000
H  53.24500 40.61000 23.77200
H  51.03800 34.17200 20.91000
H  48.45800 32.89600 21.06100
H  49.25800 36.24700 20.47600
H  48.60800 34.76700 19.62300
H  50.26500 35.35900 19.37700
H  50.22900 31.33400 22.75700
H  51.24000 32.08200 21.50900
H  49.34000 29.74000 21.60800
H  50.55200 30.03800 20.41000
H  48.94100 30.66500 20.20400
H  46.10700 30.22600 24.53900
H  44.59400 31.07700 24.46300
H  44.99500 30.27200 25.95000
H  45.08000 34.19600 29.46500
H  46.47600 30.71300 32.02700
H  45.99400 31.82100 33.16000
H  47.60500 32.11800 32.29900

