158

Mg 45.54300 4.92500 46.67900
C  43.45000 7.71100 46.50300
C  42.85500 2.86900 46.45700
C  47.62900 2.37300 45.84400
C  48.34300 7.26700 46.15900
N  43.47100 5.25000 46.44100
C  42.81300 6.47400 46.40900
C  41.26000 6.27000 46.28700
C  41.07400 4.70900 46.13200
C  42.52800 4.25000 46.39500
C  39.95500 4.17100 47.12700
C  40.50600 7.07600 45.12400
C  41.21900 7.27700 43.74000
H  40.68700 6.77200 42.39500
N  45.34000 2.84400 46.53000
C  44.09900 2.21700 46.47200
C  44.37100 0.80400 46.20000
C  45.80000 0.65300 46.19600
C  46.34500 1.95300 46.23100
C  43.24200 -0.23500 45.91100
C  46.51900 -0.64700 46.15500
O  45.91900 -1.73900 46.08900
C  48.06900 -0.72900 46.17900
N  47.64200 4.86600 46.04300
C  48.25200 3.66400 45.76700
C  49.63400 3.82300 45.27600
C  49.90600 5.33700 45.39800
C  48.60400 5.93700 45.95000
C  50.50900 2.97400 46.21500
C  50.19900 5.99100 44.00600
C  51.53800 5.60800 43.44400
N  45.94400 7.05600 46.52000
C  47.03700 7.83700 46.41900
C  46.70300 9.23900 46.52700
C  45.29800 9.24600 46.64100
C  44.82600 7.89600 46.52300
C  47.65500 10.43600 46.51400
C  44.11100 10.06200 46.71800
O  44.00700 11.31300 46.64600
C  42.84100 9.11200 46.65000
C  42.18600 9.23100 48.02200
O  42.44300 8.60400 49.04100
O  41.19200 10.16700 47.87700
C  40.27800 10.28400 49.04100
H  42.04600 2.14200 46.35000
H  48.26200 1.67000 45.29700
H  49.18100 7.94600 45.99000
H  40.75100 6.76900 47.11100
H  40.81400 4.49500 45.09500
H  39.83900 4.81500 47.99900
H  40.33800 3.25400 47.57500
H  39.03700 4.13600 46.53900
H  40.26900 8.07600 45.48800
H  39.62000 6.48000 44.90600
H  42.23100 6.87400 43.79200
H  41.54700 8.31200 43.64400
H  43.45100 -0.57600 44.89700
H  42.25000 0.21000 45.98400
H  43.24700 -1.02000 46.66700
H  48.20900 -1.73800 46.56700
H  48.50000 0.03700 46.82400
H  48.37100 -0.67900 45.13300
H  49.75400 3.36300 44.29500
H  50.77500 5.46500 46.04400
H  50.42400 1.95400 45.83900
H  50.08800 2.95800 47.22000
H  51.54900 3.30200 46.18900
H  50.12200 7.07600 44.07300
H  49.42500 5.65000 43.31900
H  51.56600 4.72900 42.79900
H  52.29700 5.51800 44.22100
H  51.84100 6.40400 42.76400
H  47.79800 10.67500 47.56800
H  47.20500 11.36100 46.15200
H  48.56900 10.30500 45.93500
H  42.25800 9.37500 45.76700
H  39.50900 9.51200 49.03200
H  39.69300 11.20300 48.99200
H  40.69600 10.37400 50.04300
Mg 49.10200 47.27600 42.19200
C  45.69800 47.65100 41.12900
C  49.15600 44.30300 40.43800
C  52.37300 47.22400 42.68400
C  49.06300 50.75100 42.79200
N  47.63000 46.20400 40.84800
C  46.32100 46.49700 40.58300
C  45.62300 45.65300 39.55300
C  46.57100 44.41400 39.66400
C  47.88300 44.97800 40.37500
C  45.94800 43.16300 40.46700
C  45.65200 46.28600 38.15000
C  44.40700 46.15400 37.41900
H  44.63500 45.67400 35.97600
N  50.57900 45.79800 41.86900
C  50.39200 44.63200 41.15600
C  51.62500 43.92500 41.20600
C  52.56700 44.74200 41.92900
C  51.89700 45.96300 42.27400
C  51.82600 42.49000 40.66800
C  53.99400 44.42400 42.31100
O  54.44000 43.31500 42.08800
C  54.95000 45.38800 43.01600
N  50.53200 48.75700 42.73100
C  51.81000 48.49300 42.84600
C  52.64400 49.75400 43.25200
C  51.64200 50.84400 42.95000
C  50.28000 50.07000 42.90400
C  53.24700 49.77000 44.71600
C  52.05500 51.58200 41.63900
C  52.53100 52.93300 41.91100
N  47.64900 48.82500 42.32400
C  47.78800 50.17000 42.59500
C  46.54100 50.90200 42.37300
C  45.60000 49.84800 41.98500
C  46.38000 48.69600 41.85200
C  46.39300 52.32700 42.46800
C  44.23200 49.54100 41.63200
O  43.16900 50.24200 41.65900
C  44.24500 48.09700 41.02200
C  43.14300 47.30400 41.70500
O  43.17000 46.97800 42.92500
O  42.22200 46.83200 40.81100
C  41.83000 45.41500 41.01800
H  49.24400 43.32900 39.95100
H  53.45700 47.21700 42.81100
H  49.13500 51.83300 42.91500
H  44.60900 45.38200 39.84900
H  46.74500 44.07200 38.64300
H  45.15400 42.72700 39.86000
H  45.41200 43.50400 41.35300
H  46.71000 42.43200 40.73800
H  46.42800 45.70200 37.65400
H  45.98700 47.32300 38.19100
H  43.83900 47.07900 37.51500
H  43.77700 45.40300 37.89400
H  51.36300 42.12900 39.75000
H  51.57000 41.76700 41.44300
H  52.88100 42.31400 40.45800
H  54.61200 45.81100 43.96200
H  55.04700 46.22200 42.32100
H  55.89200 44.85500 43.14700
H  53.47800 49.68800 42.55400
H  51.65400 51.59800 43.73700
H  52.72300 49.04100 45.33400
H  53.24700 50.77500 45.13600
H  54.30400 49.50500 44.76100
H  51.11200 51.65500 41.09800
H  52.69200 50.89300 41.08500
H  52.92700 53.39800 41.00900
H  53.19800 53.00100 42.77100
H  51.62000 53.45900 42.19900
H  46.82000 52.73700 43.38300
H  45.34500 52.53400 42.68800
H  46.58800 52.93700 41.58600
H  43.89800 48.26700 40.00300
H  42.53400 44.80600 41.58600
H  41.74700 44.96100 40.03000
H  40.90400 45.35900 41.59000

