158

Mg 54.64500 23.64100 44.52200
C  52.33800 26.17200 43.40800
C  52.54000 21.33100 43.39900
C  57.03700 21.58800 45.02800
C  56.93600 26.39000 45.00300
N  52.79100 23.75500 43.30400
C  51.99700 24.85700 43.15100
C  50.67300 24.41300 42.58800
C  50.58700 22.94700 42.90800
C  52.05300 22.65600 43.17400
C  49.73800 22.56400 44.14300
C  50.44700 24.78400 41.04900
C  51.69900 24.67100 40.17300
H  51.50100 25.04100 38.64400
N  54.73400 21.68700 44.39600
C  53.78400 20.82100 43.86400
C  54.24100 19.44300 43.96000
C  55.57100 19.53000 44.48100
C  55.83200 20.97000 44.69500
C  53.40500 18.17100 43.58400
C  56.38900 18.30800 44.82000
O  56.15800 17.14800 44.30900
C  57.57600 18.36600 45.72900
N  56.72500 24.01400 44.84600
C  57.46000 22.92200 45.09900
C  58.97300 23.35300 45.30100
C  58.91900 24.88300 45.20200
C  57.45100 25.10200 45.04900
C  59.67000 22.86900 46.61800
C  59.72100 25.52000 44.04400
C  60.78200 26.64900 44.48600
N  54.62500 25.88500 44.32200
C  55.61100 26.84100 44.57200
C  55.15900 28.16300 44.19700
C  53.82300 27.98800 43.88800
C  53.55800 26.58300 43.89400
C  55.98800 29.34100 44.19400
C  52.58900 28.70100 43.56400
O  52.34600 29.88500 43.46300
C  51.53500 27.47200 43.26200
C  50.92600 27.81100 41.94200
O  51.49100 27.77400 40.86700
O  49.60100 28.20700 42.07900
C  48.84800 28.29700 40.88400
H  51.72700 20.63500 43.18400
H  57.77900 20.78900 45.09300
H  57.60600 27.25100 45.05500
H  49.99400 24.98600 43.22000
H  50.30100 22.38300 42.02000
H  49.38300 23.49100 44.59300
H  50.25100 21.97800 44.90500
H  48.90500 21.95800 43.78600
H  49.89400 25.71500 40.92800
H  49.80800 24.07200 40.52600
H  52.05300 23.64200 40.23600
H  52.50800 25.29900 40.54600
H  52.34300 18.41600 43.61400
H  53.56000 17.32900 44.25800
H  53.53900 17.84100 42.55400
H  57.41000 19.05800 46.55400
H  58.44500 18.65800 45.14000
H  57.76800 17.40500 46.20700
H  59.47200 22.92100 44.43300
H  59.12900 25.48900 46.08400
H  60.73400 22.85600 46.38300
H  59.34000 21.87000 46.90200
H  59.50100 23.54300 47.45800
H  59.09000 26.07100 43.34700
H  60.37300 24.76900 43.59700
H  61.23000 26.29000 45.41200
H  60.35000 27.63900 44.63300
H  61.48300 26.78400 43.66200
H  55.45300 30.09600 43.61900
H  56.93100 29.13200 43.68900
H  56.18600 29.77600 45.17400
H  50.91700 27.60900 44.14900
H  48.99600 27.46000 40.20200
H  49.15900 29.12400 40.24500
H  47.80000 28.09400 41.10400
Mg 49.09400 45.47100 42.33600
C  45.63400 45.86600 41.69800
C  48.84600 42.33900 41.06200
C  52.37600 45.45200 42.14400
C  49.24100 48.94800 43.15100
N  47.41300 44.24300 41.54000
C  46.10000 44.59900 41.32300
C  45.41100 43.59400 40.42200
C  46.29500 42.29600 40.59100
C  47.59600 42.98200 41.10900
C  45.73300 41.26000 41.58100
C  45.27400 44.00100 38.87600
C  43.98200 43.57900 38.04000
H  44.12900 42.78900 36.69300
N  50.41300 44.05500 41.91000
C  50.10600 42.78800 41.42400
C  51.32600 41.97700 41.31000
C  52.40600 42.86600 41.52500
C  51.73500 44.18200 41.94100
C  51.32900 40.48200 40.85800
C  53.81900 42.52600 41.33100
O  54.14700 41.49900 40.67400
C  54.91000 43.44400 41.80000
N  50.67400 47.02800 42.57700
C  51.92300 46.78900 42.27700
C  52.82700 48.07400 42.42900
C  51.78100 49.05500 43.01300
C  50.48800 48.35400 42.91300
C  54.06700 48.02100 43.31300
C  51.88500 50.51800 42.32000
C  51.41900 51.74500 43.14300
N  47.74300 47.09600 42.42700
C  47.94100 48.37300 42.93100
C  46.71400 49.03900 42.98600
C  45.76200 48.10400 42.53600
C  46.43300 46.91500 42.20900
C  46.60400 50.50300 43.31100
C  44.36000 47.94100 42.16500
O  43.46800 48.71400 42.19800
C  44.29300 46.49500 41.51700
C  43.10300 45.79200 42.09500
O  42.46000 44.91100 41.51900
O  43.01700 46.15700 43.38300
C  41.89900 45.48800 44.14700
H  48.81900 41.34700 40.60800
H  53.44700 45.51300 41.93700
H  49.24700 49.96400 43.55100
H  44.42200 43.29100 40.76600
H  46.41700 41.80100 39.62800
H  45.52300 40.33700 41.04200
H  44.78500 41.59900 41.99900
H  46.39700 41.02600 42.41400
H  46.01500 43.45200 38.29600
H  45.46200 45.04800 38.63900
H  43.56000 44.54900 37.77500
H  43.25500 43.05000 38.65700
H  51.54100 40.25700 39.81300
H  50.34300 40.02600 40.94600
H  52.00000 39.87200 41.46400
H  55.22500 44.22600 41.10800
H  55.79500 42.83400 41.97800
H  54.45100 43.79300 42.72500
H  53.19700 48.28800 41.42600
H  51.86900 49.27300 44.07700
H  54.08800 47.07400 43.85300
H  53.85200 48.73400 44.10900
H  55.00300 48.19600 42.78300
H  51.16600 50.50300 41.50100
H  52.84100 50.79200 41.87400
H  52.07800 52.56400 42.85700
H  51.39000 51.47700 44.19900
H  50.37900 52.02000 42.96400
H  47.37300 50.71500 44.05400
H  45.62500 50.83800 43.65400
H  46.88100 51.25400 42.57100
H  44.05700 46.60600 40.45900
H  42.03700 45.47600 45.22800
H  41.67700 44.48200 43.78900
H  41.05300 46.13000 43.90500

