158

Mg 46.82400 45.88000 43.39000
C  43.48800 44.79500 42.83500
C  47.90600 42.87900 42.32800
C  49.99300 47.28900 42.78100
C  45.50800 49.27000 43.48100
N  45.83300 44.11500 42.38400
C  44.47400 43.82100 42.54300
C  44.13300 42.43300 42.01000
C  45.51000 41.73900 42.18300
C  46.48900 42.98300 42.30000
C  45.60500 40.64800 43.28200
C  43.61000 42.52000 40.54000
C  42.30300 41.79000 40.16000
H  42.36500 41.04900 38.83200
N  48.69900 45.06600 42.86100
C  48.89300 43.77700 42.53800
C  50.31200 43.55700 42.60000
C  50.92900 44.81300 42.76700
C  49.85400 45.81600 42.81800
C  50.95200 42.20800 42.56800
C  52.49400 45.08100 42.91400
O  53.29600 44.16400 42.73500
C  53.03100 46.43200 43.23700
N  47.56800 47.91700 43.08100
C  48.92600 48.22400 42.73900
C  49.17300 49.70600 42.60100
C  47.80300 50.34800 42.86400
C  46.88500 49.11300 43.17600
C  50.44400 50.24000 43.43700
C  47.19700 51.27700 41.76700
C  47.32300 52.83600 42.08300
N  44.95700 46.85300 43.47400
C  44.59800 48.17900 43.52800
C  43.11200 48.23400 43.70800
C  42.65500 46.93000 43.44300
C  43.79800 46.11300 43.23400
C  42.32700 49.45800 44.25100
C  41.45100 46.10900 43.33400
O  40.27600 46.41600 43.34300
C  41.95200 44.69900 42.80900
C  41.40700 43.71100 43.81400
O  40.62000 42.80100 43.52700
O  41.92400 43.86300 45.03100
C  41.46100 42.96500 46.09300
H  48.11500 41.83400 42.09200
H  50.93500 47.80100 42.57400
H  45.05700 50.26200 43.41400
H  43.35400 41.90800 42.56300
H  45.85100 41.25100 41.27000
H  46.51700 40.73700 43.87200
H  45.56200 39.65100 42.84300
H  44.77100 40.75500 43.97700
H  44.45900 42.39300 39.86700
H  43.40800 43.58900 40.46600
H  41.49200 42.51800 40.14100
H  42.09000 41.10100 40.97700
H  51.84900 42.20700 43.18800
H  51.37000 41.97700 41.58900
H  50.21300 41.44000 42.79800
H  52.64300 46.70000 44.21900
H  52.97400 47.16900 42.43600
H  54.10100 46.40400 43.44300
H  49.39600 49.73200 41.53400
H  47.85000 51.02100 43.72000
H  50.68200 49.50700 44.20700
H  50.35200 51.28200 43.74500
H  51.28500 50.19300 42.74500
H  46.12600 51.09700 41.67700
H  47.67100 51.06800 40.80700
H  46.59000 53.24700 42.77800
H  47.06000 53.35300 41.16000
H  48.35300 53.01500 42.39400
H  42.65100 49.73100 45.25500
H  41.26500 49.22300 44.32700
H  42.39700 50.38400 43.68100
H  41.64400 44.41500 41.80300
H  40.60000 43.51400 46.47400
H  42.23500 42.85500 46.85300
H  41.10300 41.95700 45.88400
Mg 24.85800 49.89500 27.18900
C  22.95100 51.22100 29.89400
C  27.36700 49.38500 29.42700
C  26.95100 49.30700 24.62900
C  22.42400 51.10100 24.97700
N  25.07600 50.25300 29.34500
C  24.12400 50.63900 30.34000
C  24.64100 50.61900 31.77400
C  26.14200 50.04800 31.51500
C  26.23100 49.98400 29.97700
C  27.37300 50.78000 32.16200
C  23.82300 49.84800 32.85500
C  24.47300 49.62500 34.24000
H  23.88200 50.22300 35.61600
N  26.90300 49.34500 27.09900
C  27.64600 48.97800 28.14000
C  28.84700 48.34700 27.56400
C  28.80200 48.33200 26.14800
C  27.51200 49.04600 25.87000
C  29.90300 47.82700 28.47700
C  29.78600 47.93400 25.13500
O  29.71900 48.22500 23.98000
C  30.95500 47.09100 25.57400
N  24.68900 50.16100 25.11300
C  25.68800 49.87400 24.26700
C  25.46400 50.44200 22.89700
C  23.95200 50.85800 22.91800
C  23.63700 50.80000 24.40800
C  26.46500 51.63800 22.68700
C  23.04100 49.99900 21.96700
C  22.46700 48.63100 22.57600
N  23.01900 50.94500 27.34600
C  22.15200 51.34200 26.36200
C  21.04400 52.03900 26.97600
C  21.27200 51.96100 28.33300
C  22.48400 51.32500 28.54000
C  19.91400 52.66100 26.21200
C  20.77900 52.34400 29.59800
O  19.69700 52.89300 29.89000
C  21.89200 51.98900 30.61600
C  22.26000 53.30300 31.12900
O  22.64700 54.24300 30.53000
O  22.02500 53.30700 32.53500
C  22.18300 54.62300 33.25300
H  28.14900 49.05800 30.11600
H  27.47500 48.96200 23.73600
H  21.71500 51.44800 24.22200
H  24.80200 51.63400 32.13700
H  26.11300 49.03700 31.92300
H  27.99200 49.94900 32.50100
H  26.95200 51.35600 32.98700
H  27.92800 51.34600 31.41400
H  23.46600 48.93300 32.38200
H  22.90000 50.41500 32.98100
H  25.48200 50.02900 34.16100
H  24.39900 48.54100 34.33000
H  30.03900 46.81000 28.11000
H  29.66900 47.87100 29.54100
H  30.92600 48.17800 28.33900
H  30.64400 46.11700 25.95200
H  31.52600 47.69600 26.27900
H  31.64800 46.90500 24.75400
H  25.57400 49.60500 22.20800
H  23.86600 51.87800 22.54300
H  27.50800 51.38900 22.88000
H  26.06900 52.53200 23.16800
H  26.35500 51.77100 21.61000
H  23.69500 49.81500 21.11400
H  22.18600 50.63600 21.73900
H  22.93500 48.37700 23.52600
H  22.56200 47.84000 21.83200
H  21.39800 48.75700 22.75200
H  19.81900 52.41500 25.15500
H  20.05000 53.73900 26.30000
H  18.93800 52.44800 26.64800
H  21.44500 51.37300 31.39600
H  22.92200 55.17600 32.67400
H  22.58600 54.49100 34.25700
H  21.29900 55.25700 33.30700

