158

Mg 25.86300 0.76200 29.22100
C  27.77400 0.36800 31.98800
C  23.18700 1.43700 31.22400
C  24.08200 1.23500 26.49000
C  28.63300 -0.19700 27.10900
N  25.59900 0.84500 31.39300
C  26.49300 0.72800 32.40200
C  25.98200 1.00100 33.84300
C  24.47000 1.15000 33.51300
C  24.40800 1.27500 31.93700
C  23.52900 -0.07800 33.94700
C  26.68500 2.15300 34.73200
C  27.30000 1.65600 36.08300
H  27.29500 2.59300 37.28200
N  23.85400 1.19300 28.91400
C  22.91700 1.43800 29.85700
C  21.71100 1.74100 29.18800
C  21.98500 1.76500 27.83200
C  23.35300 1.44200 27.71000
C  20.39500 1.89200 29.93600
C  20.98900 1.97600 26.66800
O  21.26800 1.95400 25.49200
C  19.52100 2.29100 26.99400
N  26.37500 0.64800 27.14100
C  25.41000 0.89800 26.24600
C  25.93800 0.66700 24.75400
C  27.31400 0.08400 25.02000
C  27.53600 0.23700 26.53500
C  24.97700 -0.15400 23.80400
C  28.44400 0.78500 24.14400
C  29.07100 2.16900 24.49700
N  27.80500 0.22800 29.43800
C  28.80300 -0.22000 28.47900
C  29.97500 -0.60200 29.24600
C  29.63400 -0.46700 30.59800
C  28.34500 0.12600 30.68000
C  31.24500 -1.06900 28.64400
C  30.16600 -0.55400 31.89000
O  31.22900 -0.86400 32.33600
C  29.03200 0.09500 32.85600
C  28.68700 -0.99900 33.84200
O  27.96600 -1.95400 33.58100
O  29.24300 -0.76200 35.07700
C  29.03800 -1.83400 36.03100
H  22.34700 1.78400 31.82900
H  23.54100 1.43400 25.56200
H  29.49600 -0.50000 26.51200
H  26.20900 0.04300 34.31000
H  24.16400 2.13900 33.85300
H  24.04800 -0.52100 34.79700
H  23.49100 -0.81200 33.14200
H  22.51800 0.25300 34.18500
H  26.02100 2.99100 34.93900
H  27.58700 2.37700 34.16200
H  28.33400 1.36200 35.90100
H  26.62000 0.85000 36.35700
H  19.82100 1.05500 29.54000
H  19.83800 2.78100 29.63900
H  20.33100 1.83200 31.02300
H  19.01500 2.49200 26.04900
H  19.31100 3.15200 27.62700
H  19.08400 1.33800 27.29300
H  26.05300 1.64000 24.27600
H  27.28300 -0.99500 24.86900
H  25.63500 -0.51600 23.01300
H  24.13300 0.44600 23.46400
H  24.58100 -1.04600 24.29000
H  27.98800 0.84500 23.15600
H  29.17100 -0.02600 24.17200
H  29.99500 1.88900 25.00300
H  28.59400 2.74100 25.29300
H  29.19900 2.82500 23.63600
H  32.02400 -0.30800 28.60300
H  31.03800 -1.30000 27.59900
H  31.58000 -1.99400 29.11300
H  29.35500 0.91000 33.50400
H  29.81600 -1.76300 36.79100
H  29.16000 -2.84300 35.63600
H  28.11600 -1.68000 36.59100
Mg 28.58300 57.87300 41.45800
C  26.05900 55.86600 40.08000
C  30.96400 55.84100 39.60800
C  31.07800 60.13000 41.99700
C  26.19900 59.97600 42.72500
N  28.51000 56.10900 39.95700
C  27.29900 55.52400 39.60400
C  27.56800 54.30700 38.73800
C  29.03700 54.04300 39.02800
C  29.58500 55.39300 39.58100
C  29.17700 52.83100 39.95100
C  27.31400 54.65900 37.27500
C  26.85500 53.49800 36.36100
H  26.11800 53.96700 35.09000
N  30.64500 58.01100 40.91000
C  31.40700 57.05600 40.19700
C  32.79200 57.49600 40.10500
C  32.87100 58.75700 40.78600
C  31.49900 58.96400 41.30100
C  33.80000 56.73300 39.34800
C  34.14600 59.62700 40.83700
O  35.17800 59.28800 40.23100
C  34.27800 60.86400 41.71500
N  28.60200 59.70900 42.31800
C  29.78900 60.48200 42.38100
C  29.42300 61.95800 42.76600
C  27.89700 61.83200 43.24300
C  27.50400 60.44300 42.75200
C  30.42800 62.61300 43.86100
C  27.11100 63.06300 42.60700
C  25.84000 63.44900 43.35000
N  26.54200 57.85800 41.50400
C  25.71100 58.80500 42.09800
C  24.35300 58.28300 42.01600
C  24.49300 57.06600 41.30200
C  25.78500 56.98200 40.91000
C  23.08900 58.88500 42.68700
C  23.68400 56.00100 40.72900
O  22.46100 55.86100 40.83400
C  24.70200 55.23300 39.85500
C  24.65800 53.78600 40.35000
O  24.89900 53.44500 41.49700
O  24.29400 52.99100 39.33400
C  24.27100 51.61100 39.67400
H  31.69400 55.19900 39.11200
H  31.91000 60.76000 42.31700
H  25.48700 60.69800 43.12800
H  26.96200 53.42800 38.95900
H  29.63100 53.82700 38.14000
H  28.27300 52.59100 40.51000
H  29.86600 53.16500 40.72600
H  29.68400 51.93900 39.58300
H  28.10900 55.18700 36.74900
H  26.42900 55.29700 37.28200
H  26.29200 52.81100 36.99200
H  27.70400 52.91100 36.00800
H  33.71300 57.21800 38.37600
H  33.59600 55.67300 39.19900
H  34.83300 56.66400 39.69100
H  33.53700 61.61300 41.43800
H  35.28700 61.23500 41.54100
H  34.28000 60.43000 42.71500
H  29.61100 62.52200 41.85300
H  27.83600 61.71500 44.32500
H  30.30600 63.69600 43.84400
H  31.46000 62.29800 43.70300
H  30.02000 62.21800 44.79100
H  26.94500 62.79500 41.56300
H  27.82700 63.88400 42.56800
H  25.07400 63.54300 42.58100
H  25.84300 64.45500 43.77100
H  25.56500 62.79600 44.17800
H  23.12200 58.78200 43.77200
H  22.20400 58.44000 42.23100
H  23.08900 59.96100 42.51200
H  24.36800 55.27600 38.81800
H  25.28900 51.27200 39.86600
H  23.82500 51.02100 38.87300
H  23.65100 51.45600 40.55700

