158

Mg 8.64300 3.85900 28.04900
C  9.77500 2.29600 30.97300
C  6.52000 5.73000 29.98200
C  7.24600 5.01000 25.08400
C  10.44900 1.44400 26.15400
N  8.32100 3.97100 30.22600
C  8.92100 3.31600 31.23000
C  8.30200 3.74300 32.63300
C  7.25900 4.77200 32.22100
C  7.33900 4.82100 30.68700
C  5.75600 4.64500 32.70600
C  9.44400 4.11900 33.69400
C  9.18600 5.17400 34.71300
H  9.58400 4.90300 36.17400
N  7.20200 5.24500 27.61500
C  6.42200 5.89600 28.54100
C  5.56800 6.86100 27.83800
C  5.79200 6.70000 26.47300
C  6.75300 5.59000 26.36100
C  4.50000 7.63100 28.57200
C  5.15100 7.42200 25.27300
O  5.49900 7.16200 24.14900
C  4.16200 8.57700 25.46400
N  8.65600 3.17400 25.95500
C  8.09900 3.93100 24.97800
C  8.67200 3.50300 23.61400
C  9.95200 2.71000 24.01700
C  9.68700 2.39900 25.44700
C  7.61300 2.73800 22.82100
C  11.32300 3.43000 23.91400
C  11.25600 4.96700 23.83300
N  9.91900 2.18100 28.44400
C  10.56100 1.31200 27.57500
C  11.18500 0.24200 28.40400
C  11.03900 0.66600 29.73200
C  10.13800 1.76400 29.68900
C  11.87700 -1.03600 27.91000
C  11.35700 0.35100 31.08600
O  12.08000 -0.58800 31.52200
C  10.53200 1.37600 32.07300
C  9.60000 0.50300 32.81300
O  8.50800 0.15300 32.43600
O  10.16000 0.27700 34.02800
C  9.44400 -0.72000 34.86800
H  6.07600 6.46500 30.65700
H  6.94100 5.47000 24.14200
H  11.20100 0.88700 25.59200
H  7.79000 2.85100 32.99300
H  7.52100 5.74400 32.64000
H  5.64600 5.37900 33.50400
H  5.62600 3.64400 33.11700
H  5.01000 4.85600 31.93900
H  10.37400 4.38500 33.19200
H  9.64500 3.23700 34.30200
H  8.09800 5.17300 34.65200
H  9.55100 6.15000 34.39400
H  4.35600 7.43600 29.63500
H  3.60700 7.27500 28.05800
H  4.74400 8.67900 28.40000
H  3.60300 8.72000 24.54000
H  4.64500 9.54000 25.63100
H  3.47200 8.42900 26.29400
H  8.98700 4.41300 23.10400
H  9.97800 1.77800 23.45200
H  6.75800 2.45900 23.43600
H  8.02900 1.86800 22.31300
H  7.15600 3.49800 22.18700
H  11.74200 3.32500 22.91300
H  12.09800 3.16300 24.63300
H  11.19200 5.37900 22.82600
H  12.09700 5.52000 24.25100
H  10.35500 5.27500 24.36200
H  12.83500 -0.75200 27.47400
H  11.20700 -1.65100 27.30900
H  12.15500 -1.52500 28.84300
H  11.26600 1.91800 32.67000
H  9.30200 -1.70200 34.41500
H  8.44700 -0.36400 35.12500
H  10.07200 -0.80500 35.75500
Mg 9.04200 48.14300 26.00400
C  7.38200 48.33800 29.08300
C  11.84700 49.61100 27.43700
C  10.67000 47.95800 22.98500
C  6.04700 47.63000 24.41300
N  9.56400 48.87800 27.99500
C  8.76400 48.69900 29.15300
C  9.53200 49.02500 30.39400
C  10.85300 49.66700 29.83300
C  10.75700 49.43800 28.27800
C  10.92400 51.18200 30.30400
C  9.80700 47.82500 31.34200
C  9.19300 47.95000 32.79200
H  9.45700 46.79300 33.77500
N  11.01700 48.66200 25.35800
C  12.01900 49.22800 26.11300
C  13.28700 49.21200 25.36400
C  12.92500 48.66500 24.09000
C  11.50100 48.43500 24.01800
C  14.70900 49.49300 26.04400
C  13.87700 48.38700 22.92700
O  13.54100 47.91800 21.83300
C  15.25300 48.71100 23.11900
N  8.38000 48.04300 24.02400
C  9.28900 47.80600 22.96800
C  8.54700 47.52500 21.59800
C  7.05600 47.53400 22.06500
C  7.15200 47.70500 23.58800
C  8.92800 48.51200 20.46300
C  6.31600 46.25900 21.56600
C  6.29300 45.05000 22.48500
N  7.03700 48.02200 26.58100
C  5.91300 47.74500 25.85100
C  4.79100 47.67300 26.76300
C  5.30100 47.92800 28.02900
C  6.69100 48.10800 27.84000
C  3.48000 47.28700 26.23400
C  4.97600 48.20000 29.44600
O  3.88500 48.27200 29.94600
C  6.35400 48.21800 30.21100
C  6.45600 46.87100 30.87400
O  7.11600 45.90400 30.51200
O  5.78000 46.90600 32.12000
C  5.69100 45.60400 32.78100
H  12.69900 50.12500 27.88600
H  11.12400 47.71600 22.02100
H  5.07000 47.49600 23.94500
H  8.96800 49.76400 30.96300
H  11.74000 49.12900 30.16800
H  11.42400 51.27300 31.26800
H  9.93300 51.54500 30.57600
H  11.35100 51.77900 29.49700
H  10.86600 47.65800 31.54100
H  9.42600 46.89500 30.91800
H  8.12900 48.17000 32.88500
H  9.76300 48.83300 33.07900
H  14.49300 49.79100 27.07000
H  15.34400 50.21600 25.53200
H  15.23700 48.55500 26.21300
H  15.67600 48.16800 23.96400
H  15.28100 49.80100 23.13100
H  15.78200 48.25700 22.28100
H  8.83000 46.57400 21.14900
H  6.47700 48.30500 21.55700
H  9.52000 49.36500 20.79600
H  8.04100 48.83900 19.92100
H  9.60900 48.06200 19.74000
H  6.65700 45.93100 20.58400
H  5.27100 46.48500 21.35600
H  6.64600 44.17000 21.94800
H  5.35700 44.81000 22.99000
H  6.95900 45.28800 23.31500
H  3.24500 48.09700 25.54400
H  2.70000 47.23700 26.99300
H  3.44500 46.35800 25.66400
H  6.47900 49.04400 30.91200
H  4.99900 44.91900 32.29100
H  5.50800 45.82200 33.83300
H  6.71500 45.23000 32.77800

