158

Mg 26.83000 0.81400 29.90600
C  28.58800 0.40700 32.87700
C  23.99300 1.13600 32.02700
C  24.82700 0.47700 27.21700
C  29.64900 -0.11300 28.10200
N  26.35500 0.75600 32.24600
C  27.24200 0.65600 33.22800
C  26.64300 0.70900 34.61100
C  25.13500 1.12000 34.24100
C  25.14500 0.94100 32.72100
C  24.06500 0.24600 34.93800
C  27.45200 1.71700 35.54200
C  26.68800 2.33700 36.72200
H  27.47200 2.78000 37.96600
N  24.72800 0.84100 29.64100
C  23.73700 1.02900 30.62400
C  22.46200 1.18600 29.96900
C  22.66500 0.81200 28.61400
C  24.14500 0.67900 28.42600
C  21.19600 1.59100 30.58600
C  21.63700 0.65100 27.48200
O  21.93000 0.28100 26.32200
C  20.14200 0.74000 27.75300
N  27.21000 0.23400 27.89100
C  26.23400 0.26700 26.96600
C  26.83600 -0.12400 25.55900
C  28.40800 -0.17200 25.84400
C  28.46500 0.06200 27.38600
C  26.20400 -1.48900 25.12400
C  29.39900 0.74200 25.07700
C  29.84100 2.06000 25.61600
N  28.75000 0.32000 30.33600
C  29.75700 -0.05600 29.47300
C  30.99900 -0.21900 30.25600
C  30.57600 -0.05500 31.56800
C  29.18100 0.25000 31.59300
C  32.34000 -0.64200 29.75800
C  30.98100 -0.09900 32.97900
O  32.08500 -0.36400 33.49000
C  29.78200 0.24700 33.88100
C  29.62800 -0.97000 34.69700
O  29.21200 -2.01200 34.29400
O  30.00400 -0.76900 35.99400
C  29.83600 -1.89900 36.93200
H  23.19400 1.45300 32.70100
H  24.14300 0.28000 26.38900
H  30.54000 -0.33800 27.51200
H  26.76900 -0.29500 35.01600
H  24.98800 2.19900 34.28500
H  23.38200 0.81700 35.56600
H  24.62300 -0.28800 35.70600
H  23.58200 -0.45900 34.26000
H  27.87100 2.52200 34.93800
H  28.28700 1.11800 35.90500
H  25.99800 1.52500 36.95300
H  26.14500 3.17300 36.28200
H  21.41200 2.12300 31.51200
H  20.60900 0.69700 30.79800
H  20.62400 2.27100 29.95500
H  19.89700 0.23200 28.68600
H  19.66800 0.27000 26.89100
H  19.74700 1.74500 27.90300
H  26.48900 0.63200 24.85500
H  28.79700 -1.19000 25.81200
H  25.52200 -2.08500 25.73000
H  27.06900 -2.04200 24.75700
H  25.56000 -1.29000 24.26800
H  29.02400 0.82100 24.05600
H  30.21400 0.06200 24.82900
H  29.45500 2.25800 26.61700
H  29.40200 2.81400 24.96300
H  30.92200 2.18400 25.56600
H  32.63800 0.04700 28.96800
H  32.30700 -1.68700 29.44900
H  33.14500 -0.53700 30.48500
H  29.98200 1.10500 34.52300
H  29.99500 -2.89700 36.52500
H  28.86900 -1.87200 37.43300
H  30.59600 -1.71900 37.69400
Mg 48.32300 45.39400 42.14500
C  44.95100 46.16100 41.16000
C  47.80100 42.26500 40.82600
C  51.50500 44.85500 42.32100
C  48.82000 48.88000 42.50100
N  46.63200 44.46300 41.06300
C  45.38400 44.94700 40.75100
C  44.52500 43.92600 40.06600
C  45.31400 42.61600 40.32900
C  46.67500 43.17400 40.73800
C  44.72800 41.68700 41.42600
C  44.22100 44.08400 38.55700
C  43.05900 43.24700 37.99800
H  43.34500 42.51000 36.64500
N  49.49900 43.77800 41.80100
C  49.08300 42.54000 41.25000
C  50.22300 41.62900 41.17700
C  51.35200 42.37500 41.66800
C  50.79900 43.73000 42.06900
C  50.11200 40.20300 40.67600
C  52.67400 41.78100 42.01300
O  52.91000 40.59700 41.80600
C  53.73300 42.49600 42.73200
N  49.95500 46.67600 42.42200
C  51.21600 46.15600 42.48600
C  52.25400 47.21100 42.54300
C  51.40300 48.54500 42.46200
C  49.96100 48.00600 42.55100
C  53.44800 47.26300 43.58100
C  51.61000 49.56800 41.26500
C  51.57800 51.10100 41.60900
N  47.09300 47.16500 42.10700
C  47.45600 48.45000 42.42100
C  46.20300 49.17000 42.54700
C  45.18000 48.37400 41.98900
C  45.80300 47.15100 41.70200
C  46.01900 50.52100 43.12600
C  43.80300 48.24400 41.67500
O  42.85600 48.95300 41.75900
C  43.66600 46.84800 40.88100
C  42.51400 45.96700 41.39300
O  41.52700 45.61300 40.74600
O  42.81000 45.52400 42.66800
C  41.97100 44.54200 43.24900
H  47.67800 41.25200 40.43700
H  52.59200 44.74600 42.30600
H  48.74700 49.94700 42.72500
H  43.56300 43.95800 40.57700
H  45.29700 42.00800 39.42400
H  45.30500 41.69000 42.35100
H  44.53300 40.72100 40.96000
H  43.70000 42.02500 41.55400
H  45.08300 43.76100 37.97300
H  43.96200 45.12400 38.36100
H  42.21400 43.87100 37.70600
H  42.81700 42.52000 38.77400
H  49.26300 39.93300 40.04900
H  49.85200 39.63200 41.56700
H  50.95900 39.76000 40.15200
H  53.36600 43.02800 43.61000
H  54.15100 43.24200 42.05700
H  54.50000 41.78500 43.03800
H  52.70800 47.06300 41.56300
H  51.48200 49.05300 43.42300
H  54.41800 47.14300 43.09900
H  53.31700 46.39400 44.22600
H  53.51000 48.11200 44.26200
H  50.72400 49.35500 40.66700
H  52.48000 49.23400 40.69900
H  52.58100 51.47400 41.40100
H  51.22600 51.16400 42.63900
H  50.85400 51.61400 40.97500
H  46.53400 50.63700 44.08000
H  44.96800 50.75200 43.29700
H  46.44000 51.23700 42.42000
H  43.43600 47.08500 39.84200
H  42.03100 44.42600 44.33100
H  42.18500 43.58400 42.77500
H  40.91600 44.80400 43.16300

