158

Mg 24.52400 2.10600 29.77300
C  26.53000 2.18800 32.61500
C  21.75000 2.02300 31.83200
C  22.48600 2.06500 26.99700
C  27.27500 1.63900 27.85400
N  24.19800 2.17300 32.04000
C  25.19700 2.24200 32.99700
C  24.57100 2.31500 34.38600
C  23.04200 2.17400 34.12200
C  22.94300 2.09300 32.57700
C  22.42200 1.07000 34.96000
C  25.06100 3.67100 35.04500
C  25.65600 3.62900 36.46300
H  25.27500 4.57400 37.59900
N  22.42000 2.03900 29.44000
C  21.49300 2.09900 30.45500
C  20.18100 2.01900 29.88000
C  20.35200 1.86700 28.48300
C  21.81300 2.05000 28.25300
C  18.85000 1.96800 30.67800
C  19.39400 1.50300 27.32700
O  19.75200 1.36200 26.18500
C  17.93200 1.21100 27.61600
N  24.80100 1.93600 27.68400
C  23.79800 1.97700 26.73500
C  24.37000 1.91100 25.29800
C  25.95700 1.96900 25.62700
C  26.07700 1.81600 27.16800
C  23.94900 0.63500 24.46700
C  26.80400 3.26300 25.16700
C  26.05600 4.61400 25.30800
N  26.53200 1.94400 30.08800
C  27.56100 1.75800 29.15900
C  28.77900 1.66800 29.88100
C  28.40200 1.78400 31.21700
C  27.02100 1.98400 31.33300
C  30.11000 1.56200 29.27300
C  28.97100 1.77300 32.59300
O  30.13500 1.66000 32.98800
C  27.79900 2.07900 33.54900
C  27.72900 1.06000 34.56100
O  27.53200 -0.16500 34.41600
O  28.32300 1.49300 35.66500
C  28.44100 0.51700 36.79700
H  20.93300 2.06500 32.55600
H  21.88200 2.10500 26.08800
H  28.16900 1.39200 27.27700
H  24.88800 1.44700 34.96400
H  22.40400 3.04700 34.25900
H  21.38600 1.33200 35.17600
H  22.99300 0.90700 35.87400
H  22.55800 0.16300 34.37100
H  24.17500 4.30400 35.09600
H  25.71900 4.27000 34.41600
H  26.72100 3.73500 36.25500
H  25.54500 2.57800 36.72900
H  18.96300 2.58800 31.56800
H  18.74400 1.00300 31.17500
H  17.92900 2.27600 30.18300
H  17.35300 1.87400 28.25900
H  17.75300 0.31900 28.21600
H  17.40000 1.02600 26.68200
H  23.92100 2.74400 24.75700
H  26.36500 1.06600 25.17100
H  23.22100 0.18000 25.13900
H  24.70900 -0.12400 24.28600
H  23.47800 0.94800 23.53500
H  27.11500 3.21400 24.12300
H  27.66900 3.24600 25.82900
H  25.67100 4.74500 26.32000
H  25.21400 4.64900 24.61600
H  26.75100 5.41400 25.05500
H  30.09500 1.93000 28.24800
H  30.36900 0.50300 29.26300
H  30.78600 2.07000 29.96100
H  28.05700 3.05900 33.95200
H  29.40100 0.03100 36.62200
H  27.65200 -0.23000 36.87500
H  28.45000 1.02600 37.76100
Mg 6.52500 54.43300 41.16900
C  3.91800 52.22800 41.06000
C  8.59000 52.16200 39.79400
C  8.93400 56.83800 40.91700
C  4.27000 56.94100 42.33600
N  6.13200 52.54300 40.17000
C  5.02400 51.76000 40.30100
C  5.18200 50.39000 39.60900
C  6.74600 50.23800 39.48000
C  7.20600 51.72300 39.79300
C  7.53100 49.33200 40.45500
C  4.52600 50.32800 38.17300
C  3.96400 49.01100 37.83300
H  4.50000 48.20800 36.66500
N  8.50300 54.44300 40.45200
C  9.19000 53.37000 40.01700
C  10.54000 53.72800 39.69300
C  10.55300 55.15900 39.64900
C  9.30100 55.57300 40.31500
C  11.53500 52.77700 39.13200
C  11.67000 55.99800 39.15400
O  12.72800 55.45600 38.77900
C  11.48100 57.49200 39.00700
N  6.58700 56.59700 41.47600
C  7.74600 57.32900 41.46900
C  7.57600 58.71400 42.21200
C  5.99700 58.73100 42.32800
C  5.60400 57.33900 42.10800
C  8.38700 58.92200 43.55800
C  5.31000 59.63100 41.30600
C  4.37900 60.75800 41.84400
N  4.52900 54.61700 41.56000
C  3.67500 55.64500 41.98000
C  2.38100 55.18900 42.28800
C  2.43800 53.84000 42.00900
C  3.76300 53.51500 41.58000
C  1.13900 55.91200 42.73200
C  1.68900 52.65600 41.95200
O  0.47800 52.50600 42.16900
C  2.64400 51.49900 41.61600
C  2.02200 50.63500 40.66400
O  1.50000 51.09700 39.65300
O  1.94800 49.31800 41.20500
C  0.92700 48.53200 40.45000
H  9.20300 51.33800 39.42100
H  9.82000 57.44800 41.10700
H  3.53900 57.56900 42.85000
H  4.77100 49.63400 40.27700
H  6.99400 49.98000 38.45100
H  7.41700 48.27100 40.23400
H  7.28200 49.41400 41.51300
H  8.59900 49.52400 40.35900
H  5.21500 50.70800 37.41800
H  3.70300 51.04200 38.13000
H  2.91100 49.19600 37.61700
H  4.04900 48.47300 38.77700
H  11.42000 52.57600 38.06700
H  11.38900 51.79100 39.57400
H  12.50400 53.08500 39.52600
H  10.42700 57.76300 38.93700
H  11.99300 57.84000 38.11100
H  11.93000 57.83700 39.93900
H  7.75100 59.59300 41.59200
H  5.71800 59.12300 43.30600
H  7.70600 58.82900 44.40400
H  9.07700 59.76600 43.56800
H  8.98000 58.03000 43.76000
H  4.56900 59.04500 40.76300
H  5.95200 60.17400 40.61200
H  4.38700 60.69700 42.93200
H  3.34600 60.59600 41.53800
H  4.83500 61.65500 41.42300
H  0.83500 56.72300 42.06900
H  1.40700 56.39500 43.67200
H  0.37300 55.28000 43.18200
H  2.85100 50.91400 42.51200
H  1.36200 47.56900 40.18000
H  0.65000 48.89800 39.46100
H  0.03300 48.32100 41.03600

