158

Mg 47.00800 35.00500 28.30800
C  45.49700 32.87000 30.73400
C  47.54000 37.27100 30.86000
C  48.14800 36.97900 26.04200
C  46.25000 32.41300 25.86000
N  46.66000 35.03500 30.56200
C  46.08600 34.05100 31.32400
C  46.12900 34.33500 32.78700
C  46.38000 35.88200 32.78200
C  46.88000 36.10200 31.33100
C  45.22100 36.79400 33.22700
C  47.24100 33.31300 33.38400
C  47.68300 33.57700 34.86600
H  46.90500 34.63200 35.75100
N  47.94900 36.86600 28.45200
C  48.04000 37.63500 29.56700
C  48.84100 38.78000 29.26600
C  49.00500 38.79800 27.79100
C  48.34500 37.52700 27.32000
C  49.24600 39.88700 30.28500
C  49.73100 39.72800 26.87800
O  49.81100 39.59100 25.66800
C  50.18500 41.10500 27.31400
N  47.12900 34.74100 26.26700
C  47.52400 35.80800 25.55600
C  47.16700 35.61000 24.10000
C  46.81700 34.11500 23.99000
C  46.73300 33.68400 25.42300
C  46.11100 36.69200 23.58000
C  47.90900 33.17400 23.30200
C  47.43700 32.01800 22.47700
N  46.06700 33.08500 28.26400
C  45.89300 32.15200 27.23200
C  45.26000 30.97800 27.69400
C  45.05100 31.23700 29.04000
C  45.55500 32.54200 29.34100
C  44.67800 29.90000 27.00500
C  44.55900 30.59100 30.25200
O  44.14400 29.47300 30.51100
C  44.48300 31.77100 31.28000
C  44.55800 31.24800 32.65200
O  45.16000 30.23700 32.91700
O  43.78500 31.99300 33.51100
C  43.82700 31.50500 34.90300
H  47.60900 38.05900 31.61300
H  48.49600 37.61100 25.22200
H  46.01100 31.74200 25.03300
H  45.21300 34.07900 33.32000
H  47.21400 36.05800 33.46100
H  44.41900 36.35100 33.81800
H  44.75100 37.33400 32.40600
H  45.76900 37.43600 33.91700
H  48.12200 33.28600 32.74200
H  46.84900 32.30000 33.47300
H  48.73400 33.86200 34.90900
H  47.54900 32.72700 35.53600
H  48.78400 40.81300 29.94300
H  50.32300 40.02400 30.38300
H  48.81800 39.74300 31.27600
H  51.00100 41.03400 28.03300
H  49.29300 41.61100 27.68200
H  50.69900 41.61200 26.49800
H  47.96100 35.93100 23.42600
H  45.85600 34.07400 23.47700
H  45.23100 36.09400 23.34600
H  46.47600 37.18900 22.68100
H  45.79000 37.29200 24.43200
H  48.44600 32.61800 24.07000
H  48.59400 33.90300 22.86900
H  46.38300 32.08500 22.20900
H  47.73100 31.06000 22.90700
H  48.01900 31.96500 21.55700
H  45.16900 29.73300 26.04700
H  43.60900 29.96700 26.79900
H  44.82100 28.97800 27.56900
H  43.47300 32.17200 31.19300
H  44.36500 32.30800 35.40800
H  44.23900 30.50300 35.01700
H  42.88900 31.70200 35.42200
Mg 30.12700 58.90300 38.56300
C  27.24100 57.05100 37.76800
C  32.05000 56.28700 37.64800
C  32.88700 60.95100 38.52100
C  28.01900 61.76600 38.85100
N  29.63100 57.04400 37.64500
C  28.41000 56.37000 37.47400
C  28.52400 54.96000 37.04300
C  30.09000 54.68300 37.36700
C  30.65700 56.11000 37.60100
C  30.39900 53.77000 38.56500
C  28.24200 54.78700 35.49800
C  26.87500 54.17900 35.05400
H  26.18100 55.06100 33.94200
N  32.21000 58.59900 38.30700
C  32.78000 57.46800 37.93400
C  34.24500 57.63300 37.88000
C  34.46000 58.97100 38.24700
C  33.16000 59.54700 38.39400
C  35.19900 56.55400 37.50000
C  35.81300 59.62100 38.50100
O  36.91900 59.08200 38.24400
C  35.92400 60.86800 39.22900
N  30.40600 61.01400 38.63800
C  31.63700 61.60900 38.56500
C  31.45700 63.11800 38.67300
C  29.93500 63.37900 38.87100
C  29.40600 61.95200 38.68800
C  32.44300 63.95500 39.59000
C  29.40200 64.42900 37.81600
C  28.45000 65.49400 38.32900
N  28.09000 59.39200 38.36900
C  27.38700 60.55600 38.66400
C  25.93700 60.35800 38.53700
C  25.83100 59.00600 38.18400
C  27.14200 58.46300 38.14300
C  24.86300 61.42700 38.75200
C  24.94200 57.90400 37.97500
O  23.69800 57.86300 38.06800
C  25.75000 56.64300 37.57700
C  25.30100 55.61000 38.44400
O  25.76100 55.44000 39.56900
O  24.33500 54.80300 37.87600
C  23.66300 53.85900 38.73500
H  32.66400 55.38500 37.60200
H  33.68800 61.65900 38.30000
H  27.35300 62.58100 39.14100
H  27.92700 54.35300 37.72400
H  30.55500 54.19600 36.51000
H  31.09400 52.94400 38.40900
H  29.52900 53.13800 38.74600
H  30.62800 54.17000 39.55200
H  29.02200 54.24700 34.96100
H  28.47000 55.79400 35.14700
H  26.34200 53.90600 35.96500
H  27.15200 53.20800 34.64200
H  35.97000 56.59400 38.27000
H  35.69000 56.90100 36.59000
H  34.75000 55.56600 37.40000
H  36.92700 61.13400 39.56400
H  35.17100 60.99300 40.00700
H  35.63400 61.60000 38.47500
H  31.78300 63.42700 37.67900
H  29.68000 63.69200 39.88400
H  31.83300 64.24500 40.44600
H  32.92400 64.82000 39.13300
H  33.19200 63.21800 39.87900
H  28.88300 64.05100 36.93600
H  30.30400 64.96800 37.52600
H  28.90600 66.42600 38.66300
H  27.85900 65.18400 39.19100
H  27.65700 65.83300 37.66300
H  23.95900 61.04900 38.27500
H  25.06800 62.44700 38.42700
H  24.80100 61.41400 39.84000
H  25.62400 56.37700 36.52800
H  23.27000 54.40000 39.59600
H  24.30700 53.08700 39.15600
H  22.96800 53.26500 38.14200

