158

Mg -2.90500 16.63300 26.21300
C  -2.95000 14.23400 28.88900
C  -3.37000 19.08600 28.50900
C  -2.62200 18.78100 23.66100
C  -2.69200 13.95200 23.97100
N  -3.12300 16.60900 28.45600
C  -3.15800 15.55700 29.36500
C  -3.46100 16.03500 30.75700
C  -3.85700 17.55900 30.53700
C  -3.47400 17.73700 29.03700
C  -5.24500 18.09100 30.95700
C  -2.35700 15.63100 31.78900
C  -1.97800 16.67600 32.85000
H  -1.46000 16.05500 34.19000
N  -2.95100 18.65400 26.13900
C  -3.19800 19.53500 27.19900
C  -2.99900 20.93600 26.75400
C  -2.80200 20.81500 25.30500
C  -2.75700 19.38600 24.97700
C  -3.17800 22.15900 27.67500
C  -2.69400 21.97900 24.34100
O  -2.63900 21.73200 23.15900
C  -2.46500 23.35200 24.73000
N  -2.68900 16.43700 24.15800
C  -2.56900 17.46300 23.28000
C  -2.54000 16.93100 21.82600
C  -2.30600 15.42500 21.98500
C  -2.57300 15.24300 23.44800
C  -3.87200 17.09100 21.05400
C  -0.89400 14.86300 21.56700
C  -0.93000 13.53200 20.80100
N  -3.06500 14.57500 26.29800
C  -2.94000 13.67500 25.28000
C  -2.99800 12.34300 25.82700
C  -2.90900 12.51300 27.22400
C  -2.96300 13.90600 27.46200
C  -2.96600 11.04500 25.03900
C  -2.90900 11.75800 28.53200
O  -2.99400 10.53600 28.66300
C  -2.73900 12.83900 29.62600
C  -1.47700 12.66500 30.45900
O  -0.41100 13.24900 30.33800
O  -1.68700 11.60700 31.30200
C  -0.66500 11.42400 32.33600
H  -3.45800 19.79300 29.33700
H  -2.48100 19.40500 22.77700
H  -2.73100 13.13600 23.24700
H  -4.41500 15.60100 31.05700
H  -3.12400 18.10700 31.12800
H  -5.68700 18.55100 30.07300
H  -5.15200 18.83700 31.74600
H  -5.85400 17.28400 31.36400
H  -1.54300 15.32600 31.13100
H  -2.56800 14.67300 32.26300
H  -2.81400 17.36700 32.96400
H  -1.08600 17.25900 32.62400
H  -3.00900 21.84700 28.70600
H  -4.10100 22.72900 27.57400
H  -2.40600 22.91000 27.50100
H  -3.23700 23.63800 25.44500
H  -2.52600 23.99900 23.85500
H  -1.41600 23.44300 25.01400
H  -1.70400 17.47400 21.38600
H  -3.00900 14.87000 21.36400
H  -4.29900 18.03900 21.38100
H  -4.61700 16.33300 21.29500
H  -3.68000 16.95600 19.99000
H  -0.24200 14.80600 22.43900
H  -0.47200 15.62700 20.91500
H  -0.47500 13.74100 19.83300
H  -1.94600 13.15200 20.69200
H  -0.34200 12.79700 21.35100
H  -2.09500 11.24200 24.41400
H  -3.88900 10.97100 24.46400
H  -2.69900 10.16700 25.62700
H  -3.52700 12.56700 30.32800
H  -0.23600 10.45400 32.08100
H  -1.15500 11.21000 33.28500
H  0.16000 12.13600 32.34300
Mg -11.72500 38.89500 42.17300
C  -10.26600 35.96600 40.98000
C  -9.33200 40.73600 40.49900
C  -13.52200 41.64700 42.66300
C  -14.67100 36.91200 42.94500
N  -10.11000 38.40500 40.89900
C  -9.54400 37.18200 40.73400
C  -8.17700 37.23700 40.04200
C  -7.76900 38.72900 40.06400
C  -9.13600 39.34000 40.57100
C  -6.57200 39.17900 41.03700
C  -8.46600 36.73800 38.58400
C  -7.45800 35.68800 38.00400
H  -6.39000 36.24700 37.01600
N  -11.45400 40.89700 41.68100
C  -10.38100 41.48300 40.99000
C  -10.45300 42.91100 41.09900
C  -11.65100 43.17200 41.82800
C  -12.32100 41.87100 42.03300
C  -9.43800 43.92000 40.51700
C  -12.20000 44.51900 42.35800
O  -11.55600 45.43900 42.00700
C  -13.37300 44.74400 43.25500
N  -13.83500 39.19700 42.64700
C  -14.19800 40.47200 42.97700
C  -15.65700 40.51900 43.40400
C  -16.11800 38.98000 43.35400
C  -14.81100 38.27200 42.94700
C  -15.80300 41.16200 44.79700
C  -17.32200 38.59300 42.48300
C  -17.15500 38.07400 41.03400
N  -12.32000 36.84400 42.15600
C  -13.51700 36.22800 42.47600
C  -13.34300 34.80000 42.32400
C  -12.03500 34.64100 41.81000
C  -11.53800 35.88000 41.61300
C  -14.40400 33.76800 42.70100
C  -11.00700 33.66600 41.36600
O  -11.03800 32.45300 41.37900
C  -9.74400 34.49400 40.91700
C  -8.76500 34.19600 42.03700
O  -7.71000 33.53700 41.97800
O  -9.16400 34.89100 43.10300
C  -8.13200 34.79800 44.16100
H  -8.42600 41.31000 40.29100
H  -14.11200 42.51300 42.97200
H  -15.54600 36.28200 43.11700
H  -7.48800 36.48000 40.41700
H  -7.61200 39.07600 39.04300
H  -5.69700 39.43900 40.44100
H  -6.22200 38.28000 41.54500
H  -6.75100 40.06100 41.65100
H  -8.50100 37.60500 37.92400
H  -9.47300 36.32700 38.50500
H  -8.04600 34.90400 37.52700
H  -6.92500 35.09600 38.74600
H  -8.41800 43.54000 40.57800
H  -9.40500 44.86300 41.06200
H  -9.65800 44.14100 39.47300
H  -13.15400 45.77100 43.54700
H  -13.33700 44.06300 44.10600
H  -14.34800 44.81000 42.77300
H  -16.15100 41.11700 42.63800
H  -16.36300 38.73700 44.38700
H  -14.95500 40.99000 45.46000
H  -16.67300 40.70200 45.26300
H  -15.93700 42.24100 44.72400
H  -17.92600 39.48900 42.33900
H  -17.79400 37.86200 43.13900
H  -17.68800 37.13000 41.14900
H  -16.16600 37.85100 40.63600
H  -17.75400 38.68000 40.35400
H  -13.94100 32.84100 42.36200
H  -15.36500 33.98000 42.23400
H  -14.63100 33.66900 43.76300
H  -9.39600 34.17600 39.93500
H  -8.28300 35.69600 44.75900
H  -7.12400 34.86100 43.75100
H  -8.14800 33.87700 44.74400

