158

Mg 45.70400 17.34100 29.17700
C  43.65800 16.90400 31.93300
C  47.61100 19.47400 31.23900
C  47.50900 18.45400 26.37800
C  43.39900 15.86600 27.06000
N  45.55700 18.18800 31.35200
C  44.78400 17.57000 32.31000
C  45.18600 17.97400 33.66300
C  46.27100 19.03900 33.34200
C  46.50600 18.87800 31.87200
C  46.05600 20.46500 33.80300
C  45.55100 16.85000 34.65200
C  46.30100 17.19300 35.84600
H  46.07000 18.57900 36.60200
N  47.30800 18.67300 28.91600
C  47.90100 19.47300 29.90200
C  48.95900 20.16900 29.30900
C  48.95000 20.01000 27.86300
C  47.91600 18.99600 27.65100
C  50.00200 21.01900 30.12400
C  49.77600 20.66200 26.82300
O  49.69300 20.44900 25.62800
C  50.78600 21.71900 27.25300
N  45.60200 17.08900 26.91700
C  46.43400 17.61000 26.07000
C  46.08500 17.19400 24.64500
C  44.87200 16.31900 24.87500
C  44.56800 16.41100 26.36600
C  45.89900 18.34000 23.54000
C  45.02000 14.90900 24.46900
C  45.68800 13.95700 25.49200
N  43.93700 16.54000 29.34600
C  43.13700 15.92000 28.43200
C  41.98300 15.50000 29.12800
C  42.17800 15.74300 30.45600
C  43.36300 16.43800 30.58900
C  40.77500 14.81400 28.61400
C  41.49200 15.66000 31.75100
O  40.39900 15.19500 32.05900
C  42.54000 16.33300 32.75600
C  41.88400 17.29900 33.67700
O  41.14600 18.26400 33.38900
O  42.18400 16.94500 34.93900
C  41.58800 17.76300 36.07000
H  48.12600 20.05600 32.00700
H  47.90200 18.83500 25.43300
H  42.57200 15.39300 26.52700
H  44.29200 18.42500 34.09200
H  47.24800 18.75900 33.73400
H  45.85900 21.07800 32.92400
H  46.94000 20.72900 34.38400
H  45.19700 20.46700 34.47300
H  46.02300 16.08600 34.03200
H  44.61000 16.44500 35.02400
H  47.36700 17.02100 35.70300
H  45.99700 16.42100 36.55300
H  49.84000 22.09500 30.05500
H  51.07900 20.97400 29.96500
H  49.82500 20.84100 31.18500
H  51.28000 22.11100 26.36400
H  51.65700 21.37400 27.81000
H  50.26800 22.59200 27.64800
H  46.84200 16.48800 24.30500
H  44.03400 16.71300 24.30000
H  46.00500 19.35500 23.92100
H  44.87800 18.24900 23.16800
H  46.60800 18.24400 22.71700
H  45.42100 14.83500 23.45800
H  44.05000 14.43200 24.33000
H  44.95800 13.28700 25.94400
H  46.28500 14.35400 26.31300
H  46.31700 13.17900 25.05800
H  40.79500 13.74300 28.81300
H  40.70200 15.08600 27.56100
H  39.90100 15.29500 29.05400
H  43.01200 15.52100 33.30900
H  40.86900 17.08900 36.53400
H  41.12200 18.67500 35.69700
H  42.38500 18.00800 36.77300
Mg 36.81700 50.18800 24.59200
C  37.06600 48.38800 27.38800
C  35.56100 52.81900 26.41500
C  35.99500 51.88300 21.60100
C  37.52600 47.42100 22.65000
N  36.40800 50.57600 26.65800
C  36.55300 49.65800 27.64500
C  36.34300 50.32900 29.03300
C  35.57800 51.56600 28.62600
C  35.86300 51.68300 27.14400
C  34.04200 51.62800 28.92300
C  37.79000 50.58500 29.68400
C  38.03300 50.19100 31.13300
H  36.87700 50.34600 32.05900
N  36.01700 52.13100 24.11100
C  35.62200 53.03600 24.98800
C  35.09500 54.25300 24.32000
C  35.25500 53.99900 22.97000
C  35.83600 52.65800 22.81200
C  34.52200 55.47400 25.08400
C  34.71200 54.85900 21.83000
O  34.93500 54.51700 20.60700
C  33.88000 56.06500 22.09000
N  36.70100 49.73400 22.47600
C  36.40100 50.57100 21.47800
C  36.44400 49.90100 20.07100
C  37.22800 48.64400 20.43400
C  37.21300 48.60000 21.96500
C  34.99400 49.78800 19.43700
C  38.59900 48.44700 19.78900
C  39.81000 49.20100 20.35200
N  37.18700 48.21100 24.93100
C  37.60100 47.23700 24.08800
C  37.99700 46.06400 24.82900
C  37.80300 46.44600 26.14600
C  37.37600 47.80100 26.15700
C  38.57400 44.77400 24.19900
C  37.85700 46.03300 27.52700
O  38.11800 44.91600 28.04700
C  37.36500 47.31200 28.38400
C  36.25900 46.89800 29.32900
O  35.14000 46.59200 29.04100
O  36.80900 46.70200 30.57000
C  35.96300 46.23100 31.66500
H  35.11200 53.63000 26.99100
H  35.64100 52.29100 20.65200
H  37.96200 46.62500 22.04300
H  35.74700 49.64800 29.64000
H  35.91600 52.49900 29.07700
H  33.55200 50.90600 29.57700
H  33.45200 51.78100 28.02000
H  33.87100 52.61300 29.35600
H  38.07500 51.63600 29.64800
H  38.60500 50.09700 29.14900
H  38.94700 50.61600 31.54800
H  38.26400 49.12600 31.15700
H  34.90800 55.62400 26.09200
H  33.44100 55.34100 25.11000
H  34.62700 56.38500 24.49400
H  33.48200 56.41300 21.13700
H  34.47300 56.90400 22.45400
H  33.07300 55.89300 22.80200
H  37.04200 50.52700 19.40900
H  36.58100 47.83800 20.08900
H  34.33000 50.62500 19.65000
H  34.50600 48.83400 19.63700
H  35.25000 49.76300 18.37800
H  38.60100 48.50600 18.70100
H  38.74700 47.38600 19.99200
H  39.62100 49.98100 21.08900
H  40.39700 49.61900 19.53400
H  40.46000 48.43300 20.77100
H  39.05300 45.08900 23.27100
H  37.73700 44.13500 23.91800
H  39.40400 44.35400 24.76800
H  38.12500 47.73600 29.04100
H  36.59100 45.61100 32.30500
H  35.17100 45.62200 31.23000
H  35.59500 46.94900 32.39800

