158

Mg 53.55300 24.24900 45.07600
C  51.30400 26.55400 43.82100
C  52.05500 21.84800 43.08100
C  56.17100 22.22800 45.43400
C  55.44600 26.94600 46.40800
N  52.00100 24.18200 43.51000
C  51.28500 25.34900 43.11500
C  50.26500 24.98200 42.01100
C  50.12300 23.46800 42.25500
C  51.49500 23.11400 42.97200
C  48.82700 23.18100 43.09500
C  50.90200 25.35700 40.67200
C  49.91500 25.74300 39.59200
H  50.54200 26.46000 38.35800
N  53.94600 22.21100 44.63800
C  53.19000 21.42500 43.84700
C  53.69500 20.07300 43.85400
C  54.83300 20.12700 44.77000
C  55.02500 21.51300 44.99500
C  53.23100 18.94600 43.00900
C  55.66500 18.93800 45.12700
O  55.40200 17.82200 44.68100
C  56.96600 18.99800 45.94900
N  55.56300 24.55200 45.87100
C  56.43200 23.52100 45.86600
C  57.79100 23.99900 46.30800
C  57.50200 25.48100 46.71300
C  56.02700 25.70700 46.37600
C  58.51700 23.22100 47.51100
C  58.52000 26.50600 46.09100
C  59.12100 27.53800 47.06500
N  53.31600 26.36700 45.31200
C  54.15600 27.31900 45.86000
C  53.36300 28.54400 45.99600
C  52.18400 28.30400 45.22800
C  52.28700 26.96300 44.80600
C  53.74700 29.81000 46.70900
C  50.91100 28.87500 44.77700
O  50.38500 29.98400 44.99500
C  50.31800 27.69300 43.85000
C  50.07900 28.33600 42.54800
O  50.93400 28.76800 41.80200
O  48.74100 28.37000 42.27200
C  48.29200 28.90600 40.98000
H  51.53800 21.16100 42.40700
H  57.10100 21.66400 45.53200
H  56.12000 27.78500 46.58800
H  49.29800 25.47400 42.11900
H  50.08300 22.87100 41.34400
H  49.17600 22.57500 43.93200
H  48.14100 22.62100 42.46000
H  48.35600 24.02000 43.60800
H  51.55800 24.61900 40.21000
H  51.42400 26.26500 40.97500
H  49.02200 26.28100 39.91200
H  49.50700 24.80900 39.20400
H  54.02000 18.51500 42.39200
H  52.43000 19.20600 42.31700
H  52.72000 18.24000 43.66300
H  57.13000 18.02400 46.40900
H  56.97100 19.89000 46.57600
H  57.77700 19.13700 45.23400
H  58.42700 23.91300 45.42700
H  57.54100 25.65500 47.78800
H  58.56500 23.92100 48.34600
H  59.48800 22.78900 47.27100
H  58.08000 22.34800 47.99600
H  57.94700 27.11900 45.39500
H  59.30700 25.91500 45.62200
H  59.06400 27.37300 48.14100
H  58.59800 28.47600 46.87800
H  60.10600 27.84800 46.71600
H  53.77200 30.56600 45.92400
H  54.74900 29.78700 47.13500
H  53.00500 30.03700 47.47500
H  49.36300 27.34400 44.24200
H  48.34700 29.98600 41.11800
H  47.26800 28.53600 40.93700
H  48.97700 28.51900 40.22600
Mg 27.28000 50.99900 26.87800
C  25.31400 51.95800 29.65300
C  29.80600 50.16700 29.19900
C  29.43200 50.73700 24.37800
C  24.80000 52.34300 24.77600
N  27.53100 51.01700 29.13100
C  26.55300 51.42800 30.02300
C  26.95800 51.11100 31.41500
C  28.47700 50.66200 31.29200
C  28.62200 50.61100 29.76200
C  29.48900 51.67000 31.93400
C  25.97500 50.03000 32.09800
C  25.07600 50.36500 33.21000
H  25.31400 49.66500 34.58300
N  29.29800 50.27600 26.75300
C  30.12300 50.03700 27.79200
C  31.39400 49.49100 27.23200
C  31.29300 49.66700 25.80400
C  29.94900 50.23700 25.59100
C  32.46900 48.97800 28.01700
C  32.24800 49.41300 24.79200
O  32.07900 49.62100 23.58200
C  33.52400 48.76200 25.07600
N  27.27900 51.86900 24.83800
C  28.18300 51.34700 23.98600
C  27.70700 51.41300 22.55600
C  26.16200 51.69800 22.80100
C  26.08000 52.00900 24.28600
C  28.53300 52.48300 21.65400
C  25.17300 50.60400 22.32500
C  24.05700 50.94600 21.33700
N  25.37100 51.93100 27.04600
C  24.46200 52.31100 26.12100
C  23.30600 52.85800 26.84900
C  23.56600 52.72400 28.19300
C  24.84800 52.13000 28.28900
C  22.12700 53.48600 26.17800
C  22.99500 52.83200 29.42500
O  21.88900 53.24100 29.77200
C  24.05800 52.24400 30.46500
C  24.23700 53.18900 31.53200
O  25.18200 54.00100 31.63900
O  23.28300 52.98100 32.53200
C  23.20800 53.99300 33.66300
H  30.61300 49.73700 29.79500
H  29.94500 50.54900 23.43300
H  23.94200 52.50200 24.12000
H  27.01300 52.06000 31.94800
H  28.56400 49.72200 31.83600
H  29.70200 52.47200 31.22600
H  30.35800 51.09900 32.26300
H  29.01400 52.19600 32.76200
H  26.64200 49.23700 32.43500
H  25.42500 49.57900 31.27200
H  24.03300 50.29700 32.90000
H  25.27600 51.38300 33.54300
H  32.41800 49.26900 29.06600
H  33.42900 49.43400 27.77700
H  32.51600 47.91300 27.79200
H  34.26700 48.56700 24.30200
H  33.44200 47.84000 25.65200
H  34.05300 49.50600 25.67100
H  27.85800 50.38900 22.21400
H  25.92800 52.53900 22.14900
H  28.71000 51.90900 20.74400
H  29.49500 52.83600 22.02400
H  27.94000 53.37500 21.45200
H  24.59500 50.24900 23.17700
H  25.69200 49.69100 22.03200
H  24.13500 51.98500 21.01700
H  23.10400 50.80800 21.84700
H  24.05600 50.43200 20.37600
H  22.58600 54.09000 25.39500
H  21.59700 54.05900 26.94000
H  21.40500 52.88600 25.62500
H  23.69700 51.29600 30.86200
H  23.49600 55.03600 33.52600
H  23.81700 53.58800 34.47200
H  22.18700 53.97000 34.04300

