158

Mg 46.24400 17.06200 28.61300
C  44.35300 16.51100 31.47300
C  48.21800 19.27800 30.51200
C  47.65700 18.19400 25.79500
C  43.92400 15.19700 26.80100
N  46.37500 17.66700 30.73500
C  45.63000 17.16200 31.74100
C  46.12200 17.53200 33.14000
C  47.24300 18.59400 32.76700
C  47.35000 18.44900 31.23000
C  46.88500 20.05500 33.28100
C  46.60600 16.24900 33.86000
C  46.92300 16.26300 35.36100
H  46.86100 17.55300 36.10200
N  47.59400 18.63400 28.21100
C  48.31900 19.40200 29.13200
C  49.16300 20.33800 28.38200
C  49.00200 20.01400 27.03900
C  47.96200 18.91100 26.99500
C  50.00400 21.45000 29.02100
C  49.68200 20.66300 25.77000
O  49.35600 20.41600 24.62900
C  50.68800 21.73000 25.98800
N  45.89600 16.78700 26.57600
C  46.70200 17.19000 25.59400
C  46.26600 16.70300 24.21200
C  45.07000 15.73300 24.57700
C  44.93300 15.92500 26.10800
C  45.79700 17.82200 23.28400
C  45.35500 14.31600 24.02800
C  44.55700 13.69700 22.82700
N  44.49900 15.97000 28.97400
C  43.60000 15.33700 28.18700
C  42.36300 14.97800 28.90200
C  42.68900 15.40500 30.20100
C  43.95400 16.00400 30.20700
C  41.13900 14.47300 28.26600
C  42.13300 15.56500 31.57400
O  41.04000 15.26500 32.04000
C  43.34100 15.99000 32.38900
C  42.83300 17.05500 33.31700
O  42.15100 18.03200 32.96300
O  43.19400 16.85800 34.61200
C  42.67300 17.90600 35.52200
H  48.79700 19.97300 31.12300
H  48.15700 18.49000 24.87100
H  43.22800 14.59000 26.21900
H  45.45300 18.09900 33.78800
H  48.11500 18.31000 33.35600
H  45.90100 20.26300 33.70300
H  46.90400 20.64500 32.36500
H  47.54100 20.40100 34.08000
H  47.45400 15.86400 33.29400
H  45.74800 15.59200 33.71400
H  47.95800 15.96400 35.52900
H  46.37300 15.50700 35.92100
H  49.58700 21.67000 30.00300
H  49.96600 22.37600 28.44800
H  51.01700 21.07200 29.16500
H  51.47700 21.60500 26.72900
H  49.99800 22.52300 26.27500
H  51.04100 22.12500 25.03500
H  47.18000 16.26600 23.81000
H  44.13400 16.05700 24.12200
H  44.74500 17.66500 23.04700
H  46.42500 17.72400 22.39900
H  45.85900 18.79200 23.77900
H  45.26300 13.61500 24.85800
H  46.42000 14.22500 23.81600
H  44.01100 12.83600 23.21300
H  45.31700 13.32400 22.14100
H  43.88900 14.42500 22.36700
H  41.27300 13.39800 28.14400
H  40.92100 14.86900 27.27400
H  40.39700 14.64200 29.04700
H  43.56700 15.14900 33.04600
H  41.60000 18.09100 35.58700
H  43.15500 18.80500 35.13900
H  42.88400 17.84400 36.59000
Mg -12.32600 37.43400 42.46000
C  -10.16800 35.00800 41.41800
C  -10.21300 39.92500 40.93600
C  -14.71500 39.83800 43.11400
C  -14.65700 34.87500 43.31400
N  -10.46800 37.45000 41.23200
C  -9.72100 36.28700 40.99200
C  -8.46400 36.57600 40.22200
C  -8.44300 38.16600 40.16100
C  -9.80900 38.58800 40.77800
C  -7.25400 38.87300 40.90000
C  -8.54200 35.86200 38.76200
C  -7.45900 34.88300 38.39700
H  -6.54500 35.30000 37.18100
N  -12.45200 39.58500 42.08300
C  -11.43800 40.40700 41.49600
C  -11.87700 41.82100 41.58800
C  -13.26400 41.84400 42.07800
C  -13.52700 40.40400 42.47700
C  -11.00600 43.01600 41.21100
C  -14.33800 42.97400 42.02000
O  -13.92700 44.04800 41.55600
C  -15.72700 42.91400 42.64900
N  -14.40600 37.33800 43.13400
C  -15.11800 38.50400 43.34600
C  -16.52000 38.19000 43.84700
C  -16.50900 36.62800 43.73200
C  -15.11400 36.20900 43.36500
C  -16.96700 38.80300 45.17700
C  -17.56500 36.17000 42.54900
C  -18.66800 35.29500 43.00800
N  -12.40500 35.41400 42.43700
C  -13.40900 34.46000 42.91700
C  -12.84200 33.06800 42.73100
C  -11.54700 33.30900 42.24700
C  -11.36000 34.69400 42.10100
C  -13.52400 31.71200 43.13400
C  -10.41000 32.58300 41.81100
O  -10.26600 31.35900 41.75600
C  -9.34100 33.70800 41.33000
C  -8.09000 33.63700 42.16900
O  -7.00400 33.82000 41.64500
O  -8.19300 33.54200 43.49600
C  -7.08100 33.98700 44.34300
H  -9.52700 40.72000 40.63600
H  -15.50200 40.50800 43.46600
H  -15.36400 34.04800 43.22700
H  -7.61700 36.17300 40.77800
H  -8.63600 38.47600 39.13400
H  -7.44100 38.99000 41.96800
H  -6.94700 39.85400 40.53900
H  -6.36500 38.25900 40.75200
H  -8.40400 36.65500 38.02600
H  -9.50100 35.40100 38.52400
H  -7.86900 33.89100 38.20800
H  -6.81100 34.84800 39.27300
H  -10.01800 42.74400 41.58200
H  -11.30100 43.85100 41.84600
H  -10.81500 43.16800 40.14800
H  -16.24900 43.87200 42.64800
H  -15.51200 42.47600 43.62400
H  -16.33500 42.22900 42.05900
H  -17.25100 38.64000 43.17600
H  -16.68100 36.12000 44.68100
H  -16.16600 39.06700 45.86800
H  -17.72900 38.17500 45.63800
H  -17.55500 39.69900 44.97700
H  -17.02600 35.58500 41.80300
H  -18.08000 36.99500 42.05900
H  -18.50400 34.96000 44.03300
H  -18.69100 34.32600 42.50800
H  -19.62800 35.77500 42.82100
H  -13.25100 30.89500 42.46600
H  -14.60700 31.75800 43.24900
H  -13.04700 31.45600 44.08000
H  -9.21900 33.47700 40.27200
H  -7.34100 34.49600 45.27100
H  -6.27200 34.42800 43.76000
H  -6.67400 33.01800 44.63200

