158

Mg 47.10800 24.24200 27.78400
C  47.97700 26.44500 30.34800
C  46.15300 22.06500 30.11600
C  46.56300 22.16200 25.34700
C  48.10000 26.65000 25.46800
N  47.09000 24.28800 29.96600
C  47.42000 25.27800 30.84600
C  47.26900 24.85100 32.35400
C  46.55300 23.45200 32.20900
C  46.58800 23.30600 30.67200
C  47.41100 22.44000 32.99700
C  46.46500 25.87400 33.26300
C  45.89300 25.31000 34.57500
H  46.50600 26.07900 35.78500
N  46.46300 22.35600 27.74700
C  46.09000 21.59500 28.77800
C  45.61400 20.31800 28.36500
C  45.63400 20.35700 26.94800
C  46.30900 21.68300 26.63100
C  45.10500 19.27000 29.26800
C  45.33400 19.20800 25.96800
O  45.50400 19.17300 24.72300
C  44.84400 17.92900 26.61200
N  47.49500 24.32700 25.62300
C  46.99500 23.33100 24.89100
C  46.98800 23.78400 23.38000
C  47.36200 25.27200 23.39200
C  47.70200 25.46900 24.90400
C  47.89000 22.93900 22.44400
C  46.25400 26.24000 22.81500
C  46.73700 27.27400 21.80200
N  47.98100 26.04600 27.85600
C  48.29800 26.98400 26.83000
C  48.94500 28.14900 27.38600
C  48.89700 27.93500 28.77900
C  48.25000 26.70100 29.04200
C  49.56100 29.26600 26.68500
C  49.23900 28.60000 30.03000
O  49.73000 29.67600 30.34200
C  48.55800 27.68900 31.15800
C  49.54800 27.23100 32.12300
O  50.29800 26.27500 31.98600
O  49.49600 27.99800 33.30900
C  50.22000 27.53600 34.50100
H  45.71800 21.36200 30.83100
H  46.38900 21.33900 24.65100
H  48.30100 27.42900 24.72900
H  48.23800 24.69100 32.82700
H  45.55300 23.56900 32.62500
H  47.89000 22.82700 33.89700
H  48.15100 21.87500 32.43100
H  46.78400 21.67800 33.46000
H  45.70400 26.37900 32.66700
H  47.06200 26.74400 33.53700
H  46.04800 24.25000 34.77400
H  44.81200 25.44800 34.53900
H  44.06500 19.01200 29.06700
H  45.18300 19.59800 30.30400
H  45.69500 18.36000 29.15300
H  45.65400 17.53200 27.22300
H  44.54300 17.34300 25.74300
H  43.94600 18.06800 27.21400
H  45.99700 23.61800 22.95800
H  48.27500 25.51400 22.84800
H  48.59900 22.42600 23.09400
H  48.36600 23.62600 21.74400
H  47.32100 22.25600 21.81300
H  45.74600 26.79700 23.60200
H  45.43600 25.72000 22.31700
H  47.49200 26.72400 21.24000
H  47.21700 28.16100 22.21500
H  45.86900 27.62100 21.24100
H  49.90300 28.96800 25.69300
H  50.37300 29.59800 27.33200
H  48.84800 30.08500 26.58800
H  47.91300 28.36200 31.72100
H  51.25800 27.45100 34.18000
H  49.86500 26.57800 34.88100
H  50.10000 28.29400 35.27600
Mg 16.30300 52.53800 26.78300
C  18.27300 51.14300 29.35300
C  13.73600 52.94800 28.98000
C  14.76800 53.96900 24.30100
C  18.96200 51.46800 24.58100
N  15.97400 52.02700 28.97800
C  16.94300 51.60700 29.87400
C  16.43300 51.87900 31.25600
C  14.92800 52.19900 31.10700
C  14.78900 52.29000 29.57100
C  13.98000 51.21600 31.80400
C  17.28600 53.00800 31.97800
C  17.46100 52.86000 33.51100
H  16.50000 53.60600 34.46900
N  14.45400 53.34400 26.59200
C  13.51200 53.36600 27.63700
C  12.36200 54.11500 27.22100
C  12.56200 54.39900 25.82500
C  13.99400 53.97000 25.49900
C  11.14000 54.37200 28.11000
C  11.65300 55.14900 24.82500
O  12.10100 55.55000 23.72900
C  10.29200 55.35800 25.25400
N  16.76200 52.54800 24.66800
C  16.00700 53.39500 23.92600
C  16.74200 53.64700 22.62100
C  18.05000 52.77400 22.67500
C  17.92700 52.17000 24.01600
C  15.97800 53.40000 21.25300
C  19.47400 53.45100 22.45000
C  20.43400 52.62900 21.69700
N  18.15300 51.54100 26.85000
C  19.05800 51.10100 25.87500
C  20.12500 50.28800 26.43900
C  19.90300 50.38500 27.80900
C  18.68600 51.08200 27.97000
C  21.22100 49.52000 25.77100
C  20.38100 50.04400 29.13300
O  21.31800 49.28300 29.37800
C  19.44000 50.66500 30.13800
C  19.17700 49.56900 31.18600
O  18.68300 48.49200 30.96400
O  19.50000 49.96300 32.44500
C  19.05100 49.20400 33.60500
H  13.07000 53.17700 29.81400
H  14.21800 54.55800 23.56400
H  19.66600 50.99800 23.89000
H  16.62900 50.99700 31.86500
H  14.75900 53.20900 31.48000
H  13.48900 50.54900 31.09600
H  13.19300 51.81500 32.26000
H  14.51600 50.75300 32.63400
H  16.75000 53.94700 31.84100
H  18.22200 53.11200 31.43000
H  18.44800 53.21000 33.81400
H  17.42200 51.80600 33.78400
H  10.32000 53.88200 27.58400
H  10.98300 55.41800 28.37500
H  11.34500 54.00400 29.11500
H  10.15600 55.90200 26.18900
H  9.80600 54.38600 25.33600
H  9.84500 55.79900 24.36300
H  16.98400 54.70600 22.53700
H  17.96600 51.93600 21.98300
H  16.35200 52.57900 20.64100
H  16.02300 54.28000 20.61100
H  14.92600 53.18500 21.44000
H  19.86800 53.79900 23.40500
H  19.43000 54.41300 21.94000
H  19.95900 51.84700 21.10500
H  21.16500 52.26400 22.41800
H  21.05800 53.08900 20.93200
H  21.64000 49.97800 24.87600
H  20.70300 48.60600 25.47900
H  21.97100 49.39100 26.55100
H  19.92400 51.53100 30.59100
H  17.99800 49.45300 33.73400
H  19.49400 49.54500 34.54100
H  18.97400 48.11800 33.54500

