158

Mg 46.52100 17.12300 28.86600
C  44.88600 16.87100 31.89400
C  48.99800 19.03900 30.50700
C  47.96600 17.64400 25.77600
C  44.06100 15.46200 27.35300
N  47.02900 17.73600 31.08700
C  46.12000 17.46800 32.09100
C  46.59200 18.09100 33.40200
C  47.82900 18.99400 32.97300
C  47.95700 18.59400 31.41400
C  47.69900 20.57500 33.07400
C  46.90500 17.07100 34.53600
C  46.33400 17.40900 35.95000
H  46.49000 18.85300 36.41700
N  48.22900 18.12200 28.22500
C  49.14400 18.77600 29.06700
C  50.14800 19.37600 28.17200
C  49.94500 18.94300 26.83900
C  48.69700 18.13400 26.91800
C  51.23600 20.21900 28.73700
C  50.79100 19.24600 25.61100
O  50.53400 18.83000 24.51400
C  52.05000 20.07200 25.76100
N  46.10300 16.50400 26.95900
C  46.77800 16.91900 25.82500
C  45.98200 16.62000 24.53400
C  44.99300 15.53400 25.04000
C  45.09400 15.77400 26.58100
C  45.28900 17.96700 24.13500
C  45.31000 14.10100 24.49800
C  44.94100 13.86800 23.00600
N  44.83100 16.24200 29.50600
C  43.83700 15.72600 28.70500
C  42.69800 15.42100 29.48200
C  43.09800 15.79500 30.73500
C  44.36300 16.33000 30.68100
C  41.35200 14.83200 29.01400
C  42.60200 15.91600 32.12900
O  41.52100 15.60500 32.60900
C  43.75000 16.62600 32.95500
C  43.19500 17.82900 33.63200
O  43.38200 19.00600 33.33900
O  42.45200 17.44200 34.72400
C  41.83200 18.59700 35.49100
H  49.74800 19.63000 31.03500
H  48.36100 17.80200 24.77100
H  43.25400 14.88900 26.89200
H  45.80300 18.79200 33.67400
H  48.74300 18.78300 33.52900
H  46.81500 20.84600 33.65000
H  47.59000 20.96500 32.06100
H  48.59900 20.96800 33.54800
H  47.96500 16.89600 34.72100
H  46.38900 16.16500 34.21600
H  46.90700 16.79700 36.64600
H  45.28100 17.14600 36.04300
H  50.84400 20.57200 29.69100
H  51.52800 21.07600 28.13100
H  52.16600 19.69900 28.96900
H  52.74600 19.78000 24.97400
H  52.39100 19.79200 26.75700
H  51.90100 21.14500 25.64600
H  46.69500 16.35200 23.75500
H  43.95900 15.74600 24.77000
H  45.94800 18.66500 23.61800
H  44.83000 18.41300 25.01700
H  44.42500 17.78500 23.49700
H  44.83600 13.36500 25.14700
H  46.37400 14.05400 24.73100
H  44.02600 14.42000 22.79100
H  44.73100 12.80200 22.92000
H  45.77800 14.11400 22.35200
H  41.35000 13.74200 29.03200
H  41.23800 15.22300 28.00300
H  40.55600 15.24400 29.63400
H  43.99600 15.88500 33.71600
H  41.92800 18.41200 36.56100
H  40.77500 18.83600 35.37800
H  42.21300 19.59800 35.28600
Mg 37.01600 49.96800 25.13100
C  37.42400 47.91700 27.94600
C  35.58100 52.33400 27.32900
C  35.76900 51.56100 22.47600
C  37.81600 47.23000 23.26200
N  36.60100 50.11800 27.44300
C  36.96600 49.19600 28.33000
C  36.83600 49.69300 29.75700
C  35.94900 51.01300 29.65500
C  36.08900 51.19400 28.08000
C  34.57600 50.83900 30.19900
C  38.11800 49.95500 30.60400
C  38.06500 49.88100 32.08800
H  36.63500 49.96600 32.86000
N  35.99500 51.73000 24.84300
C  35.52900 52.55000 25.91700
C  35.05200 53.80900 25.33500
C  35.02600 53.64100 23.90400
C  35.58100 52.27100 23.63000
C  34.48500 55.03000 26.20700
C  34.53300 54.57100 22.81600
O  34.50800 54.23000 21.63300
C  33.97200 55.90500 23.13600
N  36.80500 49.43900 23.18200
C  36.29600 50.31400 22.20400
C  36.43900 49.68100 20.79600
C  37.35900 48.45700 21.08000
C  37.34500 48.36800 22.60000
C  35.21900 49.17400 20.11100
C  38.81400 48.48200 20.49400
C  39.94300 49.04200 21.42700
N  37.62800 47.96300 25.42400
C  37.83700 46.95000 24.61100
C  38.13700 45.70800 25.33000
C  37.93100 46.01400 26.67100
C  37.68600 47.38200 26.64200
C  38.43000 44.34200 24.75900
C  37.99900 45.45500 27.98600
O  38.25500 44.31500 28.39300
C  37.72100 46.67700 28.87400
C  36.50600 46.29600 29.67400
O  35.36600 46.12500 29.22300
O  36.90900 46.03500 30.95100
C  35.84500 45.47400 31.76700
H  34.97400 53.01300 27.93100
H  35.27300 52.04700 21.63300
H  37.95900 46.42500 22.53700
H  36.35300 48.89000 30.31400
H  36.37300 51.87900 30.16400
H  34.44900 51.18200 31.22600
H  34.34000 49.77700 30.27400
H  33.87400 51.22000 29.45800
H  38.54400 50.87500 30.20500
H  38.77600 49.19000 30.19300
H  38.68800 50.69900 32.44900
H  38.56500 48.97600 32.43400
H  34.33400 55.94500 25.63400
H  35.11700 55.30100 27.05200
H  33.46600 54.93600 26.58200
H  34.77200 56.52100 23.54700
H  33.15800 55.91200 23.86100
H  33.57700 56.31100 22.20500
H  37.04900 50.36000 20.20100
H  37.03600 47.54000 20.58700
H  34.39000 49.34500 20.79800
H  35.13300 48.10700 19.90600
H  35.08000 49.74600 19.19300
H  38.71900 49.27100 19.74800
H  38.96600 47.51800 20.00900
H  40.43000 49.89700 20.95800
H  40.65900 48.26200 21.68400
H  39.64200 49.50200 22.36800
H  39.10200 43.92500 25.51000
H  38.82000 44.41500 23.74300
H  37.68000 43.55100 24.75300
H  38.55700 46.96000 29.51400
H  35.20500 46.25500 32.17600
H  36.33700 45.09600 32.66300
H  35.34900 44.64700 31.25700

