158

Mg 41.19400 7.74500 29.70000
C  42.51900 9.30300 32.65400
C  38.85100 6.16800 31.75400
C  40.18100 6.09400 27.06800
C  43.72300 9.23700 27.99800
N  40.66400 7.80800 31.99900
C  41.38600 8.49700 32.93700
C  40.68900 8.28000 34.34000
C  39.57600 7.15300 34.04900
C  39.69700 6.98000 32.53700
C  39.55300 5.85400 34.93600
C  40.03400 9.55500 35.06100
C  40.04100 9.40600 36.54000
H  40.15600 10.72700 37.32100
N  39.56100 6.45200 29.40600
C  38.80300 5.91200 30.39500
C  37.84400 5.06800 29.72200
C  38.12000 5.02600 28.26900
C  39.38000 5.81200 28.17700
C  36.62100 4.44500 30.49500
C  37.35800 4.39600 27.17800
O  37.71000 4.44800 26.00400
C  36.09800 3.64500 27.52100
N  41.84300 7.71900 27.80500
C  41.31200 6.88600 26.85400
C  41.96700 6.92800 25.42400
C  42.97500 8.09300 25.66300
C  42.87100 8.41600 27.19100
C  42.66200 5.58400 25.04100
C  42.72800 9.28900 24.73600
C  41.38900 10.09100 25.19300
N  42.76900 8.91700 30.17300
C  43.68200 9.46300 29.32200
C  44.66800 10.20300 30.10100
C  44.25000 10.09400 31.46500
C  43.09900 9.31900 31.41400
C  45.82000 10.87900 29.58000
C  44.52000 10.59600 32.77200
O  45.47900 11.31000 33.08100
C  43.34200 10.08200 33.58700
C  43.84000 9.33400 34.77200
O  44.35300 8.23500 34.78200
O  43.66900 10.06400 35.84700
C  44.02400 9.41200 37.15800
H  38.06400 5.68500 32.33700
H  39.78100 5.57100 26.19700
H  44.50000 9.64400 27.34800
H  41.33600 7.69100 34.98900
H  38.60400 7.62600 34.18600
H  39.88500 5.02600 34.31000
H  38.54300 5.67200 35.30400
H  40.21000 5.87800 35.80600
H  38.99800 9.73500 34.77600
H  40.66900 10.37400 34.72400
H  40.70900 8.60200 36.84800
H  39.03500 9.04100 36.74600
H  35.75800 4.97600 30.09300
H  36.60400 4.52900 31.58200
H  36.60400 3.36900 30.32200
H  36.37800 2.83500 28.19500
H  35.76700 3.19900 26.58300
H  35.29700 4.26100 27.92900
H  41.15700 7.05500 24.70500
H  44.02800 7.83500 25.55000
H  42.27900 4.74700 25.62500
H  43.74700 5.48700 25.08200
H  42.30200 5.41200 24.02700
H  42.71000 8.83600 23.74400
H  43.69200 9.79800 24.75600
H  40.86900 9.68500 26.06100
H  40.71000 9.94400 24.35300
H  41.70600 11.12700 25.30700
H  45.95800 11.91000 29.90500
H  45.85600 10.72900 28.50100
H  46.59200 10.26700 30.04800
H  42.80200 10.95600 33.95000
H  45.06500 9.10300 37.06700
H  43.43000 8.55600 37.47800
H  43.91500 10.09400 38.00100
Mg 0.03400 43.86900 25.90600
C  2.00100 43.21100 28.74900
C  -2.65100 42.27700 27.53900
C  -1.64600 43.81000 23.07300
C  2.97500 44.66200 24.18500
N  -0.23300 42.79100 27.83600
C  0.64900 42.87500 28.89500
C  0.00200 42.61600 30.26700
C  -1.40400 42.06800 29.85800
C  -1.44200 42.36000 28.30200
C  -1.80200 40.67100 30.25700
C  0.02700 43.87200 31.25700
C  0.34300 43.61000 32.74600
H  0.07400 42.22100 33.50300
N  -1.88800 43.21200 25.35300
C  -2.83400 42.57100 26.17600
C  -4.08900 42.35500 25.38900
C  -3.78100 42.83000 24.07100
C  -2.35200 43.32300 24.10800
C  -5.34000 41.68300 25.97300
C  -4.61600 42.94500 22.84200
O  -4.31000 43.44700 21.79100
C  -5.99100 42.37100 22.94700
N  0.62000 44.24700 23.89900
C  -0.33000 44.32900 22.94800
C  0.17500 44.87500 21.66900
C  1.66100 44.99400 21.93900
C  1.76500 44.61600 23.42500
C  -0.02800 43.92100 20.48000
C  2.20200 46.34200 21.46800
C  2.16200 47.43700 22.59000
N  2.02700 44.12000 26.32800
C  3.16700 44.41700 25.52500
C  4.38600 44.56600 26.32700
C  3.92200 44.08400 27.58500
C  2.58300 43.78400 27.59000
C  5.72000 45.08600 25.96000
C  4.31300 43.75100 28.94300
O  5.41200 43.78300 29.33600
C  3.11500 43.22900 29.74500
C  3.46700 41.88600 30.27700
O  3.49100 40.85600 29.56100
O  3.65200 41.92400 31.66100
C  4.09900 40.63700 32.32900
H  -3.55700 41.89500 28.01500
H  -2.16800 43.83500 22.11500
H  3.76900 45.13300 23.60100
H  0.58700 41.75900 30.60200
H  -2.08700 42.80500 30.28200
H  -2.48200 40.09900 29.62500
H  -2.21400 40.78900 31.25900
H  -0.87900 40.10300 30.37400
H  -0.89700 44.43900 31.14000
H  0.75300 44.53400 30.78400
H  -0.39000 44.26200 33.22200
H  1.37000 43.87800 32.99200
H  -6.15500 42.37500 25.76000
H  -5.30300 41.44900 27.03700
H  -5.40200 40.74700 25.41800
H  -5.83900 41.30800 23.13500
H  -6.49400 42.52100 21.99200
H  -6.58000 42.87300 23.71500
H  -0.43000 45.74700 21.42100
H  2.17500 44.16300 21.45700
H  -0.32400 44.46600 19.58400
H  -0.87700 43.23800 20.48100
H  0.87100 43.45100 20.08100
H  1.70300 46.72000 20.57600
H  3.18200 46.18400 21.01800
H  3.13900 47.88900 22.76100
H  1.71200 47.09400 23.52200
H  1.40200 48.17400 22.33000
H  6.30000 45.30600 26.85600
H  5.64800 46.06800 25.49300
H  6.36100 44.44200 25.35700
H  2.90900 43.87900 30.59500
H  4.06700 39.85600 31.56900
H  3.41800 40.40000 33.14600
H  5.12800 40.87300 32.60100

