158

Mg 25.02700 0.51400 29.43100
C  27.35300 0.37000 32.09300
C  22.58400 0.83200 31.72100
C  22.87000 0.41500 26.92000
C  27.69200 -0.31500 27.22400
N  25.02100 0.63000 31.64800
C  26.05000 0.57000 32.53800
C  25.55200 0.74400 33.94200
C  24.03500 0.69000 33.79800
C  23.83500 0.73800 32.30500
C  23.42800 -0.67100 34.37300
C  26.09400 2.04700 34.67000
C  26.75600 1.72400 36.01800
H  26.30500 2.55000 37.33300
N  22.96800 0.72000 29.37300
C  22.16200 0.80600 30.42500
C  20.82200 1.09100 30.01300
C  20.79900 0.99400 28.61400
C  22.22900 0.66300 28.19000
C  19.63200 1.46300 30.98000
C  19.73900 1.23900 27.71400
O  19.92000 1.28800 26.52700
C  18.30600 1.41600 28.07100
N  25.19300 -0.10900 27.37700
C  24.16800 0.11800 26.56500
C  24.62900 -0.01100 25.11400
C  26.14400 -0.16500 25.20200
C  26.40600 -0.18200 26.68700
C  23.84200 -1.12200 24.37100
C  26.93400 0.93100 24.43300
C  26.47300 1.24600 22.99800
N  27.09300 0.10300 29.53700
C  28.04400 -0.17900 28.58300
C  29.29200 -0.29600 29.16100
C  29.12500 -0.01700 30.51600
C  27.70400 0.13100 30.75000
C  30.64300 -0.62100 28.59700
C  29.76700 0.06400 31.83700
O  30.94400 -0.08900 32.16900
C  28.68200 0.52200 32.86000
C  28.68700 -0.45600 33.96500
O  27.95800 -1.41400 34.04900
O  29.62100 -0.09000 34.91500
C  29.72200 -1.09100 36.03900
H  21.78800 0.99700 32.45000
H  22.16200 0.38500 26.08800
H  28.51900 -0.60100 26.57100
H  25.76600 -0.19000 34.46100
H  23.54600 1.53500 34.28200
H  23.17100 -1.30300 33.52300
H  22.47400 -0.34100 34.78300
H  24.08200 -1.24700 35.02900
H  25.21000 2.67900 34.75400
H  26.88300 2.46200 34.04300
H  27.78700 2.05900 35.90300
H  26.73200 0.65300 36.21800
H  19.05600 0.54600 30.85100
H  19.04700 2.31200 30.62700
H  19.86800 1.58300 32.03700
H  18.06400 0.76500 28.91100
H  17.69100 1.29900 27.17900
H  18.26700 2.46200 28.37700
H  24.29200 0.91200 24.64200
H  26.40900 -1.17200 24.87900
H  23.25400 -1.66500 25.10900
H  24.56400 -1.84900 23.99900
H  23.19600 -0.77200 23.56600
H  27.85500 0.42600 24.14200
H  27.17000 1.81900 25.01800
H  25.74000 0.51700 22.65100
H  27.30300 1.07500 22.31400
H  26.01700 2.21900 22.81400
H  30.75400 -0.62100 27.51300
H  30.98600 -1.58500 28.97400
H  31.38300 0.13100 28.86900
H  28.84800 1.52900 33.24400
H  30.02500 -2.07800 35.69000
H  28.75400 -1.13900 36.53800
H  30.50100 -0.71600 36.70200
Mg 26.69500 50.86400 25.92200
C  24.65000 51.94200 28.66200
C  28.92100 49.60200 28.19600
C  28.74700 50.14300 23.43300
C  24.65100 52.67200 23.77600
N  26.67800 50.75200 28.20300
C  25.80500 51.24600 29.11500
C  26.22700 50.91500 30.51300
C  27.66100 50.27800 30.28300
C  27.83200 50.27800 28.78400
C  28.76600 51.10400 31.03100
C  25.23100 50.05300 31.25100
C  24.53900 50.83700 32.48400
H  24.55100 50.12200 33.85200
N  28.54800 49.93700 25.82200
C  29.22300 49.40300 26.85500
C  30.36100 48.64000 26.37200
C  30.39700 48.89300 24.99800
C  29.21900 49.69000 24.65400
C  31.22900 47.77700 27.24700
C  31.32500 48.31200 24.01300
O  31.21100 48.56400 22.85900
C  32.41400 47.35100 24.42400
N  26.70800 51.33400 23.88800
C  27.63200 50.91000 23.05200
C  27.25000 51.20400 21.62100
C  25.78500 51.84700 21.74500
C  25.71500 51.94300 23.20600
C  28.24600 52.14200 20.81400
C  24.58800 51.07800 21.12600
C  23.99300 51.60600 19.84500
N  24.88900 51.95000 26.08400
C  24.25400 52.69900 25.16300
C  23.14100 53.46100 25.79000
C  23.23500 53.13200 27.19200
C  24.24600 52.10500 27.25600
C  22.16700 54.41200 25.05300
C  22.65500 53.43900 28.48800
O  21.70900 54.10800 28.79600
C  23.56900 52.65600 29.48900
C  24.06600 53.70800 30.47300
O  25.07800 54.29800 30.29800
O  23.30300 53.79300 31.60400
C  23.85400 54.62900 32.75000
H  29.54700 49.09600 28.93300
H  29.44500 49.95700 22.61500
H  24.00400 53.23300 23.09900
H  26.32700 51.84700 31.07000
H  27.72200 49.31300 30.78500
H  28.36600 52.07400 31.32600
H  29.61300 51.34500 30.38900
H  29.18300 50.53000 31.85900
H  25.59000 49.05700 31.51000
H  24.42400 49.87500 30.54100
H  23.50000 50.98400 32.19000
H  24.97600 51.81800 32.66900
H  31.32800 46.76500 26.85500
H  30.92000 47.57400 28.27300
H  32.24000 48.18600 27.23400
H  32.92000 47.76900 25.29500
H  33.11300 47.06700 23.63800
H  32.07800 46.36800 24.75200
H  27.13300 50.26200 21.08500
H  25.87300 52.84400 21.31300
H  29.17200 52.16200 21.38800
H  27.89100 53.17100 20.76900
H  28.40300 51.67400 19.84200
H  23.78700 51.03000 21.86400
H  24.77700 50.01500 20.98300
H  22.96700 51.90100 20.06300
H  24.08500 50.94500 18.98300
H  24.46600 52.47900 19.39500
H  22.67500 54.76900 24.15700
H  21.82600 55.14000 25.78900
H  21.31300 53.86800 24.65000
H  23.01000 52.00100 30.15800
H  22.97100 54.68300 33.38700
H  24.07600 55.64500 32.42500
H  24.62500 54.06500 33.27600

