158

Mg 0.02500 7.71800 24.64100
C  1.09500 9.55700 27.43500
C  0.00300 4.95400 26.58300
C  -0.77800 5.95100 21.89900
C  0.62500 10.62800 22.62600
N  0.51400 7.31200 26.87200
C  0.86200 8.22100 27.76400
C  0.99600 7.55000 29.12200
C  0.68100 6.01500 28.81900
C  0.40500 6.05100 27.33500
C  1.68700 4.94300 29.31700
C  0.05400 8.02500 30.27400
C  0.65400 8.35000 31.63800
H  1.90600 7.50600 32.06700
N  -0.32700 5.69800 24.29000
C  -0.27400 4.73000 25.21900
C  -0.58200 3.44000 24.58100
C  -0.78300 3.70400 23.19500
C  -0.67800 5.16300 23.08100
C  -0.46700 2.08000 25.30800
C  -1.03100 2.69700 22.09200
O  -1.21500 2.96800 20.88000
C  -0.90100 1.28800 22.34100
N  -0.02100 8.26800 22.62000
C  -0.40600 7.33900 21.70300
C  -0.57400 8.04300 20.30900
C  0.03900 9.42500 20.56900
C  0.24000 9.43900 22.02900
C  -0.00100 7.22300 19.09900
C  -0.94400 10.60800 20.02000
C  -2.10400 11.11200 20.91700
N  0.69100 9.70200 24.91000
C  0.87400 10.80500 24.06900
C  1.24100 11.96700 24.76800
C  1.31500 11.55800 26.13300
C  1.02500 10.16500 26.11800
C  1.49200 13.30000 24.22100
C  1.62700 12.00400 27.47000
O  1.90100 13.16800 27.79200
C  1.48500 10.69000 28.39700
C  2.71600 10.50500 29.18000
O  3.58000 9.72700 28.83300
O  2.71600 11.20900 30.32100
C  4.03500 11.04700 31.02900
H  -0.19600 4.11500 27.25300
H  -0.97900 5.41800 20.96700
H  0.72400 11.55300 22.05400
H  2.05900 7.54800 29.35900
H  -0.29400 5.76300 29.23600
H  2.20900 4.47400 28.48300
H  1.26800 4.05900 29.79900
H  2.50100 5.33200 29.92800
H  -0.83600 7.40100 30.35100
H  -0.27500 8.99600 29.90500
H  -0.02800 8.06200 32.43700
H  0.88100 9.39700 31.84000
H  -0.15300 2.11000 26.35200
H  0.21100 1.43400 24.75200
H  -1.42700 1.56200 25.29700
H  -1.01400 0.70300 21.42800
H  -1.63500 0.89700 23.04600
H  0.09400 0.94600 22.62600
H  -1.65800 8.07100 20.19600
H  1.03500 9.55900 20.14600
H  0.25400 6.22400 19.45200
H  0.81400 7.81000 18.67600
H  -0.64800 7.08600 18.23300
H  -1.40900 10.18400 19.13100
H  -0.30600 11.43500 19.70800
H  -1.77700 12.08700 21.27700
H  -2.35700 10.50800 21.78700
H  -2.99600 11.25900 20.30900
H  1.35000 13.22400 23.14300
H  2.43400 13.75400 24.52900
H  0.72200 13.93300 24.66100
H  0.68800 10.92600 29.10200
H  4.86600 11.57700 30.56400
H  4.35300 10.00700 31.10800
H  3.95700 11.36800 32.06700
Mg -11.21800 16.99500 41.97500
C  -7.76500 16.74900 42.32600
C  -10.80200 20.46200 41.46800
C  -14.52700 17.25400 41.45200
C  -11.38600 13.49000 42.06100
N  -9.45000 18.38900 41.84700
C  -8.11400 18.05100 42.05000
C  -7.22700 19.28500 42.02300
C  -8.28500 20.49000 42.21800
C  -9.61100 19.72700 41.82700
C  -8.28100 21.04300 43.71900
C  -6.45300 19.38000 40.62900
C  -4.92300 19.43300 40.74600
H  -4.21400 18.59400 39.69700
N  -12.48900 18.64200 41.57200
C  -12.09500 19.91900 41.27300
C  -13.23700 20.69400 40.88000
C  -14.36500 19.86800 41.10600
C  -13.86100 18.52100 41.43800
C  -13.13000 22.13000 40.37200
C  -15.80700 20.32500 41.10100
O  -16.16800 21.49600 40.87000
C  -16.90400 19.34800 41.56200
N  -12.70100 15.49600 41.50800
C  -14.03200 15.95700 41.62300
C  -14.87700 14.72100 41.71100
C  -13.90100 13.49500 41.92600
C  -12.57900 14.20500 41.79100
C  -16.04900 14.73200 42.72000
C  -14.11600 12.21600 41.06000
C  -14.63800 10.89900 41.68500
N  -9.88400 15.40800 42.17200
C  -10.11000 14.09500 42.14400
C  -8.85800 13.40200 42.45100
C  -7.89700 14.42300 42.56200
C  -8.60300 15.61500 42.36100
C  -8.64500 11.88600 42.57700
C  -6.47100 14.67800 42.75800
O  -5.51100 13.95400 42.96900
C  -6.40700 16.27000 42.70100
C  -5.88400 16.73200 44.01100
O  -6.57700 16.97100 44.95900
O  -4.46100 16.70500 44.05400
C  -3.84700 16.99600 45.33700
H  -10.65800 21.53000 41.29500
H  -15.60500 17.39100 41.34200
H  -11.59900 12.42800 42.19800
H  -6.50700 19.34000 42.84000
H  -8.05000 21.21700 41.44000
H  -7.49400 20.64300 44.35700
H  -9.26500 20.90900 44.16800
H  -8.17000 22.11400 43.54600
H  -6.62400 20.33600 40.13600
H  -6.81300 18.62900 39.92600
H  -4.66800 19.15000 41.76700
H  -4.48800 20.41800 40.58100
H  -13.42500 22.71600 41.24300
H  -13.75100 22.36600 39.50800
H  -12.10400 22.40000 40.12300
H  -17.68500 19.98100 41.98200
H  -16.47900 18.94500 42.48100
H  -17.12500 18.54600 40.85700
H  -15.35700 14.71300 40.73200
H  -14.11700 13.15400 42.93900
H  -16.17900 13.72400 43.11500
H  -16.94900 15.07900 42.21300
H  -15.83400 15.54700 43.41000
H  -13.23800 11.91800 40.48700
H  -14.82500 12.35200 40.24400
H  -14.67800 10.01300 41.05100
H  -15.55000 11.03400 42.26600
H  -13.89300 10.67300 42.44700
H  -9.64100 11.49800 42.78700
H  -7.92000 11.58400 43.33400
H  -8.23200 11.42400 41.68100
H  -5.67100 16.56100 41.95200
H  -4.50400 16.83800 46.19200
H  -3.30100 17.93100 45.21400
H  -3.06700 16.23600 45.37400

