158

Mg 1.14600 8.57900 26.81900
C  1.73000 10.46100 29.71500
C  1.06800 5.66800 28.81800
C  1.16800 6.71600 24.05300
C  1.54300 11.38600 24.81900
N  1.70900 8.14100 29.00500
C  1.64100 9.10100 29.99800
C  1.47400 8.39700 31.37800
C  1.56400 6.81200 31.08300
C  1.52000 6.80900 29.49800
C  2.83200 5.94400 31.65500
C  0.18800 8.85000 32.11900
C  0.44000 9.05000 33.65900
H  1.57900 8.33000 34.41800
N  1.12700 6.50800 26.47800
C  0.97700 5.48500 27.39800
C  0.54800 4.25100 26.70100
C  0.62700 4.58000 25.29200
C  0.97700 5.98100 25.25700
C  0.18200 2.99100 27.45800
C  0.29900 3.67100 24.07600
O  0.23600 4.00700 22.88600
C  -0.04800 2.24600 24.26500
N  1.13100 8.99500 24.73100
C  1.23600 8.05000 23.79200
C  1.38800 8.69600 22.36600
C  1.08000 10.12600 22.72600
C  1.13100 10.22900 24.17200
C  2.83000 8.52100 21.85800
C  -0.14100 10.76000 22.12600
C  -1.42600 10.85300 22.90400
N  1.55600 10.55200 27.13700
C  1.71400 11.56500 26.23800
C  2.00100 12.81200 26.96700
C  2.03100 12.46000 28.28800
C  1.71500 11.05200 28.34700
C  2.26800 14.14300 26.32800
C  2.20900 12.91400 29.66300
O  2.36200 14.07300 30.02800
C  1.93400 11.62000 30.61000
C  3.10400 11.40800 31.56300
O  4.13300 10.82500 31.36900
O  2.89700 12.07200 32.72100
C  3.91300 11.90500 33.77100
H  0.87400 4.75600 29.38700
H  1.17400 6.21500 23.08300
H  1.66700 12.31500 24.26000
H  2.30100 8.66500 32.03500
H  0.65800 6.35400 31.48000
H  2.46700 5.47800 32.57000
H  3.74800 6.51500 31.80400
H  3.05100 5.17000 30.92000
H  -0.62100 8.12300 32.04200
H  -0.10400 9.83400 31.75200
H  -0.50000 8.77600 34.14000
H  0.58900 10.12200 33.78300
H  -0.83100 2.84000 27.08400
H  0.08300 3.12600 28.53500
H  0.93100 2.21100 27.32300
H  0.77300 1.75100 24.78300
H  -0.21800 1.85200 23.26200
H  -1.00400 2.15400 24.78100
H  0.66100 8.25300 21.68500
H  1.89100 10.79200 22.43200
H  3.55900 8.29600 22.63600
H  3.16300 9.39600 21.29900
H  2.95000 7.63000 21.24200
H  -0.28900 10.40300 21.10700
H  0.14400 11.79300 21.93000
H  -1.80400 11.87200 22.98600
H  -1.36100 10.41900 23.90100
H  -2.27800 10.36500 22.43000
H  1.49000 14.22100 25.56900
H  3.19800 14.10500 25.76000
H  2.25100 14.95700 27.05300
H  1.01100 11.77600 31.16800
H  4.10800 12.82100 34.33000
H  4.86300 11.46900 33.46200
H  3.55000 11.24700 34.56100
Mg 10.07500 47.83200 26.40600
C  7.95500 48.05600 29.21400
C  12.57700 49.27100 28.25300
C  11.89100 47.50200 23.76900
C  7.09800 47.00000 24.53000
N  10.29900 48.47600 28.47100
C  9.30400 48.41000 29.50000
C  9.86100 48.91600 30.86700
C  11.12600 49.66400 30.38500
C  11.38100 49.12100 28.93700
C  11.13600 51.18800 30.58600
C  10.09200 47.83400 31.87900
C  9.44400 48.05300 33.25700
H  9.46300 46.94100 34.35900
N  11.99200 48.24700 26.07800
C  12.89300 48.83300 26.90800
C  14.22700 48.88100 26.32500
C  14.10600 48.32300 25.07800
C  12.59800 47.99500 24.90000
C  15.46000 49.43300 27.14600
C  15.11800 48.13300 23.92900
O  14.84600 47.45400 22.95400
C  16.50000 48.80200 23.89200
N  9.53700 47.35900 24.34100
C  10.54500 47.27600 23.44500
C  10.04300 47.01200 21.99000
C  8.50200 46.65200 22.28600
C  8.30000 47.00100 23.75800
C  10.20400 48.23200 21.06500
C  8.13800 45.18700 21.98000
C  8.69300 44.12100 22.95200
N  8.01200 47.62500 26.75800
C  6.93100 47.31500 25.94900
C  5.65100 47.30300 26.68000
C  6.05500 47.49900 27.98200
C  7.45800 47.71100 27.96200
C  4.20800 47.13200 26.19400
C  5.55300 47.69900 29.29100
O  4.40600 47.86300 29.67800
C  6.85200 47.89400 30.14000
C  6.96800 46.58100 30.93700
O  7.42800 45.52500 30.44800
O  6.45100 46.68800 32.20600
C  6.00100 45.48200 32.86400
H  13.27400 49.78200 28.92000
H  12.48000 47.29100 22.87500
H  6.15400 46.69300 24.07600
H  9.08800 49.64900 31.09700
H  11.97900 49.38800 31.00600
H  10.12000 51.58200 30.56100
H  11.86600 51.70900 29.96600
H  11.46500 51.46000 31.58900
H  11.16500 47.75300 32.05500
H  9.82300 46.86800 31.45100
H  8.46900 48.53900 33.27500
H  10.10600 48.80100 33.69400
H  15.23400 49.39200 28.21200
H  15.54000 50.48600 26.87800
H  16.30000 48.80200 26.85500
H  16.33700 49.87900 23.90900
H  17.06500 48.46300 23.02400
H  17.08200 48.58900 24.78900
H  10.58500 46.14600 21.61000
H  7.83900 47.25000 21.66000
H  9.26100 48.49900 20.58900
H  11.03100 48.10800 20.36600
H  10.34200 49.03100 21.79400
H  8.59500 45.06500 20.99800
H  7.06700 45.03700 21.83900
H  9.26500 44.52800 23.78600
H  9.39600 43.46900 22.43400
H  7.91800 43.46400 23.34600
H  3.81400 46.42300 26.92300
H  4.12200 46.81900 25.15400
H  3.70300 48.07800 26.38600
H  6.60300 48.66000 30.87500
H  6.25600 45.36100 33.91700
H  6.29200 44.60600 32.28300
H  4.91800 45.40900 32.77200

