158

Mg -2.19700 17.00400 26.35500
C  -2.44300 14.87500 28.96300
C  -3.40100 19.61300 28.43900
C  -2.13100 19.15700 23.75400
C  -1.98000 14.38200 24.15500
N  -2.69700 17.27100 28.53700
C  -2.73600 16.21900 29.39200
C  -3.07600 16.71100 30.76100
C  -3.62000 18.20500 30.56300
C  -3.29200 18.39700 29.08900
C  -5.13300 18.52700 30.77500
C  -1.86000 16.71300 31.71800
C  -2.08600 15.91000 33.03100
H  -2.71600 16.71000 34.18500
N  -2.53400 19.13200 26.13400
C  -2.92000 20.01900 27.10500
C  -2.73400 21.40200 26.61400
C  -2.25000 21.23800 25.30700
C  -2.34200 19.76800 24.98900
C  -3.01900 22.57500 27.45100
C  -1.76500 22.32900 24.42300
O  -1.52900 22.14300 23.20600
C  -1.49200 23.63900 25.01800
N  -2.16300 16.80500 24.22100
C  -2.05500 17.80900 23.41900
C  -1.96200 17.30900 21.97300
C  -2.02000 15.77700 22.07100
C  -1.95400 15.67200 23.56400
C  -3.14900 17.84100 21.06400
C  -0.89300 15.11100 21.31000
C  0.48200 15.31900 21.89300
N  -2.17800 15.01600 26.49000
C  -2.12900 14.06900 25.54300
C  -2.17900 12.72100 26.13400
C  -2.23700 12.98600 27.49800
C  -2.27100 14.38100 27.67100
C  -2.33300 11.47600 25.38200
C  -2.25900 12.35600 28.78400
O  -2.17000 11.18800 29.06700
C  -2.43900 13.54900 29.80400
C  -1.35200 13.36100 30.84800
O  -0.24500 13.80700 30.78800
O  -1.95800 12.59000 31.82700
C  -1.03200 11.96700 32.80300
H  -3.79600 20.45300 29.01300
H  -1.93900 19.77900 22.87700
H  -1.73200 13.51100 23.54400
H  -3.91800 16.11500 31.11300
H  -3.15200 18.97800 31.17300
H  -5.65500 17.70800 31.27000
H  -5.69300 18.76200 29.87000
H  -5.30700 19.37500 31.43600
H  -1.65700 17.73900 32.02600
H  -0.95000 16.46200 31.17200
H  -1.16900 15.59900 33.53100
H  -2.87900 15.22100 32.73800
H  -2.96800 22.29700 28.50400
H  -3.93600 23.15300 27.32800
H  -2.22000 23.31200 27.53500
H  -1.14000 24.31000 24.23500
H  -0.69200 23.58500 25.75600
H  -2.49400 23.97700 25.28400
H  -1.03500 17.66600 21.52400
H  -2.97000 15.40500 21.68900
H  -3.85300 18.47300 21.60500
H  -3.74800 17.04700 20.61800
H  -2.83700 18.48300 20.24100
H  -0.88100 15.59400 20.33300
H  -1.01700 14.03700 21.17500
H  1.18000 15.92000 21.31000
H  0.88600 14.31000 21.81000
H  0.44000 15.68700 22.91800
H  -2.05500 10.57300 25.92600
H  -2.02200 11.59100 24.34300
H  -3.42100 11.40300 25.37800
H  -3.38700 13.28600 30.27400
H  -0.34800 11.39200 32.17900
H  -1.60900 11.23600 33.36800
H  -0.47700 12.67700 33.41700
Mg -9.85900 17.66900 42.80000
C  -6.32600 17.54500 43.03900
C  -9.63100 21.15500 42.31400
C  -13.07300 17.77200 41.85100
C  -9.99800 14.21400 43.04500
N  -8.11200 19.16900 42.59000
C  -6.77000 18.84200 42.80700
C  -5.98500 20.19400 42.75700
C  -7.08100 21.28200 42.69900
C  -8.39200 20.53400 42.52900
C  -7.15600 22.29600 43.84300
C  -4.87100 20.30400 41.51600
C  -4.92700 19.29200 40.40900
H  -5.09300 19.84400 39.01300
N  -11.13800 19.25700 42.25400
C  -10.88800 20.62700 42.25200
C  -12.03100 21.36500 41.83000
C  -13.06900 20.42900 41.59500
C  -12.45400 19.06000 41.85900
C  -12.00900 22.82400 41.57000
C  -14.43300 20.78000 41.02300
O  -14.69500 21.91700 40.71100
C  -15.46700 19.72400 40.77100
N  -11.32000 16.21700 42.51000
C  -12.60400 16.50300 42.25100
C  -13.49900 15.27700 42.31500
C  -12.52100 14.12100 42.64200
C  -11.11600 14.89700 42.63200
C  -14.78200 15.33200 43.19900
C  -12.46600 12.98700 41.61500
C  -13.68900 12.15700 41.28800
N  -8.46200 16.15300 42.91200
C  -8.68500 14.83100 43.14500
C  -7.45700 14.15600 43.43700
C  -6.46100 15.15700 43.30900
C  -7.12700 16.34900 43.04900
C  -7.09700 12.72600 43.62700
C  -5.04800 15.44400 43.39800
O  -4.08500 14.77900 43.59400
C  -4.98300 16.99800 43.40000
C  -4.46200 17.50300 44.68000
O  -3.50200 18.23100 44.71700
O  -5.20300 17.09200 45.81000
C  -4.71000 17.41900 47.14400
H  -9.66000 22.24500 42.25500
H  -14.15000 17.67400 41.69800
H  -10.07100 13.12600 43.10200
H  -5.41900 20.33700 43.67700
H  -7.06600 21.90300 41.80300
H  -6.19300 22.46600 44.32400
H  -7.86400 21.90800 44.57700
H  -7.52600 23.26000 43.49500
H  -3.84500 20.33600 41.88200
H  -5.10700 21.26400 41.05700
H  -5.60700 18.44300 40.47700
H  -3.96500 18.78000 40.40400
H  -12.38400 23.06600 40.57500
H  -11.04000 23.32200 41.53800
H  -12.68800 23.39600 42.20200
H  -15.62400 19.22400 41.72700
H  -15.19100 19.02200 39.98400
H  -16.39300 20.16600 40.40200
H  -13.90000 15.07200 41.32200
H  -12.66300 13.57300 43.57400
H  -15.63600 15.37500 42.52200
H  -14.70500 16.23500 43.80400
H  -14.85900 14.44900 43.83300
H  -11.67200 12.28400 41.86700
H  -12.31600 13.54600 40.69100
H  -14.19900 12.07100 42.24700
H  -13.39900 11.18200 40.89500
H  -14.31100 12.66800 40.55400
H  -7.07700 12.47800 44.68800
H  -6.14900 12.43100 43.17800
H  -7.80800 12.10200 43.08400
H  -4.20800 17.31200 42.70100
H  -3.68900 17.78200 47.26300
H  -4.95900 16.68800 47.91400
H  -5.26300 18.27500 47.53000

