158

Mg 1.57100 7.95000 25.13700
C  2.76100 9.86600 27.89400
C  1.70100 5.16300 27.13500
C  1.13000 6.05100 22.35700
C  1.97600 10.79400 23.11100
N  2.52600 7.58600 27.24800
C  2.54200 8.55500 28.26500
C  2.31400 7.87000 29.70100
C  2.14100 6.34300 29.31300
C  2.13900 6.36800 27.76100
C  3.33100 5.42100 29.88600
C  1.21600 8.48500 30.55200
C  1.60700 8.94600 32.00400
H  2.65300 8.23900 32.80300
N  1.43300 5.95300 24.76000
C  1.51100 4.95000 25.73300
C  1.20300 3.69200 25.16800
C  0.98200 3.94100 23.78000
C  1.23000 5.38000 23.52800
C  1.05100 2.38400 25.95800
C  0.74200 2.89800 22.67800
O  0.90200 3.26200 21.52000
C  0.56300 1.41900 22.93500
N  1.80800 8.31700 22.98900
C  1.36000 7.40600 22.11100
C  1.26000 7.97500 20.72000
C  1.37300 9.48000 20.94100
C  1.73900 9.58000 22.43000
C  2.27800 7.26900 19.76200
C  0.15700 10.34400 20.58900
C  -1.04000 10.10900 21.51400
N  2.18600 9.95500 25.40000
C  2.20600 11.01000 24.47200
C  2.72900 12.21000 25.12300
C  2.84300 11.90100 26.51100
C  2.53000 10.47500 26.59200
C  2.92200 13.52300 24.46900
C  3.10800 12.31000 27.95400
O  3.33400 13.42900 28.38700
C  2.89900 11.05200 28.89400
C  4.04000 10.96200 29.89100
O  5.14100 10.54200 29.70300
O  3.56500 11.53400 31.13000
C  4.53200 11.66400 32.18200
H  1.39600 4.41000 27.86500
H  0.73800 5.55400 21.46700
H  2.06900 11.60900 22.39000
H  3.27500 7.97500 30.20300
H  1.17600 6.02500 29.70700
H  2.82900 4.57200 30.35100
H  3.99800 5.84800 30.63500
H  4.00800 5.06200 29.11100
H  0.34200 7.86900 30.76400
H  0.92100 9.35600 29.96700
H  0.70200 8.90500 32.61000
H  1.87100 10.00200 32.05600
H  0.09700 1.89600 25.75700
H  0.95500 2.69600 26.99800
H  1.87000 1.66900 25.89600
H  1.42700 0.86200 23.29700
H  0.08700 0.97800 22.05900
H  -0.25800 1.41000 23.65100
H  0.29300 7.78400 20.25500
H  2.17700 9.94300 20.36900
H  3.08500 7.97900 19.58000
H  1.84000 7.06500 18.78500
H  2.56900 6.29100 20.14500
H  0.03000 10.09200 19.53600
H  0.47300 11.38700 20.60300
H  -1.82600 9.57400 20.98100
H  -1.42900 11.08500 21.80200
H  -0.65600 9.56200 22.37500
H  3.60200 13.44200 23.62100
H  3.33800 14.25000 25.16600
H  2.02300 13.92400 24.00000
H  1.92900 11.30500 29.32000
H  4.25600 11.00700 33.00600
H  4.45000 12.66400 32.60900
H  5.50300 11.37300 31.78200
Mg 36.54900 0.43400 30.51100
C  34.24700 1.69400 32.97500
C  38.89500 0.33700 32.99200
C  38.59200 -0.41000 28.05700
C  33.99000 0.91000 28.20700
N  36.51700 0.90800 32.72100
C  35.51600 1.35400 33.48800
C  35.90500 1.52300 34.86200
C  37.46900 1.43000 34.80300
C  37.68300 0.81200 33.42200
C  38.22900 2.80000 35.00200
C  35.26600 0.32900 35.70500
C  34.98700 0.63500 37.21400
H  35.61900 1.93200 37.80200
N  38.50400 -0.10900 30.53300
C  39.33600 -0.08700 31.64000
C  40.66400 -0.41400 31.25400
C  40.63600 -0.63000 29.81000
C  39.18700 -0.34900 29.37500
C  41.83700 -0.59600 32.19100
C  41.64800 -1.13000 28.96000
O  41.43700 -1.28300 27.75900
C  42.95100 -1.63500 29.48600
N  36.32400 0.20800 28.48400
C  37.29300 -0.12400 27.63000
C  36.87300 -0.21000 26.18800
C  35.32100 0.02100 26.32800
C  35.14100 0.29600 27.79300
C  37.58900 0.79400 25.29800
C  34.40300 -1.19800 25.89900
C  33.74200 -1.09500 24.51100
N  34.50900 1.13200 30.48500
C  33.57100 1.20600 29.43000
C  32.36700 1.66000 29.95800
C  32.54500 1.91800 31.30300
C  33.92500 1.57500 31.62200
C  31.13400 1.80600 29.04400
C  31.91400 2.27500 32.53800
O  30.73500 2.48100 32.75200
C  32.98200 2.19900 33.64600
C  33.09500 3.50400 34.29100
O  33.84200 4.38200 33.90200
O  32.43800 3.55600 35.51800
C  32.82300 4.60800 36.52300
H  39.58100 0.31800 33.84100
H  39.29000 -0.47200 27.21900
H  33.24000 0.82100 27.41800
H  35.50100 2.47100 35.21800
H  37.85900 0.73500 35.54700
H  37.62200 3.67700 34.77700
H  39.11800 2.83400 34.37200
H  38.46100 2.66500 36.05900
H  35.82800 -0.60500 35.72800
H  34.35300 -0.04700 35.24300
H  35.16200 -0.29000 37.76300
H  33.91700 0.82300 37.28900
H  42.83900 -0.38000 31.81900
H  41.75800 -1.61300 32.57300
H  41.73000 0.08900 33.03200
H  43.57400 -0.80700 29.82600
H  43.54400 -2.35800 28.92600
H  42.69100 -2.26500 30.33700
H  37.04000 -1.20500 25.77600
H  35.08700 0.92100 25.75900
H  36.85600 1.32900 24.69500
H  38.26000 0.28600 24.60500
H  38.23200 1.48000 25.85000
H  33.66000 -1.47900 26.64600
H  35.10700 -2.03000 25.89700
H  32.72200 -0.71200 24.55700
H  33.85700 -2.06400 24.02600
H  34.24900 -0.44100 23.80200
H  30.59800 2.70900 29.33500
H  30.52200 0.90500 29.09200
H  31.48100 1.85600 28.01200
H  32.59500 1.59200 34.46400
H  33.62300 5.23400 36.12900
H  33.22500 4.21700 37.45700
H  31.93000 5.19100 36.74700

