158

Mg 45.51200 4.32700 47.47300
C  43.23900 6.98700 47.01600
C  42.84900 2.09800 47.10300
C  47.82100 1.81700 47.49600
C  48.10400 6.70500 47.41100
N  43.28100 4.54500 47.22200
C  42.59100 5.69700 46.97400
C  41.09100 5.48500 46.65100
C  40.91700 3.93300 46.81200
C  42.44500 3.45600 47.13200
C  39.81700 3.56200 47.94300
C  40.72100 5.94000 45.20700
C  39.29800 6.48200 45.15200
H  38.45200 6.13800 43.97000
N  45.33700 2.19600 47.19200
C  44.17800 1.44300 47.19500
C  44.52700 0.12900 47.07100
C  45.95100 0.04200 47.18700
C  46.51200 1.36800 47.30900
C  43.48000 -0.93700 46.86200
C  46.69500 -1.29800 47.10400
O  46.09000 -2.32700 46.79800
C  48.20000 -1.33300 47.18000
N  47.64900 4.25700 47.34600
C  48.33100 3.11800 47.52300
C  49.83300 3.31800 47.74100
C  49.92300 4.86500 47.61700
C  48.44700 5.30600 47.39800
C  50.28600 2.76200 49.07500
C  51.00600 5.37000 46.55600
C  52.37600 5.83800 47.06300
N  45.74200 6.44500 47.22800
C  46.83400 7.25400 47.30200
C  46.46500 8.64700 47.21900
C  45.07400 8.58100 47.05700
C  44.61800 7.22200 47.12500
C  47.36100 9.91500 47.31500
C  43.91900 9.42300 47.00000
O  43.81500 10.61700 46.96400
C  42.64600 8.42600 46.86500
C  41.62700 8.72700 47.89300
O  41.45000 8.07900 48.91200
O  40.93500 9.86500 47.61100
C  40.54100 10.59000 48.86100
H  42.08900 1.37800 46.79300
H  48.67000 1.13100 47.47800
H  48.93600 7.40900 47.46900
H  40.43400 5.96300 47.37700
H  40.56900 3.53000 45.86100
H  39.30500 2.68100 47.55600
H  39.00800 4.28600 48.03800
H  40.19200 3.19600 48.89900
H  40.89500 5.07500 44.56700
H  41.49600 6.67600 44.99200
H  39.34200 7.57100 45.18400
H  38.78000 6.31200 46.09600
H  43.73800 -1.55500 46.00100
H  42.45800 -0.60600 46.67800
H  43.53700 -1.62000 47.71000
H  48.55000 -2.35900 47.06300
H  48.54300 -1.11400 48.19100
H  48.66000 -0.78700 46.35700
H  50.30900 2.82900 46.89100
H  50.16000 5.19200 48.62900
H  49.48400 2.29600 49.64800
H  50.85000 3.45800 49.69500
H  51.06100 2.01100 48.91600
H  50.64700 6.20300 45.95100
H  51.16300 4.63400 45.76800
H  53.13800 5.25100 46.55100
H  52.39500 5.75300 48.14900
H  52.46400 6.90300 46.84800
H  47.02100 10.56900 48.11800
H  47.29800 10.49700 46.39600
H  48.41600 9.64300 47.32400
H  42.15800 8.70800 45.93300
H  41.42500 10.52900 49.49600
H  39.57200 10.28800 49.26000
H  40.55800 11.65000 48.60900
Mg 41.88400 42.33000 26.41100
C  41.19000 44.56200 28.94100
C  42.70100 39.91100 28.85100
C  42.57700 40.12800 24.01600
C  41.29800 44.86100 24.04100
N  41.77500 42.21400 28.62600
C  41.46800 43.26200 29.40700
C  41.55800 42.78100 30.93600
C  42.28200 41.40300 30.89200
C  42.34900 41.19200 29.40600
C  43.60100 41.19600 31.60900
C  40.09500 42.72400 31.50000
C  39.95500 43.37300 32.86900
H  39.28700 42.58900 33.93700
N  42.56300 40.32500 26.43700
C  42.62900 39.53000 27.54800
C  43.10100 38.16800 27.04900
C  42.99500 38.17500 25.60900
C  42.69800 39.57500 25.29600
C  43.54900 37.06300 27.94900
C  42.99200 37.04900 24.59500
O  42.63100 37.22100 23.46300
C  43.28000 35.64800 25.02500
N  41.97400 42.46400 24.36200
C  42.24100 41.40700 23.61300
C  42.11800 41.79000 22.12500
C  41.44400 43.22400 22.14400
C  41.68300 43.58400 23.61100
C  43.53300 41.62700 21.56200
C  39.91100 43.25500 21.84400
C  39.02700 42.20400 22.47600
N  41.39400 44.29900 26.41500
C  41.09500 45.19100 25.39200
C  40.65400 46.42700 25.96200
C  40.66100 46.19100 27.38000
C  41.13600 44.91700 27.56300
C  40.29400 47.69200 25.19900
C  40.37800 46.81000 28.62300
O  39.95500 47.92900 28.96800
C  40.63700 45.73900 29.69700
C  41.62200 46.30400 30.69700
O  42.69900 46.89200 30.36400
O  41.27200 46.14800 31.99700
C  42.15300 46.86200 32.90600
H  42.80100 39.16700 29.64400
H  42.93600 39.49700 23.20100
H  40.93200 45.63600 23.36500
H  42.12500 43.52000 31.50300
H  41.62700 40.63900 31.31200
H  44.46100 41.12000 30.94400
H  43.51300 40.27000 32.17700
H  43.69800 42.06200 32.26400
H  39.67800 41.71700 31.53300
H  39.54300 43.31500 30.76900
H  39.50500 44.36400 32.81300
H  40.94600 43.52000 33.29900
H  42.91400 36.20600 27.72300
H  43.34700 37.33200 28.98500
H  44.56500 36.74700 27.71100
H  42.42600 35.15700 25.49200
H  44.22900 35.63900 25.56000
H  43.48100 34.87000 24.28900
H  41.46500 41.06300 21.64200
H  41.96900 43.97100 21.54800
H  43.50800 40.90000 20.75000
H  44.25600 41.27100 22.29600
H  43.93800 42.59200 21.25800
H  39.73900 43.07200 20.78400
H  39.49700 44.24800 22.02100
H  38.24200 42.83800 22.88700
H  39.48300 41.70100 23.33000
H  38.59900 41.53800 21.72700
H  39.54600 47.46600 24.44000
H  41.20700 47.81000 24.61500
H  40.04100 48.53900 25.83600
H  39.73700 45.55000 30.28100
H  42.24600 47.89000 32.55500
H  43.12800 46.37600 32.94000
H  41.70200 46.73700 33.89100

