158

Mg 47.48000 25.02400 27.75000
C  48.25800 27.35700 30.36400
C  46.75200 22.70800 30.26300
C  47.05800 22.85400 25.36600
C  48.75600 27.35800 25.35100
N  47.47500 25.10600 30.07700
C  47.79800 26.15700 30.90900
C  47.52600 25.77500 32.41800
C  47.26200 24.23900 32.31700
C  47.14900 23.98400 30.79500
C  48.28400 23.25900 33.05900
C  46.44800 26.56500 33.10600
C  46.18200 26.14800 34.55400
H  46.32500 27.10200 35.70100
N  46.84900 23.12400 27.78900
C  46.63000 22.31500 28.89900
C  46.10200 21.05500 28.43000
C  46.13000 21.09100 26.98200
C  46.70200 22.40500 26.64400
C  45.89000 19.90200 29.33700
C  45.65700 20.03700 25.98100
O  45.51500 20.19900 24.80300
C  45.11000 18.68600 26.54900
N  47.76100 25.11600 25.58400
C  47.53200 24.04600 24.79800
C  47.88600 24.30600 23.35100
C  48.27700 25.84400 23.36600
C  48.31500 26.11000 24.85500
C  48.82600 23.29400 22.76700
C  47.19400 26.73300 22.75100
C  47.72300 27.53500 21.58600
N  48.27800 26.96400 27.78300
C  48.79900 27.74400 26.69800
C  49.24300 29.03900 27.24800
C  49.08700 28.90000 28.63000
C  48.51000 27.60700 28.97700
C  49.95200 30.12800 26.50000
C  49.35800 29.50700 29.90500
O  49.96000 30.56500 30.13600
C  48.74700 28.62000 31.05500
C  49.70600 28.55500 32.22300
O  50.91300 28.20400 32.09900
O  49.05500 28.89700 33.36400
C  49.75300 29.01700 34.59700
H  46.52200 21.99900 31.06100
H  47.07000 22.06800 24.60900
H  49.18100 28.01500 24.59000
H  48.47000 26.02100 32.90500
H  46.29500 24.05600 32.78500
H  47.80300 22.75500 33.89700
H  49.16600 23.75600 33.46200
H  48.64000 22.60700 32.26100
H  45.48200 26.50800 32.60500
H  46.73600 27.61700 33.11500
H  46.86100 25.34900 34.85100
H  45.22200 25.63800 34.63400
H  44.90200 19.44400 29.30000
H  46.09200 20.17100 30.37400
H  46.51300 19.09400 28.95500
H  45.00000 18.03200 25.68400
H  44.04800 18.82800 26.75300
H  45.75400 18.25800 27.31700
H  46.95300 24.16800 22.80400
H  49.32000 26.01700 23.10000
H  48.38100 22.71100 21.96100
H  49.15000 22.59400 23.53700
H  49.73000 23.82500 22.46800
H  46.63000 27.26800 23.51400
H  46.43200 26.19600 22.18700
H  47.00100 27.65900 20.78000
H  48.65400 27.05900 21.27800
H  48.07100 28.53800 21.83300
H  49.27900 30.98200 26.42700
H  50.21900 29.78200 25.50100
H  50.80300 30.44500 27.10300
H  47.93300 29.29300 31.32300
H  50.81600 28.82000 34.45800
H  49.40600 28.28400 35.32600
H  49.67100 30.06600 34.87900
Mg -4.08500 25.83000 25.51800
C  -3.06200 27.19900 28.49500
C  -6.12300 23.59500 27.38000
C  -4.77100 24.04400 22.67800
C  -1.70600 27.67800 23.85100
N  -4.62600 25.46100 27.70600
C  -4.04800 26.19800 28.67600
C  -4.63700 25.82500 30.06600
C  -5.44300 24.54900 29.71400
C  -5.41000 24.52900 28.15900
C  -5.07200 23.21700 30.46200
C  -5.52500 26.91200 30.73900
C  -5.24100 27.34300 32.22000
H  -4.96800 26.27700 33.31100
N  -5.31500 24.11100 25.07600
C  -6.11700 23.37300 25.96100
C  -6.90900 22.37900 25.25600
C  -6.50900 22.47600 23.83200
C  -5.48300 23.58400 23.78700
C  -7.93100 21.49300 25.92400
C  -7.00100 21.74500 22.62000
O  -6.73000 22.09600 21.47900
C  -8.02000 20.58500 22.70400
N  -3.37500 25.89100 23.56600
C  -3.77700 25.03700 22.57300
C  -3.07000 25.32900 21.26400
C  -2.26500 26.61300 21.54500
C  -2.40100 26.75800 23.07900
C  -2.22200 24.12800 20.75700
C  -2.55800 27.93000 20.69600
C  -3.74900 28.81200 21.03000
N  -2.73300 27.26400 25.96400
C  -1.85500 27.99900 25.19800
C  -1.01400 28.76900 26.03300
C  -1.51900 28.56100 27.37000
C  -2.53400 27.61300 27.25600
C  0.09800 29.74300 25.63100
C  -1.36200 28.88400 28.73000
O  -0.51000 29.55900 29.36000
C  -2.36400 27.95600 29.54900
C  -1.54800 27.26000 30.52200
O  -1.14900 26.16300 30.40800
O  -1.38100 28.07500 31.59700
C  -0.90600 27.43300 32.82300
H  -6.61000 22.80900 27.96100
H  -4.78200 23.43000 21.77600
H  -0.88800 28.24600 23.40300
H  -3.75900 25.62300 30.67900
H  -6.49900 24.68900 29.94700
H  -4.70800 22.38500 29.86000
H  -6.01700 22.81200 30.82300
H  -4.42800 23.31000 31.33700
H  -6.57600 26.64700 30.85100
H  -5.46700 27.80000 30.11000
H  -5.98100 27.98500 32.69700
H  -4.38900 27.99100 32.01600
H  -7.46100 20.98300 26.76500
H  -8.23000 20.72100 25.21500
H  -8.82300 22.05700 26.19400
H  -9.02500 20.97400 22.86900
H  -7.83200 19.82500 23.46200
H  -8.04700 20.17900 21.69200
H  -3.77900 25.51800 20.45800
H  -1.19500 26.44200 21.43300
H  -1.22600 24.52700 20.56300
H  -2.69000 23.66700 19.88700
H  -2.07000 23.37700 21.53200
H  -2.60700 27.48700 19.70200
H  -1.64200 28.52000 20.71600
H  -4.22800 28.26200 21.84000
H  -4.41800 28.94800 20.18100
H  -3.35700 29.77200 21.36500
H  -0.38500 30.52400 25.04500
H  0.76400 29.18700 24.97100
H  0.69300 30.06100 26.48700
H  -3.08900 28.58600 30.06500
H  -1.18100 26.39200 32.99600
H  -1.29200 27.95100 33.70100
H  0.17700 27.36800 32.92700

