158

Mg 48.82400 35.21300 26.45500
C  46.87400 34.26600 29.17300
C  49.27500 38.35100 27.85700
C  50.42300 36.28400 23.47500
C  47.57600 32.39000 24.66300
N  48.22700 36.18000 28.27900
C  47.53900 35.51000 29.31600
C  47.41700 36.39300 30.52700
C  48.02300 37.80700 30.04100
C  48.58300 37.43100 28.66000
C  47.10400 39.13100 29.97300
C  48.25100 35.80200 31.78500
C  47.48100 35.83300 33.04600
H  47.43000 37.05400 33.93400
N  49.76700 37.03300 25.82400
C  49.82900 38.19300 26.55000
C  50.42600 39.23100 25.71100
C  50.95600 38.57900 24.53900
C  50.39000 37.24900 24.54200
C  50.71900 40.63300 26.03200
C  51.85300 39.05300 23.37400
O  52.06200 38.49700 22.27600
C  52.62500 40.36600 23.58000
N  49.03600 34.41000 24.37700
C  49.78600 35.05700 23.41600
C  49.94500 34.11000 22.25400
C  49.27300 32.75400 22.67500
C  48.53100 33.18900 23.95700
C  49.48100 34.64800 20.90500
C  50.18100 31.43200 22.89700
C  49.64600 30.16800 22.24500
N  47.56500 33.60200 26.81100
C  47.14300 32.54400 25.99900
C  46.29600 31.71300 26.73500
C  46.08500 32.40900 27.97800
C  46.91100 33.52500 27.94500
C  45.76300 30.40500 26.17200
C  45.27900 32.37900 29.19400
O  44.32900 31.63500 29.50700
C  45.86000 33.61100 30.11400
C  46.36100 33.00700 31.38000
O  47.35400 32.30800 31.45800
O  45.52100 33.36500 32.40100
C  45.66900 32.98700 33.81300
H  49.47400 39.36300 28.21700
H  50.91200 36.49000 22.52100
H  47.30300 31.48600 24.11400
H  46.34500 36.52300 30.67500
H  48.81700 38.16200 30.69800
H  47.40700 39.78600 30.79000
H  46.06800 38.83900 30.14700
H  47.09200 39.47500 28.93800
H  49.15600 36.38900 31.94000
H  48.48200 34.75700 31.57900
H  47.86600 35.10800 33.76300
H  46.42100 35.60500 32.93600
H  51.79600 40.79800 26.05700
H  50.20000 40.72500 26.98600
H  50.14000 41.34500 25.44500
H  51.93700 41.17900 23.81200
H  53.16200 40.65800 22.67700
H  53.37500 40.12800 24.33500
H  51.02100 33.95100 22.18600
H  48.44300 32.62700 21.98000
H  49.26300 33.72600 20.36600
H  50.30600 35.20100 20.45700
H  48.63400 35.33000 20.98400
H  50.44300 31.21400 23.93200
H  51.11500 31.70100 22.40300
H  49.28600 29.42200 22.95300
H  50.34900 29.54400 21.69200
H  48.87000 30.39500 21.51400
H  46.43100 29.55600 26.31200
H  45.40400 30.30500 25.14800
H  44.90500 30.18800 26.80900
H  44.94300 34.15200 30.34500
H  46.70700 33.16500 34.09200
H  45.38700 31.95600 34.02500
H  45.10300 33.57900 34.53200
Mg 26.71200 50.02800 26.27000
C  24.90000 51.36300 28.77400
C  28.92600 48.87200 28.82600
C  28.70200 48.83800 23.93200
C  24.83300 51.59500 23.85500
N  26.96100 50.31900 28.52400
C  25.95600 50.71700 29.32000
C  26.15900 50.40900 30.82100
C  27.58000 49.80000 30.73400
C  27.87500 49.68300 29.26600
C  28.75900 50.39600 31.54400
C  25.12500 49.43800 31.49700
C  24.40900 49.88900 32.83200
H  24.65500 49.23500 34.19500
N  28.51400 48.90500 26.38900
C  29.24000 48.44700 27.50000
C  30.41200 47.76000 26.99400
C  30.37300 47.79000 25.57200
C  29.10400 48.50400 25.21000
C  31.37200 47.13600 28.01600
C  31.38300 47.14000 24.56500
O  31.43100 47.32200 23.37000
C  32.43200 46.27900 25.19000
N  26.80300 50.22900 24.16200
C  27.65800 49.58300 23.44000
C  27.24000 49.64000 21.85000
C  25.97700 50.46400 21.91600
C  25.81700 50.77600 23.39800
C  28.23900 50.37500 20.94500
C  24.62900 49.75400 21.36700
C  24.85100 48.94100 20.06600
N  25.21600 51.32900 26.26400
C  24.47400 51.88100 25.22300
C  23.33900 52.59300 25.82600
C  23.36600 52.28300 27.17900
C  24.55500 51.57000 27.39700
C  22.19100 53.37000 25.07900
C  22.81100 52.51200 28.41100
O  21.82600 53.18700 28.64900
C  23.70500 51.94000 29.53500
C  24.09700 52.92200 30.52900
O  24.81300 53.87200 30.41300
O  23.31800 52.69700 31.63800
C  23.28800 53.72000 32.69000
H  29.47900 48.41400 29.64900
H  29.32000 48.37200 23.16200
H  24.17800 52.17200 23.19900
H  26.21500 51.33500 31.39400
H  27.51400 48.74000 30.98000
H  29.53500 50.73300 30.85600
H  29.34400 49.62400 32.04300
H  28.44900 51.21500 32.19400
H  25.52800 48.45100 31.72600
H  24.36400 49.31500 30.72700
H  23.32100 49.88600 32.76500
H  24.58900 50.93500 33.07700
H  32.39800 47.40600 27.76600
H  31.28500 46.05800 28.14900
H  31.32000 47.62900 28.98700
H  31.92600 45.54100 25.81200
H  33.07800 46.93000 25.78000
H  32.97400 45.66500 24.47100
H  27.08300 48.61400 21.51700
H  26.04500 51.45500 21.46700
H  27.91000 51.26700 20.41300
H  28.66900 49.66200 20.24100
H  29.08700 50.58000 21.59800
H  23.97200 50.62400 21.34800
H  24.24500 49.09600 22.14700
H  24.10400 49.28200 19.35000
H  24.61300 47.88500 20.20000
H  25.85400 49.15000 19.69700
H  21.56000 53.93000 25.77000
H  21.75800 52.74400 24.29900
H  22.60500 54.08000 24.36200
H  22.98500 51.29300 30.03600
H  23.67700 54.68800 32.37200
H  23.75000 53.36200 33.61000
H  22.25100 53.80100 33.01800

