158

Mg 30.45100 58.24100 40.24100
C  27.73900 56.19100 39.39400
C  32.48300 55.54300 40.08400
C  33.00000 60.37500 40.08300
C  28.11500 60.94300 40.70300
N  30.18400 56.14400 39.35600
C  28.97700 55.51500 39.29000
C  29.19400 54.05500 38.98900
C  30.51800 53.75500 39.70200
C  31.12000 55.22300 39.78200
C  30.48000 53.09600 41.06600
C  29.24600 53.80800 37.48500
C  28.04000 52.95100 37.00400
H  27.24100 53.52600 35.86000
N  32.51700 58.01800 40.04800
C  33.17100 56.79300 40.03400
C  34.60400 57.06700 39.86700
C  34.77800 58.51200 39.92900
C  33.37800 59.06000 39.95000
C  35.65500 55.99900 39.63600
C  36.09900 59.19500 40.03200
O  37.11500 58.49900 40.14200
C  36.25500 60.66800 39.99900
N  30.54200 60.35100 40.35200
C  31.73900 60.95100 40.19000
C  31.51400 62.51900 40.24800
C  30.00900 62.69000 40.67000
C  29.52100 61.24000 40.57600
C  32.54600 63.26200 41.04800
C  29.31700 63.75500 39.81400
C  28.21100 64.55700 40.54800
N  28.32300 58.57100 40.09200
C  27.53200 59.68100 40.41400
C  26.13800 59.28200 40.31000
C  26.14100 57.95300 39.91200
C  27.53400 57.50600 39.83800
C  24.89800 60.14400 40.37400
C  25.30400 56.76700 39.53300
O  24.09500 56.67700 39.36800
C  26.28700 55.55700 39.23200
C  26.04000 54.48900 40.26000
O  26.62800 54.46700 41.30200
O  25.16000 53.48500 39.77000
C  24.95000 52.49500 40.84100
H  33.14400 54.68600 40.22900
H  33.76500 61.14800 39.98500
H  27.43000 61.78200 40.84000
H  28.43300 53.39100 39.40100
H  31.21600 53.16200 39.11200
H  31.47100 53.21600 41.50500
H  30.32400 52.04000 40.84700
H  29.67100 53.41400 41.72200
H  30.09800 53.17700 37.23300
H  29.44000 54.71300 36.90900
H  27.30100 52.80900 37.79300
H  28.33500 51.92800 36.76900
H  36.32300 56.53900 38.96500
H  35.24100 55.12000 39.14300
H  36.15200 55.62100 40.52900
H  36.01900 61.21200 39.08400
H  37.20100 61.01700 40.41300
H  35.61000 61.11900 40.75300
H  31.56200 62.86600 39.21500
H  29.93100 63.02100 41.70500
H  33.49200 63.35300 40.51500
H  32.72900 62.78200 42.00900
H  32.00100 64.17500 41.29000
H  28.94900 63.22500 38.93500
H  30.09100 64.45600 39.50200
H  28.44300 65.61000 40.38800
H  28.28800 64.49500 41.63400
H  27.23800 64.37900 40.09000
H  24.62800 60.47500 39.37100
H  25.01200 60.96400 41.08300
H  24.14700 59.43100 40.71400
H  26.16300 55.16000 38.22500
H  25.84200 51.90900 41.05900
H  24.25400 51.76000 40.43800
H  24.43700 52.99800 41.66100
Mg -11.93900 16.48200 41.91900
C  -8.88900 14.89400 41.16700
C  -10.89400 19.39500 40.32000
C  -15.06200 17.54900 41.94200
C  -13.08700 13.14400 42.93100
N  -10.19400 17.03300 40.84900
C  -9.07800 16.25200 40.65000
C  -7.95700 17.13300 39.98100
C  -8.55500 18.54800 39.96100
C  -10.00300 18.31200 40.39500
C  -7.83300 19.57000 40.88700
C  -7.43100 16.52100 38.66000
C  -5.92600 16.71000 38.36400
H  -5.53800 17.10000 36.89300
N  -12.83200 18.23200 41.28000
C  -12.22600 19.34500 40.71200
C  -13.20200 20.43200 40.63600
C  -14.43400 19.93000 41.20800
C  -14.14900 18.49900 41.46200
C  -12.92900 21.80800 40.21000
C  -15.76000 20.68300 41.25300
O  -15.92400 21.81500 40.82500
C  -16.99800 20.07500 41.99500
N  -13.80500 15.40000 42.13700
C  -14.94900 16.16300 42.23000
C  -16.16700 15.35200 42.92600
C  -15.44800 13.96300 43.25900
C  -14.03800 14.12200 42.72700
C  -16.78100 16.06500 44.27700
C  -16.17500 12.84800 42.40300
C  -15.79500 11.40800 42.61000
N  -11.14400 14.45700 42.20000
C  -11.74600 13.27000 42.73600
C  -10.71500 12.28000 42.77400
C  -9.55700 12.86800 42.18300
C  -9.89400 14.16600 41.83900
C  -10.91200 10.88200 43.21500
C  -8.10400 12.74100 41.81100
O  -7.26700 11.81400 41.93200
C  -7.65400 14.02700 41.19800
C  -6.56400 14.67400 41.96000
O  -6.74400 15.18100 43.07300
O  -5.37100 14.60200 41.31200
C  -4.15000 14.94400 42.10100
H  -10.50000 20.33800 39.93700
H  -16.05900 17.86700 42.25400
H  -13.42300 12.25600 43.47000
H  -7.12300 17.08700 40.68300
H  -8.61700 18.92600 38.94000
H  -7.44200 20.39100 40.28600
H  -7.02000 19.14200 41.47400
H  -8.62500 19.94500 41.53500
H  -8.02200 16.97700 37.86600
H  -7.60800 15.44600 38.62100
H  -5.35600 15.80200 38.56200
H  -5.68500 17.52400 39.04700
H  -13.08100 22.39000 41.11900
H  -13.66400 22.05700 39.44500
H  -11.91200 21.86600 39.82200
H  -17.69900 20.88200 42.20600
H  -16.70300 19.68400 42.96800
H  -17.40600 19.24300 41.42100
H  -16.95400 15.24800 42.17900
H  -15.60000 13.69400 44.30500
H  -16.57700 17.12600 44.42200
H  -16.36600 15.59300 45.16700
H  -17.86700 16.05600 44.17700
H  -16.01600 13.03100 41.34000
H  -17.25000 13.02200 42.45000
H  -16.68100 10.81200 42.83100
H  -15.26400 11.39400 43.56200
H  -15.17500 10.98600 41.81800
H  -10.14000 10.24900 42.77700
H  -11.83900 10.55200 42.74600
H  -10.91600 10.75000 44.29700
H  -7.22600 13.85200 40.21100
H  -4.24000 15.97400 42.44400
H  -3.22700 14.67600 41.58500
H  -4.04700 14.42200 43.05300

