158

Mg 0.16500 43.17500 25.81200
C  2.65300 43.01300 28.23600
C  -2.02300 42.12900 27.99500
C  -2.05500 42.97900 23.25100
C  2.68900 43.38200 23.41100
N  0.34600 42.72500 27.88500
C  1.37400 42.90400 28.72200
C  1.00900 42.88200 30.14400
C  -0.41100 42.19300 30.08400
C  -0.74600 42.31300 28.60100
C  -0.46200 40.67700 30.46900
C  0.96500 44.28500 30.84500
C  0.91900 44.26900 32.42200
H  0.83400 42.91500 33.06200
N  -1.78000 42.69400 25.67500
C  -2.50600 42.28900 26.68400
C  -3.89300 41.98600 26.24300
C  -3.99400 42.36400 24.88200
C  -2.54900 42.67800 24.53200
C  -4.98600 41.48700 27.13200
C  -5.14000 42.25600 23.91000
O  -5.01600 42.48500 22.67500
C  -6.60200 41.86000 24.35800
N  0.35000 43.32100 23.60900
C  -0.74600 43.14900 22.79900
C  -0.44300 43.61400 21.37000
C  1.08300 43.67200 21.37900
C  1.44500 43.54500 22.87100
C  -1.06700 42.69400 20.25500
C  1.56500 45.02000 20.75000
C  1.60200 46.20100 21.72100
N  2.29400 43.14600 25.81900
C  3.14600 43.26600 24.77400
C  4.50400 43.21300 25.24900
C  4.41200 43.03900 26.64900
C  3.04400 43.06600 26.89500
C  5.76300 43.22200 24.38200
C  5.16600 42.87200 27.90700
O  6.36400 42.75900 28.17200
C  3.99300 42.88700 28.97400
C  4.08300 41.60400 29.74700
O  3.48800 40.55700 29.64000
O  5.05900 41.97900 30.67000
C  5.00300 41.12100 31.78600
H  -2.80500 41.73800 28.64900
H  -2.76700 43.06000 22.42700
H  3.46800 43.52400 22.65900
H  1.77000 42.20300 30.52900
H  -1.08900 42.80100 30.68200
H  0.38300 40.33800 31.06700
H  -0.53300 40.02000 29.60300
H  -1.40200 40.50000 30.99200
H  0.10600 44.79000 30.40300
H  1.83400 44.84400 30.49600
H  0.12900 44.88800 32.84900
H  1.87600 44.73700 32.65100
H  -5.76100 42.22600 27.33700
H  -4.65000 40.94800 28.01800
H  -5.56500 40.79000 26.52600
H  -6.94400 42.48900 25.18000
H  -6.47700 40.80700 24.61300
H  -7.28700 41.91500 23.51300
H  -0.86300 44.60900 21.22600
H  1.40500 42.71800 20.96100
H  -1.46000 41.73500 20.59400
H  -0.17200 42.40000 19.70500
H  -1.80400 43.13800 19.58600
H  0.93200 45.38000 19.93900
H  2.60700 44.96700 20.43300
H  2.65600 46.32200 21.97100
H  1.03000 45.94000 22.61100
H  1.15800 47.06200 21.22000
H  5.48300 43.30000 23.33100
H  6.31900 42.30800 24.59000
H  6.40200 44.05300 24.67900
H  4.27800 43.75600 29.56700
H  5.15900 40.08800 31.47500
H  3.97400 41.15300 32.14300
H  5.47800 41.48900 32.69600
Mg -4.75500 24.87900 25.85700
C  -3.03800 26.58200 28.35400
C  -6.18000 22.90000 28.27000
C  -6.51100 23.37900 23.41500
C  -3.10500 26.92500 23.53500
N  -4.52500 24.65500 28.07000
C  -3.84300 25.54500 28.88900
C  -4.11800 25.24400 30.35200
C  -5.17100 24.04100 30.29400
C  -5.31300 23.84200 28.80700
C  -4.75100 22.71700 31.08200
C  -4.67700 26.50100 31.07100
C  -4.18000 26.74500 32.44900
H  -3.95000 25.51600 33.34300
N  -6.17100 23.33300 25.86100
C  -6.54200 22.60900 26.93400
C  -7.48000 21.53100 26.50900
C  -7.57300 21.70400 25.12400
C  -6.77600 22.87700 24.69600
C  -8.09900 20.54200 27.50400
C  -8.44800 20.92700 24.12900
O  -8.39000 21.16500 22.92600
C  -9.52100 19.86600 24.60600
N  -4.44400 24.87200 23.67300
C  -5.58900 24.39000 23.03400
C  -5.76500 25.00500 21.67200
C  -4.61700 26.08600 21.59600
C  -3.98100 25.96100 23.00800
C  -5.70200 23.91200 20.51500
C  -5.16500 27.49300 21.31900
C  -4.65100 28.18700 20.02600
N  -3.24100 26.23800 25.83800
C  -2.72600 27.10100 24.85700
C  -1.97600 28.19500 25.37600
C  -1.97700 27.92100 26.76100
C  -2.77800 26.83700 27.00400
C  -1.28300 29.29500 24.65800
C  -1.38600 28.39000 28.00200
O  -0.53100 29.20500 28.29300
C  -2.14600 27.55000 29.08100
C  -1.15800 26.79600 29.97900
O  -0.45400 25.89500 29.61600
O  -1.10300 27.28000 31.29400
C  -0.23300 26.64400 32.24600
H  -6.79800 22.42700 29.03600
H  -7.23800 23.15100 22.63300
H  -2.79900 27.71700 22.84800
H  -3.17000 25.00800 30.83600
H  -6.15900 24.32200 30.65700
H  -4.54500 21.93500 30.35200
H  -5.56200 22.28900 31.67000
H  -3.92600 22.92200 31.76400
H  -5.75400 26.37400 31.18200
H  -4.49500 27.27200 30.32200
H  -4.91000 27.25800 33.07500
H  -3.37600 27.45800 32.26400
H  -7.57400 20.57700 28.45800
H  -8.02000 19.53200 27.10100
H  -9.14100 20.82000 27.66300
H  -9.03500 19.08200 25.18700
H  -9.82100 19.39600 23.67000
H  -10.27500 20.44200 25.14300
H  -6.79600 25.35800 21.69100
H  -4.04200 25.83000 20.70600
H  -5.35400 22.96200 20.92100
H  -5.12800 24.12200 19.61200
H  -6.71300 23.65000 20.20100
H  -5.08100 28.17500 22.16500
H  -6.23700 27.48300 21.12100
H  -5.39900 28.14100 19.23400
H  -3.67200 27.85700 19.68000
H  -4.46100 29.25400 20.14300
H  -1.10800 30.14100 25.32200
H  -1.91600 29.69000 23.86300
H  -0.30000 29.17300 24.20300
H  -2.81000 28.20800 29.64100
H  0.78000 27.04600 32.28200
H  -0.23900 25.55700 32.17100
H  -0.46300 27.02000 33.24300

