158

Mg 0.35800 7.45800 25.64400
C  1.07600 9.26400 28.49500
C  -0.48400 4.68900 27.66300
C  -0.07100 5.49200 22.83400
C  1.26400 10.11600 23.68800
N  0.57500 7.01800 27.78300
C  0.64100 7.92300 28.79000
C  0.35700 7.39700 30.13900
C  0.09500 5.80600 29.89300
C  0.13200 5.80000 28.29900
C  1.11200 4.80000 30.51900
C  -0.87700 8.00400 30.84500
C  -0.64700 8.55100 32.32200
H  0.46000 7.88300 33.19900
N  -0.16300 5.43300 25.29800
C  -0.62200 4.53100 26.28800
C  -1.21100 3.41300 25.67700
C  -0.99500 3.47000 24.29100
C  -0.42600 4.90600 24.03600
C  -2.09300 2.42100 26.39400
C  -1.23800 2.50100 23.19600
O  -0.94400 2.69100 22.05800
C  -1.82500 1.07800 23.48700
N  0.76800 7.73800 23.56500
C  0.44000 6.77300 22.62400
C  0.60900 7.23900 21.23900
C  0.82100 8.79900 21.48300
C  1.00100 8.93800 23.04900
C  1.79300 6.49200 20.51400
C  -0.32100 9.70000 20.81100
C  -1.73800 9.58000 21.47000
N  1.02000 9.28900 26.01600
C  1.25300 10.31100 25.14200
C  1.63400 11.52300 25.87300
C  1.53100 11.19600 27.16300
C  1.19600 9.81000 27.24400
C  1.97900 12.88300 25.27700
C  1.62100 11.71400 28.51600
O  1.94900 12.80400 28.93700
C  1.20800 10.50300 29.39400
C  2.23200 10.21100 30.48700
O  3.30700 9.60300 30.44300
O  1.75400 10.86200 31.60900
C  2.44800 10.90200 32.89500
H  -0.66800 3.77800 28.23600
H  -0.25500 4.91000 21.92900
H  1.55200 11.02700 23.15900
H  1.30500 7.54500 30.65700
H  -0.89900 5.55300 30.26200
H  1.34500 3.94000 29.89200
H  0.66000 4.31200 31.38200
H  1.94300 5.46500 30.75500
H  -1.72200 7.33100 30.98400
H  -1.19400 8.82300 30.20000
H  -1.62600 8.59300 32.79900
H  -0.30700 9.58600 32.32800
H  -1.67300 1.45600 26.68000
H  -3.00100 2.22400 25.82500
H  -2.49400 2.84100 27.31600
H  -1.17500 0.40900 24.05100
H  -2.00700 0.51700 22.57000
H  -2.77600 1.29100 23.97300
H  -0.33700 7.02200 20.74200
H  1.71100 9.03200 20.89800
H  2.31600 5.89700 21.26300
H  2.38800 7.26700 20.03000
H  1.30100 5.77300 19.85900
H  -0.43100 9.33500 19.78900
H  0.04100 10.70200 20.58400
H  -1.66500 9.12500 22.45800
H  -2.36800 8.99600 20.79800
H  -2.18000 10.57200 21.56900
H  2.49100 13.53900 25.98100
H  1.09300 13.44300 24.98000
H  2.57900 12.86500 24.36800
H  0.26900 10.74500 29.89300
H  1.75500 10.68600 33.70800
H  2.90600 11.88500 33.00200
H  3.22700 10.14300 32.82400
Mg 37.12300 49.70700 24.73100
C  37.34000 48.07300 27.84000
C  35.65000 52.35900 26.43400
C  36.83200 51.33900 21.78300
C  38.02700 46.82700 23.08600
N  36.53600 50.05400 26.96700
C  36.87800 49.35300 28.05000
C  36.48000 49.98400 29.38600
C  35.85700 51.36300 28.81400
C  36.00600 51.29700 27.31100
C  34.49100 51.71100 29.34600
C  37.63900 50.10200 30.36000
C  37.59000 49.45000 31.76700
H  36.21900 49.69700 32.34300
N  36.40100 51.63200 24.16300
C  35.80800 52.56100 25.02000
C  35.51100 53.73400 24.20400
C  35.87100 53.45500 22.82900
C  36.46900 52.10500 22.89900
C  34.84000 54.97000 24.85600
C  35.64600 54.35700 21.56600
O  35.85800 53.91600 20.43100
C  35.04000 55.67000 21.80500
N  37.48200 49.16300 22.75000
C  37.29700 50.00600 21.73400
C  37.57800 49.34700 20.36100
C  37.92800 47.88200 20.78200
C  37.87200 48.00000 22.28000
C  36.38000 49.56500 19.30100
C  39.32600 47.40500 20.14100
C  40.58300 47.60500 21.06100
N  37.58300 47.77400 25.27600
C  37.97600 46.71300 24.48500
C  38.19400 45.59000 25.38300
C  37.96000 46.06700 26.66600
C  37.64100 47.39900 26.57500
C  38.62700 44.21800 24.95400
C  38.04800 45.72300 28.01700
O  38.38800 44.65900 28.54700
C  37.60400 47.00200 28.84500
C  36.34400 46.58500 29.55900
O  35.18400 46.52000 29.05700
O  36.75700 46.14100 30.86100
C  35.72200 45.45500 31.65300
H  35.23700 53.19900 26.99600
H  36.88600 51.91600 20.85800
H  38.48600 45.94900 22.62600
H  35.71700 49.34500 29.83000
H  36.47200 52.21700 29.09600
H  34.17300 50.93300 30.04100
H  33.78900 51.70300 28.51200
H  34.51300 52.64700 29.90300
H  37.73100 51.14900 30.64900
H  38.54000 49.66700 29.92600
H  38.44000 49.84200 32.32700
H  37.76000 48.40000 31.52800
H  35.13900 55.92600 24.42600
H  35.00400 54.96200 25.93400
H  33.79300 54.75100 24.64900
H  34.02500 55.55800 22.18600
H  34.93200 56.19000 20.85300
H  35.69300 56.19900 22.50000
H  38.45900 49.81400 19.92000
H  37.11200 47.21400 20.50900
H  35.53900 49.87600 19.92000
H  36.13500 48.62800 18.79900
H  36.58200 50.36800 18.59300
H  39.37400 47.92300 19.18300
H  39.27300 46.33100 19.95900
H  40.57300 48.39900 21.80800
H  41.37000 47.94700 20.38900
H  40.98000 46.66900 21.45300
H  38.12900 43.50000 25.60600
H  39.69700 44.04100 25.06200
H  38.28800 43.81400 24.00000
H  38.43300 47.12500 29.54200
H  35.15700 44.76300 31.02900
H  35.11000 46.18900 32.17800
H  36.24700 44.83000 32.37600

