158

Mg 25.06500 2.04800 29.83400
C  27.56100 2.11400 32.51100
C  22.73700 2.32900 32.01700
C  22.98400 1.97100 27.18800
C  27.82800 1.32900 27.60600
N  25.21200 2.33300 31.96700
C  26.21500 2.45100 32.88800
C  25.67300 2.48200 34.32000
C  24.16200 2.47300 34.04000
C  24.01100 2.35600 32.58200
C  23.39200 1.52400 34.97400
C  26.20800 3.72800 35.16600
C  26.91600 3.39900 36.48100
H  26.88200 4.39500 37.62900
N  23.08500 2.16800 29.62400
C  22.22900 2.29400 30.64600
C  20.85000 2.20300 30.16800
C  20.90500 1.95600 28.77500
C  22.38400 2.04700 28.46300
C  19.68600 2.15200 31.12100
C  19.80600 1.66600 27.73900
O  20.04400 1.51600 26.57400
C  18.44800 1.58200 28.06200
N  25.32500 1.66100 27.71100
C  24.32300 1.72900 26.79500
C  24.77500 1.54900 25.35200
C  26.31600 1.54500 25.56500
C  26.54400 1.48100 27.04800
C  24.10300 0.30300 24.61100
C  27.19300 2.57100 24.72200
C  27.82600 3.77600 25.47000
N  27.25100 1.78700 29.99800
C  28.11600 1.47700 29.00400
C  29.46600 1.39000 29.63300
C  29.25300 1.57000 30.99500
C  27.93100 1.94000 31.13600
C  30.77600 1.04800 28.96000
C  29.86900 1.53200 32.32400
O  31.05200 1.24300 32.69400
C  28.78100 1.95800 33.35400
C  28.68500 0.89900 34.41300
O  27.94100 -0.04100 34.41400
O  29.33800 1.38000 35.58000
C  29.04500 0.69600 36.80900
H  21.99000 2.47300 32.80100
H  22.30600 1.84000 26.34200
H  28.51200 1.01400 26.81600
H  25.91400 1.52800 34.78900
H  23.91000 3.48200 34.36700
H  22.60700 2.10800 35.45400
H  24.06800 1.05200 35.68700
H  22.93300 0.78100 34.32100
H  25.41900 4.44000 35.40800
H  26.94300 4.20700 34.51900
H  27.96900 3.30700 36.21400
H  26.50800 2.43100 36.77000
H  19.12300 1.22100 31.05000
H  18.93000 2.86100 30.78400
H  19.95900 2.27800 32.16900
H  18.44200 0.61600 28.56800
H  17.82100 1.55600 27.17000
H  18.00000 2.36500 28.67300
H  24.40800 2.49300 24.94900
H  26.69600 0.59500 25.19200
H  23.29700 -0.01300 25.27300
H  24.86300 -0.46800 24.48400
H  23.77500 0.76700 23.68100
H  26.55600 3.03400 23.96900
H  28.00100 2.12200 24.14500
H  28.88900 3.53800 25.51100
H  27.47000 3.88100 26.49500
H  27.74800 4.72600 24.94000
H  30.63500 1.14600 27.88400
H  31.07800 0.05000 29.27800
H  31.50800 1.82300 29.18900
H  29.09500 2.90600 33.79100
H  29.95000 0.35400 37.31200
H  28.34400 -0.13800 36.84200
H  28.55500 1.38500 37.49800
Mg 6.48800 54.23700 41.94000
C  5.75300 50.89700 41.31500
C  9.14800 54.04400 39.93200
C  6.55800 57.67300 41.90200
C  3.05600 54.59600 43.27700
N  7.10400 52.81400 40.39600
C  6.83200 51.45300 40.53600
C  7.74000 50.58600 39.66600
C  9.00600 51.46100 39.81500
C  8.41000 52.83900 39.93100
C  9.93600 51.00400 40.95900
C  7.33500 50.49900 38.20000
C  8.10500 49.33200 37.43500
H  7.35500 48.44700 36.44700
N  7.71800 55.66800 41.10400
C  8.78300 55.37900 40.26900
C  9.56800 56.54400 40.05800
C  8.88200 57.59500 40.63900
C  7.63800 57.06900 41.21900
C  10.97200 56.51600 39.56000
C  9.38100 59.10000 40.79500
O  10.42700 59.42000 40.31500
C  8.61400 60.07300 41.60600
N  4.94600 55.91000 42.36600
C  5.37300 57.18500 42.49600
C  4.33300 58.10200 43.16900
C  3.17400 57.11900 43.33500
C  3.69700 55.77600 42.94400
C  4.84400 58.77000 44.45200
C  1.94900 57.46300 42.50800
C  1.26300 58.87300 42.73900
N  4.76900 53.03100 42.34800
C  3.54300 53.30800 42.99900
C  2.93000 52.01200 43.28700
C  3.73800 51.03100 42.72800
C  4.89200 51.65400 42.12800
C  1.58800 51.80900 43.97300
C  3.91200 49.61100 42.48300
O  3.26900 48.64300 42.84800
C  5.24000 49.49800 41.41400
C  4.67300 48.99800 40.16300
O  3.91300 49.64400 39.40900
O  5.08000 47.71800 39.96500
C  4.55800 46.98900 38.83000
H  10.13000 53.85900 39.49100
H  6.44400 58.74700 42.06300
H  2.11800 54.73900 43.81600
H  7.74400 49.64700 40.21900
H  9.59300 51.43200 38.89700
H  9.65800 50.00700 41.30000
H  9.92000 51.69400 41.80300
H  10.98100 50.98400 40.65200
H  7.59100 51.45300 37.73900
H  6.24700 50.54600 38.16700
H  8.57000 48.65500 38.15200
H  8.89800 49.83400 36.88100
H  11.11800 55.71100 38.83900
H  11.67200 56.24800 40.35100
H  11.33400 57.45800 39.14600
H  9.05800 61.05300 41.43600
H  8.70100 59.73000 42.63700
H  7.56700 60.25400 41.36300
H  4.06300 58.90100 42.47800
H  2.90300 57.05000 44.38900
H  4.62700 58.20100 45.35600
H  4.37300 59.72700 44.67200
H  5.92500 58.87500 44.54400
H  1.21900 56.68400 42.72800
H  2.22800 57.39300 41.45700
H  1.38200 59.48000 41.84200
H  1.67000 59.38600 43.61100
H  0.22500 58.68200 43.01300
H  0.95400 52.64700 43.68300
H  1.82500 51.73400 45.03400
H  1.07100 50.90100 43.66200
H  5.99600 48.78200 41.73900
H  4.95600 47.25600 37.85100
H  3.47000 46.94900 38.78800
H  4.76800 45.92700 38.95900

