158

Mg 35.69300 0.47200 29.61100
C  33.60300 1.57000 32.20600
C  38.33400 0.45700 31.93400
C  37.89200 -0.26500 27.09100
C  33.31700 1.34300 27.35300
N  35.93700 1.01900 31.81500
C  34.88300 1.34300 32.63500
C  35.29000 1.18400 34.12400
C  36.88900 1.08900 33.99500
C  37.10900 0.82700 32.45800
C  37.54500 2.39600 34.58900
C  34.64100 0.01500 34.93300
C  34.03000 0.38000 36.32900
H  34.84000 1.38000 37.16400
N  37.76800 0.04900 29.56400
C  38.65300 0.14200 30.64600
C  39.91200 -0.35500 30.19200
C  39.80900 -0.69300 28.86700
C  38.44500 -0.36000 28.38500
C  41.18400 -0.53500 31.09800
C  40.81200 -1.24500 27.90200
O  40.65000 -1.51400 26.73300
C  42.17900 -1.59900 28.36400
N  35.66400 0.55400 27.44800
C  36.66500 0.15700 26.65600
C  36.21600 0.47300 25.19500
C  34.83300 1.21200 25.27100
C  34.52100 0.97100 26.77700
C  37.34700 1.37600 24.51300
C  33.80600 0.71300 24.30700
C  33.06500 1.82200 23.45300
N  33.78200 1.09300 29.67700
C  32.92500 1.38400 28.68300
C  31.66500 1.76100 29.26700
C  31.85100 1.86700 30.65300
C  33.19500 1.45000 30.87200
C  30.54300 2.01800 28.21700
C  31.22200 2.20900 31.88500
O  30.05200 2.55500 32.11400
C  32.35300 1.96400 32.97000
C  32.54000 3.25500 33.63600
O  33.39800 4.06400 33.37200
O  31.69300 3.36200 34.75200
C  31.93500 4.41000 35.74200
H  39.05700 0.36700 32.74800
H  38.59600 -0.62100 26.33600
H  32.69200 1.95900 26.70300
H  34.89600 2.06000 34.64000
H  37.36600 0.31300 34.59400
H  37.73400 3.13500 33.81100
H  38.47600 2.15500 35.10000
H  36.78200 3.02000 35.05400
H  35.51000 -0.60600 35.15200
H  33.93600 -0.53900 34.31200
H  34.03900 -0.61900 36.76600
H  32.95200 0.53000 36.27000
H  41.58900 -1.53500 30.94000
H  40.99400 -0.47100 32.17000
H  41.94200 0.18100 30.78500
H  41.98300 -2.38800 29.09000
H  42.59300 -0.66300 28.73800
H  42.84600 -1.98600 27.59400
H  36.14800 -0.39400 24.53800
H  34.77500 2.29200 25.13600
H  36.91300 2.24400 24.01500
H  37.89700 0.77500 23.78900
H  38.01100 1.73200 25.30000
H  33.03200 0.21100 24.88800
H  34.11800 -0.06800 23.61300
H  32.11100 2.00300 23.94800
H  32.89600 1.51200 22.42100
H  33.53500 2.80100 23.54600
H  30.56500 1.02200 27.77600
H  30.81400 2.75300 27.45800
H  29.52000 2.15300 28.56700
H  31.98900 1.25400 33.71200
H  31.54500 5.24400 35.15800
H  32.98500 4.59300 35.97400
H  31.32400 4.41400 36.64500
Mg -9.89700 39.60500 42.50900
C  -8.68700 36.52000 41.61400
C  -7.23200 41.11800 41.02300
C  -11.61100 42.60200 42.85000
C  -13.03800 37.91600 43.14700
N  -8.25100 38.86700 41.19600
C  -7.88100 37.56800 41.12300
C  -6.60200 37.39400 40.34000
C  -6.07900 38.87400 40.46300
C  -7.23800 39.71100 40.93900
C  -4.85000 38.99100 41.41800
C  -6.87400 36.85800 38.91400
C  -6.10500 35.50700 38.55500
H  -5.06400 35.59300 37.36800
N  -9.42000 41.63100 42.17400
C  -8.23100 42.01800 41.61000
C  -8.19700 43.43700 41.65400
C  -9.38700 43.91400 42.25100
C  -10.17200 42.68900 42.47800
C  -6.99900 44.24900 41.09700
C  -9.74700 45.42100 42.49500
O  -9.05800 46.37200 42.13900
C  -10.98300 45.76700 43.35100
N  -12.00200 40.18600 42.85900
C  -12.44000 41.48200 42.93900
C  -13.91500 41.56800 43.04700
C  -14.40400 40.07500 43.20300
C  -13.05800 39.35300 43.04100
C  -14.29100 42.44100 44.30300
C  -15.52100 39.51300 42.31400
C  -16.68900 38.94100 43.14100
N  -10.71800 37.65000 42.48300
C  -11.94600 37.11400 42.83800
C  -11.90700 35.70600 42.84100
C  -10.58300 35.38500 42.39000
C  -9.94900 36.59000 42.19000
C  -13.10300 34.77600 43.21000
C  -9.60000 34.33700 42.15700
O  -9.75500 33.09800 42.22300
C  -8.30400 34.98400 41.66600
C  -7.18600 34.69300 42.63000
O  -7.05000 35.23100 43.72100
O  -6.21900 33.82200 42.03600
C  -5.10000 33.63100 42.92800
H  -6.35500 41.66400 40.66900
H  -12.02800 43.60900 42.91300
H  -14.00500 37.42300 43.25900
H  -6.00200 36.68600 40.91300
H  -5.85900 39.22900 39.45700
H  -4.49000 37.96300 41.44000
H  -5.02900 39.44600 42.39300
H  -4.14200 39.57200 40.82700
H  -6.76300 37.54700 38.07700
H  -7.94000 36.65000 38.81400
H  -6.84100 34.74000 38.31500
H  -5.65000 34.96500 39.38400
H  -7.25800 45.27200 40.82200
H  -6.66500 43.82600 40.15000
H  -6.15300 44.37100 41.77400
H  -10.86200 46.76700 43.76700
H  -11.12700 45.01100 44.12300
H  -11.77500 45.68200 42.60700
H  -14.32400 41.98200 42.12600
H  -14.71500 39.91400 44.23500
H  -15.16000 42.03200 44.81900
H  -14.59400 43.45100 44.03000
H  -13.45500 42.40000 45.00200
H  -15.09800 38.63000 41.83600
H  -15.73900 40.31400 41.60700
H  -17.56200 39.11000 42.51100
H  -16.76200 39.40300 44.12600
H  -16.66800 37.85500 43.05300
H  -12.93600 34.31200 44.18200
H  -13.28100 33.93600 42.53900
H  -14.00000 35.39600 43.22500
H  -8.03200 34.65500 40.66400
H  -5.33800 33.02100 43.79900
H  -4.70100 34.58700 43.26900
H  -4.27000 33.17900 42.38400

